MODEL 1
REMARK VINA RESULT: -7.341746417      0.000      0.000
REMARK  11 active torsions:
REMARK  status: ('A' for Active; 'I' for Inactive)
REMARK    1  A    between atoms: N1_1  and  C1_4 
REMARK    2  A    between atoms: C2_8  and  O1_9 
REMARK    3  A    between atoms: O1_9  and  C3_10 
REMARK    4  A    between atoms: C3_10  and  C4_11 
REMARK    5  A    between atoms: C4_11  and  N3_12 
REMARK    6  A    between atoms: N3_12  and  C5_14 
REMARK    7  A    between atoms: C5_14  and  C6_15 
REMARK    8  A    between atoms: C6_15  and  N4_16 
REMARK    9  A    between atoms: C6_15  and  C7_20 
REMARK   10  A    between atoms: C13_27  and  N5_28 
REMARK   11  A    between atoms: N5_28  and  O2_30 
ROOT
HETATM    1  C4  UNL     1      -7.051  13.604 -20.560  1.00  0.00     0.082 C 
ENDROOT
BRANCH   1   2
HETATM    2  C3  UNL     1      -8.087  13.056 -21.456  1.00  0.00     0.220 C 
BRANCH   2   3
HETATM    3  O1  UNL     1      -9.403  13.249 -20.860  1.00  0.00    -0.336 OA
BRANCH   3   4
HETATM    4  C2  UNL     1     -10.080  12.100 -20.456  1.00  0.00     0.159 A 
HETATM    5  S1  UNL     1     -10.188  11.684 -18.752  1.00  0.00     0.015 SA
HETATM    6  N2  UNL     1     -11.084  10.272 -18.894  1.00  0.00    -0.309 N 
HETATM    7  C1  UNL     1     -11.280  10.138 -20.220  1.00  0.00     0.137 A 
ATOM      8  H2  UNL     1     -11.407   9.657 -18.148  1.00  0.00     0.176 HD
HETATM    9  C13 UNL     1     -10.753  11.097 -21.022  1.00  0.00     0.140 A 
BRANCH   7  10
HETATM   10  N1  UNL     1     -11.944   9.079 -20.620  1.00  0.00    -0.383 N 
ATOM     11  H12 UNL     1     -11.536   8.214 -20.972  1.00  0.00     0.157 HD
ATOM     12  H11 UNL     1     -12.962   9.121 -20.560  1.00  0.00     0.157 HD
ENDBRANCH   7  10
BRANCH   9  13
HETATM   13  N5  UNL     1     -10.922  11.054 -22.467  1.00  0.00    -0.262 N 
ATOM     14  H5  UNL     1     -10.093  11.090 -23.060  1.00  0.00     0.194 HD
BRANCH  13  15
HETATM   15  O2  UNL     1     -12.029  10.977 -22.997  1.00  0.00    -0.289 OA
ATOM     16  H2  UNL     1     -12.511  10.160 -23.050  1.00  0.00     0.244 HD
ENDBRANCH  13  15
ENDBRANCH   9  13
ENDBRANCH   3   4
ENDBRANCH   2   3
ENDBRANCH   1   2
BRANCH   1  17
HETATM   17  N3  UNL     1      -6.845  14.956 -20.390  1.00  0.00    -0.398 N 
ATOM     18  H3  UNL     1      -6.443  15.538 -21.126  1.00  0.00     0.158 HD
BRANCH  17  19
HETATM   19  C5  UNL     1      -7.233  15.505 -19.100  1.00  0.00     0.156 C 
BRANCH  19  20
HETATM   20  C6  UNL     1      -6.592  14.505 -18.074  1.00  0.00     0.235 C 
BRANCH  20  21
HETATM   21  N4  UNL     1      -5.329  15.211 -17.705  1.00  0.00    -0.069 N 
ATOM     22  H43 UNL     1      -4.739  15.483 -18.492  1.00  0.00     0.275 HD
ATOM     23  H42 UNL     1      -5.452  16.159 -17.349  1.00  0.00     0.275 HD
ATOM     24  H41 UNL     1      -4.905  14.554 -17.051  1.00  0.00     0.275 HD
ENDBRANCH  20  21
BRANCH  20  25
HETATM   25  C7  UNL     1      -7.475  14.472 -16.878  1.00  0.00    -0.005 A 
HETATM   26  C8  UNL     1      -8.108  15.561 -16.384  1.00  0.00     0.011 A 
HETATM   27  C9  UNL     1      -8.814  15.547 -15.219  1.00  0.00     0.001 A 
HETATM   28  C10 UNL     1      -8.863  14.321 -14.523  1.00  0.00     0.002 A 
HETATM   29  C11 UNL     1      -8.224  13.217 -15.025  1.00  0.00     0.024 A 
HETATM   30  C12 UNL     1      -7.509  13.237 -16.201  1.00  0.00     0.042 A 
HETATM   31 CL1  UNL     1      -6.732  11.821 -16.854  1.00  0.00    -0.084 Cl
ENDBRANCH  20  25
ENDBRANCH  19  20
ENDBRANCH  17  19
ENDBRANCH   1  17
TORSDOF 11
ENDMDL
MODEL 2
REMARK VINA RESULT: -6.954129147      4.793      6.055
REMARK  11 active torsions:
REMARK  status: ('A' for Active; 'I' for Inactive)
REMARK    1  A    between atoms: N1_1  and  C1_4 
REMARK    2  A    between atoms: C2_8  and  O1_9 
REMARK    3  A    between atoms: O1_9  and  C3_10 
REMARK    4  A    between atoms: C3_10  and  C4_11 
REMARK    5  A    between atoms: C4_11  and  N3_12 
REMARK    6  A    between atoms: N3_12  and  C5_14 
REMARK    7  A    between atoms: C5_14  and  C6_15 
REMARK    8  A    between atoms: C6_15  and  N4_16 
REMARK    9  A    between atoms: C6_15  and  C7_20 
REMARK   10  A    between atoms: C13_27  and  N5_28 
REMARK   11  A    between atoms: N5_28  and  O2_30 
ROOT
HETATM    1  C4  UNL     1      -6.798  16.358 -21.345  1.00  0.00     0.082 C 
ENDROOT
BRANCH   1   2
HETATM    2  C3  UNL     1      -6.332  17.622 -21.949  1.00  0.00     0.220 C 
BRANCH   2   3
HETATM    3  O1  UNL     1      -7.334  18.660 -21.744  1.00  0.00    -0.336 OA
BRANCH   3   4
HETATM    4  C2  UNL     1      -8.123  18.993 -22.844  1.00  0.00     0.159 A 
HETATM    5  S1  UNL     1      -7.381  19.348 -24.398  1.00  0.00     0.015 SA
HETATM    6  N2  UNL     1      -8.776  19.655 -25.278  1.00  0.00    -0.309 N 
HETATM    7  C1  UNL     1      -9.772  19.490 -24.386  1.00  0.00     0.137 A 
ATOM      8  H2  UNL     1      -8.852  19.908 -26.263  1.00  0.00     0.176 HD
HETATM    9  C13 UNL     1      -9.418  19.144 -23.123  1.00  0.00     0.140 A 
BRANCH   7  10
HETATM   10  N1  UNL     1     -10.995  19.699 -24.814  1.00  0.00    -0.383 N 
ATOM     11  H12 UNL     1     -11.354  20.572 -25.197  1.00  0.00     0.157 HD
ATOM     12  H11 UNL     1     -11.642  18.911 -24.773  1.00  0.00     0.157 HD
ENDBRANCH   7  10
BRANCH   9  13
HETATM   13  N5  UNL     1     -10.419  18.925 -22.089  1.00  0.00    -0.262 N 
ATOM     14  H5  UNL     1     -10.313  18.126 -21.464  1.00  0.00     0.194 HD
BRANCH  13  15
HETATM   15  O2  UNL     1     -11.387  19.668 -21.943  1.00  0.00    -0.289 OA
ATOM     16  H2  UNL     1     -11.858  19.734 -21.120  1.00  0.00     0.244 HD
ENDBRANCH  13  15
ENDBRANCH   9  13
ENDBRANCH   3   4
ENDBRANCH   2   3
ENDBRANCH   1   2
BRANCH   1  17
HETATM   17  N3  UNL     1      -6.403  15.934 -20.094  1.00  0.00    -0.398 N 
ATOM     18  H3  UNL     1      -5.421  15.906 -19.819  1.00  0.00     0.158 HD
BRANCH  17  19
HETATM   19  C5  UNL     1      -7.469  15.529 -19.191  1.00  0.00     0.156 C 
BRANCH  19  20
HETATM   20  C6  UNL     1      -6.750  14.543 -18.204  1.00  0.00     0.235 C 
BRANCH  20  21
HETATM   21  N4  UNL     1      -5.485  15.278 -17.904  1.00  0.00    -0.069 N 
ATOM     22  H43 UNL     1      -4.948  15.568 -18.721  1.00  0.00     0.275 HD
ATOM     23  H42 UNL     1      -5.609  16.219 -17.533  1.00  0.00     0.275 HD
ATOM     24  H41 UNL     1      -5.007  14.626 -17.280  1.00  0.00     0.275 HD
ENDBRANCH  20  21
BRANCH  20  25
HETATM   25  C7  UNL     1      -7.565  14.489 -16.962  1.00  0.00    -0.005 A 
HETATM   26  C8  UNL     1      -8.208  15.559 -16.441  1.00  0.00     0.011 A 
HETATM   27  C9  UNL     1      -8.849  15.530 -15.238  1.00  0.00     0.001 A 
HETATM   28  C10 UNL     1      -8.818  14.309 -14.533  1.00  0.00     0.002 A 
HETATM   29  C11 UNL     1      -8.169  13.224 -15.062  1.00  0.00     0.024 A 
HETATM   30  C12 UNL     1      -7.519  13.259 -16.276  1.00  0.00     0.042 A 
HETATM   31 CL1  UNL     1      -6.730  11.866 -16.962  1.00  0.00    -0.084 Cl
ENDBRANCH  20  25
ENDBRANCH  19  20
ENDBRANCH  17  19
ENDBRANCH   1  17
TORSDOF 11
ENDMDL
MODEL 3
REMARK VINA RESULT: -6.865942375      1.386      1.825
REMARK  11 active torsions:
REMARK  status: ('A' for Active; 'I' for Inactive)
REMARK    1  A    between atoms: N1_1  and  C1_4 
REMARK    2  A    between atoms: C2_8  and  O1_9 
REMARK    3  A    between atoms: O1_9  and  C3_10 
REMARK    4  A    between atoms: C3_10  and  C4_11 
REMARK    5  A    between atoms: C4_11  and  N3_12 
REMARK    6  A    between atoms: N3_12  and  C5_14 
REMARK    7  A    between atoms: C5_14  and  C6_15 
REMARK    8  A    between atoms: C6_15  and  N4_16 
REMARK    9  A    between atoms: C6_15  and  C7_20 
REMARK   10  A    between atoms: C13_27  and  N5_28 
REMARK   11  A    between atoms: N5_28  and  O2_30 
ROOT
HETATM    1  C4  UNL     1      -7.059  13.915 -20.975  1.00  0.00     0.082 C 
ENDROOT
BRANCH   1   2
HETATM    2  C3  UNL     1      -7.578  13.000 -22.011  1.00  0.00     0.220 C 
BRANCH   2   3
HETATM    3  O1  UNL     1      -9.035  13.030 -22.006  1.00  0.00    -0.336 OA
BRANCH   3   4
HETATM    4  C2  UNL     1      -9.682  11.891 -21.533  1.00  0.00     0.159 A 
HETATM    5  S1  UNL     1     -10.250  10.660 -22.653  1.00  0.00     0.015 SA
HETATM    6  N2  UNL     1     -10.905   9.590 -21.539  1.00  0.00    -0.309 N 
HETATM    7  C1  UNL     1     -10.690  10.181 -20.347  1.00  0.00     0.137 A 
ATOM      8  H2  UNL     1     -11.362   8.697 -21.721  1.00  0.00     0.176 HD
HETATM    9  C13 UNL     1     -10.051  11.377 -20.359  1.00  0.00     0.140 A 
BRANCH   7  10
HETATM   10  N1  UNL     1     -11.136   9.556 -19.283  1.00  0.00    -0.383 N 
ATOM     11  H12 UNL     1     -10.664   9.497 -18.382  1.00  0.00     0.157 HD
ATOM     12  H11 UNL     1     -12.046   9.102 -19.359  1.00  0.00     0.157 HD
ENDBRANCH   7  10
BRANCH   9  13
HETATM   13  N5  UNL     1      -9.756  12.090 -19.125  1.00  0.00    -0.262 N 
ATOM     14  H5  UNL     1      -8.834  12.510 -19.009  1.00  0.00     0.194 HD
BRANCH  13  15
HETATM   15  O2  UNL     1     -10.578  12.204 -18.218  1.00  0.00    -0.289 OA
ATOM     16  H2  UNL     1     -11.027  11.456 -17.842  1.00  0.00     0.244 HD
ENDBRANCH  13  15
ENDBRANCH   9  13
ENDBRANCH   3   4
ENDBRANCH   2   3
ENDBRANCH   1   2
BRANCH   1  17
HETATM   17  N3  UNL     1      -7.868  14.767 -20.254  1.00  0.00    -0.398 N 
ATOM     18  H3  UNL     1      -8.873  14.824 -20.417  1.00  0.00     0.158 HD
BRANCH  17  19
HETATM   19  C5  UNL     1      -7.203  15.579 -19.247  1.00  0.00     0.156 C 
BRANCH  19  20
HETATM   20  C6  UNL     1      -6.558  14.513 -18.292  1.00  0.00     0.235 C 
BRANCH  20  21
HETATM   21  N4  UNL     1      -5.267  15.170 -17.928  1.00  0.00    -0.069 N 
ATOM     22  H43 UNL     1      -5.353  16.111 -17.542  1.00  0.00     0.275 HD
ATOM     23  H42 UNL     1      -4.796  14.777 -17.114  1.00  0.00     0.275 HD
ATOM     24  H41 UNL     1      -4.745  15.107 -18.802  1.00  0.00     0.275 HD
ENDBRANCH  20  21
BRANCH  20  25
HETATM   25  C7  UNL     1      -7.405  14.442 -17.072  1.00  0.00    -0.005 A 
HETATM   26  C8  UNL     1      -7.978  15.522 -16.494  1.00  0.00     0.011 A 
HETATM   27  C9  UNL     1      -8.649  15.464 -15.309  1.00  0.00     0.001 A 
HETATM   28  C10 UNL     1      -8.728  14.201 -14.687  1.00  0.00     0.002 A 
HETATM   29  C11 UNL     1      -8.150  13.106 -15.275  1.00  0.00     0.024 A 
HETATM   30  C12 UNL     1      -7.470  13.170 -16.470  1.00  0.00     0.042 A 
HETATM   31 CL1  UNL     1      -6.771  11.767 -17.232  1.00  0.00    -0.084 Cl
ENDBRANCH  20  25
ENDBRANCH  19  20
ENDBRANCH  17  19
ENDBRANCH   1  17
TORSDOF 11
ENDMDL
MODEL 4
REMARK VINA RESULT: -6.836091408      4.744      5.997
REMARK  11 active torsions:
REMARK  status: ('A' for Active; 'I' for Inactive)
REMARK    1  A    between atoms: N1_1  and  C1_4 
REMARK    2  A    between atoms: C2_8  and  O1_9 
REMARK    3  A    between atoms: O1_9  and  C3_10 
REMARK    4  A    between atoms: C3_10  and  C4_11 
REMARK    5  A    between atoms: C4_11  and  N3_12 
REMARK    6  A    between atoms: N3_12  and  C5_14 
REMARK    7  A    between atoms: C5_14  and  C6_15 
REMARK    8  A    between atoms: C6_15  and  N4_16 
REMARK    9  A    between atoms: C6_15  and  C7_20 
REMARK   10  A    between atoms: C13_27  and  N5_28 
REMARK   11  A    between atoms: N5_28  and  O2_30 
ROOT
HETATM    1  C4  UNL     1      -6.043  16.779 -21.151  1.00  0.00     0.082 C 
ENDROOT
BRANCH   1   2
HETATM    2  C3  UNL     1      -7.425  17.089 -21.566  1.00  0.00     0.220 C 
BRANCH   2   3
HETATM    3  O1  UNL     1      -7.551  18.518 -21.822  1.00  0.00    -0.336 OA
BRANCH   3   4
HETATM    4  C2  UNL     1      -8.728  18.941 -22.437  1.00  0.00     0.159 A 
HETATM    5  S1  UNL     1     -10.191  19.177 -21.492  1.00  0.00     0.015 SA
HETATM    6  N2  UNL     1     -11.212  19.670 -22.729  1.00  0.00    -0.309 N 
HETATM    7  C1  UNL     1     -10.435  19.643 -23.829  1.00  0.00     0.137 A 
ATOM      8  H2  UNL     1     -12.196  19.930 -22.663  1.00  0.00     0.176 HD
HETATM    9  C13 UNL     1      -9.144  19.263 -23.663  1.00  0.00     0.140 A 
BRANCH   7  10
HETATM   10  N1  UNL     1     -11.002  19.966 -24.967  1.00  0.00    -0.383 N 
ATOM     11  H12 UNL     1     -10.620  20.600 -25.668  1.00  0.00     0.157 HD
ATOM     12  H11 UNL     1     -11.900  19.530 -25.178  1.00  0.00     0.157 HD
ENDBRANCH   7  10
BRANCH   9  13
HETATM   13  N5  UNL     1      -8.217  19.217 -24.784  1.00  0.00    -0.262 N 
ATOM     14  H5  UNL     1      -7.907  18.308 -25.129  1.00  0.00     0.194 HD
BRANCH  13  15
HETATM   15  O2  UNL     1      -7.795  20.234 -25.331  1.00  0.00    -0.289 OA
ATOM     16  H2  UNL     1      -8.352  20.800 -25.851  1.00  0.00     0.244 HD
ENDBRANCH  13  15
ENDBRANCH   9  13
ENDBRANCH   3   4
ENDBRANCH   2   3
ENDBRANCH   1   2
BRANCH   1  17
HETATM   17  N3  UNL     1      -5.746  15.964 -20.080  1.00  0.00    -0.398 N 
ATOM     18  H3  UNL     1      -4.788  15.695 -19.855  1.00  0.00     0.158 HD
BRANCH  17  19
HETATM   19  C5  UNL     1      -6.879  15.512 -19.288  1.00  0.00     0.156 C 
BRANCH  19  20
HETATM   20  C6  UNL     1      -6.234  14.491 -18.285  1.00  0.00     0.235 C 
BRANCH  20  21
HETATM   21  N4  UNL     1      -4.991  15.210 -17.874  1.00  0.00    -0.069 N 
ATOM     22  H43 UNL     1      -4.196  14.609 -17.655  1.00  0.00     0.275 HD
ATOM     23  H42 UNL     1      -4.521  15.722 -18.619  1.00  0.00     0.275 HD
ATOM     24  H41 UNL     1      -5.327  15.782 -17.099  1.00  0.00     0.275 HD
ENDBRANCH  20  21
BRANCH  20  25
HETATM   25  C7  UNL     1      -7.135  14.403 -17.105  1.00  0.00    -0.005 A 
HETATM   26  C8  UNL     1      -7.591  15.481 -16.428  1.00  0.00     0.011 A 
HETATM   27  C9  UNL     1      -8.312  15.387 -15.276  1.00  0.00     0.001 A 
HETATM   28  C10 UNL     1      -8.576  14.086 -14.798  1.00  0.00     0.002 A 
HETATM   29  C11 UNL     1      -8.116  12.993 -15.486  1.00  0.00     0.024 A 
HETATM   30  C12 UNL     1      -7.384  13.094 -16.648  1.00  0.00     0.042 A 
HETATM   31 CL1  UNL     1      -6.836  11.700 -17.538  1.00  0.00    -0.084 Cl
ENDBRANCH  20  25
ENDBRANCH  19  20
ENDBRANCH  17  19
ENDBRANCH   1  17
TORSDOF 11
ENDMDL
MODEL 5
REMARK VINA RESULT: -6.809851038      3.265      5.970
REMARK  11 active torsions:
REMARK  status: ('A' for Active; 'I' for Inactive)
REMARK    1  A    between atoms: N1_1  and  C1_4 
REMARK    2  A    between atoms: C2_8  and  O1_9 
REMARK    3  A    between atoms: O1_9  and  C3_10 
REMARK    4  A    between atoms: C3_10  and  C4_11 
REMARK    5  A    between atoms: C4_11  and  N3_12 
REMARK    6  A    between atoms: N3_12  and  C5_14 
REMARK    7  A    between atoms: C5_14  and  C6_15 
REMARK    8  A    between atoms: C6_15  and  N4_16 
REMARK    9  A    between atoms: C6_15  and  C7_20 
REMARK   10  A    between atoms: C13_27  and  N5_28 
REMARK   11  A    between atoms: N5_28  and  O2_30 
ROOT
HETATM    1  C4  UNL     1      -7.025  10.659 -20.399  1.00  0.00     0.082 C 
ENDROOT
BRANCH   1   2
HETATM    2  C3  UNL     1      -5.954  11.510 -20.954  1.00  0.00     0.220 C 
BRANCH   2   3
HETATM    3  O1  UNL     1      -5.058  11.929 -19.884  1.00  0.00    -0.336 OA
BRANCH   3   4
HETATM    4  C2  UNL     1      -4.864  13.301 -19.732  1.00  0.00     0.159 A 
HETATM    5  S1  UNL     1      -6.129  14.434 -20.186  1.00  0.00     0.015 SA
HETATM    6  N2  UNL     1      -5.343  15.861 -19.785  1.00  0.00    -0.309 N 
HETATM    7  C1  UNL     1      -4.143  15.459 -19.323  1.00  0.00     0.137 A 
ATOM      8  H2  UNL     1      -5.694  16.815 -19.871  1.00  0.00     0.176 HD
HETATM    9  C13 UNL     1      -3.908  14.124 -19.300  1.00  0.00     0.140 A 
BRANCH   7  10
HETATM   10  N1  UNL     1      -3.302  16.396 -18.956  1.00  0.00    -0.383 N 
ATOM     11  H12 UNL     1      -2.321  16.459 -19.227  1.00  0.00     0.157 HD
ATOM     12  H11 UNL     1      -3.666  17.139 -18.359  1.00  0.00     0.157 HD
ENDBRANCH   7  10
BRANCH   9  13
HETATM   13  N5  UNL     1      -2.650  13.585 -18.803  1.00  0.00    -0.262 N 
ATOM     14  H5  UNL     1      -2.021  13.123 -19.459  1.00  0.00     0.194 HD
BRANCH  13  15
HETATM   15  O2  UNL     1      -2.320  13.668 -17.622  1.00  0.00    -0.289 OA
ATOM     16  H2  UNL     1      -1.846  12.975 -17.177  1.00  0.00     0.244 HD
ENDBRANCH  13  15
ENDBRANCH   9  13
ENDBRANCH   3   4
ENDBRANCH   2   3
ENDBRANCH   1   2
BRANCH   1  17
HETATM   17  N3  UNL     1      -8.233  11.161 -19.965  1.00  0.00    -0.398 N 
ATOM     18  H3  UNL     1      -9.000  11.355 -20.610  1.00  0.00     0.158 HD
BRANCH  17  19
HETATM   19  C5  UNL     1      -8.350  11.399 -18.535  1.00  0.00     0.156 C 
BRANCH  19  20
HETATM   20  C6  UNL     1      -9.267  12.670 -18.454  1.00  0.00     0.235 C 
BRANCH  20  21
HETATM   21  N4  UNL     1     -10.613  12.063 -18.233  1.00  0.00    -0.069 N 
ATOM     22  H43 UNL     1     -11.316  12.299 -18.934  1.00  0.00     0.275 HD
ATOM     23  H42 UNL     1     -10.664  11.056 -18.384  1.00  0.00     0.275 HD
ATOM     24  H41 UNL     1     -10.828  12.370 -17.284  1.00  0.00     0.275 HD
ENDBRANCH  20  21
BRANCH  20  25
HETATM   25  C7  UNL     1      -8.882  13.414 -17.225  1.00  0.00    -0.005 A 
HETATM   26  C8  UNL     1      -8.588  12.816 -16.048  1.00  0.00     0.011 A 
HETATM   27  C9  UNL     1      -8.359  13.508 -14.898  1.00  0.00     0.001 A 
HETATM   28  C10 UNL     1      -8.442  14.914 -14.977  1.00  0.00     0.002 A 
HETATM   29  C11 UNL     1      -8.737  15.521 -16.170  1.00  0.00     0.024 A 
HETATM   30  C12 UNL     1      -8.972  14.816 -17.330  1.00  0.00     0.042 A 
HETATM   31 CL1  UNL     1      -9.309  15.594 -18.852  1.00  0.00    -0.084 Cl
ENDBRANCH  20  25
ENDBRANCH  19  20
ENDBRANCH  17  19
ENDBRANCH   1  17
TORSDOF 11
ENDMDL
