MODEL 1
REMARK VINA RESULT: -8.561150944      0.000      0.000
REMARK  14 active torsions:
REMARK  status: ('A' for Active; 'I' for Inactive)
REMARK    1  A    between atoms: N1_1  and  C1_5 
REMARK    2  A    between atoms: C1_5  and  C2_6 
REMARK    3  A    between atoms: C2_6  and  O1_7 
REMARK    4  A    between atoms: O1_7  and  C3_8 
REMARK    5  A    between atoms: C3_8  and  C4_9 
REMARK    6  A    between atoms: C4_9  and  N2_10 
REMARK    7  A    between atoms: C6_16  and  N5_17 
REMARK    8  A    between atoms: C11_26  and  C12_27 
REMARK    9  A    between atoms: C12_27  and  N8_28 
REMARK   10  A    between atoms: N8_28  and  C13_30 
REMARK   11  A    between atoms: C16_33  and  P1_34 
REMARK   12  A    between atoms: P1_34  and  O3_35 
REMARK   13  A    between atoms: P1_34  and  O4_37 
REMARK   14  A    between atoms: O4_37  and  O5_38 
ROOT
HETATM    1  C3  UNL     1     114.060  76.549   4.145  1.00  0.00     0.090 C 
HETATM    2  C8  UNL     1     115.270  77.427   4.344  1.00  0.00     0.067 C 
HETATM    3  C9  UNL     1     115.837  77.415   5.719  1.00  0.00     0.170 C 
HETATM    4  O2  UNL     1     114.887  77.411   6.744  1.00  0.00    -0.390 OA
HETATM    5  C10 UNL     1     114.038  76.318   6.637  1.00  0.00     0.180 C 
HETATM    6  C11 UNL     1     113.221  76.577   5.365  1.00  0.00     0.084 C 
ENDROOT
BRANCH   1   7
HETATM    7  O1  UNL     1     113.329  77.094   3.075  1.00  0.00    -0.376 OA
BRANCH   7   8
HETATM    8  C2  UNL     1     113.994  78.028   2.340  1.00  0.00     0.196 C 
BRANCH   8   9
HETATM    9  C1  UNL     1     114.266  77.532   0.912  1.00  0.00     0.255 C 
BRANCH   9  10
HETATM   10  N1  UNL     1     113.130  77.006   0.282  1.00  0.00    -0.077 N 
ATOM     11  H13 UNL     1     112.989  76.030   0.545  1.00  0.00     0.274 HD
ATOM     12  H12 UNL     1     112.279  77.410   0.673  1.00  0.00     0.274 HD
ATOM     13  H11 UNL     1     113.147  77.109  -0.732  1.00  0.00     0.274 HD
ENDBRANCH   9  10
ENDBRANCH   8   9
ENDBRANCH   7   8
ENDBRANCH   1   7
BRANCH   1  14
HETATM   14  C4  UNL     1     114.535  75.160   3.813  1.00  0.00     0.187 C 
BRANCH  14  15
HETATM   15  N2  UNL     1     113.873  74.449   2.787  1.00  0.00    -0.174 N 
HETATM   16  C5  UNL     1     114.323  73.878   1.631  1.00  0.00     0.218 A 
HETATM   17  N3  UNL     1     113.341  73.253   0.970  1.00  0.00    -0.281 N 
HETATM   18  N4  UNL     1     112.261  73.399   1.658  1.00  0.00    -0.131 N 
ATOM     19  H3  UNL     1     113.431  72.753   0.085  1.00  0.00     0.188 HD
HETATM   20  C6  UNL     1     112.533  74.118   2.768  1.00  0.00     0.702 A 
ATOM     21  H4  UNL     1     111.344  73.029   1.404  1.00  0.00     0.205 HD
BRANCH  20  22
HETATM   22  N5  UNL     1     111.564  74.516   3.720  1.00  0.00    -0.164 N 
HETATM   23  C7  UNL     1     110.813  73.681   4.317  1.00  0.00     0.215 C 
HETATM   24  N6  UNL     1     110.914  72.301   4.055  1.00  0.00    -0.066 NA
HETATM   25  N7  UNL     1     109.840  74.133   5.280  1.00  0.00    -0.066 NA
ATOM     26  H5  UNL     1     111.465  75.508   3.936  1.00  0.00     0.186 HD
ENDBRANCH  20  22
ENDBRANCH  14  15
ENDBRANCH   1  14
BRANCH   6  27
HETATM   27  C12 UNL     1     112.301  77.682   5.594  1.00  0.00     0.071 C 
BRANCH  27  28
HETATM   28  N8  UNL     1     111.120  77.561   6.358  1.00  0.00    -0.369 N 
ATOM     29  H8  UNL     1     110.355  76.981   6.014  1.00  0.00     0.165 HD
BRANCH  28  30
HETATM   30  C13 UNL     1     110.981  78.258   7.637  1.00  0.00     0.031 A 
HETATM   31  C14 UNL     1     109.719  78.599   8.046  1.00  0.00     0.030 A 
HETATM   32  C15 UNL     1     109.584  79.262   9.255  1.00  0.00     0.019 A 
HETATM   33  C16 UNL     1     110.688  79.567  10.022  1.00  0.00     0.025 A 
HETATM   34  C17 UNL     1     111.949  79.209   9.584  1.00  0.00     0.019 A 
HETATM   35  C18 UNL     1     112.071  78.556   8.391  1.00  0.00     0.030 A 
BRANCH  33  36
HETATM   36  P1  UNL     1     110.507  80.439  11.614  1.00  0.00     0.239 P 
BRANCH  36  37
HETATM   37  O3  UNL     1     111.889  80.062  12.629  1.00  0.00    -0.344 OA
ATOM     38  H3  UNL     1     112.622  79.824  12.074  1.00  0.00     0.217 HD
ENDBRANCH  36  37
BRANCH  36  39
HETATM   39  O4  UNL     1     109.041  80.056  12.411  1.00  0.00    -0.181 OA
BRANCH  39  40
HETATM   40  O5  UNL     1     109.167  79.982  13.717  1.00  0.00    -0.244 OA
ATOM     41  H5  UNL     1     109.015  79.108  14.058  1.00  0.00     0.254 HD
ENDBRANCH  39  40
ENDBRANCH  36  39
ENDBRANCH  33  36
ENDBRANCH  28  30
ENDBRANCH  27  28
ENDBRANCH   6  27
TORSDOF 14
ENDMDL
MODEL 2
REMARK VINA RESULT: -8.368258869      1.782      3.463
REMARK  14 active torsions:
REMARK  status: ('A' for Active; 'I' for Inactive)
REMARK    1  A    between atoms: N1_1  and  C1_5 
REMARK    2  A    between atoms: C1_5  and  C2_6 
REMARK    3  A    between atoms: C2_6  and  O1_7 
REMARK    4  A    between atoms: O1_7  and  C3_8 
REMARK    5  A    between atoms: C3_8  and  C4_9 
REMARK    6  A    between atoms: C4_9  and  N2_10 
REMARK    7  A    between atoms: C6_16  and  N5_17 
REMARK    8  A    between atoms: C11_26  and  C12_27 
REMARK    9  A    between atoms: C12_27  and  N8_28 
REMARK   10  A    between atoms: N8_28  and  C13_30 
REMARK   11  A    between atoms: C16_33  and  P1_34 
REMARK   12  A    between atoms: P1_34  and  O3_35 
REMARK   13  A    between atoms: P1_34  and  O4_37 
REMARK   14  A    between atoms: O4_37  and  O5_38 
ROOT
HETATM    1  C3  UNL     1     112.625  75.654   5.421  1.00  0.00     0.090 C 
HETATM    2  C8  UNL     1     112.453  76.734   4.382  1.00  0.00     0.067 C 
HETATM    3  C9  UNL     1     113.678  77.521   4.084  1.00  0.00     0.170 C 
HETATM    4  O2  UNL     1     114.455  77.841   5.200  1.00  0.00    -0.390 OA
HETATM    5  C10 UNL     1     114.853  76.698   5.880  1.00  0.00     0.180 C 
HETATM    6  C11 UNL     1     113.561  76.120   6.470  1.00  0.00     0.084 C 
ENDROOT
BRANCH   1   7
HETATM    7  O1  UNL     1     111.362  75.436   5.999  1.00  0.00    -0.376 OA
BRANCH   7   8
HETATM    8  C2  UNL     1     110.393  76.313   5.614  1.00  0.00     0.196 C 
BRANCH   8   9
HETATM    9  C1  UNL     1     109.013  75.643   5.570  1.00  0.00     0.255 C 
BRANCH   9  10
HETATM   10  N1  UNL     1     108.254  76.007   4.450  1.00  0.00    -0.077 N 
ATOM     11  H13 UNL     1     108.857  76.341   3.697  1.00  0.00     0.274 HD
ATOM     12  H12 UNL     1     107.860  75.182   3.996  1.00  0.00     0.274 HD
ATOM     13  H11 UNL     1     107.524  76.688   4.660  1.00  0.00     0.274 HD
ENDBRANCH   9  10
ENDBRANCH   8   9
ENDBRANCH   7   8
ENDBRANCH   1   7
BRANCH   1  14
HETATM   14  C4  UNL     1     113.118  74.410   4.732  1.00  0.00     0.187 C 
BRANCH  14  15
HETATM   15  N2  UNL     1     112.245  73.740   3.846  1.00  0.00    -0.174 N 
HETATM   16  C5  UNL     1     111.144  72.961   4.059  1.00  0.00     0.218 A 
HETATM   17  N3  UNL     1     110.583  72.567   2.909  1.00  0.00    -0.281 N 
HETATM   18  N4  UNL     1     111.285  73.063   1.949  1.00  0.00    -0.131 N 
ATOM     19  H3  UNL     1     109.752  71.981   2.811  1.00  0.00     0.188 HD
HETATM   20  C6  UNL     1     112.304  73.782   2.467  1.00  0.00     0.702 A 
ATOM     21  H4  UNL     1     111.100  72.934   0.954  1.00  0.00     0.205 HD
BRANCH  20  22
HETATM   22  N5  UNL     1     113.307  74.418   1.697  1.00  0.00    -0.164 N 
HETATM   23  C7  UNL     1     114.248  73.771   1.138  1.00  0.00     0.215 C 
HETATM   24  N6  UNL     1     114.336  72.370   1.260  1.00  0.00    -0.066 NA
HETATM   25  N7  UNL     1     115.248  74.461   0.363  1.00  0.00    -0.066 NA
ATOM     26  H5  UNL     1     113.273  75.432   1.586  1.00  0.00     0.186 HD
ENDBRANCH  20  22
ENDBRANCH  14  15
ENDBRANCH   1  14
BRANCH   6  27
HETATM   27  C12 UNL     1     113.086  76.985   7.541  1.00  0.00     0.071 C 
BRANCH  27  28
HETATM   28  N8  UNL     1     113.688  78.221   7.863  1.00  0.00    -0.369 N 
ATOM     29  H8  UNL     1     114.522  78.522   7.358  1.00  0.00     0.165 HD
BRANCH  28  30
HETATM   30  C13 UNL     1     113.131  79.074   8.913  1.00  0.00     0.031 A 
HETATM   31  C14 UNL     1     114.007  79.757   9.715  1.00  0.00     0.030 A 
HETATM   32  C15 UNL     1     113.483  80.563  10.712  1.00  0.00     0.019 A 
HETATM   33  C16 UNL     1     112.120  80.674  10.890  1.00  0.00     0.025 A 
HETATM   34  C17 UNL     1     111.261  79.973  10.065  1.00  0.00     0.019 A 
HETATM   35  C18 UNL     1     111.788  79.181   9.085  1.00  0.00     0.030 A 
BRANCH  33  36
HETATM   36  P1  UNL     1     111.433  81.736  12.203  1.00  0.00     0.239 P 
BRANCH  36  37
HETATM   37  O3  UNL     1     112.708  82.126  13.344  1.00  0.00    -0.344 OA
ATOM     38  H3  UNL     1     112.337  82.172  14.217  1.00  0.00     0.217 HD
ENDBRANCH  36  37
BRANCH  36  39
HETATM   39  O4  UNL     1     110.099  81.018  12.999  1.00  0.00    -0.181 OA
BRANCH  39  40
HETATM   40  O5  UNL     1     110.348  79.801  13.431  1.00  0.00    -0.244 OA
ATOM     41  H5  UNL     1     110.274  79.717  14.374  1.00  0.00     0.254 HD
ENDBRANCH  39  40
ENDBRANCH  36  39
ENDBRANCH  33  36
ENDBRANCH  28  30
ENDBRANCH  27  28
ENDBRANCH   6  27
TORSDOF 14
ENDMDL
MODEL 3
REMARK VINA RESULT: -8.237464880      1.802      3.470
REMARK  14 active torsions:
REMARK  status: ('A' for Active; 'I' for Inactive)
REMARK    1  A    between atoms: N1_1  and  C1_5 
REMARK    2  A    between atoms: C1_5  and  C2_6 
REMARK    3  A    between atoms: C2_6  and  O1_7 
REMARK    4  A    between atoms: O1_7  and  C3_8 
REMARK    5  A    between atoms: C3_8  and  C4_9 
REMARK    6  A    between atoms: C4_9  and  N2_10 
REMARK    7  A    between atoms: C6_16  and  N5_17 
REMARK    8  A    between atoms: C11_26  and  C12_27 
REMARK    9  A    between atoms: C12_27  and  N8_28 
REMARK   10  A    between atoms: N8_28  and  C13_30 
REMARK   11  A    between atoms: C16_33  and  P1_34 
REMARK   12  A    between atoms: P1_34  and  O3_35 
REMARK   13  A    between atoms: P1_34  and  O4_37 
REMARK   14  A    between atoms: O4_37  and  O5_38 
ROOT
HETATM    1  C3  UNL     1     112.678  75.619   5.386  1.00  0.00     0.090 C 
HETATM    2  C8  UNL     1     112.522  76.760   4.412  1.00  0.00     0.067 C 
HETATM    3  C9  UNL     1     113.759  77.545   4.158  1.00  0.00     0.170 C 
HETATM    4  O2  UNL     1     114.540  77.788   5.291  1.00  0.00    -0.390 OA
HETATM    5  C10 UNL     1     114.921  76.602   5.903  1.00  0.00     0.180 C 
HETATM    6  C11 UNL     1     113.620  76.011   6.460  1.00  0.00     0.084 C 
ENDROOT
BRANCH   1   7
HETATM    7  O1  UNL     1     111.412  75.387   5.952  1.00  0.00    -0.376 OA
BRANCH   7   8
HETATM    8  C2  UNL     1     110.439  76.258   5.564  1.00  0.00     0.196 C 
BRANCH   8   9
HETATM    9  C1  UNL     1     109.057  75.590   5.555  1.00  0.00     0.255 C 
BRANCH   9  10
HETATM   10  N1  UNL     1     108.290  75.916   4.429  1.00  0.00    -0.077 N 
ATOM     11  H13 UNL     1     108.792  75.690   3.570  1.00  0.00     0.274 HD
ATOM     12  H12 UNL     1     107.498  75.280   4.334  1.00  0.00     0.274 HD
ATOM     13  H11 UNL     1     107.977  76.887   4.420  1.00  0.00     0.274 HD
ENDBRANCH   9  10
ENDBRANCH   8   9
ENDBRANCH   7   8
ENDBRANCH   1   7
BRANCH   1  14
HETATM   14  C4  UNL     1     113.153  74.410   4.626  1.00  0.00     0.187 C 
BRANCH  14  15
HETATM   15  N2  UNL     1     112.237  73.742   3.783  1.00  0.00    -0.174 N 
HETATM   16  C5  UNL     1     111.152  72.956   4.049  1.00  0.00     0.218 A 
HETATM   17  N3  UNL     1     110.532  72.567   2.928  1.00  0.00    -0.281 N 
HETATM   18  N4  UNL     1     111.180  73.073   1.935  1.00  0.00    -0.131 N 
ATOM     19  H3  UNL     1     109.700  71.979   2.871  1.00  0.00     0.188 HD
HETATM   20  C6  UNL     1     112.222  73.793   2.404  1.00  0.00     0.702 A 
ATOM     21  H4  UNL     1     110.943  72.949   0.951  1.00  0.00     0.205 HD
BRANCH  20  22
HETATM   22  N5  UNL     1     113.180  74.439   1.585  1.00  0.00    -0.164 N 
HETATM   23  C7  UNL     1     114.118  73.805   1.005  1.00  0.00     0.215 C 
HETATM   24  N6  UNL     1     114.247  72.410   1.152  1.00  0.00    -0.066 NA
HETATM   25  N7  UNL     1     115.071  74.504   0.181  1.00  0.00    -0.066 NA
ATOM     26  H5  UNL     1     113.116  75.449   1.456  1.00  0.00     0.186 HD
ENDBRANCH  20  22
ENDBRANCH  14  15
ENDBRANCH   1  14
BRANCH   6  27
HETATM   27  C12 UNL     1     113.158  76.819   7.579  1.00  0.00     0.071 C 
BRANCH  27  28
HETATM   28  N8  UNL     1     112.566  78.090   7.424  1.00  0.00    -0.369 N 
ATOM     29  H8  UNL     1     112.365  78.442   6.487  1.00  0.00     0.165 HD
BRANCH  28  30
HETATM   30  C13 UNL     1     112.236  78.910   8.589  1.00  0.00     0.031 A 
HETATM   31  C14 UNL     1     113.271  79.448   9.307  1.00  0.00     0.030 A 
HETATM   32  C15 UNL     1     112.963  80.222  10.414  1.00  0.00     0.019 A 
HETATM   33  C16 UNL     1     111.652  80.444  10.779  1.00  0.00     0.025 A 
HETATM   34  C17 UNL     1     110.629  79.890  10.035  1.00  0.00     0.019 A 
HETATM   35  C18 UNL     1     110.944  79.128   8.947  1.00  0.00     0.030 A 
BRANCH  33  36
HETATM   36  P1  UNL     1     111.249  81.465  12.236  1.00  0.00     0.239 P 
BRANCH  36  37
HETATM   37  O3  UNL     1     109.953  80.691  13.131  1.00  0.00    -0.344 OA
ATOM     38  H3  UNL     1     109.192  81.259  13.125  1.00  0.00     0.217 HD
ENDBRANCH  36  37
BRANCH  36  39
HETATM   39  O4  UNL     1     110.829  83.071  11.818  1.00  0.00    -0.181 OA
BRANCH  39  40
HETATM   40  O5  UNL     1     110.915  83.907  12.830  1.00  0.00    -0.244 OA
ATOM     41  H5  UNL     1     110.436  83.615  13.597  1.00  0.00     0.254 HD
ENDBRANCH  39  40
ENDBRANCH  36  39
ENDBRANCH  33  36
ENDBRANCH  28  30
ENDBRANCH  27  28
ENDBRANCH   6  27
TORSDOF 14
ENDMDL
MODEL 4
REMARK VINA RESULT: -8.219035151      1.698      3.414
REMARK  14 active torsions:
REMARK  status: ('A' for Active; 'I' for Inactive)
REMARK    1  A    between atoms: N1_1  and  C1_5 
REMARK    2  A    between atoms: C1_5  and  C2_6 
REMARK    3  A    between atoms: C2_6  and  O1_7 
REMARK    4  A    between atoms: O1_7  and  C3_8 
REMARK    5  A    between atoms: C3_8  and  C4_9 
REMARK    6  A    between atoms: C4_9  and  N2_10 
REMARK    7  A    between atoms: C6_16  and  N5_17 
REMARK    8  A    between atoms: C11_26  and  C12_27 
REMARK    9  A    between atoms: C12_27  and  N8_28 
REMARK   10  A    between atoms: N8_28  and  C13_30 
REMARK   11  A    between atoms: C16_33  and  P1_34 
REMARK   12  A    between atoms: P1_34  and  O3_35 
REMARK   13  A    between atoms: P1_34  and  O4_37 
REMARK   14  A    between atoms: O4_37  and  O5_38 
ROOT
HETATM    1  C3  UNL     1     112.582  75.213   5.187  1.00  0.00     0.090 C 
HETATM    2  C8  UNL     1     112.447  76.276   4.125  1.00  0.00     0.067 C 
HETATM    3  C9  UNL     1     113.558  77.264   4.079  1.00  0.00     0.170 C 
HETATM    4  O2  UNL     1     114.024  77.679   5.329  1.00  0.00    -0.390 OA
HETATM    5  C10 UNL     1     114.461  76.600   6.086  1.00  0.00     0.180 C 
HETATM    6  C11 UNL     1     113.191  75.801   6.402  1.00  0.00     0.084 C 
ENDROOT
BRANCH   1   7
HETATM    7  O1  UNL     1     111.282  74.773   5.494  1.00  0.00    -0.376 OA
BRANCH   7   8
HETATM    8  C2  UNL     1     110.297  75.299   4.714  1.00  0.00     0.196 C 
BRANCH   8   9
HETATM    9  C1  UNL     1     109.052  75.649   5.541  1.00  0.00     0.255 C 
BRANCH   9  10
HETATM   10  N1  UNL     1     109.028  76.982   5.972  1.00  0.00    -0.077 N 
ATOM     11  H13 UNL     1     108.773  77.606   5.206  1.00  0.00     0.274 HD
ATOM     12  H12 UNL     1     108.237  77.148   6.594  1.00  0.00     0.274 HD
ATOM     13  H11 UNL     1     109.900  77.282   6.408  1.00  0.00     0.274 HD
ENDBRANCH   9  10
ENDBRANCH   8   9
ENDBRANCH   7   8
ENDBRANCH   1   7
BRANCH   1  14
HETATM   14  C4  UNL     1     113.407  74.087   4.625  1.00  0.00     0.187 C 
BRANCH  14  15
HETATM   15  N2  UNL     1     113.230  73.733   3.269  1.00  0.00    -0.174 N 
HETATM   16  C5  UNL     1     112.186  73.161   2.600  1.00  0.00     0.218 A 
HETATM   17  N3  UNL     1     112.434  73.052   1.289  1.00  0.00    -0.281 N 
HETATM   18  N4  UNL     1     113.611  73.534   1.080  1.00  0.00    -0.131 N 
ATOM     19  H3  UNL     1     111.807  72.660   0.586  1.00  0.00     0.188 HD
HETATM   20  C6  UNL     1     114.134  73.958   2.250  1.00  0.00     0.702 A 
ATOM     21  H4  UNL     1     114.075  73.586   0.173  1.00  0.00     0.205 HD
BRANCH  20  22
HETATM   22  N5  UNL     1     115.438  74.490   2.398  1.00  0.00    -0.164 N 
HETATM   23  C7  UNL     1     115.825  75.527   1.772  1.00  0.00     0.215 C 
HETATM   24  N6  UNL     1     114.959  76.206   0.892  1.00  0.00    -0.066 NA
HETATM   25  N7  UNL     1     117.161  76.033   1.954  1.00  0.00    -0.066 NA
ATOM     26  H5  UNL     1     116.091  74.025   3.029  1.00  0.00     0.186 HD
ENDBRANCH  20  22
ENDBRANCH  14  15
ENDBRANCH   1  14
BRANCH   6  27
HETATM   27  C12 UNL     1     112.369  76.547   7.344  1.00  0.00     0.071 C 
BRANCH  27  28
HETATM   28  N8  UNL     1     112.163  77.940   7.258  1.00  0.00    -0.369 N 
ATOM     29  H8  UNL     1     112.139  78.391   6.343  1.00  0.00     0.165 HD
BRANCH  28  30
HETATM   30  C13 UNL     1     111.984  78.747   8.465  1.00  0.00     0.031 A 
HETATM   31  C14 UNL     1     110.704  78.977   8.898  1.00  0.00     0.030 A 
HETATM   32  C15 UNL     1     110.531  79.742  10.039  1.00  0.00     0.019 A 
HETATM   33  C16 UNL     1     111.616  80.256  10.718  1.00  0.00     0.025 A 
HETATM   34  C17 UNL     1     112.895  80.007  10.259  1.00  0.00     0.019 A 
HETATM   35  C18 UNL     1     113.054  79.251   9.132  1.00  0.00     0.030 A 
BRANCH  33  36
HETATM   36  P1  UNL     1     111.384  81.264  12.221  1.00  0.00     0.239 P 
BRANCH  36  37
HETATM   37  O3  UNL     1     112.750  81.007  13.293  1.00  0.00    -0.344 OA
ATOM     38  H3  UNL     1     112.921  81.810  13.771  1.00  0.00     0.217 HD
ENDBRANCH  36  37
BRANCH  36  39
HETATM   39  O4  UNL     1     109.908  80.926  13.019  1.00  0.00    -0.181 OA
BRANCH  39  40
HETATM   40  O5  UNL     1     109.925  79.787  13.676  1.00  0.00    -0.244 OA
ATOM     41  H5  UNL     1     109.079  79.554  14.041  1.00  0.00     0.254 HD
ENDBRANCH  39  40
ENDBRANCH  36  39
ENDBRANCH  33  36
ENDBRANCH  28  30
ENDBRANCH  27  28
ENDBRANCH   6  27
TORSDOF 14
ENDMDL
MODEL 5
REMARK VINA RESULT: -8.179578832      6.206     10.329
REMARK  14 active torsions:
REMARK  status: ('A' for Active; 'I' for Inactive)
REMARK    1  A    between atoms: N1_1  and  C1_5 
REMARK    2  A    between atoms: C1_5  and  C2_6 
REMARK    3  A    between atoms: C2_6  and  O1_7 
REMARK    4  A    between atoms: O1_7  and  C3_8 
REMARK    5  A    between atoms: C3_8  and  C4_9 
REMARK    6  A    between atoms: C4_9  and  N2_10 
REMARK    7  A    between atoms: C6_16  and  N5_17 
REMARK    8  A    between atoms: C11_26  and  C12_27 
REMARK    9  A    between atoms: C12_27  and  N8_28 
REMARK   10  A    between atoms: N8_28  and  C13_30 
REMARK   11  A    between atoms: C16_33  and  P1_34 
REMARK   12  A    between atoms: P1_34  and  O3_35 
REMARK   13  A    between atoms: P1_34  and  O4_37 
REMARK   14  A    between atoms: O4_37  and  O5_38 
ROOT
HETATM    1  C3  UNL     1     114.803  82.784  12.747  1.00  0.00     0.090 C 
HETATM    2  C8  UNL     1     116.175  82.622  13.352  1.00  0.00     0.067 C 
HETATM    3  C9  UNL     1     117.293  83.151  12.527  1.00  0.00     0.170 C 
HETATM    4  O2  UNL     1     117.177  82.904  11.157  1.00  0.00    -0.390 OA
HETATM    5  C10 UNL     1     116.000  83.436  10.648  1.00  0.00     0.180 C 
HETATM    6  C11 UNL     1     114.883  82.597  11.280  1.00  0.00     0.084 C 
ENDROOT
BRANCH   1   7
HETATM    7  O1  UNL     1     113.992  81.774  13.293  1.00  0.00    -0.376 OA
BRANCH   7   8
HETATM    8  C2  UNL     1     114.512  81.144  14.383  1.00  0.00     0.196 C 
BRANCH   8   9
HETATM    9  C1  UNL     1     114.196  79.642  14.369  1.00  0.00     0.255 C 
BRANCH   9  10
HETATM   10  N1  UNL     1     112.914  79.348  13.885  1.00  0.00    -0.077 N 
ATOM     11  H13 UNL     1     112.742  78.343  13.900  1.00  0.00     0.274 HD
ATOM     12  H12 UNL     1     112.199  79.652  14.546  1.00  0.00     0.274 HD
ATOM     13  H11 UNL     1     112.735  79.732  12.957  1.00  0.00     0.274 HD
ENDBRANCH   9  10
ENDBRANCH   8   9
ENDBRANCH   7   8
ENDBRANCH   1   7
BRANCH   1  14
HETATM   14  C4  UNL     1     114.281  84.146  13.118  1.00  0.00     0.187 C 
BRANCH  14  15
HETATM   15  N2  UNL     1     113.285  84.730  12.304  1.00  0.00    -0.174 N 
HETATM   16  C5  UNL     1     113.313  85.785  11.437  1.00  0.00     0.218 A 
HETATM   17  N3  UNL     1     112.132  85.961  10.830  1.00  0.00    -0.281 N 
HETATM   18  N4  UNL     1     111.332  85.054  11.275  1.00  0.00    -0.131 N 
ATOM     19  H3  UNL     1     111.909  86.681  10.142  1.00  0.00     0.188 HD
HETATM   20  C6  UNL     1     111.985  84.285  12.171  1.00  0.00     0.702 A 
ATOM     21  H4  UNL     1     110.358  84.937  10.994  1.00  0.00     0.205 HD
BRANCH  20  22
HETATM   22  N5  UNL     1     111.390  83.227  12.902  1.00  0.00    -0.164 N 
HETATM   23  C7  UNL     1     111.002  82.151  12.347  1.00  0.00     0.215 C 
HETATM   24  N6  UNL     1     111.152  81.957  10.959  1.00  0.00    -0.066 NA
HETATM   25  N7  UNL     1     110.402  81.101  13.130  1.00  0.00    -0.066 NA
ATOM     26  H5  UNL     1     111.267  83.333  13.909  1.00  0.00     0.186 HD
ENDBRANCH  20  22
ENDBRANCH  14  15
ENDBRANCH   1  14
BRANCH   6  27
HETATM   27  C12 UNL     1     114.904  81.255  10.714  1.00  0.00     0.071 C 
BRANCH  27  28
HETATM   28  N8  UNL     1     113.792  80.387  10.740  1.00  0.00    -0.369 N 
ATOM     29  H8  UNL     1     113.185  80.369  11.560  1.00  0.00     0.165 HD
BRANCH  28  30
HETATM   30  C13 UNL     1     113.500  79.511   9.605  1.00  0.00     0.031 A 
HETATM   31  C14 UNL     1     114.557  79.027   8.880  1.00  0.00     0.030 A 
HETATM   32  C15 UNL     1     114.284  78.201   7.803  1.00  0.00     0.019 A 
HETATM   33  C16 UNL     1     112.986  77.874   7.473  1.00  0.00     0.025 A 
HETATM   34  C17 UNL     1     111.940  78.376   8.223  1.00  0.00     0.019 A 
HETATM   35  C18 UNL     1     112.220  79.191   9.282  1.00  0.00     0.030 A 
BRANCH  33  36
HETATM   36  P1  UNL     1     112.630  76.784   6.054  1.00  0.00     0.239 P 
BRANCH  36  37
HETATM   37  O3  UNL     1     112.566  77.755   4.593  1.00  0.00    -0.344 OA
ATOM     38  H3  UNL     1     112.392  77.186   3.853  1.00  0.00     0.217 HD
ENDBRANCH  36  37
BRANCH  36  39
HETATM   39  O4  UNL     1     111.183  75.892   6.258  1.00  0.00    -0.181 OA
BRANCH  39  40
HETATM   40  O5  UNL     1     110.193  76.335   5.515  1.00  0.00    -0.244 OA
ATOM     41  H5  UNL     1     109.961  77.236   5.702  1.00  0.00     0.254 HD
ENDBRANCH  39  40
ENDBRANCH  36  39
ENDBRANCH  33  36
ENDBRANCH  28  30
ENDBRANCH  27  28
ENDBRANCH   6  27
TORSDOF 14
ENDMDL
