MODEL 1
REMARK VINA RESULT: -7.493900165      0.000      0.000
REMARK  19 active torsions:
REMARK  status: ('A' for Active; 'I' for Inactive)
REMARK    1  A    between atoms: C2_2  and  C3_3 
REMARK    2  A    between atoms: C2_2  and  C5_10 
REMARK    3  A    between atoms: C3_3  and  C4_4 
REMARK    4  A    between atoms: C4_4  and  P1_5 
REMARK    5  A    between atoms: P1_5  and  O1_6 
REMARK    6  A    between atoms: P1_5  and  O2_8 
REMARK       I    between atoms: C5_10  and  N1_12 
REMARK    7  A    between atoms: N1_12  and  C6_14 
REMARK    8  A    between atoms: C6_14  and  C7_15 
REMARK    9  A    between atoms: C6_14  and  N8_35 
REMARK   10  A    between atoms: C7_15  and  C8_16 
REMARK   11  A    between atoms: C8_16  and  N2_17 
REMARK   12  A    between atoms: N2_17  and  C9_19 
REMARK   13  A    between atoms: C9_19  and  N7_31 
REMARK   14  A    between atoms: N7_31  and  C14_33 
REMARK   15  A    between atoms: N8_35  and  C15_36 
REMARK   16  A    between atoms: N8_35  and  C17_38 
REMARK   17  A    between atoms: C17_38  and  C18_39 
REMARK   18  A    between atoms: C18_39  and  C19_40 
REMARK   19  A    between atoms: C19_40  and  O5_41 
ROOT
HETATM    1  C6  UNL     1     115.528  77.619   7.269  1.00  0.00     0.325 C 
ENDROOT
BRANCH   1   2
HETATM    2  N1  UNL     1     114.885  78.530   8.290  1.00  0.00    -0.326 N 
HETATM    3  C5  UNL     1     113.569  78.691   8.590  1.00  0.00     0.260 C 
HETATM    4  O3  UNL     1     112.650  78.035   8.056  1.00  0.00    -0.267 OA
ATOM      5  H1  UNL     1     115.531  79.105   8.831  1.00  0.00     0.165 HD
BRANCH   3   6
HETATM    6  C2  UNL     1     113.116  79.675   9.592  1.00  0.00     0.068 C 
HETATM    7  C1  UNL     1     114.085  80.259  10.395  1.00  0.00     0.038 C 
BRANCH   6   8
HETATM    8  C3  UNL     1     111.849  80.107   9.852  1.00  0.00    -0.107 C 
BRANCH   8   9
HETATM    9  C4  UNL     1     110.652  80.509  10.065  1.00  0.00     0.121 C 
BRANCH   9  10
HETATM   10  P1  UNL     1     109.878  80.172  11.736  1.00  0.00     0.197 P 
BRANCH  10  11
HETATM   11  O1  UNL     1     108.150  80.278  11.603  1.00  0.00    -0.346 OA
ATOM     12  H1  UNL     1     107.752  79.952  12.402  1.00  0.00     0.217 HD
ENDBRANCH  10  11
BRANCH  10  13
HETATM   13  O2  UNL     1     110.411  81.308  12.904  1.00  0.00    -0.346 OA
ATOM     14  H2  UNL     1     109.731  81.487  13.542  1.00  0.00     0.217 HD
ENDBRANCH  10  13
ENDBRANCH   9  10
ENDBRANCH   8   9
ENDBRANCH   6   8
ENDBRANCH   3   6
ENDBRANCH   1   2
BRANCH   1  15
HETATM   15  C7  UNL     1     114.705  77.648   6.069  1.00  0.00     0.077 C 
BRANCH  15  16
HETATM   16  C8  UNL     1     114.278  76.380   5.385  1.00  0.00     0.125 C 
BRANCH  16  17
HETATM   17  N2  UNL     1     113.030  75.881   5.871  1.00  0.00    -0.373 N 
ATOM     18  H2  UNL     1     112.874  75.924   6.879  1.00  0.00     0.161 HD
BRANCH  17  19
HETATM   19  C9  UNL     1     111.965  75.317   5.062  1.00  0.00     0.151 C 
HETATM   20  C10 UNL     1     110.735  75.806   5.310  1.00  0.00     0.167 A 
HETATM   21  N3  UNL     1     109.614  75.356   4.605  1.00  0.00    -0.268 N 
HETATM   22  N6  UNL     1     110.504  76.848   6.259  1.00  0.00    -0.327 N 
HETATM   23  N4  UNL     1     108.442  75.861   4.806  1.00  0.00    -0.240 N 
ATOM     24  H3  UNL     1     109.724  74.612   3.917  1.00  0.00     0.190 HD
HETATM   25  N5  UNL     1     108.241  76.871   5.727  1.00  0.00    -0.275 N 
ATOM     26  H4  UNL     1     107.649  75.506   4.273  1.00  0.00     0.208 HD
HETATM   27  C11 UNL     1     109.174  77.381   6.447  1.00  0.00     0.094 A 
ATOM     28  H5  UNL     1     107.294  77.234   5.842  1.00  0.00     0.189 HD
HETATM   29  C12 UNL     1     108.870  78.458   7.401  1.00  0.00     0.090 C 
ATOM     30  H6  UNL     1     111.281  77.218   6.807  1.00  0.00     0.169 HD
BRANCH  19  31
HETATM   31  N7  UNL     1     112.157  74.298   4.149  1.00  0.00    -0.313 N 
HETATM   32  C13 UNL     1     112.596  74.654   2.770  1.00  0.00     0.160 C 
BRANCH  31  33
HETATM   33  C14 UNL     1     111.936  72.925   4.320  1.00  0.00     0.356 C 
HETATM   34  O4  UNL     1     110.731  72.439   4.299  1.00  0.00    -0.283 OA
ENDBRANCH  31  33
ENDBRANCH  19  31
ENDBRANCH  17  19
ENDBRANCH  16  17
ENDBRANCH  15  16
ENDBRANCH   1  15
BRANCH   1  35
HETATM   35  N8  UNL     1     116.885  77.994   7.283  1.00  0.00     0.111 N 
BRANCH  35  36
HETATM   36  C15 UNL     1     117.429  77.945   5.917  1.00  0.00     0.270 C 
HETATM   37  C16 UNL     1     117.904  79.260   5.420  1.00  0.00     0.037 C 
ENDBRANCH  35  36
BRANCH  35  38
HETATM   38  C17 UNL     1     117.343  79.121   7.981  1.00  0.00     0.277 C 
BRANCH  38  39
HETATM   39  C18 UNL     1     118.377  78.820   9.058  1.00  0.00     0.056 C 
BRANCH  39  40
HETATM   40  C19 UNL     1     118.422  80.009  10.021  1.00  0.00     0.165 C 
BRANCH  40  41
HETATM   41  O5  UNL     1     117.450  80.942   9.577  1.00  0.00    -0.401 OA
ATOM     42  H5  UNL     1     117.820  81.395   8.828  1.00  0.00     0.209 HD
ENDBRANCH  40  41
ENDBRANCH  39  40
ENDBRANCH  38  39
ENDBRANCH  35  38
ENDBRANCH   1  35
TORSDOF 19
ENDMDL
MODEL 2
REMARK VINA RESULT: -7.457237941      1.223      2.032
REMARK  19 active torsions:
REMARK  status: ('A' for Active; 'I' for Inactive)
REMARK    1  A    between atoms: C2_2  and  C3_3 
REMARK    2  A    between atoms: C2_2  and  C5_10 
REMARK    3  A    between atoms: C3_3  and  C4_4 
REMARK    4  A    between atoms: C4_4  and  P1_5 
REMARK    5  A    between atoms: P1_5  and  O1_6 
REMARK    6  A    between atoms: P1_5  and  O2_8 
REMARK       I    between atoms: C5_10  and  N1_12 
REMARK    7  A    between atoms: N1_12  and  C6_14 
REMARK    8  A    between atoms: C6_14  and  C7_15 
REMARK    9  A    between atoms: C6_14  and  N8_35 
REMARK   10  A    between atoms: C7_15  and  C8_16 
REMARK   11  A    between atoms: C8_16  and  N2_17 
REMARK   12  A    between atoms: N2_17  and  C9_19 
REMARK   13  A    between atoms: C9_19  and  N7_31 
REMARK   14  A    between atoms: N7_31  and  C14_33 
REMARK   15  A    between atoms: N8_35  and  C15_36 
REMARK   16  A    between atoms: N8_35  and  C17_38 
REMARK   17  A    between atoms: C17_38  and  C18_39 
REMARK   18  A    between atoms: C18_39  and  C19_40 
REMARK   19  A    between atoms: C19_40  and  O5_41 
ROOT
HETATM    1  C6  UNL     1     115.556  77.732   7.149  1.00  0.00     0.325 C 
ENDROOT
BRANCH   1   2
HETATM    2  N1  UNL     1     114.919  78.599   8.211  1.00  0.00    -0.326 N 
HETATM    3  C5  UNL     1     113.607  78.719   8.551  1.00  0.00     0.260 C 
HETATM    4  O3  UNL     1     112.690  78.053   8.025  1.00  0.00    -0.267 OA
ATOM      5  H1  UNL     1     115.565  79.176   8.748  1.00  0.00     0.165 HD
BRANCH   3   6
HETATM    6  C2  UNL     1     113.159  79.665   9.590  1.00  0.00     0.068 C 
HETATM    7  C1  UNL     1     114.127  80.203  10.424  1.00  0.00     0.038 C 
BRANCH   6   8
HETATM    8  C3  UNL     1     111.894  80.101   9.858  1.00  0.00    -0.107 C 
BRANCH   8   9
HETATM    9  C4  UNL     1     110.707  80.525  10.081  1.00  0.00     0.121 C 
BRANCH   9  10
HETATM   10  P1  UNL     1     109.940  80.199  11.758  1.00  0.00     0.197 P 
BRANCH  10  11
HETATM   11  O1  UNL     1     108.210  80.273  11.624  1.00  0.00    -0.346 OA
ATOM     12  H1  UNL     1     107.929  79.755  10.879  1.00  0.00     0.217 HD
ENDBRANCH  10  11
BRANCH  10  13
HETATM   13  O2  UNL     1     110.453  81.362  12.908  1.00  0.00    -0.346 OA
ATOM     14  H2  UNL     1     109.900  81.346  13.681  1.00  0.00     0.217 HD
ENDBRANCH  10  13
ENDBRANCH   9  10
ENDBRANCH   8   9
ENDBRANCH   6   8
ENDBRANCH   3   6
ENDBRANCH   1   2
BRANCH   1  15
HETATM   15  C7  UNL     1     114.621  77.633   6.038  1.00  0.00     0.077 C 
BRANCH  15  16
HETATM   16  C8  UNL     1     114.277  76.304   5.424  1.00  0.00     0.125 C 
BRANCH  16  17
HETATM   17  N2  UNL     1     113.038  75.776   5.900  1.00  0.00    -0.373 N 
ATOM     18  H2  UNL     1     112.898  75.762   6.911  1.00  0.00     0.161 HD
BRANCH  17  19
HETATM   19  C9  UNL     1     111.960  75.259   5.078  1.00  0.00     0.151 C 
HETATM   20  C10 UNL     1     110.745  75.785   5.324  1.00  0.00     0.167 A 
HETATM   21  N3  UNL     1     109.615  75.382   4.606  1.00  0.00    -0.268 N 
HETATM   22  N6  UNL     1     110.543  76.823   6.284  1.00  0.00    -0.327 N 
HETATM   23  N4  UNL     1     108.459  75.923   4.806  1.00  0.00    -0.240 N 
ATOM     24  H3  UNL     1     109.705  74.643   3.909  1.00  0.00     0.190 HD
HETATM   25  N5  UNL     1     108.285  76.929   5.739  1.00  0.00    -0.275 N 
ATOM     26  H4  UNL     1     107.658  75.602   4.264  1.00  0.00     0.208 HD
HETATM   27  C11 UNL     1     109.230  77.398   6.471  1.00  0.00     0.094 A 
ATOM     28  H5  UNL     1     107.350  77.321   5.852  1.00  0.00     0.189 HD
HETATM   29  C12 UNL     1     108.956  78.472   7.436  1.00  0.00     0.090 C 
ATOM     30  H6  UNL     1     111.328  77.159   6.841  1.00  0.00     0.169 HD
BRANCH  19  31
HETATM   31  N7  UNL     1     112.124  74.245   4.152  1.00  0.00    -0.313 N 
HETATM   32  C13 UNL     1     112.566  74.606   2.776  1.00  0.00     0.160 C 
BRANCH  31  33
HETATM   33  C14 UNL     1     111.870  72.876   4.310  1.00  0.00     0.356 C 
HETATM   34  O4  UNL     1     110.654  72.420   4.289  1.00  0.00    -0.283 OA
ENDBRANCH  31  33
ENDBRANCH  19  31
ENDBRANCH  17  19
ENDBRANCH  16  17
ENDBRANCH  15  16
ENDBRANCH   1  15
BRANCH   1  35
HETATM   35  N8  UNL     1     116.857  78.253   7.018  1.00  0.00     0.111 N 
BRANCH  35  36
HETATM   36  C15 UNL     1     117.502  78.315   8.339  1.00  0.00     0.270 C 
HETATM   37  C16 UNL     1     118.260  79.570   8.569  1.00  0.00     0.037 C 
ENDBRANCH  35  36
BRANCH  35  38
HETATM   38  C17 UNL     1     117.746  77.809   6.029  1.00  0.00     0.277 C 
BRANCH  38  39
HETATM   39  C18 UNL     1     117.973  78.797   4.893  1.00  0.00     0.056 C 
BRANCH  39  40
HETATM   40  C19 UNL     1     118.116  78.004   3.592  1.00  0.00     0.165 C 
BRANCH  40  41
HETATM   41  O5  UNL     1     117.298  76.852   3.714  1.00  0.00    -0.401 OA
ATOM     42  H5  UNL     1     116.405  77.124   3.537  1.00  0.00     0.209 HD
ENDBRANCH  40  41
ENDBRANCH  39  40
ENDBRANCH  38  39
ENDBRANCH  35  38
ENDBRANCH   1  35
TORSDOF 19
ENDMDL
MODEL 3
REMARK VINA RESULT: -7.448901441      1.419      1.598
REMARK  19 active torsions:
REMARK  status: ('A' for Active; 'I' for Inactive)
REMARK    1  A    between atoms: C2_2  and  C3_3 
REMARK    2  A    between atoms: C2_2  and  C5_10 
REMARK    3  A    between atoms: C3_3  and  C4_4 
REMARK    4  A    between atoms: C4_4  and  P1_5 
REMARK    5  A    between atoms: P1_5  and  O1_6 
REMARK    6  A    between atoms: P1_5  and  O2_8 
REMARK       I    between atoms: C5_10  and  N1_12 
REMARK    7  A    between atoms: N1_12  and  C6_14 
REMARK    8  A    between atoms: C6_14  and  C7_15 
REMARK    9  A    between atoms: C6_14  and  N8_35 
REMARK   10  A    between atoms: C7_15  and  C8_16 
REMARK   11  A    between atoms: C8_16  and  N2_17 
REMARK   12  A    between atoms: N2_17  and  C9_19 
REMARK   13  A    between atoms: C9_19  and  N7_31 
REMARK   14  A    between atoms: N7_31  and  C14_33 
REMARK   15  A    between atoms: N8_35  and  C15_36 
REMARK   16  A    between atoms: N8_35  and  C17_38 
REMARK   17  A    between atoms: C17_38  and  C18_39 
REMARK   18  A    between atoms: C18_39  and  C19_40 
REMARK   19  A    between atoms: C19_40  and  O5_41 
ROOT
HETATM    1  C6  UNL     1     115.737  77.526   7.097  1.00  0.00     0.325 C 
ENDROOT
BRANCH   1   2
HETATM    2  N1  UNL     1     115.172  78.431   8.168  1.00  0.00    -0.326 N 
HETATM    3  C5  UNL     1     113.876  78.636   8.525  1.00  0.00     0.260 C 
HETATM    4  O3  UNL     1     112.910  78.033   8.010  1.00  0.00    -0.267 OA
ATOM      5  H1  UNL     1     115.862  78.963   8.698  1.00  0.00     0.165 HD
BRANCH   3   6
HETATM    6  C2  UNL     1     113.504  79.607   9.571  1.00  0.00     0.068 C 
HETATM    7  C1  UNL     1     114.534  80.257  10.234  1.00  0.00     0.038 C 
BRANCH   6   8
HETATM    8  C3  UNL     1     112.259  79.971   9.994  1.00  0.00    -0.107 C 
BRANCH   8   9
HETATM    9  C4  UNL     1     111.078  80.300  10.364  1.00  0.00     0.121 C 
BRANCH   9  10
HETATM   10  P1  UNL     1     110.643  80.183  12.182  1.00  0.00     0.197 P 
BRANCH  10  11
HETATM   11  O1  UNL     1     110.602  81.778  12.868  1.00  0.00    -0.346 OA
ATOM     12  H1  UNL     1     111.490  82.082  13.010  1.00  0.00     0.217 HD
ENDBRANCH  10  11
BRANCH  10  13
HETATM   13  O2  UNL     1     111.800  79.247  13.034  1.00  0.00    -0.346 OA
ATOM     14  H2  UNL     1     111.744  79.405  13.969  1.00  0.00     0.217 HD
ENDBRANCH  10  13
ENDBRANCH   9  10
ENDBRANCH   8   9
ENDBRANCH   6   8
ENDBRANCH   3   6
ENDBRANCH   1   2
BRANCH   1  15
HETATM   15  C7  UNL     1     114.964  77.740   5.883  1.00  0.00     0.077 C 
BRANCH  15  16
HETATM   16  C8  UNL     1     114.428  76.584   5.085  1.00  0.00     0.125 C 
BRANCH  16  17
HETATM   17  N2  UNL     1     113.293  75.967   5.696  1.00  0.00    -0.373 N 
ATOM     18  H2  UNL     1     113.269  75.948   6.716  1.00  0.00     0.161 HD
BRANCH  17  19
HETATM   19  C9  UNL     1     112.172  75.365   4.998  1.00  0.00     0.151 C 
HETATM   20  C10 UNL     1     110.961  75.848   5.331  1.00  0.00     0.167 A 
HETATM   21  N3  UNL     1     109.792  75.362   4.737  1.00  0.00    -0.268 N 
HETATM   22  N6  UNL     1     110.795  76.920   6.260  1.00  0.00    -0.327 N 
HETATM   23  N4  UNL     1     108.634  75.861   5.017  1.00  0.00    -0.240 N 
ATOM     24  H3  UNL     1     109.854  74.597   4.067  1.00  0.00     0.190 HD
HETATM   25  N5  UNL     1     108.495  76.901   5.918  1.00  0.00    -0.275 N 
ATOM     26  H4  UNL     1     107.803  75.480   4.565  1.00  0.00     0.208 HD
HETATM   27  C11 UNL     1     109.478  77.445   6.541  1.00  0.00     0.094 A 
ATOM     28  H5  UNL     1     107.557  77.257   6.099  1.00  0.00     0.189 HD
HETATM   29  C12 UNL     1     109.240  78.550   7.480  1.00  0.00     0.090 C 
ATOM     30  H6  UNL     1     111.610  77.316   6.729  1.00  0.00     0.169 HD
BRANCH  19  31
HETATM   31  N7  UNL     1     112.302  74.317   4.106  1.00  0.00    -0.313 N 
HETATM   32  C13 UNL     1     112.630  74.630   2.687  1.00  0.00     0.160 C 
BRANCH  31  33
HETATM   33  C14 UNL     1     112.106  72.949   4.338  1.00  0.00     0.356 C 
HETATM   34  O4  UNL     1     110.913  72.435   4.308  1.00  0.00    -0.283 OA
ENDBRANCH  31  33
ENDBRANCH  19  31
ENDBRANCH  17  19
ENDBRANCH  16  17
ENDBRANCH  15  16
ENDBRANCH   1  15
BRANCH   1  35
HETATM   35  N8  UNL     1     117.127  77.734   7.173  1.00  0.00     0.111 N 
BRANCH  35  36
HETATM   36  C15 UNL     1     117.495  78.926   6.392  1.00  0.00     0.270 C 
HETATM   37  C16 UNL     1     118.305  79.907   7.156  1.00  0.00     0.037 C 
ENDBRANCH  35  36
BRANCH  35  38
HETATM   38  C17 UNL     1     117.829  77.674   8.385  1.00  0.00     0.277 C 
BRANCH  38  39
HETATM   39  C18 UNL     1     118.894  76.588   8.446  1.00  0.00     0.056 C 
BRANCH  39  40
HETATM   40  C19 UNL     1     119.278  76.377   9.913  1.00  0.00     0.165 C 
BRANCH  40  41
HETATM   41  O5  UNL     1     119.035  75.013  10.216  1.00  0.00    -0.401 OA
ATOM     42  H5  UNL     1     118.535  74.991  11.023  1.00  0.00     0.209 HD
ENDBRANCH  40  41
ENDBRANCH  39  40
ENDBRANCH  38  39
ENDBRANCH  35  38
ENDBRANCH   1  35
TORSDOF 19
ENDMDL
MODEL 4
REMARK VINA RESULT: -7.195370180      2.548      4.593
REMARK  19 active torsions:
REMARK  status: ('A' for Active; 'I' for Inactive)
REMARK    1  A    between atoms: C2_2  and  C3_3 
REMARK    2  A    between atoms: C2_2  and  C5_10 
REMARK    3  A    between atoms: C3_3  and  C4_4 
REMARK    4  A    between atoms: C4_4  and  P1_5 
REMARK    5  A    between atoms: P1_5  and  O1_6 
REMARK    6  A    between atoms: P1_5  and  O2_8 
REMARK       I    between atoms: C5_10  and  N1_12 
REMARK    7  A    between atoms: N1_12  and  C6_14 
REMARK    8  A    between atoms: C6_14  and  C7_15 
REMARK    9  A    between atoms: C6_14  and  N8_35 
REMARK   10  A    between atoms: C7_15  and  C8_16 
REMARK   11  A    between atoms: C8_16  and  N2_17 
REMARK   12  A    between atoms: N2_17  and  C9_19 
REMARK   13  A    between atoms: C9_19  and  N7_31 
REMARK   14  A    between atoms: N7_31  and  C14_33 
REMARK   15  A    between atoms: N8_35  and  C15_36 
REMARK   16  A    between atoms: N8_35  and  C17_38 
REMARK   17  A    between atoms: C17_38  and  C18_39 
REMARK   18  A    between atoms: C18_39  and  C19_40 
REMARK   19  A    between atoms: C19_40  and  O5_41 
ROOT
HETATM    1  C6  UNL     1     114.031  76.883   6.878  1.00  0.00     0.325 C 
ENDROOT
BRANCH   1   2
HETATM    2  N1  UNL     1     112.963  77.818   7.401  1.00  0.00    -0.326 N 
HETATM    3  C5  UNL     1     111.754  77.522   7.947  1.00  0.00     0.260 C 
HETATM    4  O3  UNL     1     111.347  76.357   8.144  1.00  0.00    -0.267 OA
ATOM      5  H1  UNL     1     113.182  78.812   7.333  1.00  0.00     0.165 HD
BRANCH   3   6
HETATM    6  C2  UNL     1     110.809  78.578   8.358  1.00  0.00     0.068 C 
HETATM    7  C1  UNL     1     109.584  78.626   7.709  1.00  0.00     0.038 C 
BRANCH   6   8
HETATM    8  C3  UNL     1     110.967  79.541   9.311  1.00  0.00    -0.107 C 
BRANCH   8   9
HETATM    9  C4  UNL     1     111.093  80.464  10.190  1.00  0.00     0.121 C 
BRANCH   9  10
HETATM   10  P1  UNL     1     110.161  80.294  11.805  1.00  0.00     0.197 P 
BRANCH  10  11
HETATM   11  O1  UNL     1     108.455  80.398  11.499  1.00  0.00    -0.346 OA
ATOM     12  H1  UNL     1     108.123  81.220  11.842  1.00  0.00     0.217 HD
ENDBRANCH  10  11
BRANCH  10  13
HETATM   13  O2  UNL     1     110.599  81.535  12.904  1.00  0.00    -0.346 OA
ATOM     14  H2  UNL     1     110.161  81.422  13.740  1.00  0.00     0.217 HD
ENDBRANCH  10  13
ENDBRANCH   9  10
ENDBRANCH   8   9
ENDBRANCH   6   8
ENDBRANCH   3   6
ENDBRANCH   1   2
BRANCH   1  15
HETATM   15  C7  UNL     1     113.407  75.999   5.906  1.00  0.00     0.077 C 
BRANCH  15  16
HETATM   16  C8  UNL     1     112.603  76.544   4.758  1.00  0.00     0.125 C 
BRANCH  16  17
HETATM   17  N2  UNL     1     113.064  76.080   3.488  1.00  0.00    -0.373 N 
ATOM     18  H2  UNL     1     113.601  76.736   2.921  1.00  0.00     0.161 HD
BRANCH  17  19
HETATM   19  C9  UNL     1     112.837  74.759   2.930  1.00  0.00     0.151 C 
HETATM   20  C10 UNL     1     113.228  74.600   1.652  1.00  0.00     0.167 A 
HETATM   21  N3  UNL     1     113.072  73.380   0.987  1.00  0.00    -0.268 N 
HETATM   22  N6  UNL     1     113.876  75.638   0.916  1.00  0.00    -0.327 N 
HETATM   23  N4  UNL     1     113.495  73.210  -0.222  1.00  0.00    -0.240 N 
ATOM     24  H3  UNL     1     112.614  72.606   1.467  1.00  0.00     0.190 HD
HETATM   25  N5  UNL     1     114.122  74.228  -0.916  1.00  0.00    -0.275 N 
ATOM     26  H4  UNL     1     113.362  72.307  -0.675  1.00  0.00     0.208 HD
HETATM   27  C11 UNL     1     114.332  75.400  -0.435  1.00  0.00     0.094 A 
ATOM     28  H5  UNL     1     114.437  74.037  -1.867  1.00  0.00     0.189 HD
HETATM   29  C12 UNL     1     115.012  76.422  -1.242  1.00  0.00     0.090 C 
ATOM     30  H6  UNL     1     114.018  76.553   1.346  1.00  0.00     0.169 HD
BRANCH  19  31
HETATM   31  N7  UNL     1     112.198  73.741   3.613  1.00  0.00    -0.313 N 
HETATM   32  C13 UNL     1     113.030  72.770   4.378  1.00  0.00     0.160 C 
BRANCH  31  33
HETATM   33  C14 UNL     1     110.829  73.444   3.647  1.00  0.00     0.356 C 
HETATM   34  O4  UNL     1     110.413  72.280   4.048  1.00  0.00    -0.283 OA
ENDBRANCH  31  33
ENDBRANCH  19  31
ENDBRANCH  17  19
ENDBRANCH  16  17
ENDBRANCH  15  16
ENDBRANCH   1  15
BRANCH   1  35
HETATM   35  N8  UNL     1     115.108  77.735   6.567  1.00  0.00     0.111 N 
BRANCH  35  36
HETATM   36  C15 UNL     1     115.761  78.183   7.808  1.00  0.00     0.270 C 
HETATM   37  C16 UNL     1     117.139  77.659   7.974  1.00  0.00     0.037 C 
ENDBRANCH  35  36
BRANCH  35  38
HETATM   38  C17 UNL     1     116.046  77.425   5.573  1.00  0.00     0.277 C 
BRANCH  38  39
HETATM   39  C18 UNL     1     115.938  78.276   4.315  1.00  0.00     0.056 C 
BRANCH  39  40
HETATM   40  C19 UNL     1     116.505  77.469   3.144  1.00  0.00     0.165 C 
BRANCH  40  41
HETATM   41  O5  UNL     1     116.009  76.146   3.270  1.00  0.00    -0.401 OA
ATOM     42  H5  UNL     1     115.455  75.983   2.516  1.00  0.00     0.209 HD
ENDBRANCH  40  41
ENDBRANCH  39  40
ENDBRANCH  38  39
ENDBRANCH  35  38
ENDBRANCH   1  35
TORSDOF 19
ENDMDL
MODEL 5
REMARK VINA RESULT: -7.185578540      4.882      7.264
REMARK  19 active torsions:
REMARK  status: ('A' for Active; 'I' for Inactive)
REMARK    1  A    between atoms: C2_2  and  C3_3 
REMARK    2  A    between atoms: C2_2  and  C5_10 
REMARK    3  A    between atoms: C3_3  and  C4_4 
REMARK    4  A    between atoms: C4_4  and  P1_5 
REMARK    5  A    between atoms: P1_5  and  O1_6 
REMARK    6  A    between atoms: P1_5  and  O2_8 
REMARK       I    between atoms: C5_10  and  N1_12 
REMARK    7  A    between atoms: N1_12  and  C6_14 
REMARK    8  A    between atoms: C6_14  and  C7_15 
REMARK    9  A    between atoms: C6_14  and  N8_35 
REMARK   10  A    between atoms: C7_15  and  C8_16 
REMARK   11  A    between atoms: C8_16  and  N2_17 
REMARK   12  A    between atoms: N2_17  and  C9_19 
REMARK   13  A    between atoms: C9_19  and  N7_31 
REMARK   14  A    between atoms: N7_31  and  C14_33 
REMARK   15  A    between atoms: N8_35  and  C15_36 
REMARK   16  A    between atoms: N8_35  and  C17_38 
REMARK   17  A    between atoms: C17_38  and  C18_39 
REMARK   18  A    between atoms: C18_39  and  C19_40 
REMARK   19  A    between atoms: C19_40  and  O5_41 
ROOT
HETATM    1  C6  UNL     1     115.856  78.111   4.051  1.00  0.00     0.325 C 
ENDROOT
BRANCH   1   2
HETATM    2  N1  UNL     1     115.582  77.686   2.626  1.00  0.00    -0.326 N 
HETATM    3  C5  UNL     1     114.598  78.093   1.781  1.00  0.00     0.260 C 
HETATM    4  O3  UNL     1     113.751  78.964   2.071  1.00  0.00    -0.267 OA
ATOM      5  H1  UNL     1     116.228  76.995   2.245  1.00  0.00     0.165 HD
BRANCH   3   6
HETATM    6  C2  UNL     1     114.453  77.525   0.428  1.00  0.00     0.068 C 
HETATM    7  C1  UNL     1     113.180  77.505  -0.123  1.00  0.00     0.038 C 
BRANCH   6   8
HETATM    8  C3  UNL     1     115.414  77.000  -0.385  1.00  0.00    -0.107 C 
BRANCH   8   9
HETATM    9  C4  UNL     1     116.294  76.490  -1.165  1.00  0.00     0.121 C 
BRANCH   9  10
HETATM   10  P1  UNL     1     115.712  75.490  -2.637  1.00  0.00     0.197 P 
BRANCH  10  11
HETATM   11  O1  UNL     1     115.094  76.564  -3.854  1.00  0.00    -0.346 OA
ATOM     12  H1  UNL     1     114.356  77.047  -3.502  1.00  0.00     0.217 HD
ENDBRANCH  10  11
BRANCH  10  13
HETATM   13  O2  UNL     1     114.472  74.395  -2.189  1.00  0.00    -0.346 OA
ATOM     14  H2  UNL     1     113.648  74.622  -2.604  1.00  0.00     0.217 HD
ENDBRANCH  10  13
ENDBRANCH   9  10
ENDBRANCH   8   9
ENDBRANCH   6   8
ENDBRANCH   3   6
ENDBRANCH   1   2
BRANCH   1  15
HETATM   15  C7  UNL     1     115.296  77.097   4.931  1.00  0.00     0.077 C 
BRANCH  15  16
HETATM   16  C8  UNL     1     114.009  77.332   5.674  1.00  0.00     0.125 C 
BRANCH  16  17
HETATM   17  N2  UNL     1     113.323  76.120   5.991  1.00  0.00    -0.373 N 
ATOM     18  H2  UNL     1     113.574  75.660   6.866  1.00  0.00     0.161 HD
BRANCH  17  19
HETATM   19  C9  UNL     1     112.299  75.484   5.181  1.00  0.00     0.151 C 
HETATM   20  C10 UNL     1     111.040  75.901   5.414  1.00  0.00     0.167 A 
HETATM   21  N3  UNL     1     109.954  75.377   4.707  1.00  0.00    -0.268 N 
HETATM   22  N6  UNL     1     110.740  76.939   6.349  1.00  0.00    -0.327 N 
HETATM   23  N4  UNL     1     108.752  75.813   4.893  1.00  0.00    -0.240 N 
ATOM     24  H3  UNL     1     110.114  74.633   4.029  1.00  0.00     0.190 HD
HETATM   25  N5  UNL     1     108.484  76.821   5.800  1.00  0.00    -0.275 N 
ATOM     26  H4  UNL     1     107.985  75.406   4.359  1.00  0.00     0.208 HD
HETATM   27  C11 UNL     1     109.379  77.394   6.521  1.00  0.00     0.094 A 
ATOM     28  H5  UNL     1     107.516  77.127   5.904  1.00  0.00     0.189 HD
HETATM   29  C12 UNL     1     109.004  78.462   7.458  1.00  0.00     0.090 C 
ATOM     30  H6  UNL     1     111.489  77.361   6.897  1.00  0.00     0.169 HD
BRANCH  19  31
HETATM   31  N7  UNL     1     112.559  74.467   4.282  1.00  0.00    -0.313 N 
HETATM   32  C13 UNL     1     112.978  74.833   2.900  1.00  0.00     0.160 C 
BRANCH  31  33
HETATM   33  C14 UNL     1     112.425  73.085   4.471  1.00  0.00     0.356 C 
HETATM   34  O4  UNL     1     111.275  72.502   4.313  1.00  0.00    -0.283 OA
ENDBRANCH  31  33
ENDBRANCH  19  31
ENDBRANCH  17  19
ENDBRANCH  16  17
ENDBRANCH  15  16
ENDBRANCH   1  15
BRANCH   1  35
HETATM   35  N8  UNL     1     117.219  78.461   4.047  1.00  0.00     0.111 N 
BRANCH  35  36
HETATM   36  C15 UNL     1     117.826  78.109   5.341  1.00  0.00     0.270 C 
HETATM   37  C16 UNL     1     118.106  79.285   6.203  1.00  0.00     0.037 C 
ENDBRANCH  35  36
BRANCH  35  38
HETATM   38  C17 UNL     1     118.069  78.151   2.976  1.00  0.00     0.277 C 
BRANCH  38  39
HETATM   39  C18 UNL     1     118.996  76.969   3.226  1.00  0.00     0.056 C 
BRANCH  39  40
HETATM   40  C19 UNL     1     118.812  75.969   2.082  1.00  0.00     0.165 C 
BRANCH  40  41
HETATM   41  O5  UNL     1     117.486  75.474   2.171  1.00  0.00    -0.401 OA
ATOM     42  H5  UNL     1     116.993  76.089   2.701  1.00  0.00     0.209 HD
ENDBRANCH  40  41
ENDBRANCH  39  40
ENDBRANCH  38  39
ENDBRANCH  35  38
ENDBRANCH   1  35
TORSDOF 19
ENDMDL
