MODEL 1
REMARK VINA RESULT: -7.271354823      0.000      0.000
REMARK  15 active torsions:
REMARK  status: ('A' for Active; 'I' for Inactive)
REMARK    1  A    between atoms: C2_2  and  C3_3 
REMARK    2  A    between atoms: C3_3  and  C4_4 
REMARK    3  A    between atoms: C4_4  and  C5_5 
REMARK    4  A    between atoms: C5_5  and  O1_6 
REMARK    5  A    between atoms: O1_6  and  C6_7 
REMARK    6  A    between atoms: C6_7  and  C7_8 
REMARK    7  A    between atoms: C7_8  and  C8_9 
REMARK    8  A    between atoms: C9_10  and  N1_11 
REMARK    9  A    between atoms: N1_11  and  C10_13 
REMARK   10  A    between atoms: C10_13  and  O2_14 
REMARK       I    between atoms: N5_26  and  C16_27 
REMARK   11  A    between atoms: C16_27  and  C17_29 
REMARK   12  A    between atoms: C17_29  and  N6_30 
REMARK       I    between atoms: N6_30  and  C19_32 
REMARK       I    between atoms: C19_32  and  N8_36 
REMARK   13  A    between atoms: N8_36  and  P1_38 
REMARK   14  A    between atoms: P1_38  and  O4_39 
REMARK   15  A    between atoms: P1_38  and  O5_41 
ROOT
HETATM    1  C8  UNL     1     113.294  77.187   5.153  1.00  0.00     0.146 C 
HETATM    2  C9  UNL     1     111.923  76.753   5.243  1.00  0.00     0.061 C 
HETATM    3  C11 UNL     1     111.557  75.546   4.688  1.00  0.00     0.102 A 
HETATM    4  C12 UNL     1     112.589  74.773   3.986  1.00  0.00     0.079 A 
HETATM    5  N2  UNL     1     112.417  73.583   3.572  1.00  0.00    -0.348 N 
ATOM      6  H2  UNL     1     113.166  73.083   3.092  1.00  0.00     0.167 HD
HETATM    7  C13 UNL     1     111.182  72.978   3.789  1.00  0.00     0.198 A 
HETATM    8  N3  UNL     1     110.213  73.540   4.370  1.00  0.00    -0.294 N 
ATOM      9  H3  UNL     1     109.337  73.033   4.488  1.00  0.00     0.188 HD
HETATM   10  N4  UNL     1     110.330  74.939   4.888  1.00  0.00    -0.292 N 
HETATM   11  C14 UNL     1     109.154  75.481   5.404  1.00  0.00     0.178 C 
HETATM   12  C15 UNL     1     113.823  75.416   3.460  1.00  0.00     0.127 C 
HETATM   13  N5  UNL     1     114.113  76.618   4.043  1.00  0.00    -0.314 N 
HETATM   14  C16 UNL     1     115.296  77.330   3.683  1.00  0.00     0.242 C 
HETATM   15  O3  UNL     1     115.545  78.517   4.092  1.00  0.00    -0.271 OA
ENDROOT
BRANCH   1  16
HETATM   16  C7  UNL     1     114.125  76.372   6.269  1.00  0.00     0.058 C 
BRANCH  16  17
HETATM   17  C6  UNL     1     114.978  77.250   7.120  1.00  0.00     0.170 C 
BRANCH  17  18
HETATM   18  O1  UNL     1     114.144  78.015   7.799  1.00  0.00    -0.391 OA
BRANCH  18  19
HETATM   19  C5  UNL     1     114.191  78.925   8.683  1.00  0.00     0.167 C 
BRANCH  19  20
HETATM   20  C4  UNL     1     112.987  79.482   9.325  1.00  0.00     0.026 C 
BRANCH  20  21
HETATM   21  C3  UNL     1     113.200  80.004  10.719  1.00  0.00     0.002 C 
BRANCH  21  22
HETATM   22  C2  UNL     1     111.867  79.684  11.412  1.00  0.00    -0.004 C 
HETATM   23  C1  UNL     1     110.730  79.790  10.472  1.00  0.00     0.005 C 
ENDBRANCH  21  22
ENDBRANCH  20  21
ENDBRANCH  19  20
ENDBRANCH  18  19
ENDBRANCH  17  18
ENDBRANCH  16  17
ENDBRANCH   1  16
BRANCH  14  24
HETATM   24  C17 UNL     1     116.315  76.715   2.840  1.00  0.00     0.228 C 
BRANCH  24  25
HETATM   25  N6  UNL     1     117.103  77.628   2.022  1.00  0.00    -0.349 N 
HETATM   26  C18 UNL     1     118.262  78.322   2.505  1.00  0.00     0.153 C 
HETATM   27  C19 UNL     1     116.672  77.836   0.693  1.00  0.00     0.177 C 
HETATM   28  N7  UNL     1     116.727  78.980   0.046  1.00  0.00    -0.371 N 
HETATM   29  N8  UNL     1     116.063  76.734  -0.097  1.00  0.00    -0.292 N 
ATOM     30  H72 UNL     1     117.145  79.737   0.588  1.00  0.00     0.159 HD
ATOM     31  H71 UNL     1     116.416  79.131  -0.914  1.00  0.00     0.159 HD
ATOM     32  H8  UNL     1     116.594  75.978  -0.530  1.00  0.00     0.171 HD
BRANCH  29  33
HETATM   33  P1  UNL     1     114.282  76.898  -0.194  1.00  0.00     0.286 P 
BRANCH  33  34
HETATM   34  O4  UNL     1     113.582  75.355   0.141  1.00  0.00    -0.333 OA
ATOM     35  H4  UNL     1     113.549  74.864  -0.671  1.00  0.00     0.219 HD
ENDBRANCH  33  34
BRANCH  33  36
HETATM   36  O5  UNL     1     113.683  78.090   0.879  1.00  0.00    -0.333 OA
ATOM     37  H5  UNL     1     114.189  78.894   0.842  1.00  0.00     0.219 HD
ENDBRANCH  33  36
ENDBRANCH  29  33
ENDBRANCH  24  25
ENDBRANCH  14  24
BRANCH   2  38
HETATM   38  N1  UNL     1     110.848  77.430   5.865  1.00  0.00    -0.368 N 
ATOM     39  H1  UNL     1     110.066  77.691   5.266  1.00  0.00     0.161 HD
BRANCH  38  40
HETATM   40  C10 UNL     1     110.741  77.794   7.272  1.00  0.00     0.287 C 
BRANCH  40  41
HETATM   41  O2  UNL     1     111.284  76.683   7.944  1.00  0.00    -0.382 OA
ATOM     42  H2  UNL     1     111.641  77.056   8.741  1.00  0.00     0.211 HD
ENDBRANCH  40  41
ENDBRANCH  38  40
ENDBRANCH   2  38
TORSDOF 15
ENDMDL
MODEL 2
REMARK VINA RESULT: -7.144756428      1.753      2.452
REMARK  15 active torsions:
REMARK  status: ('A' for Active; 'I' for Inactive)
REMARK    1  A    between atoms: C2_2  and  C3_3 
REMARK    2  A    between atoms: C3_3  and  C4_4 
REMARK    3  A    between atoms: C4_4  and  C5_5 
REMARK    4  A    between atoms: C5_5  and  O1_6 
REMARK    5  A    between atoms: O1_6  and  C6_7 
REMARK    6  A    between atoms: C6_7  and  C7_8 
REMARK    7  A    between atoms: C7_8  and  C8_9 
REMARK    8  A    between atoms: C9_10  and  N1_11 
REMARK    9  A    between atoms: N1_11  and  C10_13 
REMARK   10  A    between atoms: C10_13  and  O2_14 
REMARK       I    between atoms: N5_26  and  C16_27 
REMARK   11  A    between atoms: C16_27  and  C17_29 
REMARK   12  A    between atoms: C17_29  and  N6_30 
REMARK       I    between atoms: N6_30  and  C19_32 
REMARK       I    between atoms: C19_32  and  N8_36 
REMARK   13  A    between atoms: N8_36  and  P1_38 
REMARK   14  A    between atoms: P1_38  and  O4_39 
REMARK   15  A    between atoms: P1_38  and  O5_41 
ROOT
HETATM    1  C8  UNL     1     113.233  77.201   5.150  1.00  0.00     0.146 C 
HETATM    2  C9  UNL     1     111.865  76.755   5.250  1.00  0.00     0.061 C 
HETATM    3  C11 UNL     1     111.501  75.558   4.673  1.00  0.00     0.102 A 
HETATM    4  C12 UNL     1     112.528  74.809   3.940  1.00  0.00     0.079 A 
HETATM    5  N2  UNL     1     112.359  73.627   3.502  1.00  0.00    -0.348 N 
ATOM      6  H2  UNL     1     113.105  73.143   3.001  1.00  0.00     0.167 HD
HETATM    7  C13 UNL     1     111.131  73.009   3.723  1.00  0.00     0.198 A 
HETATM    8  N3  UNL     1     110.167  73.551   4.329  1.00  0.00    -0.294 N 
ATOM      9  H3  UNL     1     109.295  73.035   4.447  1.00  0.00     0.188 HD
HETATM   10  N4  UNL     1     110.280  74.938   4.876  1.00  0.00    -0.292 N 
HETATM   11  C14 UNL     1     109.108  75.460   5.420  1.00  0.00     0.178 C 
HETATM   12  C15 UNL     1     113.750  75.472   3.412  1.00  0.00     0.127 C 
HETATM   13  N5  UNL     1     114.040  76.663   4.017  1.00  0.00    -0.314 N 
HETATM   14  C16 UNL     1     115.213  77.392   3.657  1.00  0.00     0.242 C 
HETATM   15  O3  UNL     1     115.459  78.571   4.089  1.00  0.00    -0.271 OA
ENDROOT
BRANCH   1  16
HETATM   16  C7  UNL     1     114.084  76.368   6.237  1.00  0.00     0.058 C 
BRANCH  16  17
HETATM   17  C6  UNL     1     114.949  77.233   7.090  1.00  0.00     0.170 C 
BRANCH  17  18
HETATM   18  O1  UNL     1     114.125  77.973   7.808  1.00  0.00    -0.391 OA
BRANCH  18  19
HETATM   19  C5  UNL     1     114.183  78.913   8.658  1.00  0.00     0.167 C 
BRANCH  19  20
HETATM   20  C4  UNL     1     112.991  79.472   9.319  1.00  0.00     0.026 C 
BRANCH  20  21
HETATM   21  C3  UNL     1     113.225  79.984  10.714  1.00  0.00     0.002 C 
BRANCH  21  22
HETATM   22  C2  UNL     1     111.891  79.690  11.415  1.00  0.00    -0.004 C 
HETATM   23  C1  UNL     1     110.753  79.787  10.475  1.00  0.00     0.005 C 
ENDBRANCH  21  22
ENDBRANCH  20  21
ENDBRANCH  19  20
ENDBRANCH  18  19
ENDBRANCH  17  18
ENDBRANCH  16  17
ENDBRANCH   1  16
BRANCH  14  24
HETATM   24  C17 UNL     1     116.225  76.803   2.787  1.00  0.00     0.228 C 
BRANCH  24  25
HETATM   25  N6  UNL     1     116.851  77.708   1.833  1.00  0.00    -0.349 N 
HETATM   26  C18 UNL     1     116.231  78.113   0.604  1.00  0.00     0.153 C 
HETATM   27  C19 UNL     1     118.143  78.183   2.148  1.00  0.00     0.177 C 
HETATM   28  N7  UNL     1     119.112  78.385   1.282  1.00  0.00    -0.371 N 
HETATM   29  N8  UNL     1     118.532  78.469   3.554  1.00  0.00    -0.292 N 
ATOM     30  H72 UNL     1     118.846  78.189   0.317  1.00  0.00     0.159 HD
ATOM     31  H71 UNL     1     120.046  78.729   1.510  1.00  0.00     0.159 HD
ATOM     32  H8  UNL     1     118.247  79.302   4.070  1.00  0.00     0.171 HD
BRANCH  29  33
HETATM   33  P1  UNL     1     119.564  77.171   4.230  1.00  0.00     0.286 P 
BRANCH  33  34
HETATM   34  O4  UNL     1     118.928  76.730   5.774  1.00  0.00    -0.333 OA
ATOM     35  H4  UNL     1     119.560  76.164   6.203  1.00  0.00     0.219 HD
ENDBRANCH  33  34
BRANCH  33  36
HETATM   36  O5  UNL     1     119.658  75.812   3.193  1.00  0.00    -0.333 OA
ATOM     37  H5  UNL     1     120.486  75.771   2.729  1.00  0.00     0.219 HD
ENDBRANCH  33  36
ENDBRANCH  29  33
ENDBRANCH  24  25
ENDBRANCH  14  24
BRANCH   2  38
HETATM   38  N1  UNL     1     110.795  77.411   5.901  1.00  0.00    -0.368 N 
ATOM     39  H1  UNL     1     109.987  77.648   5.325  1.00  0.00     0.161 HD
BRANCH  38  40
HETATM   40  C10 UNL     1     110.724  77.783   7.307  1.00  0.00     0.287 C 
BRANCH  40  41
HETATM   41  O2  UNL     1     111.260  76.666   7.974  1.00  0.00    -0.382 OA
ATOM     42  H2  UNL     1     112.064  76.999   8.357  1.00  0.00     0.211 HD
ENDBRANCH  40  41
ENDBRANCH  38  40
ENDBRANCH   2  38
TORSDOF 15
ENDMDL
MODEL 3
REMARK VINA RESULT: -7.007327230      2.643      7.194
REMARK  15 active torsions:
REMARK  status: ('A' for Active; 'I' for Inactive)
REMARK    1  A    between atoms: C2_2  and  C3_3 
REMARK    2  A    between atoms: C3_3  and  C4_4 
REMARK    3  A    between atoms: C4_4  and  C5_5 
REMARK    4  A    between atoms: C5_5  and  O1_6 
REMARK    5  A    between atoms: O1_6  and  C6_7 
REMARK    6  A    between atoms: C6_7  and  C7_8 
REMARK    7  A    between atoms: C7_8  and  C8_9 
REMARK    8  A    between atoms: C9_10  and  N1_11 
REMARK    9  A    between atoms: N1_11  and  C10_13 
REMARK   10  A    between atoms: C10_13  and  O2_14 
REMARK       I    between atoms: N5_26  and  C16_27 
REMARK   11  A    between atoms: C16_27  and  C17_29 
REMARK   12  A    between atoms: C17_29  and  N6_30 
REMARK       I    between atoms: N6_30  and  C19_32 
REMARK       I    between atoms: C19_32  and  N8_36 
REMARK   13  A    between atoms: N8_36  and  P1_38 
REMARK   14  A    between atoms: P1_38  and  O4_39 
REMARK   15  A    between atoms: P1_38  and  O5_41 
ROOT
HETATM    1  C8  UNL     1     114.198  76.238   4.543  1.00  0.00     0.146 C 
HETATM    2  C9  UNL     1     114.375  75.279   3.481  1.00  0.00     0.061 C 
HETATM    3  C11 UNL     1     113.340  74.429   3.158  1.00  0.00     0.102 A 
HETATM    4  C12 UNL     1     112.108  74.515   3.952  1.00  0.00     0.079 A 
HETATM    5  N2  UNL     1     111.035  73.900   3.654  1.00  0.00    -0.348 N 
ATOM      6  H2  UNL     1     110.201  73.994   4.234  1.00  0.00     0.167 HD
HETATM    7  C13 UNL     1     111.026  73.096   2.518  1.00  0.00     0.198 A 
HETATM    8  N3  UNL     1     112.022  72.932   1.761  1.00  0.00    -0.294 N 
ATOM      9  H3  UNL     1     111.939  72.322   0.948  1.00  0.00     0.188 HD
HETATM   10  N4  UNL     1     113.323  73.617   2.037  1.00  0.00    -0.292 N 
HETATM   11  C14 UNL     1     114.372  73.262   1.192  1.00  0.00     0.178 C 
HETATM   12  C15 UNL     1     112.099  75.109   5.315  1.00  0.00     0.127 C 
HETATM   13  N5  UNL     1     113.163  75.926   5.572  1.00  0.00    -0.314 N 
HETATM   14  C16 UNL     1     113.265  76.613   6.819  1.00  0.00     0.242 C 
HETATM   15  O3  UNL     1     114.304  77.276   7.164  1.00  0.00    -0.271 OA
ENDROOT
BRANCH   1  16
HETATM   16  C7  UNL     1     113.326  77.455   3.944  1.00  0.00     0.058 C 
BRANCH  16  17
HETATM   17  C6  UNL     1     114.162  78.519   3.317  1.00  0.00     0.170 C 
BRANCH  17  18
HETATM   18  O1  UNL     1     113.779  78.583   2.056  1.00  0.00    -0.391 OA
BRANCH  18  19
HETATM   19  C5  UNL     1     114.161  78.160   0.922  1.00  0.00     0.167 C 
BRANCH  19  20
HETATM   20  C4  UNL     1     113.529  77.019   0.238  1.00  0.00     0.026 C 
BRANCH  20  21
HETATM   21  C3  UNL     1     114.351  76.411  -0.867  1.00  0.00     0.002 C 
BRANCH  21  22
HETATM   22  C2  UNL     1     115.605  77.299  -0.887  1.00  0.00    -0.004 C 
HETATM   23  C1  UNL     1     116.221  77.333  -2.232  1.00  0.00     0.005 C 
ENDBRANCH  21  22
ENDBRANCH  20  21
ENDBRANCH  19  20
ENDBRANCH  18  19
ENDBRANCH  17  18
ENDBRANCH  16  17
ENDBRANCH   1  16
BRANCH  14  24
HETATM   24  C17 UNL     1     112.156  76.618   7.765  1.00  0.00     0.228 C 
BRANCH  24  25
HETATM   25  N6  UNL     1     111.649  77.930   8.147  1.00  0.00    -0.349 N 
HETATM   26  C18 UNL     1     112.326  78.803   9.062  1.00  0.00     0.153 C 
HETATM   27  C19 UNL     1     110.416  78.331   7.587  1.00  0.00     0.177 C 
HETATM   28  N7  UNL     1     109.487  79.024   8.210  1.00  0.00    -0.371 N 
HETATM   29  N8  UNL     1     110.045  77.953   6.198  1.00  0.00    -0.292 N 
ATOM     30  H72 UNL     1     109.742  79.284   9.163  1.00  0.00     0.159 HD
ATOM     31  H71 UNL     1     108.596  79.314   7.806  1.00  0.00     0.159 HD
ATOM     32  H8  UNL     1     110.418  78.403   5.363  1.00  0.00     0.171 HD
BRANCH  29  33
HETATM   33  P1  UNL     1     108.863  76.608   6.175  1.00  0.00     0.286 P 
BRANCH  33  34
HETATM   34  O4  UNL     1     107.304  77.258   6.536  1.00  0.00    -0.333 OA
ATOM     35  H4  UNL     1     106.966  77.668   5.748  1.00  0.00     0.219 HD
ENDBRANCH  33  34
BRANCH  33  36
HETATM   36  O5  UNL     1     108.852  75.781   4.676  1.00  0.00    -0.333 OA
ATOM     37  H5  UNL     1     108.668  74.854   4.778  1.00  0.00     0.219 HD
ENDBRANCH  33  36
ENDBRANCH  29  33
ENDBRANCH  24  25
ENDBRANCH  14  24
BRANCH   2  38
HETATM   38  N1  UNL     1     115.524  75.091   2.678  1.00  0.00    -0.368 N 
ATOM     39  H1  UNL     1     115.616  74.185   2.218  1.00  0.00     0.161 HD
BRANCH  38  40
HETATM   40  C10 UNL     1     116.590  76.054   2.438  1.00  0.00     0.287 C 
BRANCH  40  41
HETATM   41  O2  UNL     1     117.681  75.253   2.055  1.00  0.00    -0.382 OA
ATOM     42  H2  UNL     1     117.635  74.513   2.650  1.00  0.00     0.211 HD
ENDBRANCH  40  41
ENDBRANCH  38  40
ENDBRANCH   2  38
TORSDOF 15
ENDMDL
MODEL 4
REMARK VINA RESULT: -6.953041683      3.557      7.726
REMARK  15 active torsions:
REMARK  status: ('A' for Active; 'I' for Inactive)
REMARK    1  A    between atoms: C2_2  and  C3_3 
REMARK    2  A    between atoms: C3_3  and  C4_4 
REMARK    3  A    between atoms: C4_4  and  C5_5 
REMARK    4  A    between atoms: C5_5  and  O1_6 
REMARK    5  A    between atoms: O1_6  and  C6_7 
REMARK    6  A    between atoms: C6_7  and  C7_8 
REMARK    7  A    between atoms: C7_8  and  C8_9 
REMARK    8  A    between atoms: C9_10  and  N1_11 
REMARK    9  A    between atoms: N1_11  and  C10_13 
REMARK   10  A    between atoms: C10_13  and  O2_14 
REMARK       I    between atoms: N5_26  and  C16_27 
REMARK   11  A    between atoms: C16_27  and  C17_29 
REMARK   12  A    between atoms: C17_29  and  N6_30 
REMARK       I    between atoms: N6_30  and  C19_32 
REMARK       I    between atoms: C19_32  and  N8_36 
REMARK   13  A    between atoms: N8_36  and  P1_38 
REMARK   14  A    between atoms: P1_38  and  O4_39 
REMARK   15  A    between atoms: P1_38  and  O5_41 
ROOT
HETATM    1  C8  UNL     1     113.200  76.618   5.976  1.00  0.00     0.146 C 
HETATM    2  C9  UNL     1     112.393  75.569   5.406  1.00  0.00     0.061 C 
HETATM    3  C11 UNL     1     111.019  75.658   5.477  1.00  0.00     0.102 A 
HETATM    4  C12 UNL     1     110.442  76.811   6.178  1.00  0.00     0.079 A 
HETATM    5  N2  UNL     1     109.201  77.087   6.176  1.00  0.00    -0.348 N 
ATOM      6  H2  UNL     1     108.846  77.903   6.675  1.00  0.00     0.167 HD
HETATM    7  C13 UNL     1     108.338  76.248   5.476  1.00  0.00     0.198 A 
HETATM    8  N3  UNL     1     108.709  75.222   4.844  1.00  0.00    -0.294 N 
ATOM      9  H3  UNL     1     108.016  74.653   4.358  1.00  0.00     0.188 HD
HETATM   10  N4  UNL     1     110.151  74.824   4.795  1.00  0.00    -0.292 N 
HETATM   11  C14 UNL     1     110.411  73.611   4.161  1.00  0.00     0.178 C 
HETATM   12  C15 UNL     1     111.226  77.592   7.173  1.00  0.00     0.127 C 
HETATM   13  N5  UNL     1     112.579  77.441   7.054  1.00  0.00    -0.314 N 
HETATM   14  C16 UNL     1     113.466  78.170   7.902  1.00  0.00     0.242 C 
HETATM   15  O3  UNL     1     114.728  77.964   7.929  1.00  0.00    -0.271 OA
ENDROOT
BRANCH   1  16
HETATM   16  C7  UNL     1     113.182  77.850   4.937  1.00  0.00     0.058 C 
BRANCH  16  17
HETATM   17  C6  UNL     1     114.322  77.822   3.976  1.00  0.00     0.170 C 
BRANCH  17  18
HETATM   18  O1  UNL     1     113.781  77.835   2.772  1.00  0.00    -0.391 OA
BRANCH  18  19
HETATM   19  C5  UNL     1     114.036  78.296   1.618  1.00  0.00     0.167 C 
BRANCH  19  20
HETATM   20  C4  UNL     1     113.923  77.490   0.390  1.00  0.00     0.026 C 
BRANCH  20  21
HETATM   21  C3  UNL     1     115.160  77.467  -0.466  1.00  0.00     0.002 C 
BRANCH  21  22
HETATM   22  C2  UNL     1     116.174  78.256   0.377  1.00  0.00    -0.004 C 
HETATM   23  C1  UNL     1     117.081  79.054  -0.476  1.00  0.00     0.005 C 
ENDBRANCH  21  22
ENDBRANCH  20  21
ENDBRANCH  19  20
ENDBRANCH  18  19
ENDBRANCH  17  18
ENDBRANCH  16  17
ENDBRANCH   1  16
BRANCH  14  24
HETATM   24  C17 UNL     1     112.970  79.228   8.774  1.00  0.00     0.228 C 
BRANCH  24  25
HETATM   25  N6  UNL     1     113.918  79.747   9.751  1.00  0.00    -0.349 N 
HETATM   26  C18 UNL     1     115.340  79.716   9.567  1.00  0.00     0.153 C 
HETATM   27  C19 UNL     1     113.383  80.288  10.942  1.00  0.00     0.177 C 
HETATM   28  N7  UNL     1     113.919  80.173  12.138  1.00  0.00    -0.371 N 
HETATM   29  N8  UNL     1     112.097  81.033  10.936  1.00  0.00    -0.292 N 
ATOM     30  H72 UNL     1     114.802  79.662  12.142  1.00  0.00     0.159 HD
ATOM     31  H71 UNL     1     113.533  80.564  12.998  1.00  0.00     0.159 HD
ATOM     32  H8  UNL     1     111.992  81.994  10.611  1.00  0.00     0.171 HD
BRANCH  29  33
HETATM   33  P1  UNL     1     110.753  80.032  11.569  1.00  0.00     0.286 P 
BRANCH  33  34
HETATM   34  O4  UNL     1     111.085  79.676  13.227  1.00  0.00    -0.333 OA
ATOM     35  H4  UNL     1     111.797  79.048  13.257  1.00  0.00     0.219 HD
ENDBRANCH  33  34
BRANCH  33  36
HETATM   36  O5  UNL     1     109.234  80.804  11.399  1.00  0.00    -0.333 OA
ATOM     37  H5  UNL     1     108.961  81.240  12.197  1.00  0.00     0.219 HD
ENDBRANCH  33  36
ENDBRANCH  29  33
ENDBRANCH  24  25
ENDBRANCH  14  24
BRANCH   2  38
HETATM   38  N1  UNL     1     112.844  74.405   4.740  1.00  0.00    -0.368 N 
ATOM     39  H1  UNL     1     112.417  73.523   5.024  1.00  0.00     0.161 HD
BRANCH  38  40
HETATM   40  C10 UNL     1     113.852  74.333   3.691  1.00  0.00     0.287 C 
BRANCH  40  41
HETATM   41  O2  UNL     1     113.186  74.833   2.556  1.00  0.00    -0.382 OA
ATOM     42  H2  UNL     1     113.863  74.851   1.890  1.00  0.00     0.211 HD
ENDBRANCH  40  41
ENDBRANCH  38  40
ENDBRANCH   2  38
TORSDOF 15
ENDMDL
MODEL 5
REMARK VINA RESULT: -6.940428432      1.395      1.882
REMARK  15 active torsions:
REMARK  status: ('A' for Active; 'I' for Inactive)
REMARK    1  A    between atoms: C2_2  and  C3_3 
REMARK    2  A    between atoms: C3_3  and  C4_4 
REMARK    3  A    between atoms: C4_4  and  C5_5 
REMARK    4  A    between atoms: C5_5  and  O1_6 
REMARK    5  A    between atoms: O1_6  and  C6_7 
REMARK    6  A    between atoms: C6_7  and  C7_8 
REMARK    7  A    between atoms: C7_8  and  C8_9 
REMARK    8  A    between atoms: C9_10  and  N1_11 
REMARK    9  A    between atoms: N1_11  and  C10_13 
REMARK   10  A    between atoms: C10_13  and  O2_14 
REMARK       I    between atoms: N5_26  and  C16_27 
REMARK   11  A    between atoms: C16_27  and  C17_29 
REMARK   12  A    between atoms: C17_29  and  N6_30 
REMARK       I    between atoms: N6_30  and  C19_32 
REMARK       I    between atoms: C19_32  and  N8_36 
REMARK   13  A    between atoms: N8_36  and  P1_38 
REMARK   14  A    between atoms: P1_38  and  O4_39 
REMARK   15  A    between atoms: P1_38  and  O5_41 
ROOT
HETATM    1  C8  UNL     1     113.173  77.064   4.959  1.00  0.00     0.146 C 
HETATM    2  C9  UNL     1     111.796  76.692   5.168  1.00  0.00     0.061 C 
HETATM    3  C11 UNL     1     111.325  75.515   4.628  1.00  0.00     0.102 A 
HETATM    4  C12 UNL     1     112.250  74.712   3.820  1.00  0.00     0.079 A 
HETATM    5  N2  UNL     1     111.985  73.540   3.403  1.00  0.00    -0.348 N 
ATOM      6  H2  UNL     1     112.662  73.017   2.847  1.00  0.00     0.167 HD
HETATM    7  C13 UNL     1     110.747  72.988   3.722  1.00  0.00     0.198 A 
HETATM    8  N3  UNL     1     109.864  73.581   4.400  1.00  0.00    -0.294 N 
ATOM      9  H3  UNL     1     108.978  73.111   4.589  1.00  0.00     0.188 HD
HETATM   10  N4  UNL     1     110.093  74.961   4.929  1.00  0.00    -0.292 N 
HETATM   11  C14 UNL     1     108.997  75.544   5.561  1.00  0.00     0.178 C 
HETATM   12  C15 UNL     1     113.460  75.309   3.195  1.00  0.00     0.127 C 
HETATM   13  N5  UNL     1     113.859  76.483   3.769  1.00  0.00    -0.314 N 
HETATM   14  C16 UNL     1     115.037  77.148   3.314  1.00  0.00     0.242 C 
HETATM   15  O3  UNL     1     115.378  78.313   3.719  1.00  0.00    -0.271 OA
ENDROOT
BRANCH   1  16
HETATM   16  C7  UNL     1     114.063  76.188   5.980  1.00  0.00     0.058 C 
BRANCH  16  17
HETATM   17  C6  UNL     1     115.046  77.005   6.748  1.00  0.00     0.170 C 
BRANCH  17  18
HETATM   18  O1  UNL     1     114.331  77.757   7.565  1.00  0.00    -0.391 OA
BRANCH  18  19
HETATM   19  C5  UNL     1     114.517  78.672   8.424  1.00  0.00     0.167 C 
BRANCH  19  20
HETATM   20  C4  UNL     1     113.413  79.344   9.130  1.00  0.00     0.026 C 
BRANCH  20  21
HETATM   21  C3  UNL     1     113.817  80.078  10.380  1.00  0.00     0.002 C 
BRANCH  21  22
HETATM   22  C2  UNL     1     112.582  79.926  11.281  1.00  0.00    -0.004 C 
HETATM   23  C1  UNL     1     111.355  79.710  10.483  1.00  0.00     0.005 C 
ENDBRANCH  21  22
ENDBRANCH  20  21
ENDBRANCH  19  20
ENDBRANCH  18  19
ENDBRANCH  17  18
ENDBRANCH  16  17
ENDBRANCH   1  16
BRANCH  14  24
HETATM   24  C17 UNL     1     115.945  76.506   2.371  1.00  0.00     0.228 C 
BRANCH  24  25
HETATM   25  N6  UNL     1     115.691  76.770   0.960  1.00  0.00    -0.349 N 
HETATM   26  C18 UNL     1     115.624  78.090   0.403  1.00  0.00     0.153 C 
HETATM   27  C19 UNL     1     115.485  75.651   0.123  1.00  0.00     0.177 C 
HETATM   28  N7  UNL     1     114.637  75.598  -0.881  1.00  0.00    -0.371 N 
HETATM   29  N8  UNL     1     116.222  74.380   0.347  1.00  0.00    -0.292 N 
ATOM     30  H72 UNL     1     114.130  76.470  -1.035  1.00  0.00     0.159 HD
ATOM     31  H71 UNL     1     114.488  74.789  -1.486  1.00  0.00     0.159 HD
ATOM     32  H8  UNL     1     117.196  74.228   0.085  1.00  0.00     0.171 HD
BRANCH  29  33
HETATM   33  P1  UNL     1     115.188  73.148   1.135  1.00  0.00     0.286 P 
BRANCH  33  34
HETATM   34  O4  UNL     1     113.590  73.303   0.498  1.00  0.00    -0.333 OA
ATOM     35  H4  UNL     1     113.195  72.439   0.479  1.00  0.00     0.219 HD
ENDBRANCH  33  34
BRANCH  33  36
HETATM   36  O5  UNL     1     115.787  71.560   0.912  1.00  0.00    -0.333 OA
ATOM     37  H5  UNL     1     115.129  70.899   1.092  1.00  0.00     0.219 HD
ENDBRANCH  33  36
ENDBRANCH  29  33
ENDBRANCH  24  25
ENDBRANCH  14  24
BRANCH   2  38
HETATM   38  N1  UNL     1     110.816  77.403   5.898  1.00  0.00    -0.368 N 
ATOM     39  H1  UNL     1     109.981  77.685   5.386  1.00  0.00     0.161 HD
BRANCH  38  40
HETATM   40  C10 UNL     1     110.874  77.776   7.305  1.00  0.00     0.287 C 
BRANCH  40  41
HETATM   41  O2  UNL     1     111.401  76.631   7.931  1.00  0.00    -0.382 OA
ATOM     42  H2  UNL     1     110.910  76.573   8.742  1.00  0.00     0.211 HD
ENDBRANCH  40  41
ENDBRANCH  38  40
ENDBRANCH   2  38
TORSDOF 15
ENDMDL
