MODEL 1
REMARK VINA RESULT: -7.753885663      0.000      0.000
REMARK  15 active torsions:
REMARK  status: ('A' for Active; 'I' for Inactive)
REMARK    1  A    between atoms: C2_2  and  C3_3 
REMARK    2  A    between atoms: C2_2  and  N8_31 
REMARK    3  A    between atoms: C3_3  and  C4_4 
REMARK    4  A    between atoms: C4_4  and  N1_5 
REMARK       I    between atoms: N1_5  and  C5_7 
REMARK    5  A    between atoms: C5_7  and  C6_9 
REMARK    6  A    between atoms: C6_9  and  O2_10 
REMARK    7  A    between atoms: C6_9  and  C7_12 
REMARK    8  A    between atoms: C7_12  and  N2_13 
REMARK    9  A    between atoms: C10_18  and  N4_19 
REMARK   10  A    between atoms: N8_31  and  C16_33 
REMARK   11  A    between atoms: C16_33  and  C17_34 
REMARK   12  A    between atoms: C17_34  and  C18_35 
REMARK   13  A    between atoms: C18_35  and  P1_36 
REMARK   14  A    between atoms: P1_36  and  O4_37 
REMARK   15  A    between atoms: P1_36  and  O5_39 
ROOT
HETATM    1  C6  UNL     1     110.615  80.121  10.900  1.00  0.00     0.228 C 
ENDROOT
BRANCH   1   2
HETATM    2  C5  UNL     1     110.386  79.371   9.652  1.00  0.00     0.248 C 
HETATM    3  N1  UNL     1     111.477  78.905   8.892  1.00  0.00    -0.359 N 
ATOM      4  H1  UNL     1     112.432  79.081   9.204  1.00  0.00     0.162 HD
HETATM    5  O1  UNL     1     109.217  79.153   9.272  1.00  0.00    -0.271 OA
BRANCH   3   6
HETATM    6  C4  UNL     1     111.234  78.176   7.667  1.00  0.00     0.124 C 
BRANCH   6   7
HETATM    7  C3  UNL     1     111.903  76.829   7.679  1.00  0.00     0.044 C 
BRANCH   7   8
HETATM    8  C2  UNL     1     111.993  76.191   6.293  1.00  0.00     0.078 C 
HETATM    9  C1  UNL     1     113.290  76.444   5.619  1.00  0.00     0.032 C 
BRANCH   8  10
HETATM   10  N8  UNL     1     110.868  76.590   5.543  1.00  0.00    -0.398 N 
ATOM     11  H8  UNL     1     110.865  77.516   5.116  1.00  0.00     0.159 HD
BRANCH  10  12
HETATM   12  C16 UNL     1     109.761  75.764   5.366  1.00  0.00     0.056 C 
BRANCH  12  13
HETATM   13  C17 UNL     1     108.383  76.288   5.485  1.00  0.00     0.053 C 
BRANCH  13  14
HETATM   14  C18 UNL     1     108.086  76.982   6.812  1.00  0.00     0.098 C 
BRANCH  14  15
HETATM   15  P1  UNL     1     107.042  78.477   6.364  1.00  0.00     0.163 P 
BRANCH  15  16
HETATM   16  O4  UNL     1     106.490  79.217   7.842  1.00  0.00    -0.350 OA
ATOM     17  H4  UNL     1     105.551  79.345   7.777  1.00  0.00     0.217 HD
ENDBRANCH  15  16
BRANCH  15  18
HETATM   18  O5  UNL     1     107.978  79.643   5.511  1.00  0.00    -0.350 OA
ATOM     19  H5  UNL     1     108.900  79.420   5.538  1.00  0.00     0.217 HD
ENDBRANCH  15  18
ENDBRANCH  14  15
ENDBRANCH  13  14
ENDBRANCH  12  13
ENDBRANCH  10  12
ENDBRANCH   8  10
ENDBRANCH   7   8
ENDBRANCH   6   7
ENDBRANCH   3   6
ENDBRANCH   1   2
BRANCH   1  20
HETATM   20  O2  UNL     1     109.436  80.844  11.188  1.00  0.00    -0.384 OA
ATOM     21  H2  UNL     1     109.599  81.361  11.969  1.00  0.00     0.210 HD
ENDBRANCH   1  20
BRANCH   1  22
HETATM   22  C7  UNL     1     111.687  81.176  10.716  1.00  0.00     0.172 C 
BRANCH  22  23
HETATM   23  N2  UNL     1     112.562  81.130  11.876  1.00  0.00    -0.325 N 
HETATM   24  C8  UNL     1     112.876  80.070  12.636  1.00  0.00     0.184 A 
HETATM   25  N3  UNL     1     113.725  80.426  13.621  1.00  0.00    -0.358 N 
HETATM   26  C9  UNL     1     113.969  81.724  13.506  1.00  0.00     0.138 A 
ATOM     27  H3  UNL     1     114.114  79.804  14.330  1.00  0.00     0.166 HD
HETATM   28  C10 UNL     1     113.246  82.168  12.420  1.00  0.00     0.135 A 
BRANCH  28  29
HETATM   29  N4  UNL     1     113.207  83.510  11.931  1.00  0.00    -0.242 N 
HETATM   30  C11 UNL     1     112.210  84.319  12.388  1.00  0.00     0.212 A 
HETATM   31  N5  UNL     1     112.139  85.595  11.952  1.00  0.00    -0.186 N 
HETATM   32  C12 UNL     1     113.027  86.095  11.075  1.00  0.00     0.693 A 
ATOM     33  H5  UNL     1     111.391  86.196  12.297  1.00  0.00     0.185 HD
HETATM   34  N6  UNL     1     113.193  87.298  10.484  1.00  0.00    -0.200 N 
HETATM   35  N7  UNL     1     114.029  85.296  10.610  1.00  0.00    -0.105 N 
HETATM   36  C13 UNL     1     114.264  87.283   9.665  1.00  0.00     0.124 A 
ATOM     37  H6  UNL     1     112.591  88.106  10.637  1.00  0.00     0.183 HD
HETATM   38  C14 UNL     1     114.776  86.014   9.759  1.00  0.00     0.137 A 
HETATM   39  C15 UNL     1     114.080  84.019  11.062  1.00  0.00     0.354 A 
HETATM   40  O3  UNL     1     115.012  83.262  10.636  1.00  0.00    -0.245 OA
ENDBRANCH  28  29
ENDBRANCH  22  23
ENDBRANCH   1  22
TORSDOF 15
ENDMDL
MODEL 2
REMARK VINA RESULT: -7.729103749      2.688      3.076
REMARK  15 active torsions:
REMARK  status: ('A' for Active; 'I' for Inactive)
REMARK    1  A    between atoms: C2_2  and  C3_3 
REMARK    2  A    between atoms: C2_2  and  N8_31 
REMARK    3  A    between atoms: C3_3  and  C4_4 
REMARK    4  A    between atoms: C4_4  and  N1_5 
REMARK       I    between atoms: N1_5  and  C5_7 
REMARK    5  A    between atoms: C5_7  and  C6_9 
REMARK    6  A    between atoms: C6_9  and  O2_10 
REMARK    7  A    between atoms: C6_9  and  C7_12 
REMARK    8  A    between atoms: C7_12  and  N2_13 
REMARK    9  A    between atoms: C10_18  and  N4_19 
REMARK   10  A    between atoms: N8_31  and  C16_33 
REMARK   11  A    between atoms: C16_33  and  C17_34 
REMARK   12  A    between atoms: C17_34  and  C18_35 
REMARK   13  A    between atoms: C18_35  and  P1_36 
REMARK   14  A    between atoms: P1_36  and  O4_37 
REMARK   15  A    between atoms: P1_36  and  O5_39 
ROOT
HETATM    1  C6  UNL     1     110.750  80.089  10.926  1.00  0.00     0.228 C 
ENDROOT
BRANCH   1   2
HETATM    2  C5  UNL     1     110.317  79.322   9.745  1.00  0.00     0.248 C 
HETATM    3  N1  UNL     1     111.269  78.708   8.907  1.00  0.00    -0.359 N 
ATOM      4  H1  UNL     1     112.264  78.789   9.115  1.00  0.00     0.162 HD
HETATM    5  O1  UNL     1     109.099  79.219   9.491  1.00  0.00    -0.271 OA
BRANCH   3   6
HETATM    6  C4  UNL     1     110.826  77.963   7.749  1.00  0.00     0.124 C 
BRANCH   6   7
HETATM    7  C3  UNL     1     111.933  77.780   6.748  1.00  0.00     0.044 C 
BRANCH   7   8
HETATM    8  C2  UNL     1     113.091  76.935   7.281  1.00  0.00     0.078 C 
HETATM    9  C1  UNL     1     114.337  77.715   7.480  1.00  0.00     0.032 C 
BRANCH   8  10
HETATM   10  N8  UNL     1     113.244  75.810   6.446  1.00  0.00    -0.398 N 
ATOM     11  H8  UNL     1     113.012  74.888   6.816  1.00  0.00     0.159 HD
BRANCH  10  12
HETATM   12  C16 UNL     1     113.701  75.912   5.134  1.00  0.00     0.056 C 
BRANCH  12  13
HETATM   13  C17 UNL     1     112.843  75.541   3.989  1.00  0.00     0.053 C 
BRANCH  13  14
HETATM   14  C18 UNL     1     111.557  74.815   4.375  1.00  0.00     0.098 C 
BRANCH  14  15
HETATM   15  P1  UNL     1     111.835  73.024   3.882  1.00  0.00     0.163 P 
BRANCH  15  16
HETATM   16  O4  UNL     1     112.929  72.307   5.033  1.00  0.00    -0.350 OA
ATOM     17  H4  UNL     1     112.760  71.373   5.060  1.00  0.00     0.217 HD
ENDBRANCH  15  16
BRANCH  15  18
HETATM   18  O5  UNL     1     110.360  72.138   3.939  1.00  0.00    -0.350 OA
ATOM     19  H5  UNL     1     110.524  71.221   4.124  1.00  0.00     0.217 HD
ENDBRANCH  15  18
ENDBRANCH  14  15
ENDBRANCH  13  14
ENDBRANCH  12  13
ENDBRANCH  10  12
ENDBRANCH   8  10
ENDBRANCH   7   8
ENDBRANCH   6   7
ENDBRANCH   3   6
ENDBRANCH   1   2
BRANCH   1  20
HETATM   20  O2  UNL     1     109.828  81.143  11.115  1.00  0.00    -0.384 OA
ATOM     21  H2  UNL     1     109.575  81.145  12.031  1.00  0.00     0.210 HD
ENDBRANCH   1  20
BRANCH   1  22
HETATM   22  C7  UNL     1     112.080  80.772  10.677  1.00  0.00     0.172 C 
BRANCH  22  23
HETATM   23  N2  UNL     1     112.820  80.778  11.929  1.00  0.00    -0.325 N 
HETATM   24  C8  UNL     1     113.169  79.730  12.690  1.00  0.00     0.184 A 
HETATM   25  N3  UNL     1     113.856  80.138  13.775  1.00  0.00    -0.358 N 
HETATM   26  C9  UNL     1     113.957  81.459  13.726  1.00  0.00     0.138 A 
ATOM     27  H3  UNL     1     114.234  79.536  14.507  1.00  0.00     0.166 HD
HETATM   28  C10 UNL     1     113.313  81.863  12.577  1.00  0.00     0.135 A 
BRANCH  28  29
HETATM   29  N4  UNL     1     113.172  83.211  12.124  1.00  0.00    -0.242 N 
HETATM   30  C11 UNL     1     112.071  83.902  12.534  1.00  0.00     0.212 A 
HETATM   31  N5  UNL     1     111.901  85.179  12.130  1.00  0.00    -0.186 N 
HETATM   32  C12 UNL     1     112.790  85.794  11.332  1.00  0.00     0.693 A 
ATOM     33  H5  UNL     1     111.074  85.691  12.439  1.00  0.00     0.185 HD
HETATM   34  N6  UNL     1     112.873  87.028  10.788  1.00  0.00    -0.200 N 
HETATM   35  N7  UNL     1     113.895  85.115  10.915  1.00  0.00    -0.105 N 
HETATM   36  C13 UNL     1     113.992  87.147  10.045  1.00  0.00     0.124 A 
ATOM     37  H6  UNL     1     112.184  87.767  10.922  1.00  0.00     0.183 HD
HETATM   38  C14 UNL     1     114.621  85.932  10.138  1.00  0.00     0.137 A 
HETATM   39  C15 UNL     1     114.045  83.834  11.333  1.00  0.00     0.354 A 
HETATM   40  O3  UNL     1     115.074  83.188  10.951  1.00  0.00    -0.245 OA
ENDBRANCH  28  29
ENDBRANCH  22  23
ENDBRANCH   1  22
TORSDOF 15
ENDMDL
MODEL 3
REMARK VINA RESULT: -7.616266484      2.617      3.291
REMARK  15 active torsions:
REMARK  status: ('A' for Active; 'I' for Inactive)
REMARK    1  A    between atoms: C2_2  and  C3_3 
REMARK    2  A    between atoms: C2_2  and  N8_31 
REMARK    3  A    between atoms: C3_3  and  C4_4 
REMARK    4  A    between atoms: C4_4  and  N1_5 
REMARK       I    between atoms: N1_5  and  C5_7 
REMARK    5  A    between atoms: C5_7  and  C6_9 
REMARK    6  A    between atoms: C6_9  and  O2_10 
REMARK    7  A    between atoms: C6_9  and  C7_12 
REMARK    8  A    between atoms: C7_12  and  N2_13 
REMARK    9  A    between atoms: C10_18  and  N4_19 
REMARK   10  A    between atoms: N8_31  and  C16_33 
REMARK   11  A    between atoms: C16_33  and  C17_34 
REMARK   12  A    between atoms: C17_34  and  C18_35 
REMARK   13  A    between atoms: C18_35  and  P1_36 
REMARK   14  A    between atoms: P1_36  and  O4_37 
REMARK   15  A    between atoms: P1_36  and  O5_39 
ROOT
HETATM    1  C6  UNL     1     111.034  80.220  11.875  1.00  0.00     0.228 C 
ENDROOT
BRANCH   1   2
HETATM    2  C5  UNL     1     110.177  79.763  10.767  1.00  0.00     0.248 C 
HETATM    3  N1  UNL     1     110.746  79.406   9.528  1.00  0.00    -0.359 N 
ATOM      4  H1  UNL     1     111.756  79.459   9.393  1.00  0.00     0.162 HD
HETATM    5  O1  UNL     1     108.942  79.695  10.933  1.00  0.00    -0.271 OA
BRANCH   3   6
HETATM    6  C4  UNL     1     109.889  78.965   8.450  1.00  0.00     0.124 C 
BRANCH   6   7
HETATM    7  C3  UNL     1     110.515  77.846   7.664  1.00  0.00     0.044 C 
BRANCH   7   8
HETATM    8  C2  UNL     1     109.786  77.551   6.354  1.00  0.00     0.078 C 
HETATM    9  C1  UNL     1     108.314  77.463   6.514  1.00  0.00     0.032 C 
BRANCH   8  10
HETATM   10  N8  UNL     1     110.369  76.410   5.765  1.00  0.00    -0.398 N 
ATOM     11  H8  UNL     1     109.777  75.604   5.565  1.00  0.00     0.159 HD
BRANCH  10  12
HETATM   12  C16 UNL     1     111.723  76.345   5.448  1.00  0.00     0.056 C 
BRANCH  12  13
HETATM   13  C17 UNL     1     112.389  75.053   5.172  1.00  0.00     0.053 C 
BRANCH  13  14
HETATM   14  C18 UNL     1     112.336  74.618   3.710  1.00  0.00     0.098 C 
BRANCH  14  15
HETATM   15  P1  UNL     1     111.180  73.138   3.677  1.00  0.00     0.163 P 
BRANCH  15  16
HETATM   16  O4  UNL     1     109.917  73.408   4.847  1.00  0.00    -0.350 OA
ATOM     17  H4  UNL     1     109.905  72.671   5.446  1.00  0.00     0.217 HD
ENDBRANCH  15  16
BRANCH  15  18
HETATM   18  O5  UNL     1     110.437  72.977   2.132  1.00  0.00    -0.350 OA
ATOM     19  H5  UNL     1     109.948  72.165   2.076  1.00  0.00     0.217 HD
ENDBRANCH  15  18
ENDBRANCH  14  15
ENDBRANCH  13  14
ENDBRANCH  12  13
ENDBRANCH  10  12
ENDBRANCH   8  10
ENDBRANCH   7   8
ENDBRANCH   6   7
ENDBRANCH   3   6
ENDBRANCH   1   2
BRANCH   1  20
HETATM   20  O2  UNL     1     110.636  81.533  12.213  1.00  0.00    -0.384 OA
ATOM     21  H2  UNL     1     111.295  81.894  12.795  1.00  0.00     0.210 HD
ENDBRANCH   1  20
BRANCH   1  22
HETATM   22  C7  UNL     1     112.478  80.351  11.432  1.00  0.00     0.172 C 
BRANCH  22  23
HETATM   23  N2  UNL     1     113.301  80.471  12.625  1.00  0.00    -0.325 N 
HETATM   24  C8  UNL     1     113.409  79.610  13.648  1.00  0.00     0.184 A 
HETATM   25  N3  UNL     1     114.280  80.071  14.567  1.00  0.00    -0.358 N 
HETATM   26  C9  UNL     1     114.746  81.238  14.146  1.00  0.00     0.138 A 
ATOM     27  H3  UNL     1     114.538  79.603  15.436  1.00  0.00     0.166 HD
HETATM   28  C10 UNL     1     114.139  81.492  12.935  1.00  0.00     0.135 A 
BRANCH  28  29
HETATM   29  N4  UNL     1     114.344  82.648  12.121  1.00  0.00    -0.242 N 
HETATM   30  C11 UNL     1     115.436  82.659  11.305  1.00  0.00     0.212 A 
HETATM   31  N5  UNL     1     115.665  83.733  10.519  1.00  0.00    -0.186 N 
HETATM   32  C12 UNL     1     114.844  84.797  10.515  1.00  0.00     0.693 A 
ATOM     33  H5  UNL     1     116.484  83.737   9.911  1.00  0.00     0.185 HD
HETATM   34  N6  UNL     1     114.828  85.974   9.851  1.00  0.00    -0.200 N 
HETATM   35  N7  UNL     1     113.749  84.799  11.326  1.00  0.00    -0.105 N 
HETATM   36  C13 UNL     1     113.761  86.713  10.216  1.00  0.00     0.124 A 
ATOM     37  H6  UNL     1     115.528  86.262   9.168  1.00  0.00     0.183 HD
HETATM   38  C14 UNL     1     113.095  85.956  11.146  1.00  0.00     0.137 A 
HETATM   39  C15 UNL     1     113.539  83.711  12.107  1.00  0.00     0.354 A 
HETATM   40  O3  UNL     1     112.518  83.699  12.869  1.00  0.00    -0.245 OA
ENDBRANCH  28  29
ENDBRANCH  22  23
ENDBRANCH   1  22
TORSDOF 15
ENDMDL
MODEL 4
REMARK VINA RESULT: -7.412537755      2.793      3.151
REMARK  15 active torsions:
REMARK  status: ('A' for Active; 'I' for Inactive)
REMARK    1  A    between atoms: C2_2  and  C3_3 
REMARK    2  A    between atoms: C2_2  and  N8_31 
REMARK    3  A    between atoms: C3_3  and  C4_4 
REMARK    4  A    between atoms: C4_4  and  N1_5 
REMARK       I    between atoms: N1_5  and  C5_7 
REMARK    5  A    between atoms: C5_7  and  C6_9 
REMARK    6  A    between atoms: C6_9  and  O2_10 
REMARK    7  A    between atoms: C6_9  and  C7_12 
REMARK    8  A    between atoms: C7_12  and  N2_13 
REMARK    9  A    between atoms: C10_18  and  N4_19 
REMARK   10  A    between atoms: N8_31  and  C16_33 
REMARK   11  A    between atoms: C16_33  and  C17_34 
REMARK   12  A    between atoms: C17_34  and  C18_35 
REMARK   13  A    between atoms: C18_35  and  P1_36 
REMARK   14  A    between atoms: P1_36  and  O4_37 
REMARK   15  A    between atoms: P1_36  and  O5_39 
ROOT
HETATM    1  C6  UNL     1     110.507  79.986  10.870  1.00  0.00     0.228 C 
ENDROOT
BRANCH   1   2
HETATM    2  C5  UNL     1     110.176  79.254   9.634  1.00  0.00     0.248 C 
HETATM    3  N1  UNL     1     111.201  78.716   8.830  1.00  0.00    -0.359 N 
ATOM      4  H1  UNL     1     112.178  78.827   9.102  1.00  0.00     0.162 HD
HETATM    5  O1  UNL     1     108.981  79.115   9.304  1.00  0.00    -0.271 OA
BRANCH   3   6
HETATM    6  C4  UNL     1     110.858  78.006   7.618  1.00  0.00     0.124 C 
BRANCH   6   7
HETATM    7  C3  UNL     1     111.805  76.868   7.353  1.00  0.00     0.044 C 
BRANCH   7   8
HETATM    8  C2  UNL     1     111.811  76.420   5.892  1.00  0.00     0.078 C 
HETATM    9  C1  UNL     1     112.624  77.298   5.016  1.00  0.00     0.032 C 
BRANCH   8  10
HETATM   10  N8  UNL     1     110.475  76.262   5.468  1.00  0.00    -0.398 N 
ATOM     11  H8  UNL     1     109.819  77.028   5.617  1.00  0.00     0.159 HD
BRANCH  10  12
HETATM   12  C16 UNL     1     110.022  75.098   4.852  1.00  0.00     0.056 C 
BRANCH  12  13
HETATM   13  C17 UNL     1     110.937  73.972   4.565  1.00  0.00     0.053 C 
BRANCH  13  14
HETATM   14  C18 UNL     1     110.981  73.555   3.097  1.00  0.00     0.098 C 
BRANCH  14  15
HETATM   15  P1  UNL     1     112.794  73.239   2.728  1.00  0.00     0.163 P 
BRANCH  15  16
HETATM   16  O4  UNL     1     112.969  73.020   1.008  1.00  0.00    -0.350 OA
ATOM     17  H4  UNL     1     113.094  72.094   0.839  1.00  0.00     0.217 HD
ENDBRANCH  15  16
BRANCH  15  18
HETATM   18  O5  UNL     1     113.756  74.592   3.184  1.00  0.00    -0.350 OA
ATOM     19  H5  UNL     1     113.670  74.770   4.113  1.00  0.00     0.217 HD
ENDBRANCH  15  18
ENDBRANCH  14  15
ENDBRANCH  13  14
ENDBRANCH  12  13
ENDBRANCH  10  12
ENDBRANCH   8  10
ENDBRANCH   7   8
ENDBRANCH   6   7
ENDBRANCH   3   6
ENDBRANCH   1   2
BRANCH   1  20
HETATM   20  O2  UNL     1     109.421  80.839  11.167  1.00  0.00    -0.384 OA
ATOM     21  H2  UNL     1     109.021  80.528  11.971  1.00  0.00     0.210 HD
ENDBRANCH   1  20
BRANCH   1  22
HETATM   22  C7  UNL     1     111.687  80.913  10.658  1.00  0.00     0.172 C 
BRANCH  22  23
HETATM   23  N2  UNL     1     112.526  80.846  11.844  1.00  0.00    -0.325 N 
HETATM   24  C8  UNL     1     112.876  79.760  12.551  1.00  0.00     0.184 A 
HETATM   25  N3  UNL     1     113.672  80.102  13.583  1.00  0.00    -0.358 N 
HETATM   26  C9  UNL     1     113.845  81.416  13.553  1.00  0.00     0.138 A 
ATOM     27  H3  UNL     1     114.073  79.461  14.268  1.00  0.00     0.166 HD
HETATM   28  C10 UNL     1     113.133  81.884  12.470  1.00  0.00     0.135 A 
BRANCH  28  29
HETATM   29  N4  UNL     1     113.034  83.249  12.059  1.00  0.00    -0.242 N 
HETATM   30  C11 UNL     1     111.952  83.959  12.487  1.00  0.00     0.212 A 
HETATM   31  N5  UNL     1     111.822  85.253  12.122  1.00  0.00    -0.186 N 
HETATM   32  C12 UNL     1     112.732  85.866  11.345  1.00  0.00     0.693 A 
ATOM     33  H5  UNL     1     111.010  85.780  12.445  1.00  0.00     0.185 HD
HETATM   34  N6  UNL     1     112.853  87.112  10.840  1.00  0.00    -0.200 N 
HETATM   35  N7  UNL     1     113.817  85.166  10.910  1.00  0.00    -0.105 N 
HETATM   36  C13 UNL     1     113.977  87.221  10.103  1.00  0.00     0.124 A 
ATOM     37  H6  UNL     1     112.185  87.867  10.994  1.00  0.00     0.183 HD
HETATM   38  C14 UNL     1     114.570  85.985  10.161  1.00  0.00     0.137 A 
HETATM   39  C15 UNL     1     113.928  83.870  11.289  1.00  0.00     0.354 A 
HETATM   40  O3  UNL     1     114.939  83.205  10.890  1.00  0.00    -0.245 OA
ENDBRANCH  28  29
ENDBRANCH  22  23
ENDBRANCH   1  22
TORSDOF 15
ENDMDL
MODEL 5
REMARK VINA RESULT: -7.335805797      2.723      3.135
REMARK  15 active torsions:
REMARK  status: ('A' for Active; 'I' for Inactive)
REMARK    1  A    between atoms: C2_2  and  C3_3 
REMARK    2  A    between atoms: C2_2  and  N8_31 
REMARK    3  A    between atoms: C3_3  and  C4_4 
REMARK    4  A    between atoms: C4_4  and  N1_5 
REMARK       I    between atoms: N1_5  and  C5_7 
REMARK    5  A    between atoms: C5_7  and  C6_9 
REMARK    6  A    between atoms: C6_9  and  O2_10 
REMARK    7  A    between atoms: C6_9  and  C7_12 
REMARK    8  A    between atoms: C7_12  and  N2_13 
REMARK    9  A    between atoms: C10_18  and  N4_19 
REMARK   10  A    between atoms: N8_31  and  C16_33 
REMARK   11  A    between atoms: C16_33  and  C17_34 
REMARK   12  A    between atoms: C17_34  and  C18_35 
REMARK   13  A    between atoms: C18_35  and  P1_36 
REMARK   14  A    between atoms: P1_36  and  O4_37 
REMARK   15  A    between atoms: P1_36  and  O5_39 
ROOT
HETATM    1  C6  UNL     1     111.257  81.341  11.983  1.00  0.00     0.228 C 
ENDROOT
BRANCH   1   2
HETATM    2  C5  UNL     1     110.334  80.602  11.103  1.00  0.00     0.248 C 
HETATM    3  N1  UNL     1     110.838  79.762  10.090  1.00  0.00    -0.359 N 
ATOM      4  H1  UNL     1     111.844  79.659   9.962  1.00  0.00     0.162 HD
HETATM    5  O1  UNL     1     109.103  80.725  11.262  1.00  0.00    -0.271 OA
BRANCH   3   6
HETATM    6  C4  UNL     1     109.918  79.048   9.233  1.00  0.00     0.124 C 
BRANCH   6   7
HETATM    7  C3  UNL     1     110.566  78.639   7.939  1.00  0.00     0.044 C 
BRANCH   7   8
HETATM    8  C2  UNL     1     111.749  77.691   8.133  1.00  0.00     0.078 C 
HETATM    9  C1  UNL     1     113.062  78.381   8.088  1.00  0.00     0.032 C 
BRANCH   8  10
HETATM   10  N8  UNL     1     111.626  76.629   7.214  1.00  0.00    -0.398 N 
ATOM     11  H8  UNL     1     112.226  75.812   7.325  1.00  0.00     0.159 HD
BRANCH  10  12
HETATM   12  C16 UNL     1     110.715  76.657   6.161  1.00  0.00     0.056 C 
BRANCH  12  13
HETATM   13  C17 UNL     1     110.633  75.549   5.185  1.00  0.00     0.053 C 
BRANCH  13  14
HETATM   14  C18 UNL     1     111.980  75.110   4.616  1.00  0.00     0.098 C 
BRANCH  14  15
HETATM   15  P1  UNL     1     111.734  73.327   4.083  1.00  0.00     0.163 P 
BRANCH  15  16
HETATM   16  O4  UNL     1     112.802  72.325   5.027  1.00  0.00    -0.350 OA
ATOM     17  H4  UNL     1     112.391  71.475   5.137  1.00  0.00     0.217 HD
ENDBRANCH  15  16
BRANCH  15  18
HETATM   18  O5  UNL     1     110.121  72.812   4.394  1.00  0.00    -0.350 OA
ATOM     19  H5  UNL     1     110.111  72.081   5.000  1.00  0.00     0.217 HD
ENDBRANCH  15  18
ENDBRANCH  14  15
ENDBRANCH  13  14
ENDBRANCH  12  13
ENDBRANCH  10  12
ENDBRANCH   8  10
ENDBRANCH   7   8
ENDBRANCH   6   7
ENDBRANCH   3   6
ENDBRANCH   1   2
BRANCH   1  20
HETATM   20  O2  UNL     1     110.691  82.612  12.228  1.00  0.00    -0.384 OA
ATOM     21  H2  UNL     1     109.993  82.744  11.595  1.00  0.00     0.210 HD
ENDBRANCH   1  20
BRANCH   1  22
HETATM   22  C7  UNL     1     112.571  81.625  11.284  1.00  0.00     0.172 C 
BRANCH  22  23
HETATM   23  N2  UNL     1     113.555  81.960  12.301  1.00  0.00    -0.325 N 
HETATM   24  C8  UNL     1     114.000  81.193  13.308  1.00  0.00     0.184 A 
HETATM   25  N3  UNL     1     114.919  81.856  14.039  1.00  0.00    -0.358 N 
HETATM   26  C9  UNL     1     115.076  83.061  13.510  1.00  0.00     0.138 A 
ATOM     27  H3  UNL     1     115.408  81.493  14.857  1.00  0.00     0.166 HD
HETATM   28  C10 UNL     1     114.228  83.131  12.425  1.00  0.00     0.135 A 
BRANCH  28  29
HETATM   29  N4  UNL     1     114.067  84.256  11.559  1.00  0.00    -0.242 N 
HETATM   30  C11 UNL     1     113.012  85.086  11.794  1.00  0.00     0.212 A 
HETATM   31  N5  UNL     1     112.825  86.162  10.999  1.00  0.00    -0.186 N 
HETATM   32  C12 UNL     1     113.653  86.440   9.977  1.00  0.00     0.693 A 
ATOM     33  H5  UNL     1     112.033  86.779  11.178  1.00  0.00     0.185 HD
HETATM   34  N6  UNL     1     113.705  87.418   9.047  1.00  0.00    -0.200 N 
HETATM   35  N7  UNL     1     114.711  85.618   9.732  1.00  0.00    -0.105 N 
HETATM   36  C13 UNL     1     114.760  87.239   8.226  1.00  0.00     0.124 A 
ATOM     37  H6  UNL     1     113.039  88.186   8.975  1.00  0.00     0.183 HD
HETATM   38  C14 UNL     1     115.380  86.100   8.674  1.00  0.00     0.137 A 
HETATM   39  C15 UNL     1     114.879  84.545  10.542  1.00  0.00     0.354 A 
HETATM   40  O3  UNL     1     115.865  83.768  10.325  1.00  0.00    -0.245 OA
ENDBRANCH  28  29
ENDBRANCH  22  23
ENDBRANCH   1  22
TORSDOF 15
ENDMDL
