MODEL 1
REMARK VINA RESULT: -7.592383781      0.000      0.000
REMARK  13 active torsions:
REMARK  status: ('A' for Active; 'I' for Inactive)
REMARK    1  A    between atoms: C2_2  and  C4_4 
REMARK    2  A    between atoms: C4_4  and  C5_5 
REMARK    3  A    between atoms: C5_5  and  O1_6 
REMARK    4  A    between atoms: C5_5  and  N1_8 
REMARK    5  A    between atoms: N1_8  and  C6_10 
REMARK    6  A    between atoms: C6_10  and  C7_11 
REMARK    7  A    between atoms: C6_10  and  C18_31 
REMARK       I    between atoms: C7_11  and  N2_13 
REMARK       I    between atoms: N3_16  and  C10_17 
REMARK    8  A    between atoms: C10_17  and  O4_19 
REMARK    9  A    between atoms: O4_19  and  C11_20 
REMARK   10  A    between atoms: C11_20  and  C12_21 
REMARK   11  A    between atoms: C12_21  and  C13_22 
REMARK   12  A    between atoms: C13_22  and  C14_23 
REMARK   13  A    between atoms: C14_23  and  N4_24 
ROOT
HETATM    1  C6  UNL     1       4.109 -15.430  27.205  1.00  0.00     0.205 C 
ENDROOT
BRANCH   1   2
HETATM    2  N1  UNL     1       2.734 -15.898  26.877  1.00  0.00    -0.354 N 
ATOM      3  H1  UNL     1       2.489 -16.055  25.899  1.00  0.00     0.162 HD
BRANCH   2   4
HETATM    4  C5  UNL     1       1.776 -16.129  27.849  1.00  0.00     0.136 C 
BRANCH   4   5
HETATM    5  C4  UNL     1       0.873 -15.170  28.429  1.00  0.00     0.057 C 
BRANCH   5   6
HETATM    6  C2  UNL     1      -0.293 -15.267  28.957  1.00  0.00    -0.084 C 
HETATM    7  C1  UNL     1      -1.503 -15.251  28.038  1.00  0.00     0.043 C 
HETATM    8  C3  UNL     1      -0.598 -15.389  30.385  1.00  0.00     0.043 C 
ENDBRANCH   5   6
ENDBRANCH   4   5
BRANCH   4   9
HETATM    9  O1  UNL     1       1.618 -17.330  28.339  1.00  0.00    -0.346 OA
ATOM     10  H1  UNL     1       2.418 -17.843  28.316  1.00  0.00     0.219 HD
ENDBRANCH   4   9
ENDBRANCH   2   4
ENDBRANCH   1   2
BRANCH   1  11
HETATM   11  C7  UNL     1       5.011 -16.608  27.153  1.00  0.00     0.247 C 
HETATM   12  O2  UNL     1       4.846 -17.471  26.211  1.00  0.00    -0.271 OA
HETATM   13  N2  UNL     1       6.056 -16.923  28.022  1.00  0.00    -0.347 N 
HETATM   14  C8  UNL     1       6.856 -18.110  27.803  1.00  0.00     0.146 C 
HETATM   15  C17 UNL     1       6.393 -16.135  29.182  1.00  0.00     0.146 C 
HETATM   16  C9  UNL     1       7.421 -18.659  29.091  1.00  0.00     0.148 C 
HETATM   17  N3  UNL     1       6.493 -18.348  30.153  1.00  0.00    -0.325 N 
HETATM   18  C10 UNL     1       5.850 -19.406  30.869  1.00  0.00     0.362 C 
HETATM   19  C16 UNL     1       6.241 -16.959  30.464  1.00  0.00     0.148 C 
HETATM   20  O3  UNL     1       6.052 -20.605  30.624  1.00  0.00    -0.238 OA
BRANCH  18  21
HETATM   21  O4  UNL     1       4.978 -19.067  31.862  1.00  0.00    -0.304 OA
BRANCH  21  22
HETATM   22  C11 UNL     1       3.615 -19.306  31.917  1.00  0.00     0.180 C 
BRANCH  22  23
HETATM   23  C12 UNL     1       2.824 -18.046  31.784  1.00  0.00     0.028 C 
BRANCH  23  24
HETATM   24  C13 UNL     1       1.377 -18.471  31.503  1.00  0.00     0.022 C 
BRANCH  24  25
HETATM   25  C14 UNL     1       0.494 -18.074  32.673  1.00  0.00     0.122 C 
BRANCH  25  26
HETATM   26  N4  UNL     1      -0.851 -18.521  32.497  1.00  0.00    -0.367 N 
HETATM   27  C15 UNL     1      -1.678 -18.655  33.455  1.00  0.00     0.196 C 
HETATM   28  N5  UNL     1      -3.006 -19.109  33.187  1.00  0.00    -0.067 NA
HETATM   29  N6  UNL     1      -1.326 -18.369  34.788  1.00  0.00    -0.067 NA
ATOM     30  H4  UNL     1      -1.165 -18.745  31.553  1.00  0.00     0.161 HD
ENDBRANCH  25  26
ENDBRANCH  24  25
ENDBRANCH  23  24
ENDBRANCH  22  23
ENDBRANCH  21  22
ENDBRANCH  18  21
ENDBRANCH   1  11
BRANCH   1  31
HETATM   31  C18 UNL     1       4.463 -14.374  26.135  1.00  0.00    -0.048 C 
HETATM   32  C19 UNL     1       3.457 -13.277  26.204  1.00  0.00     0.037 C 
HETATM   33  C20 UNL     1       3.380 -12.452  27.426  1.00  0.00     0.004 C 
HETATM   34  C21 UNL     1       3.089 -10.970  27.151  1.00  0.00     0.000 C 
HETATM   35  C22 UNL     1       4.159 -10.070  27.709  1.00  0.00     0.000 C 
HETATM   36  C23 UNL     1       4.553  -8.923  26.873  1.00  0.00     0.002 C 
HETATM   37  C24 UNL     1       5.384  -9.224  25.650  1.00  0.00     0.028 C 
HETATM   38  C25 UNL     1       6.736  -9.757  25.914  1.00  0.00     0.243 C 
HETATM   39  N7  UNL     1       7.196 -10.789  24.964  1.00  0.00    -0.043 N 
HETATM   40  C26 UNL     1       6.869 -10.199  23.657  1.00  0.00     0.271 C 
HETATM   41  C31 UNL     1       8.622 -10.897  24.962  1.00  0.00     0.271 C 
HETATM   42  C32 UNL     1       6.438 -11.973  25.044  1.00  0.00     0.209 C 
HETATM   43  C27 UNL     1       7.657 -10.830  22.527  1.00  0.00     0.265 C 
HETATM   44  N8  UNL     1       8.987 -10.300  22.597  1.00  0.00    -0.071 N 
HETATM   45  C28 UNL     1       9.973 -11.183  22.004  1.00  0.00     0.272 C 
HETATM   46  C29 UNL     1       9.035  -9.066  21.802  1.00  0.00     0.272 C 
HETATM   47  C30 UNL     1       9.276  -9.950  23.942  1.00  0.00     0.265 C 
HETATM   48  C33 UNL     1       6.754 -13.084  25.954  1.00  0.00    -0.038 C 
HETATM   49  C34 UNL     1       7.275 -12.820  27.310  1.00  0.00     0.049 C 
HETATM   50  C35 UNL     1       5.826 -14.207  25.763  1.00  0.00     0.013 C 
ENDBRANCH   1  31
TORSDOF 13
ENDMDL
MODEL 2
REMARK VINA RESULT: -7.233030287      9.204     14.938
REMARK  13 active torsions:
REMARK  status: ('A' for Active; 'I' for Inactive)
REMARK    1  A    between atoms: C2_2  and  C4_4 
REMARK    2  A    between atoms: C4_4  and  C5_5 
REMARK    3  A    between atoms: C5_5  and  O1_6 
REMARK    4  A    between atoms: C5_5  and  N1_8 
REMARK    5  A    between atoms: N1_8  and  C6_10 
REMARK    6  A    between atoms: C6_10  and  C7_11 
REMARK    7  A    between atoms: C6_10  and  C18_31 
REMARK       I    between atoms: C7_11  and  N2_13 
REMARK       I    between atoms: N3_16  and  C10_17 
REMARK    8  A    between atoms: C10_17  and  O4_19 
REMARK    9  A    between atoms: O4_19  and  C11_20 
REMARK   10  A    between atoms: C11_20  and  C12_21 
REMARK   11  A    between atoms: C12_21  and  C13_22 
REMARK   12  A    between atoms: C13_22  and  C14_23 
REMARK   13  A    between atoms: C14_23  and  N4_24 
ROOT
HETATM    1  C6  UNL     1      -1.175 -21.096  40.831  1.00  0.00     0.205 C 
ENDROOT
BRANCH   1   2
HETATM    2  N1  UNL     1      -2.611 -20.704  40.804  1.00  0.00    -0.354 N 
ATOM      3  H1  UNL     1      -2.936 -20.081  40.064  1.00  0.00     0.162 HD
BRANCH   2   4
HETATM    4  C5  UNL     1      -3.523 -21.154  41.743  1.00  0.00     0.136 C 
BRANCH   4   5
HETATM    5  C4  UNL     1      -4.935 -20.882  41.788  1.00  0.00     0.057 C 
BRANCH   5   6
HETATM    6  C2  UNL     1      -5.705 -20.119  41.101  1.00  0.00    -0.084 C 
HETATM    7  C1  UNL     1      -6.004 -18.727  41.635  1.00  0.00     0.043 C 
HETATM    8  C3  UNL     1      -6.352 -20.449  39.828  1.00  0.00     0.043 C 
ENDBRANCH   5   6
ENDBRANCH   4   5
BRANCH   4   9
HETATM    9  O1  UNL     1      -3.124 -21.916  42.728  1.00  0.00    -0.346 OA
ATOM     10  H1  UNL     1      -3.315 -21.543  43.580  1.00  0.00     0.219 HD
ENDBRANCH   4   9
ENDBRANCH   2   4
ENDBRANCH   1   2
BRANCH   1  11
HETATM   11  C7  UNL     1      -0.901 -21.896  39.611  1.00  0.00     0.247 C 
HETATM   12  O2  UNL     1       0.204 -22.555  39.541  1.00  0.00    -0.271 OA
HETATM   13  N2  UNL     1      -1.707 -22.035  38.482  1.00  0.00    -0.347 N 
HETATM   14  C8  UNL     1      -1.290 -22.885  37.386  1.00  0.00     0.146 C 
HETATM   15  C17 UNL     1      -2.963 -21.348  38.310  1.00  0.00     0.146 C 
HETATM   16  C9  UNL     1      -1.852 -22.422  36.063  1.00  0.00     0.148 C 
HETATM   17  N3  UNL     1      -2.000 -20.986  36.120  1.00  0.00    -0.325 N 
HETATM   18  C10 UNL     1      -1.249 -20.156  35.230  1.00  0.00     0.362 C 
HETATM   19  C16 UNL     1      -2.917 -20.426  37.087  1.00  0.00     0.148 C 
HETATM   20  O3  UNL     1      -0.459 -20.613  34.389  1.00  0.00    -0.238 OA
BRANCH  18  21
HETATM   21  O4  UNL     1      -1.418 -18.805  35.320  1.00  0.00    -0.304 OA
BRANCH  21  22
HETATM   22  C11 UNL     1      -1.884 -17.938  34.346  1.00  0.00     0.180 C 
BRANCH  22  23
HETATM   23  C12 UNL     1      -3.223 -18.350  33.831  1.00  0.00     0.028 C 
BRANCH  23  24
HETATM   24  C13 UNL     1      -3.749 -17.171  33.002  1.00  0.00     0.022 C 
BRANCH  24  25
HETATM   25  C14 UNL     1      -2.643 -16.146  32.816  1.00  0.00     0.122 C 
BRANCH  25  26
HETATM   26  N4  UNL     1      -2.337 -15.940  31.436  1.00  0.00    -0.367 N 
HETATM   27  C15 UNL     1      -2.760 -14.947  30.763  1.00  0.00     0.196 C 
HETATM   28  N5  UNL     1      -2.405 -14.820  29.386  1.00  0.00    -0.067 NA
HETATM   29  N6  UNL     1      -3.579 -13.954  31.336  1.00  0.00    -0.067 NA
ATOM     30  H4  UNL     1      -1.748 -16.627  30.965  1.00  0.00     0.161 HD
ENDBRANCH  25  26
ENDBRANCH  24  25
ENDBRANCH  23  24
ENDBRANCH  22  23
ENDBRANCH  21  22
ENDBRANCH  18  21
ENDBRANCH   1  11
BRANCH   1  31
HETATM   31  C18 UNL     1      -0.377 -19.773  40.856  1.00  0.00    -0.048 C 
HETATM   32  C19 UNL     1      -0.833 -18.968  42.023  1.00  0.00     0.037 C 
HETATM   33  C20 UNL     1      -0.598 -19.486  43.386  1.00  0.00     0.004 C 
HETATM   34  C21 UNL     1      -0.234 -18.396  44.403  1.00  0.00     0.000 C 
HETATM   35  C22 UNL     1       1.096 -18.657  45.060  1.00  0.00     0.000 C 
HETATM   36  C23 UNL     1       1.961 -17.485  45.279  1.00  0.00     0.002 C 
HETATM   37  C24 UNL     1       2.630 -16.894  44.062  1.00  0.00     0.028 C 
HETATM   38  C25 UNL     1       3.626 -17.761  43.399  1.00  0.00     0.243 C 
HETATM   39  N7  UNL     1       3.643 -17.677  41.924  1.00  0.00    -0.043 N 
HETATM   40  C26 UNL     1       3.636 -16.226  41.680  1.00  0.00     0.271 C 
HETATM   41  C31 UNL     1       4.892 -18.124  41.392  1.00  0.00     0.271 C 
HETATM   42  C32 UNL     1       2.457 -18.163  41.342  1.00  0.00     0.209 C 
HETATM   43  C27 UNL     1       4.125 -15.875  40.290  1.00  0.00     0.265 C 
HETATM   44  N8  UNL     1       5.552 -16.013  40.299  1.00  0.00    -0.071 N 
HETATM   45  C28 UNL     1       6.097 -16.280  38.982  1.00  0.00     0.272 C 
HETATM   46  C29 UNL     1       6.137 -14.733  40.716  1.00  0.00     0.272 C 
HETATM   47  C30 UNL     1       5.915 -16.982  41.271  1.00  0.00     0.265 C 
HETATM   48  C33 UNL     1       2.249 -19.571  40.969  1.00  0.00    -0.038 C 
HETATM   49  C34 UNL     1       2.788 -20.659  41.810  1.00  0.00     0.049 C 
HETATM   50  C35 UNL     1       0.943 -19.761  40.323  1.00  0.00     0.013 C 
ENDBRANCH   1  31
TORSDOF 13
ENDMDL
MODEL 3
REMARK VINA RESULT: -7.155697938      4.546     10.799
REMARK  13 active torsions:
REMARK  status: ('A' for Active; 'I' for Inactive)
REMARK    1  A    between atoms: C2_2  and  C4_4 
REMARK    2  A    between atoms: C4_4  and  C5_5 
REMARK    3  A    between atoms: C5_5  and  O1_6 
REMARK    4  A    between atoms: C5_5  and  N1_8 
REMARK    5  A    between atoms: N1_8  and  C6_10 
REMARK    6  A    between atoms: C6_10  and  C7_11 
REMARK    7  A    between atoms: C6_10  and  C18_31 
REMARK       I    between atoms: C7_11  and  N2_13 
REMARK       I    between atoms: N3_16  and  C10_17 
REMARK    8  A    between atoms: C10_17  and  O4_19 
REMARK    9  A    between atoms: O4_19  and  C11_20 
REMARK   10  A    between atoms: C11_20  and  C12_21 
REMARK   11  A    between atoms: C12_21  and  C13_22 
REMARK   12  A    between atoms: C13_22  and  C14_23 
REMARK   13  A    between atoms: C14_23  and  N4_24 
ROOT
HETATM    1  C6  UNL     1       7.726 -18.904  29.973  1.00  0.00     0.205 C 
ENDROOT
BRANCH   1   2
HETATM    2  N1  UNL     1       8.119 -19.121  28.554  1.00  0.00    -0.354 N 
ATOM      3  H1  UNL     1       8.727 -19.909  28.327  1.00  0.00     0.162 HD
BRANCH   2   4
HETATM    4  C5  UNL     1       7.690 -18.295  27.529  1.00  0.00     0.136 C 
BRANCH   4   5
HETATM    5  C4  UNL     1       8.091 -16.936  27.279  1.00  0.00     0.057 C 
BRANCH   5   6
HETATM    6  C2  UNL     1       8.401 -15.955  28.048  1.00  0.00    -0.084 C 
HETATM    7  C1  UNL     1       7.347 -15.430  29.008  1.00  0.00     0.043 C 
HETATM    8  C3  UNL     1       9.692 -15.263  28.101  1.00  0.00     0.043 C 
ENDBRANCH   5   6
ENDBRANCH   4   5
BRANCH   4   9
HETATM    9  O1  UNL     1       6.825 -18.735  26.654  1.00  0.00    -0.346 OA
ATOM     10  H1  UNL     1       7.005 -19.625  26.375  1.00  0.00     0.219 HD
ENDBRANCH   4   9
ENDBRANCH   2   4
ENDBRANCH   1   2
BRANCH   1  11
HETATM   11  C7  UNL     1       6.412 -19.562  30.184  1.00  0.00     0.247 C 
HETATM   12  O2  UNL     1       6.183 -20.686  29.597  1.00  0.00    -0.271 OA
HETATM   13  N2  UNL     1       5.345 -19.109  30.960  1.00  0.00    -0.347 N 
HETATM   14  C8  UNL     1       4.137 -19.901  31.074  1.00  0.00     0.146 C 
HETATM   15  C17 UNL     1       5.349 -17.852  31.665  1.00  0.00     0.146 C 
HETATM   16  C9  UNL     1       2.920 -19.044  31.327  1.00  0.00     0.148 C 
HETATM   17  N3  UNL     1       3.136 -17.764  30.692  1.00  0.00    -0.325 N 
HETATM   18  C10 UNL     1       2.276 -17.342  29.631  1.00  0.00     0.362 C 
HETATM   19  C16 UNL     1       4.228 -16.939  31.158  1.00  0.00     0.148 C 
HETATM   20  O3  UNL     1       1.330 -18.030  29.216  1.00  0.00    -0.238 OA
BRANCH  18  21
HETATM   21  O4  UNL     1       2.518 -16.128  29.057  1.00  0.00    -0.304 OA
BRANCH  21  22
HETATM   22  C11 UNL     1       2.920 -15.864  27.758  1.00  0.00     0.180 C 
BRANCH  22  23
HETATM   23  C12 UNL     1       4.146 -16.633  27.389  1.00  0.00     0.028 C 
BRANCH  23  24
HETATM   24  C13 UNL     1       4.424 -16.321  25.913  1.00  0.00     0.022 C 
BRANCH  24  25
HETATM   25  C14 UNL     1       4.805 -14.858  25.765  1.00  0.00     0.122 C 
BRANCH  25  26
HETATM   26  N4  UNL     1       4.025 -14.207  24.761  1.00  0.00    -0.367 N 
HETATM   27  C15 UNL     1       4.526 -13.658  23.728  1.00  0.00     0.196 C 
HETATM   28  N5  UNL     1       3.670 -13.028  22.774  1.00  0.00    -0.067 NA
HETATM   29  N6  UNL     1       5.914 -13.649  23.488  1.00  0.00    -0.067 NA
ATOM     30  H4  UNL     1       3.012 -14.179  24.879  1.00  0.00     0.161 HD
ENDBRANCH  25  26
ENDBRANCH  24  25
ENDBRANCH  23  24
ENDBRANCH  22  23
ENDBRANCH  21  22
ENDBRANCH  18  21
ENDBRANCH   1  11
BRANCH   1  31
HETATM   31  C18 UNL     1       8.845 -19.545  30.824  1.00  0.00    -0.048 C 
HETATM   32  C19 UNL     1      10.094 -18.757  30.631  1.00  0.00     0.037 C 
HETATM   33  C20 UNL     1      10.134 -17.354  31.091  1.00  0.00     0.004 C 
HETATM   34  C21 UNL     1      11.486 -16.942  31.690  1.00  0.00     0.000 C 
HETATM   35  C22 UNL     1      11.349 -16.444  33.104  1.00  0.00     0.000 C 
HETATM   36  C23 UNL     1      12.401 -16.858  34.050  1.00  0.00     0.002 C 
HETATM   37  C24 UNL     1      12.377 -18.296  34.508  1.00  0.00     0.028 C 
HETATM   38  C25 UNL     1      11.207 -18.686  35.321  1.00  0.00     0.243 C 
HETATM   39  N7  UNL     1      10.698 -20.050  35.067  1.00  0.00    -0.043 N 
HETATM   40  C26 UNL     1      11.924 -20.863  35.084  1.00  0.00     0.271 C 
HETATM   41  C31 UNL     1       9.931 -20.533  36.173  1.00  0.00     0.271 C 
HETATM   42  C32 UNL     1      10.166 -20.195  33.772  1.00  0.00     0.209 C 
HETATM   43  C27 UNL     1      11.635 -22.332  35.322  1.00  0.00     0.265 C 
HETATM   44  N8  UNL     1      11.343 -22.481  36.717  1.00  0.00    -0.071 N 
HETATM   45  C28 UNL     1      10.514 -23.638  36.995  1.00  0.00     0.272 C 
HETATM   46  C29 UNL     1      12.604 -22.720  37.430  1.00  0.00     0.272 C 
HETATM   47  C30 UNL     1      10.801 -21.265  37.209  1.00  0.00     0.265 C 
HETATM   48  C33 UNL     1       8.762 -19.921  33.431  1.00  0.00    -0.038 C 
HETATM   49  C34 UNL     1       8.039 -18.800  34.065  1.00  0.00     0.049 C 
HETATM   50  C35 UNL     1       8.488 -20.228  32.020  1.00  0.00     0.013 C 
ENDBRANCH   1  31
TORSDOF 13
ENDMDL
MODEL 4
REMARK VINA RESULT: -7.137989672      9.214     15.221
REMARK  13 active torsions:
REMARK  status: ('A' for Active; 'I' for Inactive)
REMARK    1  A    between atoms: C2_2  and  C4_4 
REMARK    2  A    between atoms: C4_4  and  C5_5 
REMARK    3  A    between atoms: C5_5  and  O1_6 
REMARK    4  A    between atoms: C5_5  and  N1_8 
REMARK    5  A    between atoms: N1_8  and  C6_10 
REMARK    6  A    between atoms: C6_10  and  C7_11 
REMARK    7  A    between atoms: C6_10  and  C18_31 
REMARK       I    between atoms: C7_11  and  N2_13 
REMARK       I    between atoms: N3_16  and  C10_17 
REMARK    8  A    between atoms: C10_17  and  O4_19 
REMARK    9  A    between atoms: O4_19  and  C11_20 
REMARK   10  A    between atoms: C11_20  and  C12_21 
REMARK   11  A    between atoms: C12_21  and  C13_22 
REMARK   12  A    between atoms: C13_22  and  C14_23 
REMARK   13  A    between atoms: C14_23  and  N4_24 
ROOT
HETATM    1  C6  UNL     1      -2.268 -21.266  39.973  1.00  0.00     0.205 C 
ENDROOT
BRANCH   1   2
HETATM    2  N1  UNL     1      -3.467 -20.819  39.213  1.00  0.00    -0.354 N 
ATOM      3  H1  UNL     1      -3.333 -20.326  38.330  1.00  0.00     0.162 HD
BRANCH   2   4
HETATM    4  C5  UNL     1      -4.758 -21.047  39.659  1.00  0.00     0.136 C 
BRANCH   4   5
HETATM    5  C4  UNL     1      -5.189 -21.239  41.018  1.00  0.00     0.057 C 
BRANCH   5   6
HETATM    6  C2  UNL     1      -5.545 -20.432  41.951  1.00  0.00    -0.084 C 
HETATM    7  C1  UNL     1      -5.761 -20.993  43.347  1.00  0.00     0.043 C 
HETATM    8  C3  UNL     1      -5.776 -18.991  41.818  1.00  0.00     0.043 C 
ENDBRANCH   5   6
ENDBRANCH   4   5
BRANCH   4   9
HETATM    9  O1  UNL     1      -5.744 -21.105  38.803  1.00  0.00    -0.346 OA
ATOM     10  H1  UNL     1      -5.446 -21.152  37.903  1.00  0.00     0.219 HD
ENDBRANCH   4   9
ENDBRANCH   2   4
ENDBRANCH   1   2
BRANCH   1  11
HETATM   11  C7  UNL     1      -1.374 -21.981  39.027  1.00  0.00     0.247 C 
HETATM   12  O2  UNL     1      -0.187 -22.294  39.416  1.00  0.00    -0.271 OA
HETATM   13  N2  UNL     1      -1.654 -22.372  37.718  1.00  0.00    -0.347 N 
HETATM   14  C8  UNL     1      -0.663 -23.090  36.942  1.00  0.00     0.146 C 
HETATM   15  C17 UNL     1      -2.897 -22.082  37.047  1.00  0.00     0.146 C 
HETATM   16  C9  UNL     1      -0.812 -22.839  35.461  1.00  0.00     0.148 C 
HETATM   17  N3  UNL     1      -1.342 -21.507  35.286  1.00  0.00    -0.325 N 
HETATM   18  C10 UNL     1      -0.567 -20.516  34.606  1.00  0.00     0.362 C 
HETATM   19  C16 UNL     1      -2.658 -21.214  35.808  1.00  0.00     0.148 C 
HETATM   20  O3  UNL     1       0.563 -20.744  34.146  1.00  0.00    -0.238 OA
BRANCH  18  21
HETATM   21  O4  UNL     1      -1.104 -19.270  34.465  1.00  0.00    -0.304 OA
BRANCH  21  22
HETATM   22  C11 UNL     1      -0.958 -18.395  33.402  1.00  0.00     0.180 C 
BRANCH  22  23
HETATM   23  C12 UNL     1      -1.759 -17.149  33.593  1.00  0.00     0.028 C 
BRANCH  23  24
HETATM   24  C13 UNL     1      -3.207 -17.505  33.235  1.00  0.00     0.022 C 
BRANCH  24  25
HETATM   25  C14 UNL     1      -3.839 -16.357  32.468  1.00  0.00     0.122 C 
BRANCH  25  26
HETATM   26  N4  UNL     1      -3.038 -15.960  31.353  1.00  0.00    -0.367 N 
HETATM   27  C15 UNL     1      -3.205 -14.869  30.720  1.00  0.00     0.196 C 
HETATM   28  N5  UNL     1      -2.358 -14.553  29.615  1.00  0.00    -0.067 NA
HETATM   29  N6  UNL     1      -4.211 -13.949  31.075  1.00  0.00    -0.067 NA
ATOM     30  H4  UNL     1      -2.294 -16.586  31.047  1.00  0.00     0.161 HD
ENDBRANCH  25  26
ENDBRANCH  24  25
ENDBRANCH  23  24
ENDBRANCH  22  23
ENDBRANCH  21  22
ENDBRANCH  18  21
ENDBRANCH   1  11
BRANCH   1  31
HETATM   31  C18 UNL     1      -1.620 -19.982  40.535  1.00  0.00    -0.048 C 
HETATM   32  C19 UNL     1      -2.045 -19.820  41.953  1.00  0.00     0.037 C 
HETATM   33  C20 UNL     1      -1.624 -20.828  42.946  1.00  0.00     0.004 C 
HETATM   34  C21 UNL     1      -1.282 -20.232  44.319  1.00  0.00     0.000 C 
HETATM   35  C22 UNL     1       0.126 -20.558  44.743  1.00  0.00     0.000 C 
HETATM   36  C23 UNL     1       0.875 -19.480  45.412  1.00  0.00     0.002 C 
HETATM   37  C24 UNL     1       1.354 -18.343  44.544  1.00  0.00     0.028 C 
HETATM   38  C25 UNL     1       2.369 -18.697  43.531  1.00  0.00     0.243 C 
HETATM   39  N7  UNL     1       2.232 -17.995  42.239  1.00  0.00    -0.043 N 
HETATM   40  C26 UNL     1       2.044 -16.594  42.647  1.00  0.00     0.271 C 
HETATM   41  C31 UNL     1       3.465 -17.994  41.514  1.00  0.00     0.271 C 
HETATM   42  C32 UNL     1       1.056 -18.350  41.553  1.00  0.00     0.209 C 
HETATM   43  C27 UNL     1       2.354 -15.622  41.527  1.00  0.00     0.265 C 
HETATM   44  N8  UNL     1       3.781 -15.550  41.417  1.00  0.00    -0.071 N 
HETATM   45  C28 UNL     1       4.221 -15.154  40.093  1.00  0.00     0.272 C 
HETATM   46  C29 UNL     1       4.261 -14.499  42.323  1.00  0.00     0.272 C 
HETATM   47  C30 UNL     1       4.342 -16.778  41.857  1.00  0.00     0.265 C 
HETATM   48  C33 UNL     1       0.967 -19.480  40.616  1.00  0.00    -0.038 C 
HETATM   49  C34 UNL     1       1.700 -20.734  40.880  1.00  0.00     0.049 C 
HETATM   50  C35 UNL     1      -0.368 -19.560  40.006  1.00  0.00     0.013 C 
ENDBRANCH   1  31
TORSDOF 13
ENDMDL
MODEL 5
REMARK VINA RESULT: -7.087822632     10.532     16.813
REMARK  13 active torsions:
REMARK  status: ('A' for Active; 'I' for Inactive)
REMARK    1  A    between atoms: C2_2  and  C4_4 
REMARK    2  A    between atoms: C4_4  and  C5_5 
REMARK    3  A    between atoms: C5_5  and  O1_6 
REMARK    4  A    between atoms: C5_5  and  N1_8 
REMARK    5  A    between atoms: N1_8  and  C6_10 
REMARK    6  A    between atoms: C6_10  and  C7_11 
REMARK    7  A    between atoms: C6_10  and  C18_31 
REMARK       I    between atoms: C7_11  and  N2_13 
REMARK       I    between atoms: N3_16  and  C10_17 
REMARK    8  A    between atoms: C10_17  and  O4_19 
REMARK    9  A    between atoms: O4_19  and  C11_20 
REMARK   10  A    between atoms: C11_20  and  C12_21 
REMARK   11  A    between atoms: C12_21  and  C13_22 
REMARK   12  A    between atoms: C13_22  and  C14_23 
REMARK   13  A    between atoms: C14_23  and  N4_24 
ROOT
HETATM    1  C6  UNL     1      -1.451 -20.704  41.489  1.00  0.00     0.205 C 
ENDROOT
BRANCH   1   2
HETATM    2  N1  UNL     1      -0.254 -20.589  42.366  1.00  0.00    -0.354 N 
ATOM      3  H1  UNL     1       0.340 -19.763  42.280  1.00  0.00     0.162 HD
BRANCH   2   4
HETATM    4  C5  UNL     1       0.085 -21.559  43.294  1.00  0.00     0.136 C 
BRANCH   4   5
HETATM    5  C4  UNL     1      -0.002 -21.463  44.727  1.00  0.00     0.057 C 
BRANCH   5   6
HETATM    6  C2  UNL     1      -0.647 -20.685  45.519  1.00  0.00    -0.084 C 
HETATM    7  C1  UNL     1      -1.925 -21.205  46.156  1.00  0.00     0.043 C 
HETATM    8  C3  UNL     1      -0.282 -19.314  45.884  1.00  0.00     0.043 C 
ENDBRANCH   5   6
ENDBRANCH   4   5
BRANCH   4   9
HETATM    9  O1  UNL     1       0.540 -22.716  42.891  1.00  0.00    -0.346 OA
ATOM     10  H1  UNL     1       1.265 -22.633  42.283  1.00  0.00     0.219 HD
ENDBRANCH   4   9
ENDBRANCH   2   4
ENDBRANCH   1   2
BRANCH   1  11
HETATM   11  C7  UNL     1      -2.473 -19.752  41.992  1.00  0.00     0.247 C 
HETATM   12  O2  UNL     1      -2.086 -18.749  42.702  1.00  0.00    -0.271 OA
HETATM   13  N2  UNL     1      -3.854 -19.798  41.797  1.00  0.00    -0.347 N 
HETATM   14  C8  UNL     1      -4.704 -18.762  42.344  1.00  0.00     0.146 C 
HETATM   15  C17 UNL     1      -4.522 -20.857  41.083  1.00  0.00     0.146 C 
HETATM   16  C9  UNL     1      -6.094 -19.269  42.646  1.00  0.00     0.148 C 
HETATM   17  N3  UNL     1      -5.992 -20.667  42.995  1.00  0.00    -0.325 N 
HETATM   18  C10 UNL     1      -6.369 -21.104  44.303  1.00  0.00     0.362 C 
HETATM   19  C16 UNL     1      -5.507 -21.593  41.996  1.00  0.00     0.148 C 
HETATM   20  O3  UNL     1      -6.790 -20.329  45.176  1.00  0.00    -0.238 OA
BRANCH  18  21
HETATM   21  O4  UNL     1      -6.253 -22.432  44.591  1.00  0.00    -0.304 OA
BRANCH  21  22
HETATM   22  C11 UNL     1      -6.564 -23.077  45.778  1.00  0.00     0.180 C 
BRANCH  22  23
HETATM   23  C12 UNL     1      -5.517 -24.070  46.162  1.00  0.00     0.028 C 
BRANCH  23  24
HETATM   24  C13 UNL     1      -4.337 -23.844  45.208  1.00  0.00     0.022 C 
BRANCH  24  25
HETATM   25  C14 UNL     1      -3.585 -25.150  45.012  1.00  0.00     0.122 C 
BRANCH  25  26
HETATM   26  N4  UNL     1      -2.956 -25.212  43.731  1.00  0.00    -0.367 N 
HETATM   27  C15 UNL     1      -1.697 -25.145  43.562  1.00  0.00     0.196 C 
HETATM   28  N5  UNL     1      -1.153 -25.215  42.243  1.00  0.00    -0.067 NA
HETATM   29  N6  UNL     1      -0.807 -25.000  44.644  1.00  0.00    -0.067 NA
ATOM     30  H4  UNL     1      -3.549 -25.315  42.908  1.00  0.00     0.161 HD
ENDBRANCH  25  26
ENDBRANCH  24  25
ENDBRANCH  23  24
ENDBRANCH  22  23
ENDBRANCH  21  22
ENDBRANCH  18  21
ENDBRANCH   1  11
BRANCH   1  31
HETATM   31  C18 UNL     1      -0.969 -20.346  40.066  1.00  0.00    -0.048 C 
HETATM   32  C19 UNL     1      -0.085 -21.442  39.578  1.00  0.00     0.037 C 
HETATM   33  C20 UNL     1      -0.660 -22.786  39.371  1.00  0.00     0.004 C 
HETATM   34  C21 UNL     1      -0.092 -23.515  38.145  1.00  0.00     0.000 C 
HETATM   35  C22 UNL     1      -1.170 -23.903  37.168  1.00  0.00     0.000 C 
HETATM   36  C23 UNL     1      -0.849 -23.742  35.739  1.00  0.00     0.002 C 
HETATM   37  C24 UNL     1      -0.811 -22.332  35.204  1.00  0.00     0.028 C 
HETATM   38  C25 UNL     1      -2.103 -21.616  35.204  1.00  0.00     0.243 C 
HETATM   39  N7  UNL     1      -2.019 -20.178  35.531  1.00  0.00    -0.043 N 
HETATM   40  C26 UNL     1      -0.909 -19.715  34.684  1.00  0.00     0.271 C 
HETATM   41  C31 UNL     1      -3.161 -19.466  35.047  1.00  0.00     0.271 C 
HETATM   42  C32 UNL     1      -1.604 -19.949  36.856  1.00  0.00     0.209 C 
HETATM   43  C27 UNL     1      -0.932 -18.214  34.477  1.00  0.00     0.265 C 
HETATM   44  N8  UNL     1      -1.966 -17.937  33.524  1.00  0.00    -0.071 N 
HETATM   45  C28 UNL     1      -2.495 -16.593  33.647  1.00  0.00     0.272 C 
HETATM   46  C29 UNL     1      -1.385 -18.010  32.178  1.00  0.00     0.272 C 
HETATM   47  C30 UNL     1      -2.959 -18.948  33.613  1.00  0.00     0.265 C 
HETATM   48  C33 UNL     1      -2.528 -19.858  37.997  1.00  0.00    -0.038 C 
HETATM   49  C34 UNL     1      -3.721 -20.723  38.069  1.00  0.00     0.049 C 
HETATM   50  C35 UNL     1      -1.807 -19.547  39.240  1.00  0.00     0.013 C 
ENDBRANCH   1  31
TORSDOF 13
ENDMDL
