MODEL 1
REMARK VINA RESULT: -8.136664153      0.000      0.000
REMARK  11 active torsions:
REMARK  status: ('A' for Active; 'I' for Inactive)
REMARK    1  A    between atoms: C2_2  and  O1_4 
REMARK    2  A    between atoms: C2_2  and  C4_6 
REMARK    3  A    between atoms: C4_6  and  C5_7 
REMARK    4  A    between atoms: C5_7  and  N1_8 
REMARK       I    between atoms: N1_8  and  C6_10 
REMARK       I    between atoms: C6_10  and  N2_12 
REMARK    5  A    between atoms: N3_15  and  C9_16 
REMARK    6  A    between atoms: C9_16  and  O3_17 
REMARK    7  A    between atoms: C10_19  and  N4_20 
REMARK    8  A    between atoms: C17_29  and  C18_30 
REMARK    9  A    between atoms: C24_36  and  C25_37 
REMARK       I    between atoms: C25_37  and  N6_39 
REMARK   10  A    between atoms: N6_39  and  C26_41 
REMARK   11  A    between atoms: C26_41  and  C27_42 
ROOT
HETATM    1  N4  UNL     1      -5.043 -19.258  41.902  1.00  0.00    -0.320 N 
HETATM    2  C11 UNL     1      -3.625 -19.054  42.268  1.00  0.00     0.162 C 
HETATM    3  C12 UNL     1      -2.903 -20.159  41.539  1.00  0.00     0.295 C 
HETATM    4  N5  UNL     1      -2.883 -19.927  40.098  1.00  0.00     0.121 N 
HETATM    5  C13 UNL     1      -4.195 -19.868  39.543  1.00  0.00     0.316 C 
HETATM    6  C14 UNL     1      -4.211 -18.757  38.480  1.00  0.00     0.053 C 
HETATM    7  C15 UNL     1      -3.886 -19.404  37.122  1.00  0.00     0.086 C 
HETATM    8  C16 UNL     1      -2.560 -20.042  37.328  1.00  0.00     0.154 C 
HETATM    9  O4  UNL     1      -1.667 -19.469  36.736  1.00  0.00    -0.293 OA
HETATM   10  C17 UNL     1      -2.232 -21.237  38.135  1.00  0.00     0.012 C 
HETATM   11  C24 UNL     1      -2.059 -21.036  39.582  1.00  0.00     0.348 C 
HETATM   12  C33 UNL     1      -5.259 -19.483  40.503  1.00  0.00     0.257 C 
HETATM   13  O6  UNL     1      -6.434 -19.340  40.087  1.00  0.00    -0.271 OA
ENDROOT
BRANCH   1  14
HETATM   14  C10 UNL     1      -6.059 -19.278  42.887  1.00  0.00     0.149 C 
HETATM   15  C9  UNL     1      -6.175 -20.319  43.875  1.00  0.00     0.154 C 
BRANCH  15  16
HETATM   16  N3  UNL     1      -5.449 -21.469  44.149  1.00  0.00    -0.358 N 
HETATM   17  C8  UNL     1      -4.653 -21.523  45.445  1.00  0.00     0.145 C 
HETATM   18  C7  UNL     1      -3.190 -21.556  45.062  1.00  0.00     0.147 C 
HETATM   19  N2  UNL     1      -2.935 -22.637  44.161  1.00  0.00    -0.331 N 
HETATM   20  C6  UNL     1      -1.943 -23.630  44.267  1.00  0.00     0.318 C 
HETATM   21  C35 UNL     1      -3.806 -22.711  42.984  1.00  0.00     0.147 C 
HETATM   22  N1  UNL     1      -1.031 -23.643  45.342  1.00  0.00    -0.343 N 
HETATM   23  O2  UNL     1      -1.882 -24.536  43.353  1.00  0.00    -0.247 OA
ATOM     24  H1  UNL     1      -1.089 -22.916  46.055  1.00  0.00     0.164 HD
HETATM   25  C34 UNL     1      -5.284 -22.695  43.423  1.00  0.00     0.145 C 
BRANCH  22  26
HETATM   26  C5  UNL     1      -0.009 -24.674  45.454  1.00  0.00     0.127 C 
BRANCH  26  27
HETATM   27  C4  UNL     1       1.120 -24.508  44.495  1.00  0.00     0.056 C 
BRANCH  27  28
HETATM   28  C2  UNL     1       1.272 -25.717  43.585  1.00  0.00     0.052 C 
HETATM   29  C1  UNL     1       0.616 -26.935  44.193  1.00  0.00     0.045 C 
HETATM   30  C3  UNL     1       2.758 -26.040  43.488  1.00  0.00     0.045 C 
BRANCH  28  31
HETATM   31  O1  UNL     1       0.776 -25.507  42.321  1.00  0.00    -0.391 OA
ATOM     32  H1  UNL     1       1.342 -24.905  41.851  1.00  0.00     0.210 HD
ENDBRANCH  28  31
ENDBRANCH  27  28
ENDBRANCH  26  27
ENDBRANCH  22  26
ENDBRANCH  15  16
BRANCH  15  33
HETATM   33  O3  UNL     1      -7.199 -20.171  44.728  1.00  0.00    -0.345 OA
ATOM     34  H3  UNL     1      -7.799 -20.906  44.682  1.00  0.00     0.219 HD
ENDBRANCH  15  33
ENDBRANCH   1  14
BRANCH  11  35
HETATM   35  C25 UNL     1      -0.696 -20.763  40.076  1.00  0.00     0.255 C 
HETATM   36  O5  UNL     1      -0.076 -19.750  39.638  1.00  0.00    -0.271 OA
HETATM   37  N6  UNL     1      -0.046 -21.584  41.028  1.00  0.00    -0.359 N 
ATOM     38  H6  UNL     1      -0.532 -22.404  41.390  1.00  0.00     0.162 HD
BRANCH  37  39
HETATM   39  C26 UNL     1       1.288 -21.292  41.501  1.00  0.00     0.127 C 
BRANCH  39  40
HETATM   40  C27 UNL     1       1.297 -20.979  42.973  1.00  0.00     0.003 C 
HETATM   41  C28 UNL     1       2.370 -19.949  43.268  1.00  0.00     0.006 C 
HETATM   42  C29 UNL     1       2.042 -18.596  42.678  1.00  0.00     0.000 C 
HETATM   43  C30 UNL     1       0.585 -18.272  42.747  1.00  0.00     0.000 C 
HETATM   44  C31 UNL     1      -0.149 -19.094  43.786  1.00  0.00     0.000 C 
HETATM   45  C32 UNL     1      -0.031 -20.578  43.519  1.00  0.00     0.006 C 
ENDBRANCH  39  40
ENDBRANCH  37  39
ENDBRANCH  11  35
BRANCH  10  46
HETATM   46  C18 UNL     1      -1.227 -22.127  37.504  1.00  0.00     0.021 C 
HETATM   47  C19 UNL     1      -1.381 -22.435  36.059  1.00  0.00     0.009 C 
HETATM   48  C20 UNL     1      -0.052 -22.918  35.519  1.00  0.00     0.001 C 
HETATM   49  C21 UNL     1       0.511 -23.970  36.425  1.00  0.00     0.000 C 
HETATM   50  C22 UNL     1      -0.598 -24.540  37.278  1.00  0.00     0.001 C 
HETATM   51  C23 UNL     1      -1.180 -23.501  38.212  1.00  0.00     0.009 C 
ENDBRANCH  10  46
TORSDOF 11
ENDMDL
MODEL 2
REMARK VINA RESULT: -7.798245259     11.357     14.905
REMARK  11 active torsions:
REMARK  status: ('A' for Active; 'I' for Inactive)
REMARK    1  A    between atoms: C2_2  and  O1_4 
REMARK    2  A    between atoms: C2_2  and  C4_6 
REMARK    3  A    between atoms: C4_6  and  C5_7 
REMARK    4  A    between atoms: C5_7  and  N1_8 
REMARK       I    between atoms: N1_8  and  C6_10 
REMARK       I    between atoms: C6_10  and  N2_12 
REMARK    5  A    between atoms: N3_15  and  C9_16 
REMARK    6  A    between atoms: C9_16  and  O3_17 
REMARK    7  A    between atoms: C10_19  and  N4_20 
REMARK    8  A    between atoms: C17_29  and  C18_30 
REMARK    9  A    between atoms: C24_36  and  C25_37 
REMARK       I    between atoms: C25_37  and  N6_39 
REMARK   10  A    between atoms: N6_39  and  C26_41 
REMARK   11  A    between atoms: C26_41  and  C27_42 
ROOT
HETATM    1  N4  UNL     1       6.460 -19.228  30.369  1.00  0.00    -0.320 N 
HETATM    2  C11 UNL     1       6.825 -17.836  30.030  1.00  0.00     0.162 C 
HETATM    3  C12 UNL     1       6.778 -17.118  31.356  1.00  0.00     0.295 C 
HETATM    4  N5  UNL     1       7.880 -17.521  32.223  1.00  0.00     0.121 N 
HETATM    5  C13 UNL     1       7.852 -18.915  32.518  1.00  0.00     0.316 C 
HETATM    6  C14 UNL     1       9.300 -19.433  32.500  1.00  0.00     0.053 C 
HETATM    7  C15 UNL     1       9.846 -19.347  33.937  1.00  0.00     0.086 C 
HETATM    8  C16 UNL     1       9.709 -17.912  34.295  1.00  0.00     0.154 C 
HETATM    9  O4  UNL     1      10.778 -17.339  34.358  1.00  0.00    -0.293 OA
HETATM   10  C17 UNL     1       8.471 -17.149  34.569  1.00  0.00     0.012 C 
HETATM   11  C24 UNL     1       7.725 -16.651  33.404  1.00  0.00     0.348 C 
HETATM   12  C33 UNL     1       7.144 -19.749  31.516  1.00  0.00     0.257 C 
HETATM   13  O6  UNL     1       7.129 -20.996  31.659  1.00  0.00    -0.271 OA
ENDROOT
BRANCH   1  14
HETATM   14  C10 UNL     1       5.473 -19.927  29.634  1.00  0.00     0.149 C 
HETATM   15  C9  UNL     1       4.172 -19.379  29.347  1.00  0.00     0.154 C 
BRANCH  15  16
HETATM   16  N3  UNL     1       3.548 -18.178  29.647  1.00  0.00    -0.358 N 
HETATM   17  C8  UNL     1       3.124 -17.930  31.087  1.00  0.00     0.145 C 
HETATM   18  C7  UNL     1       1.613 -17.890  31.102  1.00  0.00     0.147 C 
HETATM   19  N2  UNL     1       1.130 -16.924  30.164  1.00  0.00    -0.331 N 
HETATM   20  C6  UNL     1       0.204 -15.889  30.394  1.00  0.00     0.318 C 
HETATM   21  C35 UNL     1       1.657 -17.033  28.801  1.00  0.00     0.147 C 
HETATM   22  N1  UNL     1      -0.390 -15.706  31.660  1.00  0.00    -0.343 N 
HETATM   23  O2  UNL     1      -0.096 -15.105  29.418  1.00  0.00    -0.247 OA
ATOM     24  H1  UNL     1      -0.147 -16.338  32.422  1.00  0.00     0.164 HD
HETATM   25  C34 UNL     1       3.198 -17.048  28.834  1.00  0.00     0.145 C 
BRANCH  22  26
HETATM   26  C5  UNL     1      -1.343 -14.631  31.900  1.00  0.00     0.127 C 
BRANCH  26  27
HETATM   27  C4  UNL     1      -2.682 -15.105  32.352  1.00  0.00     0.056 C 
BRANCH  27  28
HETATM   28  C2  UNL     1      -3.646 -15.274  31.188  1.00  0.00     0.052 C 
HETATM   29  C1  UNL     1      -4.549 -14.069  31.056  1.00  0.00     0.045 C 
HETATM   30  C3  UNL     1      -4.557 -16.454  31.509  1.00  0.00     0.045 C 
BRANCH  28  31
HETATM   31  O1  UNL     1      -3.012 -15.511  29.992  1.00  0.00    -0.391 OA
ATOM     32  H1  UNL     1      -3.383 -16.283  29.580  1.00  0.00     0.210 HD
ENDBRANCH  28  31
ENDBRANCH  27  28
ENDBRANCH  26  27
ENDBRANCH  22  26
ENDBRANCH  15  16
BRANCH  15  33
HETATM   33  O3  UNL     1       3.369 -20.185  28.637  1.00  0.00    -0.345 OA
ATOM     34  H3  UNL     1       3.362 -19.947  27.717  1.00  0.00     0.219 HD
ENDBRANCH  15  33
ENDBRANCH   1  14
BRANCH  11  35
HETATM   35  C25 UNL     1       8.037 -15.292  32.922  1.00  0.00     0.255 C 
HETATM   36  O5  UNL     1       9.137 -15.087  32.331  1.00  0.00    -0.271 OA
HETATM   37  N6  UNL     1       7.154 -14.198  33.086  1.00  0.00    -0.359 N 
ATOM     38  H6  UNL     1       6.263 -14.347  33.560  1.00  0.00     0.162 HD
BRANCH  37  39
HETATM   39  C26 UNL     1       7.479 -12.876  32.601  1.00  0.00     0.127 C 
BRANCH  39  40
HETATM   40  C27 UNL     1       7.631 -11.894  33.731  1.00  0.00     0.003 C 
HETATM   41  C28 UNL     1       6.954 -10.587  33.364  1.00  0.00     0.006 C 
HETATM   42  C29 UNL     1       5.450 -10.723  33.288  1.00  0.00     0.000 C 
HETATM   43  C30 UNL     1       4.898 -11.642  34.329  1.00  0.00     0.000 C 
HETATM   44  C31 UNL     1       5.845 -11.841  35.495  1.00  0.00     0.000 C 
HETATM   45  C32 UNL     1       7.174 -12.409  35.053  1.00  0.00     0.006 C 
ENDBRANCH  39  40
ENDBRANCH  37  39
ENDBRANCH  11  35
BRANCH  10  46
HETATM   46  C18 UNL     1       8.600 -16.183  35.688  1.00  0.00     0.021 C 
HETATM   47  C19 UNL     1       9.432 -16.576  36.853  1.00  0.00     0.009 C 
HETATM   48  C20 UNL     1       9.827 -15.328  37.614  1.00  0.00     0.001 C 
HETATM   49  C21 UNL     1       8.620 -14.471  37.844  1.00  0.00     0.000 C 
HETATM   50  C22 UNL     1       7.375 -15.311  37.689  1.00  0.00     0.001 C 
HETATM   51  C23 UNL     1       7.215 -15.826  36.274  1.00  0.00     0.009 C 
ENDBRANCH  10  46
TORSDOF 11
ENDMDL
MODEL 3
REMARK VINA RESULT: -7.713564922      8.424     12.885
REMARK  11 active torsions:
REMARK  status: ('A' for Active; 'I' for Inactive)
REMARK    1  A    between atoms: C2_2  and  O1_4 
REMARK    2  A    between atoms: C2_2  and  C4_6 
REMARK    3  A    between atoms: C4_6  and  C5_7 
REMARK    4  A    between atoms: C5_7  and  N1_8 
REMARK       I    between atoms: N1_8  and  C6_10 
REMARK       I    between atoms: C6_10  and  N2_12 
REMARK    5  A    between atoms: N3_15  and  C9_16 
REMARK    6  A    between atoms: C9_16  and  O3_17 
REMARK    7  A    between atoms: C10_19  and  N4_20 
REMARK    8  A    between atoms: C17_29  and  C18_30 
REMARK    9  A    between atoms: C24_36  and  C25_37 
REMARK       I    between atoms: C25_37  and  N6_39 
REMARK   10  A    between atoms: N6_39  and  C26_41 
REMARK   11  A    between atoms: C26_41  and  C27_42 
ROOT
HETATM    1  N4  UNL     1       5.488 -18.046  30.999  1.00  0.00    -0.320 N 
HETATM    2  C11 UNL     1       4.530 -18.945  31.677  1.00  0.00     0.162 C 
HETATM    3  C12 UNL     1       3.343 -18.058  31.960  1.00  0.00     0.295 C 
HETATM    4  N5  UNL     1       2.626 -17.715  30.736  1.00  0.00     0.121 N 
HETATM    5  C13 UNL     1       3.448 -17.007  29.812  1.00  0.00     0.316 C 
HETATM    6  C14 UNL     1       3.120 -17.517  28.399  1.00  0.00     0.053 C 
HETATM    7  C15 UNL     1       2.027 -16.605  27.814  1.00  0.00     0.086 C 
HETATM    8  C16 UNL     1       0.905 -16.710  28.783  1.00  0.00     0.154 C 
HETATM    9  O4  UNL     1      -0.040 -17.333  28.341  1.00  0.00    -0.293 OA
HETATM   10  C17 UNL     1       0.825 -16.163  30.155  1.00  0.00     0.012 C 
HETATM   11  C24 UNL     1       1.464 -16.947  31.222  1.00  0.00     0.348 C 
HETATM   12  C33 UNL     1       4.905 -17.242  29.966  1.00  0.00     0.257 C 
HETATM   13  O6  UNL     1       5.699 -16.713  29.151  1.00  0.00    -0.271 OA
ENDROOT
BRANCH   1  14
HETATM   14  C10 UNL     1       6.842 -17.977  31.405  1.00  0.00     0.149 C 
HETATM   15  C9  UNL     1       7.255 -17.427  32.671  1.00  0.00     0.154 C 
BRANCH  15  16
HETATM   16  N3  UNL     1       6.577 -16.868  33.743  1.00  0.00    -0.358 N 
HETATM   17  C8  UNL     1       5.958 -15.490  33.560  1.00  0.00     0.145 C 
HETATM   18  C7  UNL     1       6.710 -14.546  34.472  1.00  0.00     0.147 C 
HETATM   19  N2  UNL     1       6.694 -15.033  35.817  1.00  0.00    -0.331 N 
HETATM   20  C6  UNL     1       6.324 -14.334  36.981  1.00  0.00     0.318 C 
HETATM   21  C35 UNL     1       7.123 -16.422  36.002  1.00  0.00     0.147 C 
HETATM   22  N1  UNL     1       5.921 -12.984  36.928  1.00  0.00    -0.343 N 
HETATM   23  O2  UNL     1       6.362 -14.955  38.109  1.00  0.00    -0.247 OA
ATOM     24  H1  UNL     1       5.901 -12.503  36.029  1.00  0.00     0.164 HD
HETATM   25  C34 UNL     1       6.317 -17.349  35.070  1.00  0.00     0.145 C 
BRANCH  22  26
HETATM   26  C5  UNL     1       5.532 -12.262  38.132  1.00  0.00     0.127 C 
BRANCH  26  27
HETATM   27  C4  UNL     1       4.060 -12.227  38.363  1.00  0.00     0.056 C 
BRANCH  27  28
HETATM   28  C2  UNL     1       3.642 -13.158  39.491  1.00  0.00     0.052 C 
HETATM   29  C1  UNL     1       2.337 -12.708  40.106  1.00  0.00     0.045 C 
HETATM   30  C3  UNL     1       4.690 -13.051  40.592  1.00  0.00     0.045 C 
BRANCH  28  31
HETATM   31  O1  UNL     1       3.539 -14.471  39.097  1.00  0.00    -0.391 OA
ATOM     32  H1  UNL     1       4.171 -14.649  38.411  1.00  0.00     0.210 HD
ENDBRANCH  28  31
ENDBRANCH  27  28
ENDBRANCH  26  27
ENDBRANCH  22  26
ENDBRANCH  15  16
BRANCH  15  33
HETATM   33  O3  UNL     1       8.579 -17.446  32.884  1.00  0.00    -0.345 OA
ATOM     34  H3  UNL     1       9.063 -17.441  32.067  1.00  0.00     0.219 HD
ENDBRANCH  15  33
ENDBRANCH   1  14
BRANCH  11  35
HETATM   35  C25 UNL     1       0.631 -17.929  31.942  1.00  0.00     0.255 C 
HETATM   36  O5  UNL     1       0.097 -18.876  31.293  1.00  0.00    -0.271 OA
HETATM   37  N6  UNL     1       0.402 -17.865  33.337  1.00  0.00    -0.359 N 
ATOM     38  H6  UNL     1       0.825 -17.108  33.875  1.00  0.00     0.162 HD
BRANCH  37  39
HETATM   39  C26 UNL     1      -0.414 -18.842  34.022  1.00  0.00     0.127 C 
BRANCH  39  40
HETATM   40  C27 UNL     1      -1.509 -18.186  34.819  1.00  0.00     0.003 C 
HETATM   41  C28 UNL     1      -2.481 -17.498  33.879  1.00  0.00     0.006 C 
HETATM   42  C29 UNL     1      -3.269 -18.485  33.048  1.00  0.00     0.000 C 
HETATM   43  C30 UNL     1      -3.631 -19.721  33.806  1.00  0.00     0.000 C 
HETATM   44  C31 UNL     1      -3.576 -19.525  35.307  1.00  0.00     0.000 C 
HETATM   45  C32 UNL     1      -2.202 -19.100  35.772  1.00  0.00     0.006 C 
ENDBRANCH  39  40
ENDBRANCH  37  39
ENDBRANCH  11  35
BRANCH  10  46
HETATM   46  C18 UNL     1      -0.507 -15.609  30.500  1.00  0.00     0.021 C 
HETATM   47  C19 UNL     1      -1.067 -14.549  29.623  1.00  0.00     0.009 C 
HETATM   48  C20 UNL     1      -2.564 -14.479  29.838  1.00  0.00     0.001 C 
HETATM   49  C21 UNL     1      -2.864 -14.436  31.305  1.00  0.00     0.000 C 
HETATM   50  C22 UNL     1      -1.629 -13.998  32.054  1.00  0.00     0.001 C 
HETATM   51  C23 UNL     1      -0.505 -15.004  31.923  1.00  0.00     0.009 C 
ENDBRANCH  10  46
TORSDOF 11
ENDMDL
MODEL 4
REMARK VINA RESULT: -7.604695963     13.536     17.483
REMARK  11 active torsions:
REMARK  status: ('A' for Active; 'I' for Inactive)
REMARK    1  A    between atoms: C2_2  and  O1_4 
REMARK    2  A    between atoms: C2_2  and  C4_6 
REMARK    3  A    between atoms: C4_6  and  C5_7 
REMARK    4  A    between atoms: C5_7  and  N1_8 
REMARK       I    between atoms: N1_8  and  C6_10 
REMARK       I    between atoms: C6_10  and  N2_12 
REMARK    5  A    between atoms: N3_15  and  C9_16 
REMARK    6  A    between atoms: C9_16  and  O3_17 
REMARK    7  A    between atoms: C10_19  and  N4_20 
REMARK    8  A    between atoms: C17_29  and  C18_30 
REMARK    9  A    between atoms: C24_36  and  C25_37 
REMARK       I    between atoms: C25_37  and  N6_39 
REMARK   10  A    between atoms: N6_39  and  C26_41 
REMARK   11  A    between atoms: C26_41  and  C27_42 
ROOT
HETATM    1  N4  UNL     1       5.300 -16.051  26.963  1.00  0.00    -0.320 N 
HETATM    2  C11 UNL     1       4.969 -15.279  25.746  1.00  0.00     0.162 C 
HETATM    3  C12 UNL     1       4.321 -14.026  26.280  1.00  0.00     0.295 C 
HETATM    4  N5  UNL     1       5.293 -13.159  26.938  1.00  0.00     0.121 N 
HETATM    5  C13 UNL     1       5.918 -13.795  28.050  1.00  0.00     0.316 C 
HETATM    6  C14 UNL     1       7.403 -13.398  28.051  1.00  0.00     0.053 C 
HETATM    7  C15 UNL     1       7.553 -12.150  28.940  1.00  0.00     0.086 C 
HETATM    8  C16 UNL     1       6.647 -11.148  28.322  1.00  0.00     0.154 C 
HETATM    9  O4  UNL     1       7.249 -10.248  27.771  1.00  0.00    -0.293 OA
HETATM   10  C17 UNL     1       5.168 -11.134  28.308  1.00  0.00     0.012 C 
HETATM   11  C24 UNL     1       4.504 -11.964  27.292  1.00  0.00     0.348 C 
HETATM   12  C33 UNL     1       5.927 -15.278  27.994  1.00  0.00     0.257 C 
HETATM   13  O6  UNL     1       6.516 -15.920  28.897  1.00  0.00    -0.271 OA
ENDROOT
BRANCH   1  14
HETATM   14  C10 UNL     1       4.957 -17.419  27.079  1.00  0.00     0.149 C 
HETATM   15  C9  UNL     1       4.005 -17.912  28.042  1.00  0.00     0.154 C 
BRANCH  15  16
HETATM   16  N3  UNL     1       3.231 -17.310  29.022  1.00  0.00    -0.358 N 
HETATM   17  C8  UNL     1       3.482 -17.696  30.473  1.00  0.00     0.145 C 
HETATM   18  C7  UNL     1       2.246 -18.420  30.957  1.00  0.00     0.147 C 
HETATM   19  N2  UNL     1       1.083 -17.615  30.748  1.00  0.00    -0.331 N 
HETATM   20  C6  UNL     1       0.087 -17.282  31.685  1.00  0.00     0.318 C 
HETATM   21  C35 UNL     1       0.905 -17.082  29.393  1.00  0.00     0.147 C 
HETATM   22  N1  UNL     1       0.139 -17.760  33.010  1.00  0.00    -0.343 N 
HETATM   23  O2  UNL     1      -0.884 -16.525  31.307  1.00  0.00    -0.247 OA
ATOM     24  H1  UNL     1       0.911 -18.363  33.294  1.00  0.00     0.164 HD
HETATM   25  C34 UNL     1       2.179 -16.336  28.952  1.00  0.00     0.145 C 
BRANCH  22  26
HETATM   26  C5  UNL     1      -0.888 -17.411  33.982  1.00  0.00     0.127 C 
BRANCH  26  27
HETATM   27  C4  UNL     1      -1.643 -18.584  34.507  1.00  0.00     0.056 C 
BRANCH  27  28
HETATM   28  C2  UNL     1      -2.861 -18.902  33.653  1.00  0.00     0.052 C 
HETATM   29  C1  UNL     1      -3.568 -17.634  33.230  1.00  0.00     0.045 C 
HETATM   30  C3  UNL     1      -3.850 -19.668  34.524  1.00  0.00     0.045 C 
BRANCH  28  31
HETATM   31  O1  UNL     1      -2.562 -19.657  32.545  1.00  0.00    -0.391 OA
ATOM     32  H1  UNL     1      -1.724 -20.087  32.668  1.00  0.00     0.210 HD
ENDBRANCH  28  31
ENDBRANCH  27  28
ENDBRANCH  26  27
ENDBRANCH  22  26
ENDBRANCH  15  16
BRANCH  15  33
HETATM   33  O3  UNL     1       3.805 -19.238  28.005  1.00  0.00    -0.345 OA
ATOM     34  H3  UNL     1       3.625 -19.537  27.122  1.00  0.00     0.219 HD
ENDBRANCH  15  33
ENDBRANCH   1  14
BRANCH  11  35
HETATM   35  C25 UNL     1       4.171 -11.329  26.002  1.00  0.00     0.255 C 
HETATM   36  O5  UNL     1       2.955 -11.212  25.671  1.00  0.00    -0.271 OA
HETATM   37  N6  UNL     1       5.156 -10.836  25.113  1.00  0.00    -0.359 N 
ATOM     38  H6  UNL     1       6.140 -10.922  25.366  1.00  0.00     0.162 HD
BRANCH  37  39
HETATM   39  C26 UNL     1       4.805 -10.212  23.857  1.00  0.00     0.127 C 
BRANCH  39  40
HETATM   40  C27 UNL     1       5.525  -8.904  23.669  1.00  0.00     0.003 C 
HETATM   41  C28 UNL     1       4.563  -7.867  23.120  1.00  0.00     0.006 C 
HETATM   42  C29 UNL     1       3.503  -7.481  24.127  1.00  0.00     0.000 C 
HETATM   43  C30 UNL     1       4.026  -7.422  25.525  1.00  0.00     0.000 C 
HETATM   44  C31 UNL     1       5.533  -7.277  25.581  1.00  0.00     0.000 C 
HETATM   45  C32 UNL     1       6.238  -8.419  24.886  1.00  0.00     0.006 C 
ENDBRANCH  39  40
ENDBRANCH  37  39
ENDBRANCH  11  35
BRANCH  10  46
HETATM   46  C18 UNL     1       4.582  -9.784  28.493  1.00  0.00     0.021 C 
HETATM   47  C19 UNL     1       5.228  -8.873  29.472  1.00  0.00     0.009 C 
HETATM   48  C20 UNL     1       4.814  -7.451  29.162  1.00  0.00     0.001 C 
HETATM   49  C21 UNL     1       3.328  -7.383  28.984  1.00  0.00     0.000 C 
HETATM   50  C22 UNL     1       2.693  -8.594  29.624  1.00  0.00     0.001 C 
HETATM   51  C23 UNL     1       3.103  -9.876  28.933  1.00  0.00     0.009 C 
ENDBRANCH  10  46
TORSDOF 11
ENDMDL
MODEL 5
REMARK VINA RESULT: -7.571430546     13.396     17.274
REMARK  11 active torsions:
REMARK  status: ('A' for Active; 'I' for Inactive)
REMARK    1  A    between atoms: C2_2  and  O1_4 
REMARK    2  A    between atoms: C2_2  and  C4_6 
REMARK    3  A    between atoms: C4_6  and  C5_7 
REMARK    4  A    between atoms: C5_7  and  N1_8 
REMARK       I    between atoms: N1_8  and  C6_10 
REMARK       I    between atoms: C6_10  and  N2_12 
REMARK    5  A    between atoms: N3_15  and  C9_16 
REMARK    6  A    between atoms: C9_16  and  O3_17 
REMARK    7  A    between atoms: C10_19  and  N4_20 
REMARK    8  A    between atoms: C17_29  and  C18_30 
REMARK    9  A    between atoms: C24_36  and  C25_37 
REMARK       I    between atoms: C25_37  and  N6_39 
REMARK   10  A    between atoms: N6_39  and  C26_41 
REMARK   11  A    between atoms: C26_41  and  C27_42 
ROOT
HETATM    1  N4  UNL     1       6.716 -15.950  27.771  1.00  0.00    -0.320 N 
HETATM    2  C11 UNL     1       6.652 -15.087  28.970  1.00  0.00     0.162 C 
HETATM    3  C12 UNL     1       6.826 -13.694  28.420  1.00  0.00     0.295 C 
HETATM    4  N5  UNL     1       5.650 -13.263  27.670  1.00  0.00     0.121 N 
HETATM    5  C13 UNL     1       5.385 -14.107  26.553  1.00  0.00     0.316 C 
HETATM    6  C14 UNL     1       3.862 -14.291  26.448  1.00  0.00     0.053 C 
HETATM    7  C15 UNL     1       3.323 -13.206  25.499  1.00  0.00     0.086 C 
HETATM    8  C16 UNL     1       3.748 -11.928  26.124  1.00  0.00     0.154 C 
HETATM    9  O4  UNL     1       2.819 -11.306  26.600  1.00  0.00    -0.293 OA
HETATM   10  C17 UNL     1       5.112 -11.364  26.222  1.00  0.00     0.012 C 
HETATM   11  C24 UNL     1       5.964 -11.867  27.310  1.00  0.00     0.348 C 
HETATM   12  C33 UNL     1       5.921 -15.486  26.672  1.00  0.00     0.257 C 
HETATM   13  O6  UNL     1       5.676 -16.318  25.766  1.00  0.00    -0.271 OA
ENDROOT
BRANCH   1  14
HETATM   14  C10 UNL     1       7.548 -17.094  27.734  1.00  0.00     0.149 C 
HETATM   15  C9  UNL     1       7.201 -18.339  28.373  1.00  0.00     0.154 C 
BRANCH  15  16
HETATM   16  N3  UNL     1       6.113 -18.765  29.119  1.00  0.00    -0.358 N 
HETATM   17  C8  UNL     1       4.755 -18.827  28.435  1.00  0.00     0.145 C 
HETATM   18  C7  UNL     1       3.882 -17.782  29.093  1.00  0.00     0.147 C 
HETATM   19  N2  UNL     1       3.846 -17.982  30.509  1.00  0.00    -0.331 N 
HETATM   20  C6  UNL     1       2.711 -18.070  31.337  1.00  0.00     0.318 C 
HETATM   21  C35 UNL     1       5.147 -18.100  31.174  1.00  0.00     0.147 C 
HETATM   22  N1  UNL     1       1.410 -17.943  30.811  1.00  0.00    -0.343 N 
HETATM   23  O2  UNL     1       2.885 -18.269  32.598  1.00  0.00    -0.247 OA
ATOM     24  H1  UNL     1       1.287 -17.781  29.812  1.00  0.00     0.164 HD
HETATM   25  C34 UNL     1       5.993 -19.189  30.484  1.00  0.00     0.145 C 
BRANCH  22  26
HETATM   26  C5  UNL     1       0.235 -18.040  31.668  1.00  0.00     0.127 C 
BRANCH  26  27
HETATM   27  C4  UNL     1      -0.459 -16.739  31.886  1.00  0.00     0.056 C 
BRANCH  27  28
HETATM   28  C2  UNL     1      -1.293 -16.749  33.158  1.00  0.00     0.052 C 
HETATM   29  C1  UNL     1      -2.243 -17.924  33.170  1.00  0.00     0.045 C 
HETATM   30  C3  UNL     1      -2.165 -15.498  33.149  1.00  0.00     0.045 C 
BRANCH  28  31
HETATM   31  O1  UNL     1      -0.533 -16.756  34.303  1.00  0.00    -0.391 OA
ATOM     32  H1  UNL     1       0.072 -16.023  34.290  1.00  0.00     0.210 HD
ENDBRANCH  28  31
ENDBRANCH  27  28
ENDBRANCH  26  27
ENDBRANCH  22  26
ENDBRANCH  15  16
BRANCH  15  33
HETATM   33  O3  UNL     1       8.111 -19.314  28.232  1.00  0.00    -0.345 OA
ATOM     34  H3  UNL     1       8.920 -18.983  27.859  1.00  0.00     0.219 HD
ENDBRANCH  15  33
ENDBRANCH   1  14
BRANCH  11  35
HETATM   35  C25 UNL     1       5.947 -11.130  28.588  1.00  0.00     0.255 C 
HETATM   36  O5  UNL     1       6.991 -10.514  28.955  1.00  0.00    -0.271 OA
HETATM   37  N6  UNL     1       4.809 -11.073  29.427  1.00  0.00    -0.359 N 
ATOM     38  H6  UNL     1       3.960 -11.563  29.145  1.00  0.00     0.162 HD
BRANCH  37  39
HETATM   39  C26 UNL     1       4.815 -10.339  30.672  1.00  0.00     0.127 C 
BRANCH  39  40
HETATM   40  C27 UNL     1       3.621  -9.429  30.783  1.00  0.00     0.003 C 
HETATM   41  C28 UNL     1       4.057  -8.080  31.324  1.00  0.00     0.006 C 
HETATM   42  C29 UNL     1       4.920  -7.321  30.341  1.00  0.00     0.000 C 
HETATM   43  C30 UNL     1       4.485  -7.509  28.924  1.00  0.00     0.000 C 
HETATM   44  C31 UNL     1       3.052  -7.985  28.809  1.00  0.00     0.000 C 
HETATM   45  C32 UNL     1       2.833  -9.299  29.524  1.00  0.00     0.006 C 
ENDBRANCH  39  40
ENDBRANCH  37  39
ENDBRANCH  11  35
BRANCH  10  46
HETATM   46  C18 UNL     1       5.169  -9.896  26.013  1.00  0.00     0.021 C 
HETATM   47  C19 UNL     1       4.282  -9.307  24.978  1.00  0.00     0.009 C 
HETATM   48  C20 UNL     1       4.127  -7.826  25.253  1.00  0.00     0.001 C 
HETATM   49  C21 UNL     1       5.473  -7.211  25.486  1.00  0.00     0.000 C 
HETATM   50  C22 UNL     1       6.540  -8.114  24.914  1.00  0.00     0.001 C 
HETATM   51  C23 UNL     1       6.597  -9.444  25.634  1.00  0.00     0.009 C 
ENDBRANCH  10  46
TORSDOF 11
ENDMDL
