MODEL 1
REMARK VINA RESULT: -9.369456450      0.000      0.000
REMARK  7 active torsions:
REMARK  status: ('A' for Active; 'I' for Inactive)
REMARK    1  A    between atoms: N1_9  and  C9_10 
REMARK    2  A    between atoms: C9_10  and  C10_11 
REMARK    3  A    between atoms: C10_11  and  C11_12 
REMARK    4  A    between atoms: C11_12  and  C12_13 
REMARK    5  A    between atoms: C12_13  and  C13_14 
REMARK    6  A    between atoms: C13_14  and  C14_15 
REMARK    7  A    between atoms: C14_15  and  N2_16 
ROOT
HETATM    1  C10 UNL     1     240.285 -25.036 352.701  1.00  0.00     0.020 C 
ENDROOT
BRANCH   1   2
HETATM    2  C9  UNL     1     241.574 -24.357 352.404  1.00  0.00     0.128 C 
BRANCH   2   3
HETATM    3  N1  UNL     1     241.774 -23.144 353.164  1.00  0.00    -0.356 N 
HETATM    4  C4  UNL     1     242.476 -23.123 354.336  1.00  0.00     0.044 A 
HETATM    5  C3  UNL     1     243.119 -24.105 355.056  1.00  0.00     0.030 A 
HETATM    6  C5  UNL     1     242.463 -21.815 354.773  1.00  0.00    -0.008 A 
HETATM    7  C2  UNL     1     243.761 -23.794 356.230  1.00  0.00     0.002 A 
HETATM    8  C1  UNL     1     243.760 -22.486 356.689  1.00  0.00     0.001 A 
HETATM    9  C6  UNL     1     243.114 -21.525 355.956  1.00  0.00     0.014 A 
HETATM   10  C7  UNL     1     241.752 -21.062 353.858  1.00  0.00     0.031 A 
HETATM   11  C8  UNL     1     241.337 -21.906 352.873  1.00  0.00     0.092 A 
ENDBRANCH   2   3
ENDBRANCH   1   2
BRANCH   1  12
HETATM   12  C11 UNL     1     239.994 -26.270 351.932  1.00  0.00     0.002 C 
BRANCH  12  13
HETATM   13  C12 UNL     1     239.214 -27.310 352.653  1.00  0.00     0.002 C 
BRANCH  13  14
HETATM   14  C13 UNL     1     237.744 -27.312 352.286  1.00  0.00     0.020 C 
BRANCH  14  15
HETATM   15  C14 UNL     1     237.522 -28.505 351.351  1.00  0.00     0.129 C 
BRANCH  15  16
HETATM   16  N2  UNL     1     236.308 -29.223 351.743  1.00  0.00    -0.352 N 
HETATM   17  C15 UNL     1     235.038 -28.819 351.719  1.00  0.00     0.108 A 
HETATM   18  C16 UNL     1     234.209 -29.834 352.183  1.00  0.00     0.106 A 
HETATM   19  N3  UNL     1     235.045 -30.862 352.487  1.00  0.00    -0.361 N 
HETATM   20  C17 UNL     1     236.304 -30.478 352.215  1.00  0.00     0.182 A 
ATOM     21  H3  UNL     1     234.765 -31.770 352.857  1.00  0.00     0.166 HD
ENDBRANCH  15  16
ENDBRANCH  14  15
ENDBRANCH  13  14
ENDBRANCH  12  13
ENDBRANCH   1  12
TORSDOF 7
ENDMDL
MODEL 2
REMARK VINA RESULT: -9.353396675      1.428      8.969
REMARK  7 active torsions:
REMARK  status: ('A' for Active; 'I' for Inactive)
REMARK    1  A    between atoms: N1_9  and  C9_10 
REMARK    2  A    between atoms: C9_10  and  C10_11 
REMARK    3  A    between atoms: C10_11  and  C11_12 
REMARK    4  A    between atoms: C11_12  and  C12_13 
REMARK    5  A    between atoms: C12_13  and  C13_14 
REMARK    6  A    between atoms: C13_14  and  C14_15 
REMARK    7  A    between atoms: C14_15  and  N2_16 
ROOT
HETATM    1  C10 UNL     1     238.811 -28.364 350.986  1.00  0.00     0.020 C 
ENDROOT
BRANCH   1   2
HETATM    2  C9  UNL     1     238.228 -28.973 352.210  1.00  0.00     0.128 C 
BRANCH   2   3
HETATM    3  N1  UNL     1     236.841 -29.354 352.059  1.00  0.00    -0.356 N 
HETATM    4  C4  UNL     1     235.821 -28.451 352.164  1.00  0.00     0.044 A 
HETATM    5  C3  UNL     1     235.794 -27.097 352.411  1.00  0.00     0.030 A 
HETATM    6  C5  UNL     1     234.655 -29.161 351.964  1.00  0.00    -0.008 A 
HETATM    7  C2  UNL     1     234.596 -26.427 352.464  1.00  0.00     0.002 A 
HETATM    8  C1  UNL     1     233.411 -27.119 352.265  1.00  0.00     0.001 A 
HETATM    9  C6  UNL     1     233.461 -28.467 352.020  1.00  0.00     0.014 A 
HETATM   10  C7  UNL     1     234.987 -30.483 351.740  1.00  0.00     0.031 A 
HETATM   11  C8  UNL     1     236.345 -30.576 351.803  1.00  0.00     0.092 A 
ENDBRANCH   2   3
ENDBRANCH   1   2
BRANCH   1  12
HETATM   12  C11 UNL     1     239.632 -27.144 351.180  1.00  0.00     0.002 C 
BRANCH  12  13
HETATM   13  C12 UNL     1     239.641 -26.585 352.559  1.00  0.00     0.002 C 
BRANCH  13  14
HETATM   14  C13 UNL     1     240.277 -25.214 352.641  1.00  0.00     0.020 C 
BRANCH  14  15
HETATM   15  C14 UNL     1     241.528 -25.357 353.515  1.00  0.00     0.129 C 
BRANCH  15  16
HETATM   16  N2  UNL     1     242.202 -24.064 353.632  1.00  0.00    -0.352 N 
HETATM   17  C15 UNL     1     242.342 -23.095 352.728  1.00  0.00     0.108 A 
HETATM   18  C16 UNL     1     243.059 -22.036 353.276  1.00  0.00     0.106 A 
HETATM   19  N3  UNL     1     243.340 -22.421 354.549  1.00  0.00    -0.361 N 
HETATM   20  C17 UNL     1     242.816 -23.643 354.748  1.00  0.00     0.182 A 
ATOM     21  H3  UNL     1     243.859 -21.875 355.236  1.00  0.00     0.166 HD
ENDBRANCH  15  16
ENDBRANCH  14  15
ENDBRANCH  13  14
ENDBRANCH  12  13
ENDBRANCH   1  12
TORSDOF 7
ENDMDL
MODEL 3
REMARK VINA RESULT: -9.325248587      1.787      9.182
REMARK  7 active torsions:
REMARK  status: ('A' for Active; 'I' for Inactive)
REMARK    1  A    between atoms: N1_9  and  C9_10 
REMARK    2  A    between atoms: C9_10  and  C10_11 
REMARK    3  A    between atoms: C10_11  and  C11_12 
REMARK    4  A    between atoms: C11_12  and  C12_13 
REMARK    5  A    between atoms: C12_13  and  C13_14 
REMARK    6  A    between atoms: C13_14  and  C14_15 
REMARK    7  A    between atoms: C14_15  and  N2_16 
ROOT
HETATM    1  C10 UNL     1     238.838 -27.559 352.771  1.00  0.00     0.020 C 
ENDROOT
BRANCH   1   2
HETATM    2  C9  UNL     1     238.256 -28.044 351.492  1.00  0.00     0.128 C 
BRANCH   2   3
HETATM    3  N1  UNL     1     237.044 -28.813 351.667  1.00  0.00    -0.356 N 
HETATM    4  C4  UNL     1     235.846 -28.229 351.971  1.00  0.00     0.044 A 
HETATM    5  C3  UNL     1     235.472 -26.921 352.178  1.00  0.00     0.030 A 
HETATM    6  C5  UNL     1     234.928 -29.255 352.058  1.00  0.00    -0.008 A 
HETATM    7  C2  UNL     1     234.166 -26.614 352.477  1.00  0.00     0.002 A 
HETATM    8  C1  UNL     1     233.226 -27.628 352.570  1.00  0.00     0.001 A 
HETATM    9  C6  UNL     1     233.621 -28.923 352.360  1.00  0.00     0.014 A 
HETATM   10  C7  UNL     1     235.583 -30.444 351.805  1.00  0.00     0.031 A 
HETATM   11  C8  UNL     1     236.890 -30.145 351.566  1.00  0.00     0.092 A 
ENDBRANCH   2   3
ENDBRANCH   1   2
BRANCH   1  12
HETATM   12  C11 UNL     1     240.138 -26.851 352.680  1.00  0.00     0.002 C 
BRANCH  12  13
HETATM   13  C12 UNL     1     240.064 -25.366 352.658  1.00  0.00     0.002 C 
BRANCH  13  14
HETATM   14  C13 UNL     1     241.359 -24.712 352.226  1.00  0.00     0.020 C 
BRANCH  14  15
HETATM   15  C14 UNL     1     241.882 -23.924 353.431  1.00  0.00     0.129 C 
BRANCH  15  16
HETATM   16  N2  UNL     1     242.082 -22.523 353.059  1.00  0.00    -0.352 N 
HETATM   17  C15 UNL     1     241.181 -21.566 352.838  1.00  0.00     0.108 A 
HETATM   18  C16 UNL     1     241.823 -20.378 352.507  1.00  0.00     0.106 A 
HETATM   19  N3  UNL     1     243.150 -20.672 352.541  1.00  0.00    -0.361 N 
HETATM   20  C17 UNL     1     243.289 -21.966 352.876  1.00  0.00     0.182 A 
ATOM     21  H3  UNL     1     243.911 -20.021 352.346  1.00  0.00     0.166 HD
ENDBRANCH  15  16
ENDBRANCH  14  15
ENDBRANCH  13  14
ENDBRANCH  12  13
ENDBRANCH   1  12
TORSDOF 7
ENDMDL
MODEL 4
REMARK VINA RESULT: -9.216707623      1.120      1.272
REMARK  7 active torsions:
REMARK  status: ('A' for Active; 'I' for Inactive)
REMARK    1  A    between atoms: N1_9  and  C9_10 
REMARK    2  A    between atoms: C9_10  and  C10_11 
REMARK    3  A    between atoms: C10_11  and  C11_12 
REMARK    4  A    between atoms: C11_12  and  C12_13 
REMARK    5  A    between atoms: C12_13  and  C13_14 
REMARK    6  A    between atoms: C13_14  and  C14_15 
REMARK    7  A    between atoms: C14_15  and  N2_16 
ROOT
HETATM    1  C10 UNL     1     240.329 -24.944 352.645  1.00  0.00     0.020 C 
ENDROOT
BRANCH   1   2
HETATM    2  C9  UNL     1     241.658 -24.320 352.409  1.00  0.00     0.128 C 
BRANCH   2   3
HETATM    3  N1  UNL     1     241.868 -23.109 353.171  1.00  0.00    -0.356 N 
HETATM    4  C4  UNL     1     242.534 -23.103 354.364  1.00  0.00     0.044 A 
HETATM    5  C3  UNL     1     243.127 -24.098 355.107  1.00  0.00     0.030 A 
HETATM    6  C5  UNL     1     242.544 -21.792 354.795  1.00  0.00    -0.008 A 
HETATM    7  C2  UNL     1     243.741 -23.800 356.299  1.00  0.00     0.002 A 
HETATM    8  C1  UNL     1     243.763 -22.490 356.752  1.00  0.00     0.001 A 
HETATM    9  C6  UNL     1     243.167 -21.515 355.996  1.00  0.00     0.014 A 
HETATM   10  C7  UNL     1     241.882 -21.024 353.856  1.00  0.00     0.031 A 
HETATM   11  C8  UNL     1     241.474 -21.861 352.862  1.00  0.00     0.092 A 
ENDBRANCH   2   3
ENDBRANCH   1   2
BRANCH   1  12
HETATM   12  C11 UNL     1     240.301 -26.422 352.749  1.00  0.00     0.002 C 
BRANCH  12  13
HETATM   13  C12 UNL     1     239.175 -27.098 352.050  1.00  0.00     0.002 C 
BRANCH  13  14
HETATM   14  C13 UNL     1     238.375 -28.011 352.956  1.00  0.00     0.020 C 
BRANCH  14  15
HETATM   15  C14 UNL     1     237.691 -29.042 352.053  1.00  0.00     0.129 C 
BRANCH  15  16
HETATM   16  N2  UNL     1     236.438 -28.493 351.533  1.00  0.00    -0.352 N 
HETATM   17  C15 UNL     1     235.589 -27.635 352.096  1.00  0.00     0.108 A 
HETATM   18  C16 UNL     1     234.523 -27.388 351.238  1.00  0.00     0.106 A 
HETATM   19  N3  UNL     1     234.777 -28.142 350.135  1.00  0.00    -0.361 N 
HETATM   20  C17 UNL     1     235.933 -28.800 350.328  1.00  0.00     0.182 A 
ATOM     21  H3  UNL     1     234.190 -28.199 349.303  1.00  0.00     0.166 HD
ENDBRANCH  15  16
ENDBRANCH  14  15
ENDBRANCH  13  14
ENDBRANCH  12  13
ENDBRANCH   1  12
TORSDOF 7
ENDMDL
MODEL 5
REMARK VINA RESULT: -9.202973625      1.329      9.165
REMARK  7 active torsions:
REMARK  status: ('A' for Active; 'I' for Inactive)
REMARK    1  A    between atoms: N1_9  and  C9_10 
REMARK    2  A    between atoms: C9_10  and  C10_11 
REMARK    3  A    between atoms: C10_11  and  C11_12 
REMARK    4  A    between atoms: C11_12  and  C12_13 
REMARK    5  A    between atoms: C12_13  and  C13_14 
REMARK    6  A    between atoms: C13_14  and  C14_15 
REMARK    7  A    between atoms: C14_15  and  N2_16 
ROOT
HETATM    1  C10 UNL     1     238.777 -27.665 352.763  1.00  0.00     0.020 C 
ENDROOT
BRANCH   1   2
HETATM    2  C9  UNL     1     238.181 -28.111 351.476  1.00  0.00     0.128 C 
BRANCH   2   3
HETATM    3  N1  UNL     1     236.949 -28.850 351.638  1.00  0.00    -0.356 N 
HETATM    4  C4  UNL     1     235.769 -28.242 351.961  1.00  0.00     0.044 A 
HETATM    5  C3  UNL     1     235.430 -26.929 352.199  1.00  0.00     0.030 A 
HETATM    6  C5  UNL     1     234.823 -29.244 352.029  1.00  0.00    -0.008 A 
HETATM    7  C2  UNL     1     234.135 -26.595 352.511  1.00  0.00     0.002 A 
HETATM    8  C1  UNL     1     233.168 -27.585 352.585  1.00  0.00     0.001 A 
HETATM    9  C6  UNL     1     233.527 -28.885 352.344  1.00  0.00     0.014 A 
HETATM   10  C7  UNL     1     235.446 -30.445 351.745  1.00  0.00     0.031 A 
HETATM   11  C8  UNL     1     236.759 -30.174 351.507  1.00  0.00     0.092 A 
ENDBRANCH   2   3
ENDBRANCH   1   2
BRANCH   1  12
HETATM   12  C11 UNL     1     240.065 -26.935 352.678  1.00  0.00     0.002 C 
BRANCH  12  13
HETATM   13  C12 UNL     1     239.964 -25.453 352.603  1.00  0.00     0.002 C 
BRANCH  13  14
HETATM   14  C13 UNL     1     241.297 -24.778 352.359  1.00  0.00     0.020 C 
BRANCH  14  15
HETATM   15  C14 UNL     1     242.118 -24.938 353.643  1.00  0.00     0.129 C 
BRANCH  15  16
HETATM   16  N2  UNL     1     242.568 -23.627 354.110  1.00  0.00    -0.352 N 
HETATM   17  C15 UNL     1     242.996 -23.257 355.317  1.00  0.00     0.108 A 
HETATM   18  C16 UNL     1     243.324 -21.906 355.310  1.00  0.00     0.106 A 
HETATM   19  N3  UNL     1     243.071 -21.487 354.042  1.00  0.00    -0.361 N 
HETATM   20  C17 UNL     1     242.618 -22.535 353.332  1.00  0.00     0.182 A 
ATOM     21  H3  UNL     1     243.202 -20.540 353.689  1.00  0.00     0.166 HD
ENDBRANCH  15  16
ENDBRANCH  14  15
ENDBRANCH  13  14
ENDBRANCH  12  13
ENDBRANCH   1  12
TORSDOF 7
ENDMDL
