MODEL 1
REMARK VINA RESULT: -10.139497290      0.000      0.000
REMARK  7 active torsions:
REMARK  status: ('A' for Active; 'I' for Inactive)
REMARK    1  A    between atoms: C5_6  and  C6_7 
REMARK    2  A    between atoms: C6_7  and  C7_8 
REMARK    3  A    between atoms: C7_8  and  C8_9 
REMARK    4  A    between atoms: C8_9  and  C9_10 
REMARK    5  A    between atoms: C9_10  and  C10_11 
REMARK    6  A    between atoms: C10_11  and  C11_12 
REMARK    7  A    between atoms: C11_12  and  C12_13 
ROOT
HETATM    1  N1  UNL     1     243.661 -19.715 354.534  1.00  0.00    -0.190 NA
HETATM    2  C1  UNL     1     243.255 -20.774 354.305  1.00  0.00     0.117 C 
HETATM    3  C2  UNL     1     242.736 -22.096 353.994  1.00  0.00     0.113 A 
HETATM    4  C3  UNL     1     243.023 -23.194 354.781  1.00  0.00     0.041 A 
HETATM    5  C4  UNL     1     242.543 -24.462 354.507  1.00  0.00     0.011 A 
HETATM    6  C5  UNL     1     241.740 -24.639 353.398  1.00  0.00    -0.043 A 
HETATM    7  C18 UNL     1     241.467 -23.527 352.628  1.00  0.00     0.096 A 
HETATM    8  N2  UNL     1     241.952 -22.306 352.921  1.00  0.00    -0.357 N 
ATOM      9  H2  UNL     1     241.718 -21.520 352.315  1.00  0.00     0.166 HD
ENDROOT
BRANCH   6  10
HETATM   10  C6  UNL     1     241.179 -25.993 353.037  1.00  0.00     0.040 C 
BRANCH  10  11
HETATM   11  C7  UNL     1     239.776 -25.744 352.549  1.00  0.00     0.005 C 
BRANCH  11  12
HETATM   12  C8  UNL     1     239.166 -26.965 351.904  1.00  0.00     0.000 C 
BRANCH  12  13
HETATM   13  C9  UNL     1     238.742 -27.961 352.958  1.00  0.00     0.000 C 
BRANCH  13  14
HETATM   14  C10 UNL     1     237.822 -28.989 352.376  1.00  0.00     0.005 C 
BRANCH  14  15
HETATM   15  C11 UNL     1     237.022 -28.505 351.198  1.00  0.00     0.038 C 
BRANCH  15  16
HETATM   16  C12 UNL     1     235.680 -28.129 351.700  1.00  0.00    -0.058 A 
HETATM   17  C13 UNL     1     234.661 -29.049 351.612  1.00  0.00     0.007 A 
HETATM   18  C14 UNL     1     233.411 -28.694 352.082  1.00  0.00     0.001 A 
HETATM   19  C15 UNL     1     233.183 -27.450 352.626  1.00  0.00     0.000 A 
HETATM   20  C16 UNL     1     234.188 -26.524 352.719  1.00  0.00     0.001 A 
HETATM   21  C17 UNL     1     235.442 -26.902 352.240  1.00  0.00     0.007 A 
ENDBRANCH  15  16
ENDBRANCH  14  15
ENDBRANCH  13  14
ENDBRANCH  12  13
ENDBRANCH  11  12
ENDBRANCH  10  11
ENDBRANCH   6  10
TORSDOF 7
ENDMDL
MODEL 2
REMARK VINA RESULT: -10.103786325      3.751      8.908
REMARK  7 active torsions:
REMARK  status: ('A' for Active; 'I' for Inactive)
REMARK    1  A    between atoms: C5_6  and  C6_7 
REMARK    2  A    between atoms: C6_7  and  C7_8 
REMARK    3  A    between atoms: C7_8  and  C8_9 
REMARK    4  A    between atoms: C8_9  and  C9_10 
REMARK    5  A    between atoms: C9_10  and  C10_11 
REMARK    6  A    between atoms: C10_11  and  C11_12 
REMARK    7  A    between atoms: C11_12  and  C12_13 
ROOT
HETATM    1  N1  UNL     1     233.172 -30.087 352.093  1.00  0.00    -0.190 NA
HETATM    2  C1  UNL     1     234.295 -29.899 351.881  1.00  0.00     0.117 C 
HETATM    3  C2  UNL     1     235.698 -29.643 351.601  1.00  0.00     0.113 A 
HETATM    4  C3  UNL     1     236.706 -30.331 352.247  1.00  0.00     0.041 A 
HETATM    5  C4  UNL     1     238.049 -30.106 351.999  1.00  0.00     0.011 A 
HETATM    6  C5  UNL     1     238.397 -29.152 351.065  1.00  0.00    -0.043 A 
HETATM    7  C18 UNL     1     237.372 -28.478 350.433  1.00  0.00     0.096 A 
HETATM    8  N2  UNL     1     236.075 -28.720 350.698  1.00  0.00    -0.357 N 
ATOM      9  H2  UNL     1     235.359 -28.191 350.200  1.00  0.00     0.166 HD
ENDROOT
BRANCH   6  10
HETATM   10  C6  UNL     1     239.841 -28.853 350.742  1.00  0.00     0.040 C 
BRANCH  10  11
HETATM   11  C7  UNL     1     240.009 -27.368 350.931  1.00  0.00     0.005 C 
BRANCH  11  12
HETATM   12  C8  UNL     1     240.199 -26.991 352.381  1.00  0.00     0.000 C 
BRANCH  12  13
HETATM   13  C9  UNL     1     239.958 -25.512 352.576  1.00  0.00     0.000 C 
BRANCH  13  14
HETATM   14  C10 UNL     1     241.254 -24.763 352.615  1.00  0.00     0.005 C 
BRANCH  14  15
HETATM   15  C11 UNL     1     242.194 -25.213 353.700  1.00  0.00     0.038 C 
BRANCH  15  16
HETATM   16  C12 UNL     1     242.599 -24.007 354.460  1.00  0.00    -0.058 A 
HETATM   17  C13 UNL     1     242.239 -22.771 353.977  1.00  0.00     0.007 A 
HETATM   18  C14 UNL     1     242.619 -21.649 354.690  1.00  0.00     0.001 A 
HETATM   19  C15 UNL     1     243.341 -21.759 355.857  1.00  0.00     0.000 A 
HETATM   20  C16 UNL     1     243.706 -22.984 356.349  1.00  0.00     0.001 A 
HETATM   21  C17 UNL     1     243.313 -24.103 355.616  1.00  0.00     0.007 A 
ENDBRANCH  15  16
ENDBRANCH  14  15
ENDBRANCH  13  14
ENDBRANCH  12  13
ENDBRANCH  11  12
ENDBRANCH  10  11
ENDBRANCH   6  10
TORSDOF 7
ENDMDL
MODEL 3
REMARK VINA RESULT: -10.072480574      3.741      8.858
REMARK  7 active torsions:
REMARK  status: ('A' for Active; 'I' for Inactive)
REMARK    1  A    between atoms: C5_6  and  C6_7 
REMARK    2  A    between atoms: C6_7  and  C7_8 
REMARK    3  A    between atoms: C7_8  and  C8_9 
REMARK    4  A    between atoms: C8_9  and  C9_10 
REMARK    5  A    between atoms: C9_10  and  C10_11 
REMARK    6  A    between atoms: C10_11  and  C11_12 
REMARK    7  A    between atoms: C11_12  and  C12_13 
ROOT
HETATM    1  N1  UNL     1     233.186 -30.062 352.067  1.00  0.00    -0.190 NA
HETATM    2  C1  UNL     1     234.313 -29.882 351.869  1.00  0.00     0.117 C 
HETATM    3  C2  UNL     1     235.721 -29.634 351.607  1.00  0.00     0.113 A 
HETATM    4  C3  UNL     1     236.717 -30.314 352.278  1.00  0.00     0.041 A 
HETATM    5  C4  UNL     1     238.064 -30.097 352.046  1.00  0.00     0.011 A 
HETATM    6  C5  UNL     1     238.429 -29.160 351.103  1.00  0.00    -0.043 A 
HETATM    7  C18 UNL     1     237.416 -28.493 350.445  1.00  0.00     0.096 A 
HETATM    8  N2  UNL     1     236.114 -28.727 350.694  1.00  0.00    -0.357 N 
ATOM      9  H2  UNL     1     235.407 -28.203 350.177  1.00  0.00     0.166 HD
ENDROOT
BRANCH   6  10
HETATM   10  C6  UNL     1     239.878 -28.870 350.797  1.00  0.00     0.040 C 
BRANCH  10  11
HETATM   11  C7  UNL     1     240.048 -27.382 350.963  1.00  0.00     0.005 C 
BRANCH  11  12
HETATM   12  C8  UNL     1     240.063 -26.964 352.414  1.00  0.00     0.000 C 
BRANCH  12  13
HETATM   13  C9  UNL     1     239.908 -25.466 352.532  1.00  0.00     0.000 C 
BRANCH  13  14
HETATM   14  C10 UNL     1     241.245 -24.792 352.529  1.00  0.00     0.005 C 
BRANCH  14  15
HETATM   15  C11 UNL     1     242.160 -25.232 353.639  1.00  0.00     0.038 C 
BRANCH  15  16
HETATM   16  C12 UNL     1     242.550 -24.021 354.396  1.00  0.00    -0.058 A 
HETATM   17  C13 UNL     1     243.264 -24.172 355.562  1.00  0.00     0.007 A 
HETATM   18  C14 UNL     1     243.627 -23.039 356.264  1.00  0.00     0.001 A 
HETATM   19  C15 UNL     1     243.285 -21.783 355.814  1.00  0.00     0.000 A 
HETATM   20  C16 UNL     1     242.573 -21.617 354.655  1.00  0.00     0.001 A 
HETATM   21  C17 UNL     1     242.218 -22.773 353.961  1.00  0.00     0.007 A 
ENDBRANCH  15  16
ENDBRANCH  14  15
ENDBRANCH  13  14
ENDBRANCH  12  13
ENDBRANCH  11  12
ENDBRANCH  10  11
ENDBRANCH   6  10
TORSDOF 7
ENDMDL
MODEL 4
REMARK VINA RESULT: -10.050811685      1.664      2.097
REMARK  7 active torsions:
REMARK  status: ('A' for Active; 'I' for Inactive)
REMARK    1  A    between atoms: C5_6  and  C6_7 
REMARK    2  A    between atoms: C6_7  and  C7_8 
REMARK    3  A    between atoms: C7_8  and  C8_9 
REMARK    4  A    between atoms: C8_9  and  C9_10 
REMARK    5  A    between atoms: C9_10  and  C10_11 
REMARK    6  A    between atoms: C10_11  and  C11_12 
REMARK    7  A    between atoms: C11_12  and  C12_13 
ROOT
HETATM    1  N1  UNL     1     244.033 -22.972 355.949  1.00  0.00    -0.190 NA
HETATM    2  C1  UNL     1     243.355 -23.551 355.209  1.00  0.00     0.117 C 
HETATM    3  C2  UNL     1     242.509 -24.298 354.294  1.00  0.00     0.113 A 
HETATM    4  C3  UNL     1     241.626 -23.668 353.440  1.00  0.00     0.041 A 
HETATM    5  C4  UNL     1     240.811 -24.356 352.559  1.00  0.00     0.011 A 
HETATM    6  C5  UNL     1     240.883 -25.734 352.531  1.00  0.00    -0.043 A 
HETATM    7  C18 UNL     1     241.773 -26.341 353.393  1.00  0.00     0.096 A 
HETATM    8  N2  UNL     1     242.552 -25.642 354.239  1.00  0.00    -0.357 N 
ATOM      9  H2  UNL     1     243.192 -26.144 354.855  1.00  0.00     0.166 HD
ENDROOT
BRANCH   6  10
HETATM   10  C6  UNL     1     240.025 -26.550 351.596  1.00  0.00     0.040 C 
BRANCH  10  11
HETATM   11  C7  UNL     1     238.682 -26.676 352.268  1.00  0.00     0.005 C 
BRANCH  11  12
HETATM   12  C8  UNL     1     238.457 -28.050 352.851  1.00  0.00     0.000 C 
BRANCH  12  13
HETATM   13  C9  UNL     1     238.695 -29.112 351.803  1.00  0.00     0.000 C 
BRANCH  13  14
HETATM   14  C10 UNL     1     237.667 -30.197 351.904  1.00  0.00     0.005 C 
BRANCH  14  15
HETATM   15  C11 UNL     1     236.659 -30.197 350.787  1.00  0.00     0.038 C 
BRANCH  15  16
HETATM   16  C12 UNL     1     235.516 -29.362 351.224  1.00  0.00    -0.058 A 
HETATM   17  C13 UNL     1     234.625 -29.886 352.131  1.00  0.00     0.007 A 
HETATM   18  C14 UNL     1     233.560 -29.104 352.536  1.00  0.00     0.001 A 
HETATM   19  C15 UNL     1     233.389 -27.828 352.047  1.00  0.00     0.000 A 
HETATM   20  C16 UNL     1     234.269 -27.293 351.143  1.00  0.00     0.001 A 
HETATM   21  C17 UNL     1     235.336 -28.099 350.748  1.00  0.00     0.007 A 
ENDBRANCH  15  16
ENDBRANCH  14  15
ENDBRANCH  13  14
ENDBRANCH  12  13
ENDBRANCH  11  12
ENDBRANCH  10  11
ENDBRANCH   6  10
TORSDOF 7
ENDMDL
MODEL 5
REMARK VINA RESULT: -10.015441123      0.770      1.179
REMARK  7 active torsions:
REMARK  status: ('A' for Active; 'I' for Inactive)
REMARK    1  A    between atoms: C5_6  and  C6_7 
REMARK    2  A    between atoms: C6_7  and  C7_8 
REMARK    3  A    between atoms: C7_8  and  C8_9 
REMARK    4  A    between atoms: C8_9  and  C9_10 
REMARK    5  A    between atoms: C9_10  and  C10_11 
REMARK    6  A    between atoms: C10_11  and  C11_12 
REMARK    7  A    between atoms: C11_12  and  C12_13 
ROOT
HETATM    1  N1  UNL     1     243.319 -19.809 354.461  1.00  0.00    -0.190 NA
HETATM    2  C1  UNL     1     242.947 -20.879 354.219  1.00  0.00     0.117 C 
HETATM    3  C2  UNL     1     242.493 -22.230 353.936  1.00  0.00     0.113 A 
HETATM    4  C3  UNL     1     241.517 -22.487 352.994  1.00  0.00     0.041 A 
HETATM    5  C4  UNL     1     241.067 -23.763 352.706  1.00  0.00     0.011 A 
HETATM    6  C5  UNL     1     241.618 -24.828 353.389  1.00  0.00    -0.043 A 
HETATM    7  C18 UNL     1     242.592 -24.546 354.325  1.00  0.00     0.096 A 
HETATM    8  N2  UNL     1     243.007 -23.292 354.583  1.00  0.00    -0.357 N 
ATOM      9  H2  UNL     1     243.731 -23.143 355.286  1.00  0.00     0.166 HD
ENDROOT
BRANCH   6  10
HETATM   10  C6  UNL     1     241.178 -26.248 353.128  1.00  0.00     0.040 C 
BRANCH  10  11
HETATM   11  C7  UNL     1     239.799 -26.151 352.527  1.00  0.00     0.005 C 
BRANCH  11  12
HETATM   12  C8  UNL     1     239.674 -26.936 351.244  1.00  0.00     0.000 C 
BRANCH  12  13
HETATM   13  C9  UNL     1     239.361 -28.384 351.541  1.00  0.00     0.000 C 
BRANCH  13  14
HETATM   14  C10 UNL     1     238.114 -28.499 352.362  1.00  0.00     0.005 C 
BRANCH  14  15
HETATM   15  C11 UNL     1     236.996 -29.244 351.685  1.00  0.00     0.038 C 
BRANCH  15  16
HETATM   16  C12 UNL     1     235.743 -28.503 351.957  1.00  0.00    -0.058 A 
HETATM   17  C13 UNL     1     234.548 -29.181 351.895  1.00  0.00     0.007 A 
HETATM   18  C14 UNL     1     233.381 -28.486 352.151  1.00  0.00     0.001 A 
HETATM   19  C15 UNL     1     233.407 -27.144 352.460  1.00  0.00     0.000 A 
HETATM   20  C16 UNL     1     234.589 -26.456 352.524  1.00  0.00     0.001 A 
HETATM   21  C17 UNL     1     235.755 -27.176 352.264  1.00  0.00     0.007 A 
ENDBRANCH  15  16
ENDBRANCH  14  15
ENDBRANCH  13  14
ENDBRANCH  12  13
ENDBRANCH  11  12
ENDBRANCH  10  11
ENDBRANCH   6  10
TORSDOF 7
ENDMDL
