MODEL 1
REMARK VINA RESULT: -9.437926744      0.000      0.000
REMARK  7 active torsions:
REMARK  status: ('A' for Active; 'I' for Inactive)
REMARK    1  A    between atoms: N2_10  and  C8_11 
REMARK    2  A    between atoms: C8_11  and  C9_12 
REMARK    3  A    between atoms: C9_12  and  C10_13 
REMARK    4  A    between atoms: C10_13  and  C11_14 
REMARK    5  A    between atoms: C11_14  and  C12_15 
REMARK    6  A    between atoms: C12_15  and  C13_16 
REMARK    7  A    between atoms: C13_16  and  N3_17 
ROOT
HETATM    1  C8  UNL     1     241.585 -24.523 352.301  1.00  0.00     0.149 C 
ENDROOT
BRANCH   1   2
HETATM    2  N2  UNL     1     241.760 -23.323 353.122  1.00  0.00    -0.292 N 
HETATM    3  C4  UNL     1     242.433 -23.219 354.279  1.00  0.00     0.062 A 
HETATM    4  C3  UNL     1     243.144 -24.137 355.052  1.00  0.00     0.032 A 
HETATM    5  C5  UNL     1     242.367 -21.921 354.738  1.00  0.00     0.009 A 
HETATM    6  C2  UNL     1     243.748 -23.746 356.225  1.00  0.00     0.002 A 
HETATM    7  C1  UNL     1     243.685 -22.451 356.686  1.00  0.00     0.001 A 
HETATM    8  C6  UNL     1     242.986 -21.533 355.932  1.00  0.00     0.015 A 
HETATM    9  C7  UNL     1     241.618 -21.234 353.803  1.00  0.00     0.121 A 
HETATM   10  N1  UNL     1     241.278 -22.111 352.859  1.00  0.00    -0.308 N 
ATOM     11  H1  UNL     1     240.720 -21.882 352.036  1.00  0.00     0.186 HD
ENDBRANCH   1   2
BRANCH   1  12
HETATM   12  C9  UNL     1     240.268 -25.139 352.699  1.00  0.00     0.022 C 
BRANCH  12  13
HETATM   13  C10 UNL     1     239.865 -26.299 351.886  1.00  0.00     0.002 C 
BRANCH  13  14
HETATM   14  C11 UNL     1     239.099 -27.401 352.474  1.00  0.00     0.002 C 
BRANCH  14  15
HETATM   15  C12 UNL     1     237.634 -27.445 352.441  1.00  0.00     0.030 C 
BRANCH  15  16
HETATM   16  C13 UNL     1     236.930 -28.216 351.400  1.00  0.00     0.272 C 
BRANCH  16  17
HETATM   17  N3  UNL     1     235.498 -28.055 351.459  1.00  0.00     0.088 N 
HETATM   18  C14 UNL     1     234.728 -29.233 351.622  1.00  0.00     0.272 C 
HETATM   19  C15 UNL     1     233.509 -28.839 352.471  1.00  0.00     0.032 C 
HETATM   20  C16 UNL     1     233.504 -27.336 352.279  1.00  0.00     0.032 C 
HETATM   21  C17 UNL     1     235.015 -27.045 352.332  1.00  0.00     0.272 C 
ENDBRANCH  16  17
ENDBRANCH  15  16
ENDBRANCH  14  15
ENDBRANCH  13  14
ENDBRANCH  12  13
ENDBRANCH   1  12
TORSDOF 7
ENDMDL
MODEL 2
REMARK VINA RESULT: -9.382884323      1.295      8.768
REMARK  7 active torsions:
REMARK  status: ('A' for Active; 'I' for Inactive)
REMARK    1  A    between atoms: N2_10  and  C8_11 
REMARK    2  A    between atoms: C8_11  and  C9_12 
REMARK    3  A    between atoms: C9_12  and  C10_13 
REMARK    4  A    between atoms: C10_13  and  C11_14 
REMARK    5  A    between atoms: C11_14  and  C12_15 
REMARK    6  A    between atoms: C12_15  and  C13_16 
REMARK    7  A    between atoms: C13_16  and  N3_17 
ROOT
HETATM    1  C8  UNL     1     238.297 -29.131 352.261  1.00  0.00     0.149 C 
ENDROOT
BRANCH   1   2
HETATM    2  N2  UNL     1     236.868 -29.409 352.102  1.00  0.00    -0.292 N 
HETATM    3  C4  UNL     1     235.854 -28.531 352.173  1.00  0.00     0.062 A 
HETATM    4  C3  UNL     1     235.801 -27.158 352.410  1.00  0.00     0.032 A 
HETATM    5  C5  UNL     1     234.660 -29.185 351.964  1.00  0.00     0.009 A 
HETATM    6  C2  UNL     1     234.593 -26.497 352.430  1.00  0.00     0.002 A 
HETATM    7  C1  UNL     1     233.399 -27.147 352.221  1.00  0.00     0.001 A 
HETATM    8  C6  UNL     1     233.437 -28.505 351.986  1.00  0.00     0.015 A 
HETATM    9  C7  UNL     1     234.992 -30.510 351.759  1.00  0.00     0.121 A 
HETATM   10  N1  UNL     1     236.319 -30.595 351.851  1.00  0.00    -0.308 N 
ATOM     11  H1  UNL     1     236.848 -31.460 351.742  1.00  0.00     0.186 HD
ENDBRANCH   1   2
BRANCH   1  12
HETATM   12  C9  UNL     1     238.773 -28.528 350.963  1.00  0.00     0.022 C 
BRANCH  12  13
HETATM   13  C10 UNL     1     239.483 -27.246 351.109  1.00  0.00     0.002 C 
BRANCH  13  14
HETATM   14  C11 UNL     1     239.446 -26.505 352.371  1.00  0.00     0.002 C 
BRANCH  14  15
HETATM   15  C12 UNL     1     240.266 -25.311 352.607  1.00  0.00     0.030 C 
BRANCH  15  16
HETATM   16  C13 UNL     1     241.520 -25.405 353.377  1.00  0.00     0.272 C 
BRANCH  16  17
HETATM   17  N3  UNL     1     242.212 -24.142 353.469  1.00  0.00     0.088 N 
HETATM   18  C14 UNL     1     241.552 -23.011 352.931  1.00  0.00     0.272 C 
HETATM   19  C15 UNL     1     241.946 -21.817 353.817  1.00  0.00     0.032 C 
HETATM   20  C16 UNL     1     243.191 -22.361 354.485  1.00  0.00     0.032 C 
HETATM   21  C17 UNL     1     242.759 -23.817 354.738  1.00  0.00     0.272 C 
ENDBRANCH  16  17
ENDBRANCH  15  16
ENDBRANCH  14  15
ENDBRANCH  13  14
ENDBRANCH  12  13
ENDBRANCH   1  12
TORSDOF 7
ENDMDL
MODEL 3
REMARK VINA RESULT: -9.358288469      2.032      8.355
REMARK  7 active torsions:
REMARK  status: ('A' for Active; 'I' for Inactive)
REMARK    1  A    between atoms: N2_10  and  C8_11 
REMARK    2  A    between atoms: C8_11  and  C9_12 
REMARK    3  A    between atoms: C9_12  and  C10_13 
REMARK    4  A    between atoms: C10_13  and  C11_14 
REMARK    5  A    between atoms: C11_14  and  C12_15 
REMARK    6  A    between atoms: C12_15  and  C13_16 
REMARK    7  A    between atoms: C13_16  and  N3_17 
ROOT
HETATM    1  C8  UNL     1     240.342 -26.525 353.011  1.00  0.00     0.149 C 
ENDROOT
BRANCH   1   2
HETATM    2  N2  UNL     1     239.847 -27.282 351.859  1.00  0.00    -0.292 N 
HETATM    3  C4  UNL     1     238.587 -27.686 351.630  1.00  0.00     0.062 A 
HETATM    4  C3  UNL     1     237.399 -27.547 352.347  1.00  0.00     0.032 A 
HETATM    5  C5  UNL     1     238.529 -28.368 350.434  1.00  0.00     0.009 A 
HETATM    6  C2  UNL     1     236.224 -28.076 351.865  1.00  0.00     0.002 A 
HETATM    7  C1  UNL     1     236.162 -28.757 350.671  1.00  0.00     0.001 A 
HETATM    8  C6  UNL     1     237.329 -28.902 349.951  1.00  0.00     0.015 A 
HETATM    9  C7  UNL     1     239.819 -28.361 349.940  1.00  0.00     0.121 A 
HETATM   10  N1  UNL     1     240.569 -27.703 350.823  1.00  0.00    -0.308 N 
ATOM     11  H1  UNL     1     241.571 -27.541 350.719  1.00  0.00     0.186 HD
ENDBRANCH   1   2
BRANCH   1  12
HETATM   12  C9  UNL     1     240.278 -25.066 352.636  1.00  0.00     0.022 C 
BRANCH  12  13
HETATM   13  C10 UNL     1     241.551 -24.340 352.788  1.00  0.00     0.002 C 
BRANCH  13  14
HETATM   14  C11 UNL     1     242.284 -24.364 354.056  1.00  0.00     0.002 C 
BRANCH  14  15
HETATM   15  C12 UNL     1     243.178 -23.277 354.469  1.00  0.00     0.030 C 
BRANCH  15  16
HETATM   16  C13 UNL     1     242.638 -22.075 355.131  1.00  0.00     0.272 C 
BRANCH  16  17
HETATM   17  N3  UNL     1     242.343 -21.012 354.202  1.00  0.00     0.088 N 
HETATM   18  C14 UNL     1     243.085 -20.993 352.995  1.00  0.00     0.272 C 
HETATM   19  C15 UNL     1     242.137 -20.453 351.913  1.00  0.00     0.032 C 
HETATM   20  C16 UNL     1     241.089 -19.772 352.768  1.00  0.00     0.032 C 
HETATM   21  C17 UNL     1     240.970 -20.786 353.921  1.00  0.00     0.272 C 
ENDBRANCH  16  17
ENDBRANCH  15  16
ENDBRANCH  14  15
ENDBRANCH  13  14
ENDBRANCH  12  13
ENDBRANCH   1  12
TORSDOF 7
ENDMDL
MODEL 4
REMARK VINA RESULT: -9.331029057      1.109      8.956
REMARK  7 active torsions:
REMARK  status: ('A' for Active; 'I' for Inactive)
REMARK    1  A    between atoms: N2_10  and  C8_11 
REMARK    2  A    between atoms: C8_11  and  C9_12 
REMARK    3  A    between atoms: C9_12  and  C10_13 
REMARK    4  A    between atoms: C10_13  and  C11_14 
REMARK    5  A    between atoms: C11_14  and  C12_15 
REMARK    6  A    between atoms: C12_15  and  C13_16 
REMARK    7  A    between atoms: C13_16  and  N3_17 
ROOT
HETATM    1  C8  UNL     1     238.327 -28.056 351.437  1.00  0.00     0.149 C 
ENDROOT
BRANCH   1   2
HETATM    2  N2  UNL     1     237.034 -28.725 351.590  1.00  0.00    -0.292 N 
HETATM    3  C4  UNL     1     235.865 -28.167 351.944  1.00  0.00     0.062 A 
HETATM    4  C3  UNL     1     235.494 -26.863 352.271  1.00  0.00     0.032 A 
HETATM    5  C5  UNL     1     234.882 -29.132 351.971  1.00  0.00     0.009 A 
HETATM    6  C2  UNL     1     234.192 -26.569 352.606  1.00  0.00     0.002 A 
HETATM    7  C1  UNL     1     233.207 -27.529 352.633  1.00  0.00     0.001 A 
HETATM    8  C6  UNL     1     233.559 -28.823 352.312  1.00  0.00     0.015 A 
HETATM    9  C7  UNL     1     235.507 -30.311 351.615  1.00  0.00     0.121 A 
HETATM   10  N1  UNL     1     236.789 -30.019 351.397  1.00  0.00    -0.308 N 
ATOM     11  H1  UNL     1     237.494 -30.701 351.118  1.00  0.00     0.186 HD
ENDBRANCH   1   2
BRANCH   1  12
HETATM   12  C9  UNL     1     238.807 -27.706 352.823  1.00  0.00     0.022 C 
BRANCH  12  13
HETATM   13  C10 UNL     1     240.009 -26.855 352.858  1.00  0.00     0.002 C 
BRANCH  13  14
HETATM   14  C11 UNL     1     239.931 -25.429 352.533  1.00  0.00     0.002 C 
BRANCH  14  15
HETATM   15  C12 UNL     1     241.017 -24.492 352.841  1.00  0.00     0.030 C 
BRANCH  15  16
HETATM   16  C13 UNL     1     242.150 -24.910 353.687  1.00  0.00     0.272 C 
BRANCH  16  17
HETATM   17  N3  UNL     1     242.828 -23.794 354.301  1.00  0.00     0.088 N 
HETATM   18  C14 UNL     1     242.229 -22.520 354.147  1.00  0.00     0.272 C 
HETATM   19  C15 UNL     1     242.526 -21.744 355.441  1.00  0.00     0.032 C 
HETATM   20  C16 UNL     1     243.694 -22.540 355.986  1.00  0.00     0.032 C 
HETATM   21  C17 UNL     1     243.236 -23.971 355.648  1.00  0.00     0.272 C 
ENDBRANCH  16  17
ENDBRANCH  15  16
ENDBRANCH  14  15
ENDBRANCH  13  14
ENDBRANCH  12  13
ENDBRANCH   1  12
TORSDOF 7
ENDMDL
MODEL 5
REMARK VINA RESULT: -9.315962707      1.935      2.222
REMARK  7 active torsions:
REMARK  status: ('A' for Active; 'I' for Inactive)
REMARK    1  A    between atoms: N2_10  and  C8_11 
REMARK    2  A    between atoms: C8_11  and  C9_12 
REMARK    3  A    between atoms: C9_12  and  C10_13 
REMARK    4  A    between atoms: C10_13  and  C11_14 
REMARK    5  A    between atoms: C11_14  and  C12_15 
REMARK    6  A    between atoms: C12_15  and  C13_16 
REMARK    7  A    between atoms: C13_16  and  N3_17 
ROOT
HETATM    1  C8  UNL     1     241.812 -24.248 352.273  1.00  0.00     0.149 C 
ENDROOT
BRANCH   1   2
HETATM    2  N2  UNL     1     242.123 -23.092 353.117  1.00  0.00    -0.292 N 
HETATM    3  C4  UNL     1     242.700 -23.099 354.329  1.00  0.00     0.062 A 
HETATM    4  C3  UNL     1     243.166 -24.123 355.154  1.00  0.00     0.032 A 
HETATM    5  C5  UNL     1     242.823 -21.807 354.791  1.00  0.00     0.009 A 
HETATM    6  C2  UNL     1     243.725 -23.836 356.378  1.00  0.00     0.002 A 
HETATM    7  C1  UNL     1     243.850 -22.547 356.843  1.00  0.00     0.001 A 
HETATM    8  C6  UNL     1     243.393 -21.525 356.038  1.00  0.00     0.015 A 
HETATM    9  C7  UNL     1     242.292 -21.005 353.800  1.00  0.00     0.121 A 
HETATM   10  N1  UNL     1     241.888 -21.816 352.821  1.00  0.00    -0.308 N 
ATOM     11  H1  UNL     1     241.453 -21.498 351.955  1.00  0.00     0.186 HD
ENDBRANCH   1   2
BRANCH   1  12
HETATM   12  C9  UNL     1     240.434 -24.717 352.663  1.00  0.00     0.022 C 
BRANCH  12  13
HETATM   13  C10 UNL     1     240.332 -26.162 352.930  1.00  0.00     0.002 C 
BRANCH  13  14
HETATM   14  C11 UNL     1     239.328 -26.984 352.251  1.00  0.00     0.002 C 
BRANCH  14  15
HETATM   15  C12 UNL     1     239.574 -27.611 350.948  1.00  0.00     0.030 C 
BRANCH  15  16
HETATM   16  C13 UNL     1     239.877 -29.051 350.854  1.00  0.00     0.272 C 
BRANCH  16  17
HETATM   17  N3  UNL     1     238.689 -29.867 350.801  1.00  0.00     0.088 N 
HETATM   18  C14 UNL     1     238.175 -30.329 352.038  1.00  0.00     0.272 C 
HETATM   19  C15 UNL     1     236.646 -30.373 351.882  1.00  0.00     0.032 C 
HETATM   20  C16 UNL     1     236.516 -30.378 350.373  1.00  0.00     0.032 C 
HETATM   21  C17 UNL     1     237.627 -29.380 349.995  1.00  0.00     0.272 C 
ENDBRANCH  16  17
ENDBRANCH  15  16
ENDBRANCH  14  15
ENDBRANCH  13  14
ENDBRANCH  12  13
ENDBRANCH   1  12
TORSDOF 7
ENDMDL
