MODEL 1
REMARK VINA RESULT: -9.578855134      0.000      0.000
REMARK  7 active torsions:
REMARK  status: ('A' for Active; 'I' for Inactive)
REMARK    1  A    between atoms: C4_4  and  C5_5 
REMARK    2  A    between atoms: N1_8  and  C8_9 
REMARK    3  A    between atoms: C8_9  and  C9_10 
REMARK    4  A    between atoms: C9_10  and  C10_11 
REMARK    5  A    between atoms: C10_11  and  C11_12 
REMARK    6  A    between atoms: C11_12  and  C12_13 
REMARK    7  A    between atoms: C12_13  and  N2_14 
ROOT
HETATM    1  C5  UNL     1     237.424 -28.011 351.790  1.00  0.00    -0.009 A 
HETATM    2  C6  UNL     1     238.186 -28.848 351.030  1.00  0.00     0.031 A 
HETATM    3  C7  UNL     1     239.490 -28.437 351.196  1.00  0.00     0.091 A 
HETATM    4  N1  UNL     1     239.502 -27.390 352.027  1.00  0.00    -0.366 N 
HETATM    5  C16 UNL     1     238.261 -27.112 352.402  1.00  0.00     0.102 A 
ENDROOT
BRANCH   4   6
HETATM    6  C8  UNL     1     240.742 -26.701 352.423  1.00  0.00     0.128 C 
BRANCH   6   7
HETATM    7  C9  UNL     1     240.387 -25.285 352.755  1.00  0.00     0.020 C 
BRANCH   7   8
HETATM    8  C10 UNL     1     241.499 -24.310 352.441  1.00  0.00     0.003 C 
BRANCH   8   9
HETATM    9  C11 UNL     1     242.207 -23.817 353.647  1.00  0.00     0.020 C 
BRANCH   9  10
HETATM   10  C12 UNL     1     242.985 -22.571 353.328  1.00  0.00     0.129 C 
BRANCH  10  11
HETATM   11  N2  UNL     1     242.224 -21.356 353.473  1.00  0.00    -0.352 N 
HETATM   12  C13 UNL     1     241.757 -20.574 352.481  1.00  0.00     0.108 A 
HETATM   13  C14 UNL     1     241.084 -19.515 353.045  1.00  0.00     0.106 A 
HETATM   14  N3  UNL     1     241.141 -19.650 354.379  1.00  0.00    -0.361 N 
HETATM   15  C15 UNL     1     241.833 -20.767 354.636  1.00  0.00     0.182 A 
ATOM     16  H3  UNL     1     240.733 -19.019 355.069  1.00  0.00     0.166 HD
ENDBRANCH  10  11
ENDBRANCH   9  10
ENDBRANCH   8   9
ENDBRANCH   7   8
ENDBRANCH   6   7
ENDBRANCH   4   6
BRANCH   1  17
HETATM   17  C4  UNL     1     235.961 -28.010 351.974  1.00  0.00    -0.025 A 
HETATM   18  C3  UNL     1     235.217 -29.157 351.795  1.00  0.00     0.012 A 
HETATM   19  C2  UNL     1     233.850 -29.142 351.972  1.00  0.00     0.001 A 
HETATM   20  C1  UNL     1     233.171 -27.985 352.332  1.00  0.00     0.000 A 
HETATM   21  C18 UNL     1     233.911 -26.836 352.512  1.00  0.00     0.001 A 
HETATM   22  C17 UNL     1     235.294 -26.856 352.332  1.00  0.00     0.012 A 
ENDBRANCH   1  17
TORSDOF 7
ENDMDL
MODEL 2
REMARK VINA RESULT: -9.561318609      0.026      1.033
REMARK  7 active torsions:
REMARK  status: ('A' for Active; 'I' for Inactive)
REMARK    1  A    between atoms: C4_4  and  C5_5 
REMARK    2  A    between atoms: N1_8  and  C8_9 
REMARK    3  A    between atoms: C8_9  and  C9_10 
REMARK    4  A    between atoms: C9_10  and  C10_11 
REMARK    5  A    between atoms: C10_11  and  C11_12 
REMARK    6  A    between atoms: C11_12  and  C12_13 
REMARK    7  A    between atoms: C12_13  and  N2_14 
ROOT
HETATM    1  C5  UNL     1     237.411 -28.003 351.799  1.00  0.00    -0.009 A 
HETATM    2  C6  UNL     1     238.165 -28.853 351.046  1.00  0.00     0.031 A 
HETATM    3  C7  UNL     1     239.472 -28.448 351.204  1.00  0.00     0.091 A 
HETATM    4  N1  UNL     1     239.493 -27.392 352.023  1.00  0.00    -0.366 N 
HETATM    5  C16 UNL     1     238.254 -27.102 352.398  1.00  0.00     0.102 A 
ENDROOT
BRANCH   4   6
HETATM    6  C8  UNL     1     240.738 -26.706 352.407  1.00  0.00     0.128 C 
BRANCH   6   7
HETATM    7  C9  UNL     1     240.387 -25.292 352.753  1.00  0.00     0.020 C 
BRANCH   7   8
HETATM    8  C10 UNL     1     241.495 -24.316 352.431  1.00  0.00     0.003 C 
BRANCH   8   9
HETATM    9  C11 UNL     1     242.195 -23.801 353.633  1.00  0.00     0.020 C 
BRANCH   9  10
HETATM   10  C12 UNL     1     242.972 -22.559 353.298  1.00  0.00     0.129 C 
BRANCH  10  11
HETATM   11  N2  UNL     1     242.216 -21.341 353.444  1.00  0.00    -0.352 N 
HETATM   12  C13 UNL     1     241.748 -20.560 352.451  1.00  0.00     0.108 A 
HETATM   13  C14 UNL     1     241.081 -19.497 353.016  1.00  0.00     0.106 A 
HETATM   14  N3  UNL     1     241.144 -19.629 354.350  1.00  0.00    -0.361 N 
HETATM   15  C15 UNL     1     241.833 -20.747 354.606  1.00  0.00     0.182 A 
ATOM     16  H3  UNL     1     240.741 -18.994 355.040  1.00  0.00     0.166 HD
ENDBRANCH  10  11
ENDBRANCH   9  10
ENDBRANCH   8   9
ENDBRANCH   7   8
ENDBRANCH   6   7
ENDBRANCH   4   6
BRANCH   1  17
HETATM   17  C4  UNL     1     235.948 -27.992 351.987  1.00  0.00    -0.025 A 
HETATM   18  C3  UNL     1     235.281 -26.838 352.338  1.00  0.00     0.012 A 
HETATM   19  C2  UNL     1     233.913 -26.841 352.509  1.00  0.00     0.001 A 
HETATM   20  C1  UNL     1     233.156 -27.993 352.338  1.00  0.00     0.000 A 
HETATM   21  C18 UNL     1     233.820 -29.149 351.988  1.00  0.00     0.001 A 
HETATM   22  C17 UNL     1     235.203 -29.141 351.815  1.00  0.00     0.012 A 
ENDBRANCH   1  17
TORSDOF 7
ENDMDL
MODEL 3
REMARK VINA RESULT: -9.493030943      2.322      4.530
REMARK  7 active torsions:
REMARK  status: ('A' for Active; 'I' for Inactive)
REMARK    1  A    between atoms: C4_4  and  C5_5 
REMARK    2  A    between atoms: N1_8  and  C8_9 
REMARK    3  A    between atoms: C8_9  and  C9_10 
REMARK    4  A    between atoms: C9_10  and  C10_11 
REMARK    5  A    between atoms: C10_11  and  C11_12 
REMARK    6  A    between atoms: C11_12  and  C12_13 
REMARK    7  A    between atoms: C12_13  and  N2_14 
ROOT
HETATM    1  C5  UNL     1     240.769 -25.896 352.654  1.00  0.00    -0.009 A 
HETATM    2  C6  UNL     1     241.825 -26.240 353.444  1.00  0.00     0.031 A 
HETATM    3  C7  UNL     1     242.394 -25.058 353.861  1.00  0.00     0.091 A 
HETATM    4  N1  UNL     1     241.699 -24.044 353.335  1.00  0.00    -0.366 N 
HETATM    5  C16 UNL     1     240.707 -24.526 352.599  1.00  0.00     0.102 A 
ENDROOT
BRANCH   4   6
HETATM    6  C8  UNL     1     242.039 -22.632 353.581  1.00  0.00     0.128 C 
BRANCH   6   7
HETATM    7  C9  UNL     1     240.976 -21.793 352.944  1.00  0.00     0.020 C 
BRANCH   7   8
HETATM    8  C10 UNL     1     241.321 -20.321 352.925  1.00  0.00     0.003 C 
BRANCH   8   9
HETATM    9  C11 UNL     1     240.374 -19.484 353.700  1.00  0.00     0.020 C 
BRANCH   9  10
HETATM   10  C12 UNL     1     240.452 -19.818 355.163  1.00  0.00     0.129 C 
BRANCH  10  11
HETATM   11  N2  UNL     1     239.449 -19.165 355.965  1.00  0.00    -0.352 N 
HETATM   12  C13 UNL     1     239.510 -17.920 356.475  1.00  0.00     0.108 A 
HETATM   13  C14 UNL     1     238.350 -17.681 357.175  1.00  0.00     0.106 A 
HETATM   14  N3  UNL     1     237.583 -18.779 357.094  1.00  0.00    -0.361 N 
HETATM   15  C15 UNL     1     238.251 -19.677 356.360  1.00  0.00     0.182 A 
ATOM     16  H3  UNL     1     236.662 -18.906 357.513  1.00  0.00     0.166 HD
ENDBRANCH  10  11
ENDBRANCH   9  10
ENDBRANCH   8   9
ENDBRANCH   7   8
ENDBRANCH   6   7
ENDBRANCH   4   6
BRANCH   1  17
HETATM   17  C4  UNL     1     239.818 -26.778 351.952  1.00  0.00    -0.025 A 
HETATM   18  C3  UNL     1     240.152 -27.387 350.762  1.00  0.00     0.012 A 
HETATM   19  C2  UNL     1     239.254 -28.210 350.117  1.00  0.00     0.001 A 
HETATM   20  C1  UNL     1     237.988 -28.458 350.631  1.00  0.00     0.000 A 
HETATM   21  C18 UNL     1     237.649 -27.850 351.822  1.00  0.00     0.001 A 
HETATM   22  C17 UNL     1     238.562 -27.019 352.470  1.00  0.00     0.012 A 
ENDBRANCH   1  17
TORSDOF 7
ENDMDL
MODEL 4
REMARK VINA RESULT: -9.416453674      0.864      1.231
REMARK  7 active torsions:
REMARK  status: ('A' for Active; 'I' for Inactive)
REMARK    1  A    between atoms: C4_4  and  C5_5 
REMARK    2  A    between atoms: N1_8  and  C8_9 
REMARK    3  A    between atoms: C8_9  and  C9_10 
REMARK    4  A    between atoms: C9_10  and  C10_11 
REMARK    5  A    between atoms: C10_11  and  C11_12 
REMARK    6  A    between atoms: C11_12  and  C12_13 
REMARK    7  A    between atoms: C12_13  and  N2_14 
ROOT
HETATM    1  C5  UNL     1     237.251 -28.112 351.668  1.00  0.00    -0.009 A 
HETATM    2  C6  UNL     1     237.946 -28.928 350.826  1.00  0.00     0.031 A 
HETATM    3  C7  UNL     1     239.271 -28.578 350.959  1.00  0.00     0.091 A 
HETATM    4  N1  UNL     1     239.361 -27.586 351.851  1.00  0.00    -0.366 N 
HETATM    5  C16 UNL     1     238.148 -27.286 352.297  1.00  0.00     0.102 A 
ENDROOT
BRANCH   4   6
HETATM    6  C8  UNL     1     240.643 -26.971 352.234  1.00  0.00     0.128 C 
BRANCH   6   7
HETATM    7  C9  UNL     1     240.365 -25.553 352.625  1.00  0.00     0.020 C 
BRANCH   7   8
HETATM    8  C10 UNL     1     241.495 -24.613 352.269  1.00  0.00     0.003 C 
BRANCH   8   9
HETATM    9  C11 UNL     1     241.859 -23.687 353.369  1.00  0.00     0.020 C 
BRANCH   9  10
HETATM   10  C12 UNL     1     241.499 -22.274 353.008  1.00  0.00     0.129 C 
BRANCH  10  11
HETATM   11  N2  UNL     1     242.343 -21.282 353.625  1.00  0.00    -0.352 N 
HETATM   12  C13 UNL     1     242.796 -21.286 354.893  1.00  0.00     0.108 A 
HETATM   13  C14 UNL     1     243.569 -20.162 355.080  1.00  0.00     0.106 A 
HETATM   14  N3  UNL     1     243.586 -19.474 353.928  1.00  0.00    -0.361 N 
HETATM   15  C15 UNL     1     242.842 -20.155 353.048  1.00  0.00     0.182 A 
ATOM     16  H3  UNL     1     244.075 -18.596 353.755  1.00  0.00     0.166 HD
ENDBRANCH  10  11
ENDBRANCH   9  10
ENDBRANCH   8   9
ENDBRANCH   7   8
ENDBRANCH   6   7
ENDBRANCH   4   6
BRANCH   1  17
HETATM   17  C4  UNL     1     235.798 -28.067 351.916  1.00  0.00    -0.025 A 
HETATM   18  C3  UNL     1     235.013 -29.190 351.769  1.00  0.00     0.012 A 
HETATM   19  C2  UNL     1     233.655 -29.134 352.005  1.00  0.00     0.001 A 
HETATM   20  C1  UNL     1     233.028 -27.958 352.395  1.00  0.00     0.000 A 
HETATM   21  C18 UNL     1     233.810 -26.832 352.541  1.00  0.00     0.001 A 
HETATM   22  C17 UNL     1     235.182 -26.894 352.302  1.00  0.00     0.012 A 
ENDBRANCH   1  17
TORSDOF 7
ENDMDL
MODEL 5
REMARK VINA RESULT: -9.410425290      0.876      1.613
REMARK  7 active torsions:
REMARK  status: ('A' for Active; 'I' for Inactive)
REMARK    1  A    between atoms: C4_4  and  C5_5 
REMARK    2  A    between atoms: N1_8  and  C8_9 
REMARK    3  A    between atoms: C8_9  and  C9_10 
REMARK    4  A    between atoms: C9_10  and  C10_11 
REMARK    5  A    between atoms: C10_11  and  C11_12 
REMARK    6  A    between atoms: C11_12  and  C12_13 
REMARK    7  A    between atoms: C12_13  and  N2_14 
ROOT
HETATM    1  C5  UNL     1     237.209 -28.036 351.603  1.00  0.00    -0.009 A 
HETATM    2  C6  UNL     1     237.882 -28.749 350.655  1.00  0.00     0.031 A 
HETATM    3  C7  UNL     1     239.210 -28.415 350.795  1.00  0.00     0.091 A 
HETATM    4  N1  UNL     1     239.323 -27.533 351.793  1.00  0.00    -0.366 N 
HETATM    5  C16 UNL     1     238.123 -27.286 352.299  1.00  0.00     0.102 A 
ENDROOT
BRANCH   4   6
HETATM    6  C8  UNL     1     240.615 -26.964 352.212  1.00  0.00     0.128 C 
BRANCH   6   7
HETATM    7  C9  UNL     1     240.370 -25.550 352.640  1.00  0.00     0.020 C 
BRANCH   7   8
HETATM    8  C10 UNL     1     241.502 -24.619 352.270  1.00  0.00     0.003 C 
BRANCH   8   9
HETATM    9  C11 UNL     1     241.882 -23.691 353.363  1.00  0.00     0.020 C 
BRANCH   9  10
HETATM   10  C12 UNL     1     241.517 -22.279 353.005  1.00  0.00     0.129 C 
BRANCH  10  11
HETATM   11  N2  UNL     1     242.356 -21.284 353.626  1.00  0.00    -0.352 N 
HETATM   12  C13 UNL     1     242.813 -21.293 354.892  1.00  0.00     0.108 A 
HETATM   13  C14 UNL     1     243.578 -20.165 355.083  1.00  0.00     0.106 A 
HETATM   14  N3  UNL     1     243.587 -19.470 353.935  1.00  0.00    -0.361 N 
HETATM   15  C15 UNL     1     242.845 -20.150 353.054  1.00  0.00     0.182 A 
ATOM     16  H3  UNL     1     244.069 -18.587 353.767  1.00  0.00     0.166 HD
ENDBRANCH  10  11
ENDBRANCH   9  10
ENDBRANCH   8   9
ENDBRANCH   7   8
ENDBRANCH   6   7
ENDBRANCH   4   6
BRANCH   1  17
HETATM   17  C4  UNL     1     235.762 -28.022 351.889  1.00  0.00    -0.025 A 
HETATM   18  C3  UNL     1     235.127 -26.871 352.304  1.00  0.00     0.012 A 
HETATM   19  C2  UNL     1     233.774 -26.872 352.567  1.00  0.00     0.001 A 
HETATM   20  C1  UNL     1     233.001 -28.017 352.428  1.00  0.00     0.000 A 
HETATM   21  C18 UNL     1     233.633 -29.171 352.013  1.00  0.00     0.001 A 
HETATM   22  C17 UNL     1     235.002 -29.165 351.748  1.00  0.00     0.012 A 
ENDBRANCH   1  17
TORSDOF 7
ENDMDL
