MODEL 1
REMARK VINA RESULT: -6.162673121      0.000      0.000
REMARK  2 active torsions:
REMARK  status: ('A' for Active; 'I' for Inactive)
REMARK    1  A    between atoms: C2_2  and  O1_3 
REMARK    2  A    between atoms: O1_3  and  C3_4 
ROOT
HETATM    1  C3  UNL     1      14.552  25.475  -4.203  1.00  0.00     0.145 C 
HETATM    2  C4  UNL     1      13.614  26.266  -3.361  1.00  0.00     0.038 C 
HETATM    3  C5  UNL     1      12.801  25.480  -2.400  1.00  0.00     0.064 C 
HETATM    4  C6  UNL     1      13.447  24.212  -1.953  1.00  0.00     0.158 C 
HETATM    5  O2  UNL     1      14.111  23.531  -2.964  1.00  0.00    -0.357 OA
HETATM    6  C7  UNL     1      15.152  24.319  -3.393  1.00  0.00     0.202 C 
HETATM    7  S1  UNL     1      14.561  24.476  -0.524  1.00  0.00    -0.119 SA
HETATM    8  C8  UNL     1      14.640  22.781   0.095  1.00  0.00     0.088 C 
HETATM    9  C9  UNL     1      13.297  22.174  -0.011  1.00  0.00     0.088 C 
HETATM   10  S2  UNL     1      12.300  23.059  -1.189  1.00  0.00    -0.119 SA
ENDROOT
BRANCH   1  11
HETATM   11  O1  UNL     1      15.627  26.203  -4.673  1.00  0.00    -0.384 OA
BRANCH  11  12
HETATM   12  C2  UNL     1      15.376  26.934  -5.803  1.00  0.00     0.163 C 
HETATM   13  C1  UNL     1      15.484  25.993  -6.990  1.00  0.00     0.033 C 
ENDBRANCH  11  12
ENDBRANCH   1  11
TORSDOF 2
ENDMDL
MODEL 2
REMARK VINA RESULT: -5.995982975      1.203      1.362
REMARK  2 active torsions:
REMARK  status: ('A' for Active; 'I' for Inactive)
REMARK    1  A    between atoms: C2_2  and  O1_3 
REMARK    2  A    between atoms: O1_3  and  C3_4 
ROOT
HETATM    1  C3  UNL     1      14.305  25.562  -3.922  1.00  0.00     0.145 C 
HETATM    2  C4  UNL     1      13.304  26.234  -3.050  1.00  0.00     0.038 C 
HETATM    3  C5  UNL     1      12.536  25.336  -2.152  1.00  0.00     0.064 C 
HETATM    4  C6  UNL     1      13.262  24.089  -1.772  1.00  0.00     0.158 C 
HETATM    5  O2  UNL     1      13.984  23.519  -2.811  1.00  0.00    -0.357 OA
HETATM    6  C7  UNL     1      14.974  24.402  -3.174  1.00  0.00     0.202 C 
HETATM    7  S1  UNL     1      14.337  24.340  -0.311  1.00  0.00    -0.119 SA
HETATM    8  C8  UNL     1      14.525  22.620   0.204  1.00  0.00     0.088 C 
HETATM    9  C9  UNL     1      13.229  21.930   0.040  1.00  0.00     0.088 C 
HETATM   10  S2  UNL     1      12.189  22.815  -1.099  1.00  0.00    -0.119 SA
ENDROOT
BRANCH   1  11
HETATM   11  O1  UNL     1      15.333  26.389  -4.329  1.00  0.00    -0.384 OA
BRANCH  11  12
HETATM   12  C2  UNL     1      16.315  26.587  -3.395  1.00  0.00     0.163 C 
HETATM   13  C1  UNL     1      17.099  27.819  -3.810  1.00  0.00     0.033 C 
ENDBRANCH  11  12
ENDBRANCH   1  11
TORSDOF 2
ENDMDL
MODEL 3
REMARK VINA RESULT: -5.977549991      1.531      2.095
REMARK  2 active torsions:
REMARK  status: ('A' for Active; 'I' for Inactive)
REMARK    1  A    between atoms: C2_2  and  O1_3 
REMARK    2  A    between atoms: O1_3  and  C3_4 
ROOT
HETATM    1  C3  UNL     1      14.733  26.810  -4.030  1.00  0.00     0.145 C 
HETATM    2  C4  UNL     1      16.127  26.426  -3.679  1.00  0.00     0.038 C 
HETATM    3  C5  UNL     1      16.279  25.662  -2.415  1.00  0.00     0.064 C 
HETATM    4  C6  UNL     1      15.078  24.858  -2.044  1.00  0.00     0.158 C 
HETATM    5  O2  UNL     1      13.873  25.502  -2.281  1.00  0.00    -0.357 OA
HETATM    6  C7  UNL     1      13.755  25.695  -3.637  1.00  0.00     0.202 C 
HETATM    7  S1  UNL     1      15.087  23.207  -2.836  1.00  0.00    -0.119 SA
HETATM    8  C8  UNL     1      13.934  22.357  -1.737  1.00  0.00     0.088 C 
HETATM    9  C9  UNL     1      14.197  22.785  -0.348  1.00  0.00     0.088 C 
HETATM   10  S2  UNL     1      15.078  24.330  -0.326  1.00  0.00    -0.119 SA
ENDROOT
BRANCH   1  11
HETATM   11  O1  UNL     1      14.538  27.022  -5.381  1.00  0.00    -0.384 OA
BRANCH  11  12
HETATM   12  C2  UNL     1      15.683  27.040  -6.131  1.00  0.00     0.163 C 
HETATM   13  C1  UNL     1      15.536  25.987  -7.215  1.00  0.00     0.033 C 
ENDBRANCH  11  12
ENDBRANCH   1  11
TORSDOF 2
ENDMDL
MODEL 4
REMARK VINA RESULT: -5.708642353      2.559      5.229
REMARK  2 active torsions:
REMARK  status: ('A' for Active; 'I' for Inactive)
REMARK    1  A    between atoms: C2_2  and  O1_3 
REMARK    2  A    between atoms: O1_3  and  C3_4 
ROOT
HETATM    1  C3  UNL     1      13.450  24.417  -2.277  1.00  0.00     0.145 C 
HETATM    2  C4  UNL     1      14.713  23.692  -2.583  1.00  0.00     0.038 C 
HETATM    3  C5  UNL     1      15.346  24.032  -3.882  1.00  0.00     0.064 C 
HETATM    4  C6  UNL     1      15.046  25.412  -4.360  1.00  0.00     0.158 C 
HETATM    5  O2  UNL     1      13.735  25.812  -4.143  1.00  0.00    -0.357 OA
HETATM    6  C7  UNL     1      13.527  25.862  -2.785  1.00  0.00     0.202 C 
HETATM    7  S1  UNL     1      16.212  26.645  -3.671  1.00  0.00    -0.119 SA
HETATM    8  C8  UNL     1      15.972  27.969  -4.875  1.00  0.00     0.088 C 
HETATM    9  C9  UNL     1      15.850  27.372  -6.221  1.00  0.00     0.088 C 
HETATM   10  S2  UNL     1      15.401  25.655  -6.105  1.00  0.00    -0.119 SA
ENDROOT
BRANCH   1  11
HETATM   11  O1  UNL     1      13.173  24.507  -0.927  1.00  0.00    -0.384 OA
BRANCH  11  12
HETATM   12  C2  UNL     1      11.959  25.064  -0.627  1.00  0.00     0.163 C 
HETATM   13  C1  UNL     1      10.885  24.078  -1.051  1.00  0.00     0.033 C 
ENDBRANCH  11  12
ENDBRANCH   1  11
TORSDOF 2
ENDMDL
MODEL 5
REMARK VINA RESULT: -5.616779310      2.351      5.267
REMARK  2 active torsions:
REMARK  status: ('A' for Active; 'I' for Inactive)
REMARK    1  A    between atoms: C2_2  and  O1_3 
REMARK    2  A    between atoms: O1_3  and  C3_4 
ROOT
HETATM    1  C3  UNL     1      13.518  24.312  -2.393  1.00  0.00     0.145 C 
HETATM    2  C4  UNL     1      14.773  23.602  -2.761  1.00  0.00     0.038 C 
HETATM    3  C5  UNL     1      15.384  24.013  -4.050  1.00  0.00     0.064 C 
HETATM    4  C6  UNL     1      15.081  25.419  -4.444  1.00  0.00     0.158 C 
HETATM    5  O2  UNL     1      13.776  25.810  -4.182  1.00  0.00    -0.357 OA
HETATM    6  C7  UNL     1      13.592  25.784  -2.819  1.00  0.00     0.202 C 
HETATM    7  S1  UNL     1      16.264  26.607  -3.707  1.00  0.00    -0.119 SA
HETATM    8  C8  UNL     1      16.009  27.998  -4.830  1.00  0.00     0.088 C 
HETATM    9  C9  UNL     1      15.861  27.478  -6.205  1.00  0.00     0.088 C 
HETATM   10  S2  UNL     1      15.407  25.759  -6.179  1.00  0.00    -0.119 SA
ENDROOT
BRANCH   1  11
HETATM   11  O1  UNL     1      13.265  24.327  -1.035  1.00  0.00    -0.384 OA
BRANCH  11  12
HETATM   12  C2  UNL     1      14.200  23.682  -0.270  1.00  0.00     0.163 C 
HETATM   13  C1  UNL     1      14.744  24.688   0.730  1.00  0.00     0.033 C 
ENDBRANCH  11  12
ENDBRANCH   1  11
TORSDOF 2
ENDMDL
