MODEL 1
REMARK VINA RESULT: -8.186614569      0.000      0.000
REMARK  2 active torsions:
REMARK  status: ('A' for Active; 'I' for Inactive)
REMARK    1  A    between atoms: O1_2  and  C2_3 
REMARK    2  A    between atoms: C2_3  and  C3_5 
ROOT
HETATM    1  C3  UNL     1      14.141  23.997  -2.762  1.00  0.00     0.183 C 
HETATM    2  C4  UNL     1      13.542  25.165  -2.688  1.00  0.00    -0.038 C 
HETATM    3  C5  UNL     1      12.748  25.493  -1.481  1.00  0.00     0.046 C 
HETATM    4  C6  UNL     1      13.679  26.125  -3.818  1.00  0.00     0.079 C 
HETATM    5  C7  UNL     1      15.086  25.974  -4.348  1.00  0.00     0.108 C 
HETATM    6  O3  UNL     1      15.363  24.671  -4.723  1.00  0.00    -0.223 OA
HETATM    7  O4  UNL     1      14.872  23.750  -3.921  1.00  0.00    -0.190 OA
HETATM    8  C8  UNL     1      15.392  26.935  -5.491  1.00  0.00     0.025 C 
HETATM    9  C9  UNL     1      15.479  26.235  -6.805  1.00  0.00     0.014 C 
HETATM   10  C10 UNL     1      16.711  27.216  -4.798  1.00  0.00    -0.000 A 
HETATM   11  C11 UNL     1      16.586  27.935  -3.512  1.00  0.00     0.013 A 
HETATM   12  C12 UNL     1      16.176  26.534  -3.501  1.00  0.00     0.029 A 
ENDROOT
BRANCH   1  13
HETATM   13  C2  UNL     1      14.076  22.984  -1.719  1.00  0.00     0.319 C 
HETATM   14  O2  UNL     1      14.685  23.059  -0.644  1.00  0.00    -0.257 OA
BRANCH  13  15
HETATM   15  O1  UNL     1      13.289  21.848  -1.910  1.00  0.00    -0.321 OA
HETATM   16  C1  UNL     1      13.385  20.707  -1.083  1.00  0.00     0.213 C 
ENDBRANCH  13  15
ENDBRANCH   1  13
TORSDOF 2
ENDMDL
MODEL 2
REMARK VINA RESULT: -8.024623981      0.711      1.267
REMARK  2 active torsions:
REMARK  status: ('A' for Active; 'I' for Inactive)
REMARK    1  A    between atoms: O1_2  and  C2_3 
REMARK    2  A    between atoms: C2_3  and  C3_5 
ROOT
HETATM    1  C3  UNL     1      14.080  24.155  -2.832  1.00  0.00     0.183 C 
HETATM    2  C4  UNL     1      13.463  25.315  -2.860  1.00  0.00    -0.038 C 
HETATM    3  C5  UNL     1      12.615  25.710  -1.710  1.00  0.00     0.046 C 
HETATM    4  C6  UNL     1      13.633  26.201  -4.044  1.00  0.00     0.079 C 
HETATM    5  C7  UNL     1      15.063  26.038  -4.506  1.00  0.00     0.108 C 
HETATM    6  O3  UNL     1      15.372  24.718  -4.783  1.00  0.00    -0.223 OA
HETATM    7  O4  UNL     1      14.860  23.844  -3.942  1.00  0.00    -0.190 OA
HETATM    8  C8  UNL     1      15.404  26.926  -5.697  1.00  0.00     0.025 C 
HETATM    9  C9  UNL     1      15.554  26.144  -6.957  1.00  0.00     0.014 C 
HETATM   10  C10 UNL     1      16.689  27.273  -4.971  1.00  0.00    -0.000 A 
HETATM   11  C11 UNL     1      16.502  28.072  -3.742  1.00  0.00     0.013 A 
HETATM   12  C12 UNL     1      16.110  26.669  -3.655  1.00  0.00     0.029 A 
ENDROOT
BRANCH   1  13
HETATM   13  C2  UNL     1      13.984  23.211  -1.728  1.00  0.00     0.319 C 
HETATM   14  O2  UNL     1      13.114  22.335  -1.641  1.00  0.00    -0.257 OA
BRANCH  13  15
HETATM   15  O1  UNL     1      14.912  23.272  -0.688  1.00  0.00    -0.321 OA
HETATM   16  C1  UNL     1      14.671  23.987   0.506  1.00  0.00     0.213 C 
ENDBRANCH  13  15
ENDBRANCH   1  13
TORSDOF 2
ENDMDL
MODEL 3
REMARK VINA RESULT: -7.191035903      1.836      2.456
REMARK  2 active torsions:
REMARK  status: ('A' for Active; 'I' for Inactive)
REMARK    1  A    between atoms: O1_2  and  C2_3 
REMARK    2  A    between atoms: C2_3  and  C3_5 
ROOT
HETATM    1  C3  UNL     1      12.874  23.161  -1.007  1.00  0.00     0.183 C 
HETATM    2  C4  UNL     1      12.716  24.466  -1.038  1.00  0.00    -0.038 C 
HETATM    3  C5  UNL     1      11.997  25.133   0.072  1.00  0.00     0.046 C 
HETATM    4  C6  UNL     1      13.266  25.237  -2.187  1.00  0.00     0.079 C 
HETATM    5  C7  UNL     1      14.569  24.575  -2.572  1.00  0.00     0.108 C 
HETATM    6  O3  UNL     1      14.401  23.232  -2.866  1.00  0.00    -0.223 OA
HETATM    7  O4  UNL     1      13.559  22.597  -2.079  1.00  0.00    -0.190 OA
HETATM    8  C8  UNL     1      15.278  25.287  -3.717  1.00  0.00     0.025 C 
HETATM    9  C9  UNL     1      15.217  24.508  -4.987  1.00  0.00     0.014 C 
HETATM   10  C10 UNL     1      16.555  25.146  -2.911  1.00  0.00    -0.000 A 
HETATM   11  C11 UNL     1      16.590  25.954  -1.674  1.00  0.00     0.013 A 
HETATM   12  C12 UNL     1      15.717  24.784  -1.646  1.00  0.00     0.029 A 
ENDROOT
BRANCH   1  13
HETATM   13  C2  UNL     1      12.379  22.310   0.065  1.00  0.00     0.319 C 
HETATM   14  O2  UNL     1      12.996  22.092   1.115  1.00  0.00    -0.257 OA
BRANCH  13  15
HETATM   15  O1  UNL     1      11.138  21.687  -0.069  1.00  0.00    -0.321 OA
HETATM   16  C1  UNL     1      10.997  20.286  -0.173  1.00  0.00     0.213 C 
ENDBRANCH  13  15
ENDBRANCH   1  13
TORSDOF 2
ENDMDL
MODEL 4
REMARK VINA RESULT: -7.084344567      1.504      5.201
REMARK  2 active torsions:
REMARK  status: ('A' for Active; 'I' for Inactive)
REMARK    1  A    between atoms: O1_2  and  C2_3 
REMARK    2  A    between atoms: C2_3  and  C3_5 
ROOT
HETATM    1  C3  UNL     1      15.073  25.010  -3.835  1.00  0.00     0.183 C 
HETATM    2  C4  UNL     1      15.760  25.438  -2.799  1.00  0.00    -0.038 C 
HETATM    3  C5  UNL     1      16.444  26.750  -2.878  1.00  0.00     0.046 C 
HETATM    4  C6  UNL     1      15.830  24.594  -1.575  1.00  0.00     0.079 C 
HETATM    5  C7  UNL     1      14.481  23.929  -1.427  1.00  0.00     0.108 C 
HETATM    6  O3  UNL     1      14.135  23.202  -2.553  1.00  0.00    -0.223 OA
HETATM    7  O4  UNL     1      14.454  23.771  -3.696  1.00  0.00    -0.190 OA
HETATM    8  C8  UNL     1      14.385  23.058  -0.180  1.00  0.00     0.025 C 
HETATM    9  C9  UNL     1      14.380  21.604  -0.509  1.00  0.00     0.014 C 
HETATM   10  C10 UNL     1      13.028  23.691   0.062  1.00  0.00    -0.000 A 
HETATM   11  C11 UNL     1      13.075  25.126   0.412  1.00  0.00     0.013 A 
HETATM   12  C12 UNL     1      13.358  24.801  -0.982  1.00  0.00     0.029 A 
ENDROOT
BRANCH   1  13
HETATM   13  C2  UNL     1      14.937  25.751  -5.081  1.00  0.00     0.319 C 
HETATM   14  O2  UNL     1      14.196  26.731  -5.224  1.00  0.00    -0.257 OA
BRANCH  13  15
HETATM   15  O1  UNL     1      15.673  25.359  -6.199  1.00  0.00    -0.321 OA
HETATM   16  C1  UNL     1      15.641  26.070  -7.419  1.00  0.00     0.213 C 
ENDBRANCH  13  15
ENDBRANCH   1  13
TORSDOF 2
ENDMDL
MODEL 5
REMARK VINA RESULT: -6.946552904      2.164      5.272
REMARK  2 active torsions:
REMARK  status: ('A' for Active; 'I' for Inactive)
REMARK    1  A    between atoms: O1_2  and  C2_3 
REMARK    2  A    between atoms: C2_3  and  C3_5 
ROOT
HETATM    1  C3  UNL     1      14.290  25.857  -3.790  1.00  0.00     0.183 C 
HETATM    2  C4  UNL     1      14.727  24.660  -3.463  1.00  0.00    -0.038 C 
HETATM    3  C5  UNL     1      16.070  24.233  -3.917  1.00  0.00     0.046 C 
HETATM    4  C6  UNL     1      13.859  23.769  -2.644  1.00  0.00     0.079 C 
HETATM    5  C7  UNL     1      13.129  24.656  -1.662  1.00  0.00     0.108 C 
HETATM    6  O3  UNL     1      12.412  25.655  -2.298  1.00  0.00    -0.223 OA
HETATM    7  O4  UNL     1      13.020  26.197  -3.332  1.00  0.00    -0.190 OA
HETATM    8  C8  UNL     1      12.227  23.872  -0.716  1.00  0.00     0.025 C 
HETATM    9  C9  UNL     1      10.782  24.068  -1.026  1.00  0.00     0.014 C 
HETATM   10  C10 UNL     1      12.789  24.727   0.403  1.00  0.00    -0.000 A 
HETATM   11  C11 UNL     1      14.217  24.486   0.700  1.00  0.00     0.013 A 
HETATM   12  C12 UNL     1      13.937  25.206  -0.538  1.00  0.00     0.029 A 
ENDROOT
BRANCH   1  13
HETATM   13  C2  UNL     1      15.052  26.809  -4.585  1.00  0.00     0.319 C 
HETATM   14  O2  UNL     1      15.971  27.505  -4.136  1.00  0.00    -0.257 OA
BRANCH  13  15
HETATM   15  O1  UNL     1      14.753  26.970  -5.938  1.00  0.00    -0.321 OA
HETATM   16  C1  UNL     1      15.479  26.321  -6.961  1.00  0.00     0.213 C 
ENDBRANCH  13  15
ENDBRANCH   1  13
TORSDOF 2
ENDMDL
