MODEL 1
REMARK VINA RESULT: -6.981507460      0.000      0.000
REMARK  2 active torsions:
REMARK  status: ('A' for Active; 'I' for Inactive)
REMARK    1  A    between atoms: C2_2  and  O2_4 
REMARK    2  A    between atoms: O2_4  and  C3_5 
ROOT
HETATM    1  C3  UNL     1      14.299  22.842  -1.804  1.00  0.00     0.314 C 
HETATM    2  O3  UNL     1      14.450  21.456  -1.581  1.00  0.00    -0.206 OA
HETATM    3  O4  UNL     1      13.991  21.317  -0.355  1.00  0.00    -0.227 OA
HETATM    4  C4  UNL     1      12.707  21.910  -0.360  1.00  0.00     0.102 C 
HETATM    5  C5  UNL     1      11.755  20.876  -0.915  1.00  0.00     0.050 C 
HETATM    6  C6  UNL     1      12.289  22.248   1.022  1.00  0.00     0.041 C 
HETATM    7  C7  UNL     1      11.302  23.353   1.144  1.00  0.00     0.004 C 
HETATM    8  C8  UNL     1      11.345  24.361   0.048  1.00  0.00     0.009 C 
HETATM    9  C9  UNL     1      12.704  24.406  -0.656  1.00  0.00    -0.036 C 
HETATM   10  C10 UNL     1      13.712  24.837   0.341  1.00  0.00     0.015 C 
HETATM   11  C11 UNL     1      12.549  25.420  -1.795  1.00  0.00     0.015 C 
HETATM   12  C12 UNL     1      12.919  23.075  -1.268  1.00  0.00     0.089 C 
ENDROOT
BRANCH   1  13
HETATM   13  O2  UNL     1      14.484  23.206  -3.126  1.00  0.00    -0.286 OA
BRANCH  13  14
HETATM   14  C2  UNL     1      15.398  24.138  -3.584  1.00  0.00     0.257 C 
HETATM   15  C1  UNL     1      16.201  25.023  -2.736  1.00  0.00     0.126 C 
HETATM   16  O1  UNL     1      15.538  24.217  -4.831  1.00  0.00    -0.266 OA
ENDBRANCH  13  14
ENDBRANCH   1  13
TORSDOF 2
ENDMDL
MODEL 2
REMARK VINA RESULT: -6.929828773      1.295      1.379
REMARK  2 active torsions:
REMARK  status: ('A' for Active; 'I' for Inactive)
REMARK    1  A    between atoms: C2_2  and  O2_4 
REMARK    2  A    between atoms: O2_4  and  C3_5 
ROOT
HETATM    1  C3  UNL     1      14.444  23.568  -0.713  1.00  0.00     0.314 C 
HETATM    2  O3  UNL     1      14.746  22.314  -0.141  1.00  0.00    -0.206 OA
HETATM    3  O4  UNL     1      13.720  22.115   0.660  1.00  0.00    -0.227 OA
HETATM    4  C4  UNL     1      12.570  22.280  -0.147  1.00  0.00     0.102 C 
HETATM    5  C5  UNL     1      12.357  20.971  -0.870  1.00  0.00     0.050 C 
HETATM    6  C6  UNL     1      11.383  22.558   0.696  1.00  0.00     0.041 C 
HETATM    7  C7  UNL     1      10.283  23.308   0.034  1.00  0.00     0.004 C 
HETATM    8  C8  UNL     1      10.712  24.211  -1.070  1.00  0.00     0.009 C 
HETATM    9  C9  UNL     1      12.179  24.631  -0.950  1.00  0.00    -0.036 C 
HETATM   10  C10 UNL     1      12.322  25.413   0.300  1.00  0.00     0.015 C 
HETATM   11  C11 UNL     1      12.475  25.475  -2.196  1.00  0.00     0.015 C 
HETATM   12  C12 UNL     1      12.992  23.396  -1.044  1.00  0.00     0.089 C 
ENDROOT
BRANCH   1  13
HETATM   13  O2  UNL     1      15.256  23.890  -1.786  1.00  0.00    -0.286 OA
BRANCH  13  14
HETATM   14  C2  UNL     1      15.155  23.359  -3.059  1.00  0.00     0.257 C 
HETATM   15  C1  UNL     1      15.328  24.110  -4.305  1.00  0.00     0.126 C 
HETATM   16  O1  UNL     1      14.894  22.131  -3.134  1.00  0.00    -0.266 OA
ENDBRANCH  13  14
ENDBRANCH   1  13
TORSDOF 2
ENDMDL
MODEL 3
REMARK VINA RESULT: -6.901922257      2.061      4.914
REMARK  2 active torsions:
REMARK  status: ('A' for Active; 'I' for Inactive)
REMARK    1  A    between atoms: C2_2  and  O2_4 
REMARK    2  A    between atoms: O2_4  and  C3_5 
ROOT
HETATM    1  C3  UNL     1      12.811  22.055   1.064  1.00  0.00     0.314 C 
HETATM    2  O3  UNL     1      14.161  21.663   0.939  1.00  0.00    -0.206 OA
HETATM    3  O4  UNL     1      14.454  22.048  -0.285  1.00  0.00    -0.227 OA
HETATM    4  C4  UNL     1      14.091  23.414  -0.352  1.00  0.00     0.102 C 
HETATM    5  C5  UNL     1      15.236  24.195   0.250  1.00  0.00     0.050 C 
HETATM    6  C6  UNL     1      13.916  23.834  -1.763  1.00  0.00     0.041 C 
HETATM    7  C7  UNL     1      13.007  24.990  -1.983  1.00  0.00     0.004 C 
HETATM    8  C8  UNL     1      11.940  25.157  -0.957  1.00  0.00     0.009 C 
HETATM    9  C9  UNL     1      11.618  23.851  -0.226  1.00  0.00    -0.036 C 
HETATM   10  C10 UNL     1      11.084  22.896  -1.225  1.00  0.00     0.015 C 
HETATM   11  C11 UNL     1      10.577  24.216   0.839  1.00  0.00     0.015 C 
HETATM   12  C12 UNL     1      12.852  23.435   0.480  1.00  0.00     0.089 C 
ENDROOT
BRANCH   1  13
HETATM   13  O2  UNL     1      12.338  21.981   2.362  1.00  0.00    -0.286 OA
BRANCH  13  14
HETATM   14  C2  UNL     1      11.417  21.062   2.832  1.00  0.00     0.257 C 
HETATM   15  C1  UNL     1      11.506  20.354   4.112  1.00  0.00     0.126 C 
HETATM   16  O1  UNL     1      10.431  20.829   2.089  1.00  0.00    -0.266 OA
ENDBRANCH  13  14
ENDBRANCH   1  13
TORSDOF 2
ENDMDL
MODEL 4
REMARK VINA RESULT: -6.716047794      1.419      1.512
REMARK  2 active torsions:
REMARK  status: ('A' for Active; 'I' for Inactive)
REMARK    1  A    between atoms: C2_2  and  O2_4 
REMARK    2  A    between atoms: O2_4  and  C3_5 
ROOT
HETATM    1  C3  UNL     1      14.598  23.782  -0.986  1.00  0.00     0.314 C 
HETATM    2  O3  UNL     1      15.015  22.571  -0.393  1.00  0.00    -0.206 OA
HETATM    3  O4  UNL     1      14.075  22.358   0.503  1.00  0.00    -0.227 OA
HETATM    4  C4  UNL     1      12.852  22.430  -0.203  1.00  0.00     0.102 C 
HETATM    5  C5  UNL     1      12.646  21.081  -0.851  1.00  0.00     0.050 C 
HETATM    6  C6  UNL     1      11.730  22.686   0.732  1.00  0.00     0.041 C 
HETATM    7  C7  UNL     1      10.539  23.352   0.142  1.00  0.00     0.004 C 
HETATM    8  C8  UNL     1      10.820  24.224  -1.031  1.00  0.00     0.009 C 
HETATM    9  C9  UNL     1      12.268  24.720  -1.061  1.00  0.00    -0.036 C 
HETATM   10  C10 UNL     1      12.479  25.563   0.140  1.00  0.00     0.015 C 
HETATM   11  C11 UNL     1      12.408  25.522  -2.360  1.00  0.00     0.015 C 
HETATM   12  C12 UNL     1      13.134  23.524  -1.178  1.00  0.00     0.089 C 
ENDROOT
BRANCH   1  13
HETATM   13  O2  UNL     1      15.295  24.095  -2.139  1.00  0.00    -0.286 OA
BRANCH  13  14
HETATM   14  C2  UNL     1      16.114  25.196  -2.311  1.00  0.00     0.257 C 
HETATM   15  C1  UNL     1      15.960  26.211  -3.356  1.00  0.00     0.126 C 
HETATM   16  O1  UNL     1      17.062  25.320  -1.495  1.00  0.00    -0.266 OA
ENDBRANCH  13  14
ENDBRANCH   1  13
TORSDOF 2
ENDMDL
MODEL 5
REMARK VINA RESULT: -6.682425414      1.068      1.218
REMARK  2 active torsions:
REMARK  status: ('A' for Active; 'I' for Inactive)
REMARK    1  A    between atoms: C2_2  and  O2_4 
REMARK    2  A    between atoms: O2_4  and  C3_5 
ROOT
HETATM    1  C3  UNL     1      14.338  23.142  -2.194  1.00  0.00     0.314 C 
HETATM    2  O3  UNL     1      14.658  21.795  -2.472  1.00  0.00    -0.206 OA
HETATM    3  O4  UNL     1      14.586  21.237  -1.281  1.00  0.00    -0.227 OA
HETATM    4  C4  UNL     1      13.312  21.584  -0.774  1.00  0.00     0.102 C 
HETATM    5  C5  UNL     1      12.327  20.609  -1.375  1.00  0.00     0.050 C 
HETATM    6  C6  UNL     1      13.286  21.441   0.701  1.00  0.00     0.041 C 
HETATM    7  C7  UNL     1      12.290  22.284   1.413  1.00  0.00     0.004 C 
HETATM    8  C8  UNL     1      11.933  23.556   0.725  1.00  0.00     0.009 C 
HETATM    9  C9  UNL     1      13.022  24.025  -0.244  1.00  0.00    -0.036 C 
HETATM   10  C10 UNL     1      14.238  24.315   0.553  1.00  0.00     0.015 C 
HETATM   11  C11 UNL     1      12.463  25.282  -0.922  1.00  0.00     0.015 C 
HETATM   12  C12 UNL     1      13.157  22.979  -1.283  1.00  0.00     0.089 C 
ENDROOT
BRANCH   1  13
HETATM   13  O2  UNL     1      14.102  23.893  -3.331  1.00  0.00    -0.286 OA
BRANCH  13  14
HETATM   14  C2  UNL     1      14.749  25.069  -3.667  1.00  0.00     0.257 C 
HETATM   15  C1  UNL     1      14.099  26.271  -4.196  1.00  0.00     0.126 C 
HETATM   16  O1  UNL     1      15.994  25.090  -3.497  1.00  0.00    -0.266 OA
ENDBRANCH  13  14
ENDBRANCH   1  13
TORSDOF 2
ENDMDL
