MODEL 1
REMARK VINA RESULT: -6.450237538      0.000      0.000
REMARK  3 active torsions:
REMARK  status: ('A' for Active; 'I' for Inactive)
REMARK    1  A    between atoms: O1_2  and  C2_3 
REMARK    2  A    between atoms: C2_3  and  O3_5 
REMARK    3  A    between atoms: O3_5  and  C3_6 
ROOT
HETATM    1  C3  UNL     1      13.651  24.323  -2.154  1.00  0.00     0.141 C 
HETATM    2  C4  UNL     1      12.467  25.167  -1.762  1.00  0.00     0.037 C 
HETATM    3  C5  UNL     1      12.265  25.161  -0.266  1.00  0.00    -0.012 C 
HETATM    4  C6  UNL     1      13.570  25.081   0.472  1.00  0.00     0.005 C 
HETATM    5  C7  UNL     1      14.269  23.803   0.155  1.00  0.00     0.010 C 
HETATM    6  C8  UNL     1      13.778  23.204  -1.170  1.00  0.00     0.045 C 
HETATM    7  C9  UNL     1      12.596  22.368  -0.977  1.00  0.00     0.134 C 
HETATM    8  O4  UNL     1      11.543  22.471  -1.874  1.00  0.00    -0.384 OA
HETATM    9  C10 UNL     1      10.729  21.977  -0.826  1.00  0.00     0.175 C 
HETATM   10  C11 UNL     1      11.666  22.747   0.117  1.00  0.00     0.039 C 
HETATM   11  C12 UNL     1      11.268  24.157   0.197  1.00  0.00     0.014 C 
ENDROOT
BRANCH   1  12
HETATM   12  O3  UNL     1      14.848  25.106  -2.020  1.00  0.00    -0.292 OA
BRANCH  12  13
HETATM   13  C2  UNL     1      15.812  25.180  -2.982  1.00  0.00     0.406 C 
HETATM   14  O2  UNL     1      15.667  24.579  -4.054  1.00  0.00    -0.230 OA
BRANCH  13  15
HETATM   15  O1  UNL     1      16.948  25.956  -2.699  1.00  0.00    -0.303 OA
HETATM   16  C1  UNL     1      17.000  27.281  -3.165  1.00  0.00     0.215 C 
ENDBRANCH  13  15
ENDBRANCH  12  13
ENDBRANCH   1  12
TORSDOF 3
ENDMDL
MODEL 2
REMARK VINA RESULT: -6.418552419      0.715      1.141
REMARK  3 active torsions:
REMARK  status: ('A' for Active; 'I' for Inactive)
REMARK    1  A    between atoms: O1_2  and  C2_3 
REMARK    2  A    between atoms: C2_3  and  O3_5 
REMARK    3  A    between atoms: O3_5  and  C3_6 
ROOT
HETATM    1  C3  UNL     1      13.499  24.300  -2.178  1.00  0.00     0.141 C 
HETATM    2  C4  UNL     1      12.344  25.156  -1.730  1.00  0.00     0.037 C 
HETATM    3  C5  UNL     1      12.213  25.151  -0.227  1.00  0.00    -0.012 C 
HETATM    4  C6  UNL     1      13.550  25.055   0.449  1.00  0.00     0.005 C 
HETATM    5  C7  UNL     1      14.220  23.770   0.099  1.00  0.00     0.010 C 
HETATM    6  C8  UNL     1      13.661  23.178  -1.201  1.00  0.00     0.045 C 
HETATM    7  C9  UNL     1      12.480  22.355  -0.954  1.00  0.00     0.134 C 
HETATM    8  O4  UNL     1      11.387  22.471  -1.801  1.00  0.00    -0.384 OA
HETATM    9  C10 UNL     1      10.617  21.984  -0.716  1.00  0.00     0.175 C 
HETATM   10  C11 UNL     1      11.606  22.743   0.182  1.00  0.00     0.039 C 
HETATM   11  C12 UNL     1      11.228  24.157   0.281  1.00  0.00     0.014 C 
ENDROOT
BRANCH   1  12
HETATM   12  O3  UNL     1      14.710  25.070  -2.100  1.00  0.00    -0.292 OA
BRANCH  12  13
HETATM   13  C2  UNL     1      15.738  24.952  -2.989  1.00  0.00     0.406 C 
HETATM   14  O2  UNL     1      16.907  25.093  -2.609  1.00  0.00    -0.230 OA
BRANCH  13  15
HETATM   15  O1  UNL     1      15.406  24.670  -4.324  1.00  0.00    -0.303 OA
HETATM   16  C1  UNL     1      15.124  25.736  -5.195  1.00  0.00     0.215 C 
ENDBRANCH  13  15
ENDBRANCH  12  13
ENDBRANCH   1  12
TORSDOF 3
ENDMDL
MODEL 3
REMARK VINA RESULT: -6.370063573      2.146      5.373
REMARK  3 active torsions:
REMARK  status: ('A' for Active; 'I' for Inactive)
REMARK    1  A    between atoms: O1_2  and  C2_3 
REMARK    2  A    between atoms: C2_3  and  O3_5 
REMARK    3  A    between atoms: O3_5  and  C3_6 
ROOT
HETATM    1  C3  UNL     1      12.623  23.597   0.715  1.00  0.00     0.141 C 
HETATM    2  C4  UNL     1      12.404  25.042   0.352  1.00  0.00     0.037 C 
HETATM    3  C5  UNL     1      11.830  25.174  -1.037  1.00  0.00    -0.012 C 
HETATM    4  C6  UNL     1      10.910  24.036  -1.371  1.00  0.00     0.005 C 
HETATM    5  C7  UNL     1      11.655  22.745  -1.364  1.00  0.00     0.010 C 
HETATM    6  C8  UNL     1      12.942  22.841  -0.535  1.00  0.00     0.045 C 
HETATM    7  C9  UNL     1      14.059  23.342  -1.332  1.00  0.00     0.134 C 
HETATM    8  O4  UNL     1      14.911  24.288  -0.781  1.00  0.00    -0.384 OA
HETATM    9  C10 UNL     1      15.205  24.660  -2.115  1.00  0.00     0.175 C 
HETATM   10  C11 UNL     1      13.742  24.301  -2.421  1.00  0.00     0.039 C 
HETATM   11  C12 UNL     1      12.857  25.422  -2.085  1.00  0.00     0.014 C 
ENDROOT
BRANCH   1  12
HETATM   12  O3  UNL     1      11.389  23.047   1.205  1.00  0.00    -0.292 OA
BRANCH  12  13
HETATM   13  C2  UNL     1      11.323  21.971   2.042  1.00  0.00     0.406 C 
HETATM   14  O2  UNL     1      12.198  21.797   2.899  1.00  0.00    -0.230 OA
BRANCH  13  15
HETATM   15  O1  UNL     1      10.237  21.096   1.883  1.00  0.00    -0.303 OA
HETATM   16  C1  UNL     1       9.148  21.500   1.090  1.00  0.00     0.215 C 
ENDBRANCH  13  15
ENDBRANCH  12  13
ENDBRANCH   1  12
TORSDOF 3
ENDMDL
MODEL 4
REMARK VINA RESULT: -6.340804366      2.349      5.312
REMARK  3 active torsions:
REMARK  status: ('A' for Active; 'I' for Inactive)
REMARK    1  A    between atoms: O1_2  and  C2_3 
REMARK    2  A    between atoms: C2_3  and  O3_5 
REMARK    3  A    between atoms: O3_5  and  C3_6 
ROOT
HETATM    1  C3  UNL     1      12.682  23.790   0.649  1.00  0.00     0.141 C 
HETATM    2  C4  UNL     1      12.481  25.212   0.196  1.00  0.00     0.037 C 
HETATM    3  C5  UNL     1      11.938  25.265  -1.210  1.00  0.00    -0.012 C 
HETATM    4  C6  UNL     1      11.018  24.114  -1.496  1.00  0.00     0.005 C 
HETATM    5  C7  UNL     1      11.754  22.821  -1.396  1.00  0.00     0.010 C 
HETATM    6  C8  UNL     1      13.024  22.959  -0.547  1.00  0.00     0.045 C 
HETATM    7  C9  UNL     1      14.161  23.407  -1.347  1.00  0.00     0.134 C 
HETATM    8  O4  UNL     1      15.007  24.380  -0.834  1.00  0.00    -0.384 OA
HETATM    9  C10 UNL     1      15.332  24.670  -2.182  1.00  0.00     0.175 C 
HETATM   10  C11 UNL     1      13.874  24.301  -2.497  1.00  0.00     0.039 C 
HETATM   11  C12 UNL     1      12.989  25.445  -2.249  1.00  0.00     0.014 C 
ENDROOT
BRANCH   1  12
HETATM   12  O3  UNL     1      11.435  23.276   1.144  1.00  0.00    -0.292 OA
BRANCH  12  13
HETATM   13  C2  UNL     1      11.294  22.687   2.366  1.00  0.00     0.406 C 
HETATM   14  O2  UNL     1      10.345  22.996   3.098  1.00  0.00    -0.230 OA
BRANCH  13  15
HETATM   15  O1  UNL     1      12.257  21.737   2.739  1.00  0.00    -0.303 OA
HETATM   16  C1  UNL     1      11.905  20.376   2.744  1.00  0.00     0.215 C 
ENDBRANCH  13  15
ENDBRANCH  12  13
ENDBRANCH   1  12
TORSDOF 3
ENDMDL
MODEL 5
REMARK VINA RESULT: -6.273932653      1.696      1.975
REMARK  3 active torsions:
REMARK  status: ('A' for Active; 'I' for Inactive)
REMARK    1  A    between atoms: O1_2  and  C2_3 
REMARK    2  A    between atoms: C2_3  and  O3_5 
REMARK    3  A    between atoms: O3_5  and  C3_6 
ROOT
HETATM    1  C3  UNL     1      13.334  24.348  -2.412  1.00  0.00     0.141 C 
HETATM    2  C4  UNL     1      12.221  24.187  -1.411  1.00  0.00     0.037 C 
HETATM    3  C5  UNL     1      12.763  24.039  -0.011  1.00  0.00    -0.012 C 
HETATM    4  C6  UNL     1      14.016  24.843   0.190  1.00  0.00     0.005 C 
HETATM    5  C7  UNL     1      15.096  24.358  -0.715  1.00  0.00     0.010 C 
HETATM    6  C8  UNL     1      14.526  23.592  -1.916  1.00  0.00     0.045 C 
HETATM    7  C9  UNL     1      14.318  22.180  -1.604  1.00  0.00     0.134 C 
HETATM    8  O4  UNL     1      13.149  21.561  -2.024  1.00  0.00    -0.384 OA
HETATM    9  C10 UNL     1      13.371  20.644  -0.968  1.00  0.00     0.175 C 
HETATM   10  C11 UNL     1      13.965  21.837  -0.204  1.00  0.00     0.039 C 
HETATM   11  C12 UNL     1      12.901  22.624   0.429  1.00  0.00     0.014 C 
ENDROOT
BRANCH   1  12
HETATM   12  O3  UNL     1      13.731  25.729  -2.452  1.00  0.00    -0.292 OA
BRANCH  12  13
HETATM   13  C2  UNL     1      13.987  26.406  -3.608  1.00  0.00     0.406 C 
HETATM   14  O2  UNL     1      13.071  26.988  -4.202  1.00  0.00    -0.230 OA
BRANCH  13  15
HETATM   15  O1  UNL     1      15.311  26.409  -4.074  1.00  0.00    -0.303 OA
HETATM   16  C1  UNL     1      15.720  27.424  -4.957  1.00  0.00     0.215 C 
ENDBRANCH  13  15
ENDBRANCH  12  13
ENDBRANCH   1  12
TORSDOF 3
ENDMDL
