MODEL 1
REMARK VINA RESULT: -7.895502172      0.000      0.000
REMARK  5 active torsions:
REMARK  status: ('A' for Active; 'I' for Inactive)
REMARK    1  A    between atoms: C4_4  and  C5_5 
REMARK    2  A    between atoms: C5_5  and  C6_6 
REMARK    3  A    between atoms: C6_6  and  O1_7 
REMARK    4  A    between atoms: C8_10  and  C9_11 
REMARK    5  A    between atoms: C13_19  and  C14_20 
ROOT
HETATM    1  C6  UNL     1      -1.274  19.769   4.882  1.00  0.00     0.117 C 
HETATM    2  C7  UNL     1      -0.741  18.578   4.187  1.00  0.00     0.088 C 
HETATM    3  C8  UNL     1      -0.917  18.375   2.917  1.00  0.00     0.119 C 
HETATM    4  O4  UNL     1      -0.047  17.709   4.993  1.00  0.00    -0.351 OA
HETATM    5  C10 UNL     1      -0.060  17.920   6.422  1.00  0.00     0.189 C 
HETATM    6  C11 UNL     1      -1.501  18.208   6.791  1.00  0.00     0.023 C 
HETATM    7  C12 UNL     1      -2.113  16.885   6.845  1.00  0.00     0.181 C 
HETATM    8  O5  UNL     1      -1.273  16.290   7.837  1.00  0.00    -0.384 OA
HETATM    9  C13 UNL     1      -0.928  17.315   8.739  1.00  0.00     0.133 C 
HETATM   10  C17 UNL     1      -1.626  18.503   8.303  1.00  0.00    -0.005 C 
HETATM   11  C18 UNL     1      -2.983  18.654   8.823  1.00  0.00     0.019 C 
HETATM   12  C19 UNL     1      -0.992  19.834   8.295  1.00  0.00     0.013 C 
HETATM   13  C20 UNL     1      -1.753  20.490   7.133  1.00  0.00     0.014 C 
HETATM   14  C21 UNL     1      -2.041  19.388   6.123  1.00  0.00     0.006 C 
HETATM   15  C22 UNL     1      -3.515  19.225   5.855  1.00  0.00     0.020 C 
ENDROOT
BRANCH   1  16
HETATM   16  C5  UNL     1      -1.878  20.669   3.890  1.00  0.00     0.073 C 
BRANCH  16  17
HETATM   17  C4  UNL     1      -1.120  21.903   3.566  1.00  0.00    -0.021 C 
HETATM   18  C2  UNL     1      -0.954  22.255   2.315  1.00  0.00    -0.091 C 
HETATM   19  C1  UNL     1      -0.168  23.536   2.056  1.00  0.00     0.042 C 
HETATM   20  C3  UNL     1      -1.398  21.552   1.102  1.00  0.00     0.042 C 
ENDBRANCH  16  17
ENDBRANCH   1  16
BRANCH   1  21
HETATM   21  O1  UNL     1      -0.060  20.448   5.252  1.00  0.00    -0.382 OA
ATOM     22  H1  UNL     1       0.448  20.443   4.449  1.00  0.00     0.211 HD
ENDBRANCH   1  21
BRANCH   3  23
HETATM   23  C9  UNL     1      -0.391  17.195   2.218  1.00  0.00     0.201 C 
HETATM   24  O2  UNL     1      -1.078  16.143   2.240  1.00  0.00    -0.644 OA
HETATM   25  O3  UNL     1       0.809  17.167   1.539  1.00  0.00    -0.644 OA
ENDBRANCH   3  23
BRANCH   9  26
HETATM   26  C14 UNL     1      -1.097  16.767  10.108  1.00  0.00     0.007 C 
HETATM   27  C15 UNL     1       0.258  16.993  10.835  1.00  0.00     0.012 C 
HETATM   28  C16 UNL     1      -1.208  15.233  10.148  1.00  0.00     0.012 C 
ENDBRANCH   9  26
TORSDOF 5
ENDMDL
MODEL 2
REMARK VINA RESULT: -7.821858272      1.956      2.794
REMARK  5 active torsions:
REMARK  status: ('A' for Active; 'I' for Inactive)
REMARK    1  A    between atoms: C4_4  and  C5_5 
REMARK    2  A    between atoms: C5_5  and  C6_6 
REMARK    3  A    between atoms: C6_6  and  O1_7 
REMARK    4  A    between atoms: C8_10  and  C9_11 
REMARK    5  A    between atoms: C13_19  and  C14_20 
ROOT
HETATM    1  C6  UNL     1      -1.484  19.380   6.281  1.00  0.00     0.117 C 
HETATM    2  C7  UNL     1      -2.452  18.334   5.891  1.00  0.00     0.088 C 
HETATM    3  C8  UNL     1      -3.553  18.605   5.257  1.00  0.00     0.119 C 
HETATM    4  O4  UNL     1      -2.092  17.059   6.250  1.00  0.00    -0.351 OA
HETATM    5  C10 UNL     1      -0.947  16.873   7.111  1.00  0.00     0.189 C 
HETATM    6  C11 UNL     1      -1.086  17.894   8.222  1.00  0.00     0.023 C 
HETATM    7  C12 UNL     1      -2.042  17.279   9.135  1.00  0.00     0.181 C 
HETATM    8  O5  UNL     1      -1.334  16.070   9.421  1.00  0.00    -0.384 OA
HETATM    9  C13 UNL     1       0.037  16.395   9.412  1.00  0.00     0.133 C 
HETATM   10  C17 UNL     1       0.122  17.819   9.182  1.00  0.00    -0.005 C 
HETATM   11  C18 UNL     1       0.048  18.649  10.382  1.00  0.00     0.019 C 
HETATM   12  C19 UNL     1       1.125  18.415   8.280  1.00  0.00     0.013 C 
HETATM   13  C20 UNL     1       0.361  19.662   7.810  1.00  0.00     0.014 C 
HETATM   14  C21 UNL     1      -1.108  19.270   7.738  1.00  0.00     0.006 C 
HETATM   15  C22 UNL     1      -1.977  20.133   8.617  1.00  0.00     0.020 C 
ENDROOT
BRANCH   1  16
HETATM   16  C5  UNL     1      -1.925  20.669   5.730  1.00  0.00     0.073 C 
BRANCH  16  17
HETATM   17  C4  UNL     1      -0.986  21.349   4.803  1.00  0.00    -0.021 C 
HETATM   18  C2  UNL     1      -1.197  21.300   3.511  1.00  0.00    -0.091 C 
HETATM   19  C1  UNL     1      -0.195  22.026   2.619  1.00  0.00     0.042 C 
HETATM   20  C3  UNL     1      -2.268  20.598   2.786  1.00  0.00     0.042 C 
ENDBRANCH  16  17
ENDBRANCH   1  16
BRANCH   1  21
HETATM   21  O1  UNL     1      -0.350  19.038   5.462  1.00  0.00    -0.382 OA
ATOM     22  H1  UNL     1       0.303  18.763   6.095  1.00  0.00     0.211 HD
ENDBRANCH   1  21
BRANCH   3  23
HETATM   23  C9  UNL     1      -4.521  17.572   4.865  1.00  0.00     0.201 C 
HETATM   24  O2  UNL     1      -4.969  17.601   3.690  1.00  0.00    -0.644 OA
HETATM   25  O3  UNL     1      -4.970  16.573   5.701  1.00  0.00    -0.644 OA
ENDBRANCH   3  23
BRANCH   9  26
HETATM   26  C14 UNL     1       0.645  15.758  10.606  1.00  0.00     0.007 C 
HETATM   27  C15 UNL     1       1.229  14.401  10.122  1.00  0.00     0.012 C 
HETATM   28  C16 UNL     1      -0.387  15.287  11.646  1.00  0.00     0.012 C 
ENDBRANCH   9  26
TORSDOF 5
ENDMDL
MODEL 3
REMARK VINA RESULT: -7.758201578      1.406      1.932
REMARK  5 active torsions:
REMARK  status: ('A' for Active; 'I' for Inactive)
REMARK    1  A    between atoms: C4_4  and  C5_5 
REMARK    2  A    between atoms: C5_5  and  C6_6 
REMARK    3  A    between atoms: C6_6  and  O1_7 
REMARK    4  A    between atoms: C8_10  and  C9_11 
REMARK    5  A    between atoms: C13_19  and  C14_20 
ROOT
HETATM    1  C6  UNL     1      -0.415  20.482   3.379  1.00  0.00     0.117 C 
HETATM    2  C7  UNL     1       0.190  19.194   2.982  1.00  0.00     0.088 C 
HETATM    3  C8  UNL     1       0.162  18.756   1.760  1.00  0.00     0.119 C 
HETATM    4  O4  UNL     1       0.784  18.501   4.009  1.00  0.00    -0.351 OA
HETATM    5  C10 UNL     1       0.607  18.972   5.363  1.00  0.00     0.189 C 
HETATM    6  C11 UNL     1      -0.866  19.297   5.506  1.00  0.00     0.023 C 
HETATM    7  C12 UNL     1      -1.484  17.996   5.734  1.00  0.00     0.181 C 
HETATM    8  O5  UNL     1      -0.766  17.609   6.909  1.00  0.00    -0.384 OA
HETATM    9  C13 UNL     1      -0.523  18.789   7.639  1.00  0.00     0.133 C 
HETATM   10  C17 UNL     1      -1.163  19.863   6.913  1.00  0.00    -0.005 C 
HETATM   11  C18 UNL     1      -2.570  20.083   7.238  1.00  0.00     0.019 C 
HETATM   12  C19 UNL     1      -0.528  21.181   6.731  1.00  0.00     0.013 C 
HETATM   13  C20 UNL     1      -1.148  21.598   5.388  1.00  0.00     0.014 C 
HETATM   14  C21 UNL     1      -1.321  20.323   4.574  1.00  0.00     0.006 C 
HETATM   15  C22 UNL     1      -2.755  20.086   4.175  1.00  0.00     0.020 C 
ENDROOT
BRANCH   1  16
HETATM   16  C5  UNL     1      -0.898  21.173   2.175  1.00  0.00     0.073 C 
BRANCH  16  17
HETATM   17  C4  UNL     1      -0.933  22.656   2.231  1.00  0.00    -0.021 C 
HETATM   18  C2  UNL     1      -0.217  23.355   1.386  1.00  0.00    -0.091 C 
HETATM   19  C1  UNL     1      -0.305  24.874   1.498  1.00  0.00     0.042 C 
HETATM   20  C3  UNL     1       0.705  22.869   0.348  1.00  0.00     0.042 C 
ENDBRANCH  16  17
ENDBRANCH   1  16
BRANCH   1  21
HETATM   21  O1  UNL     1       0.751  21.241   3.752  1.00  0.00    -0.382 OA
ATOM     22  H1  UNL     1       0.893  21.807   3.003  1.00  0.00     0.211 HD
ENDBRANCH   1  21
BRANCH   3  23
HETATM   23  C9  UNL     1       0.761  17.478   1.357  1.00  0.00     0.201 C 
HETATM   24  O2  UNL     1       1.623  17.494   0.442  1.00  0.00    -0.644 OA
HETATM   25  O3  UNL     1       0.438  16.260   1.917  1.00  0.00    -0.644 OA
ENDBRANCH   3  23
BRANCH   9  26
HETATM   26  C14 UNL     1      -0.851  18.501   9.057  1.00  0.00     0.007 C 
HETATM   27  C15 UNL     1       0.506  18.257   9.774  1.00  0.00     0.012 C 
HETATM   28  C16 UNL     1      -1.548  17.145   9.264  1.00  0.00     0.012 C 
ENDBRANCH   9  26
TORSDOF 5
ENDMDL
MODEL 4
REMARK VINA RESULT: -7.752707699      2.193      6.610
REMARK  5 active torsions:
REMARK  status: ('A' for Active; 'I' for Inactive)
REMARK    1  A    between atoms: C4_4  and  C5_5 
REMARK    2  A    between atoms: C5_5  and  C6_6 
REMARK    3  A    between atoms: C6_6  and  O1_7 
REMARK    4  A    between atoms: C8_10  and  C9_11 
REMARK    5  A    between atoms: C13_19  and  C14_20 
ROOT
HETATM    1  C6  UNL     1       0.189  18.700   7.692  1.00  0.00     0.117 C 
HETATM    2  C7  UNL     1       1.443  19.376   7.300  1.00  0.00     0.088 C 
HETATM    3  C8  UNL     1       2.288  19.838   8.171  1.00  0.00     0.119 C 
HETATM    4  O4  UNL     1       1.640  19.473   5.944  1.00  0.00    -0.351 OA
HETATM    5  C10 UNL     1       0.566  19.099   5.054  1.00  0.00     0.189 C 
HETATM    6  C11 UNL     1      -0.688  19.733   5.619  1.00  0.00     0.023 C 
HETATM    7  C12 UNL     1      -0.610  21.116   5.163  1.00  0.00     0.181 C 
HETATM    8  O5  UNL     1      -0.554  20.884   3.753  1.00  0.00    -0.384 OA
HETATM    9  C13 UNL     1      -1.346  19.747   3.501  1.00  0.00     0.133 C 
HETATM   10  C17 UNL     1      -1.921  19.354   4.767  1.00  0.00    -0.005 C 
HETATM   11  C18 UNL     1      -3.176  20.015   5.114  1.00  0.00     0.019 C 
HETATM   12  C19 UNL     1      -2.020  17.943   5.185  1.00  0.00     0.013 C 
HETATM   13  C20 UNL     1      -1.933  18.106   6.710  1.00  0.00     0.014 C 
HETATM   14  C21 UNL     1      -1.002  19.281   6.971  1.00  0.00     0.006 C 
HETATM   15  C22 UNL     1      -1.668  20.377   7.762  1.00  0.00     0.020 C 
ENDROOT
BRANCH   1  16
HETATM   16  C5  UNL     1       0.163  18.551   9.154  1.00  0.00     0.073 C 
BRANCH  16  17
HETATM   17  C4  UNL     1       0.684  17.273   9.699  1.00  0.00    -0.021 C 
HETATM   18  C2  UNL     1      -0.153  16.348  10.100  1.00  0.00    -0.091 C 
HETATM   19  C1  UNL     1       0.452  15.058  10.645  1.00  0.00     0.042 C 
HETATM   20  C3  UNL     1      -1.623  16.397  10.131  1.00  0.00     0.042 C 
ENDBRANCH  16  17
ENDBRANCH   1  16
BRANCH   1  21
HETATM   21  O1  UNL     1       0.430  17.359   7.226  1.00  0.00    -0.382 OA
ATOM     22  H1  UNL     1       1.176  17.460   6.645  1.00  0.00     0.211 HD
ENDBRANCH   1  21
BRANCH   3  23
HETATM   23  C9  UNL     1       3.537  20.511   7.791  1.00  0.00     0.201 C 
HETATM   24  O2  UNL     1       4.589  19.824   7.758  1.00  0.00    -0.644 OA
HETATM   25  O3  UNL     1       3.630  21.848   7.468  1.00  0.00    -0.644 OA
ENDBRANCH   3  23
BRANCH   9  26
HETATM   26  C14 UNL     1      -2.192  20.058   2.322  1.00  0.00     0.007 C 
HETATM   27  C15 UNL     1      -1.980  18.891   1.317  1.00  0.00     0.012 C 
HETATM   28  C16 UNL     1      -1.687  21.257   1.500  1.00  0.00     0.012 C 
ENDBRANCH   9  26
TORSDOF 5
ENDMDL
MODEL 5
REMARK VINA RESULT: -7.701823855      2.875      3.863
REMARK  5 active torsions:
REMARK  status: ('A' for Active; 'I' for Inactive)
REMARK    1  A    between atoms: C4_4  and  C5_5 
REMARK    2  A    between atoms: C5_5  and  C6_6 
REMARK    3  A    between atoms: C6_6  and  O1_7 
REMARK    4  A    between atoms: C8_10  and  C9_11 
REMARK    5  A    between atoms: C13_19  and  C14_20 
ROOT
HETATM    1  C6  UNL     1      -1.127  19.519   7.068  1.00  0.00     0.117 C 
HETATM    2  C7  UNL     1       0.282  19.885   7.322  1.00  0.00     0.088 C 
HETATM    3  C8  UNL     1       1.007  20.518   6.450  1.00  0.00     0.119 C 
HETATM    4  O4  UNL     1       0.759  19.502   8.552  1.00  0.00    -0.351 OA
HETATM    5  C10 UNL     1      -0.054  18.644   9.380  1.00  0.00     0.189 C 
HETATM    6  C11 UNL     1      -0.577  17.552   8.468  1.00  0.00     0.023 C 
HETATM    7  C12 UNL     1       0.543  16.622   8.370  1.00  0.00     0.181 C 
HETATM    8  O5  UNL     1       0.703  16.317   9.757  1.00  0.00    -0.384 OA
HETATM    9  C13 UNL     1      -0.586  16.339  10.325  1.00  0.00     0.133 C 
HETATM   10  C17 UNL     1      -1.510  16.596   9.244  1.00  0.00    -0.005 C 
HETATM   11  C18 UNL     1      -1.970  15.412   8.523  1.00  0.00     0.019 C 
HETATM   12  C19 UNL     1      -2.655  17.514   9.387  1.00  0.00     0.013 C 
HETATM   13  C20 UNL     1      -2.791  18.004   7.937  1.00  0.00     0.014 C 
HETATM   14  C21 UNL     1      -1.382  18.063   7.363  1.00  0.00     0.006 C 
HETATM   15  C22 UNL     1      -1.224  17.196   6.140  1.00  0.00     0.020 C 
ENDROOT
BRANCH   1  16
HETATM   16  C5  UNL     1      -1.544  20.094   5.781  1.00  0.00     0.073 C 
BRANCH  16  17
HETATM   17  C4  UNL     1      -3.003  20.115   5.507  1.00  0.00    -0.021 C 
HETATM   18  C2  UNL     1      -3.461  19.627   4.382  1.00  0.00    -0.091 C 
HETATM   19  C1  UNL     1      -4.970  19.679   4.170  1.00  0.00     0.042 C 
HETATM   20  C3  UNL     1      -2.702  19.057   3.258  1.00  0.00     0.042 C 
ENDBRANCH  16  17
ENDBRANCH   1  16
BRANCH   1  21
HETATM   21  O1  UNL     1      -1.811  20.337   8.035  1.00  0.00    -0.382 OA
ATOM     22  H1  UNL     1      -1.227  21.077   8.149  1.00  0.00     0.211 HD
ENDBRANCH   1  21
BRANCH   3  23
HETATM   23  C9  UNL     1       2.407  20.886   6.693  1.00  0.00     0.201 C 
HETATM   24  O2  UNL     1       3.303  20.171   6.177  1.00  0.00    -0.644 OA
HETATM   25  O3  UNL     1       2.804  21.967   7.452  1.00  0.00    -0.644 OA
ENDBRANCH   3  23
BRANCH   9  26
HETATM   26  C14 UNL     1      -0.704  15.135  11.186  1.00  0.00     0.007 C 
HETATM   27  C15 UNL     1      -0.765  15.653  12.650  1.00  0.00     0.012 C 
HETATM   28  C16 UNL     1       0.572  14.277  11.223  1.00  0.00     0.012 C 
ENDBRANCH   9  26
TORSDOF 5
ENDMDL
