MODEL 1
REMARK VINA RESULT: -8.160546763      0.000      0.000
REMARK  5 active torsions:
REMARK  status: ('A' for Active; 'I' for Inactive)
REMARK    1  A    between atoms: C3_3  and  C4_4 
REMARK       I    between atoms: C4_4  and  N1_6 
REMARK    2  A    between atoms: N1_6  and  C5_8 
REMARK    3  A    between atoms: C9_13  and  N2_14 
REMARK       I    between atoms: N2_14  and  C10_16 
REMARK    4  A    between atoms: C10_16  and  O3_18 
REMARK    5  A    between atoms: O3_18  and  C11_19 
ROOT
HETATM    1  N2  UNL     1       4.498  22.105   8.003  1.00  0.00    -0.296 N 
ATOM      2  H2  UNL     1       4.533  22.049   9.021  1.00  0.00     0.171 HD
HETATM    3  C10 UNL     1       3.717  21.187   7.238  1.00  0.00     0.365 C 
HETATM    4  O2  UNL     1       3.693  21.276   5.980  1.00  0.00    -0.238 OA
ENDROOT
BRANCH   1   5
HETATM    5  C9  UNL     1       5.236  23.112   7.287  1.00  0.00     0.085 A 
HETATM    6  C2  UNL     1       4.896  24.427   7.088  1.00  0.00    -0.012 A 
HETATM    7  C1  UNL     1       3.610  24.945   7.738  1.00  0.00     0.052 C 
HETATM    8  C3  UNL     1       5.751  25.186   6.371  1.00  0.00     0.047 A 
HETATM    9  C8  UNL     1       6.903  24.535   5.910  1.00  0.00     0.069 A 
HETATM   10  S1  UNL     1       6.723  22.961   6.485  1.00  0.00    -0.083 SA
BRANCH   8  11
HETATM   11  C4  UNL     1       5.546  26.616   5.985  1.00  0.00     0.253 C 
HETATM   12  O1  UNL     1       5.772  26.944   4.763  1.00  0.00    -0.268 OA
HETATM   13  N1  UNL     1       5.128  27.586   6.860  1.00  0.00    -0.353 N 
ATOM     14  H1  UNL     1       4.926  27.358   7.834  1.00  0.00     0.163 HD
BRANCH  13  15
HETATM   15  C5  UNL     1       4.977  28.966   6.361  1.00  0.00     0.076 C 
HETATM   16  C6  UNL     1       6.102  29.743   7.030  1.00  0.00     0.032 C 
HETATM   17  C7  UNL     1       3.620  29.455   6.783  1.00  0.00     0.032 C 
ENDBRANCH  13  15
ENDBRANCH   8  11
ENDBRANCH   1   5
BRANCH   3  18
HETATM   18  O3  UNL     1       2.972  20.189   7.806  1.00  0.00    -0.298 OA
BRANCH  18  19
HETATM   19  C11 UNL     1       1.791  19.711   7.211  1.00  0.00     0.138 C 
HETATM   20  C12 UNL     1       1.401  18.347   7.661  1.00  0.00     0.062 C 
HETATM   21  C13 UNL     1       0.365  17.831   6.667  1.00  0.00     0.021 C 
HETATM   22  C14 UNL     1       1.065  17.686   5.308  1.00  0.00     0.037 C 
HETATM   23  C15 UNL     1      -0.042  16.443   7.090  1.00  0.00     0.037 C 
HETATM   24  N3  UNL     1      -0.705  18.742   6.476  1.00  0.00    -0.405 N 
HETATM   25  C16 UNL     1      -0.655  19.951   7.202  1.00  0.00     0.021 C 
ATOM     26  H3  UNL     1      -1.476  18.532   5.842  1.00  0.00     0.154 HD
HETATM   27  C17 UNL     1      -1.580  20.926   6.436  1.00  0.00     0.037 C 
HETATM   28  C18 UNL     1      -1.309  19.820   8.586  1.00  0.00     0.037 C 
HETATM   29  C19 UNL     1       0.651  20.649   7.310  1.00  0.00     0.062 C 
ENDBRANCH  18  19
ENDBRANCH   3  18
TORSDOF 5
ENDMDL
MODEL 2
REMARK VINA RESULT: -8.002380712      5.560      6.486
REMARK  5 active torsions:
REMARK  status: ('A' for Active; 'I' for Inactive)
REMARK    1  A    between atoms: C3_3  and  C4_4 
REMARK       I    between atoms: C4_4  and  N1_6 
REMARK    2  A    between atoms: N1_6  and  C5_8 
REMARK    3  A    between atoms: C9_13  and  N2_14 
REMARK       I    between atoms: N2_14  and  C10_16 
REMARK    4  A    between atoms: C10_16  and  O3_18 
REMARK    5  A    between atoms: O3_18  and  C11_19 
ROOT
HETATM    1  N2  UNL     1      -0.140  19.150   6.479  1.00  0.00    -0.296 N 
ATOM      2  H2  UNL     1      -1.083  19.057   6.857  1.00  0.00     0.171 HD
HETATM    3  C10 UNL     1       1.009  18.927   7.296  1.00  0.00     0.365 C 
HETATM    4  O2  UNL     1       2.165  19.051   6.806  1.00  0.00    -0.238 OA
ENDROOT
BRANCH   1   5
HETATM    5  C9  UNL     1       0.078  19.511   5.103  1.00  0.00     0.085 A 
HETATM    6  C2  UNL     1      -0.331  20.649   4.453  1.00  0.00    -0.012 A 
HETATM    7  C1  UNL     1      -1.063  21.720   5.267  1.00  0.00     0.052 C 
HETATM    8  C3  UNL     1      -0.010  20.765   3.147  1.00  0.00     0.047 A 
HETATM    9  C8  UNL     1       0.714  19.697   2.601  1.00  0.00     0.069 A 
HETATM   10  S1  UNL     1       0.893  18.638   3.900  1.00  0.00    -0.083 SA
BRANCH   8  11
HETATM   11  C4  UNL     1      -0.409  21.885   2.240  1.00  0.00     0.253 C 
HETATM   12  O1  UNL     1      -1.617  21.900   1.802  1.00  0.00    -0.268 OA
HETATM   13  N1  UNL     1       0.442  22.892   1.859  1.00  0.00    -0.353 N 
ATOM     14  H1  UNL     1       1.403  22.919   2.199  1.00  0.00     0.163 HD
BRANCH  13  15
HETATM   15  C5  UNL     1      -0.066  23.934   0.947  1.00  0.00     0.076 C 
HETATM   16  C6  UNL     1       1.060  24.152  -0.054  1.00  0.00     0.032 C 
HETATM   17  C7  UNL     1      -0.341  25.161   1.768  1.00  0.00     0.032 C 
ENDBRANCH  13  15
ENDBRANCH   8  11
ENDBRANCH   1   5
BRANCH   3  18
HETATM   18  O3  UNL     1       0.927  18.576   8.617  1.00  0.00    -0.298 OA
BRANCH  18  19
HETATM   19  C11 UNL     1       0.087  17.540   9.061  1.00  0.00     0.138 C 
HETATM   20  C12 UNL     1       0.036  16.372   8.139  1.00  0.00     0.062 C 
HETATM   21  C13 UNL     1      -1.177  15.539   8.544  1.00  0.00     0.021 C 
HETATM   22  C14 UNL     1      -2.427  16.390   8.279  1.00  0.00     0.037 C 
HETATM   23  C15 UNL     1      -1.263  14.353   7.619  1.00  0.00     0.037 C 
HETATM   24  N3  UNL     1      -1.184  15.228   9.927  1.00  0.00    -0.405 N 
HETATM   25  C16 UNL     1      -0.112  15.720  10.701  1.00  0.00     0.021 C 
ATOM     26  H3  UNL     1      -1.931  14.673  10.344  1.00  0.00     0.154 HD
HETATM   27  C17 UNL     1      -0.625  15.716  12.160  1.00  0.00     0.037 C 
HETATM   28  C18 UNL     1       1.080  14.751  10.718  1.00  0.00     0.037 C 
HETATM   29  C19 UNL     1       0.353  17.108  10.450  1.00  0.00     0.062 C 
ENDBRANCH  18  19
ENDBRANCH   3  18
TORSDOF 5
ENDMDL
MODEL 3
REMARK VINA RESULT: -7.995545525      1.158      1.965
REMARK  5 active torsions:
REMARK  status: ('A' for Active; 'I' for Inactive)
REMARK    1  A    between atoms: C3_3  and  C4_4 
REMARK       I    between atoms: C4_4  and  N1_6 
REMARK    2  A    between atoms: N1_6  and  C5_8 
REMARK    3  A    between atoms: C9_13  and  N2_14 
REMARK       I    between atoms: N2_14  and  C10_16 
REMARK    4  A    between atoms: C10_16  and  O3_18 
REMARK    5  A    between atoms: O3_18  and  C11_19 
ROOT
HETATM    1  N2  UNL     1       4.459  21.997   7.839  1.00  0.00    -0.296 N 
ATOM      2  H2  UNL     1       4.487  21.818   8.843  1.00  0.00     0.171 HD
HETATM    3  C10 UNL     1       3.892  21.049   6.934  1.00  0.00     0.365 C 
HETATM    4  O2  UNL     1       3.872  21.294   5.697  1.00  0.00    -0.238 OA
ENDROOT
BRANCH   1   5
HETATM    5  C9  UNL     1       4.991  23.214   7.284  1.00  0.00     0.085 A 
HETATM    6  C2  UNL     1       4.479  24.484   7.387  1.00  0.00    -0.012 A 
HETATM    7  C1  UNL     1       3.219  24.687   8.235  1.00  0.00     0.052 C 
HETATM    8  C3  UNL     1       5.155  25.476   6.771  1.00  0.00     0.047 A 
HETATM    9  C8  UNL     1       6.318  25.089   6.092  1.00  0.00     0.069 A 
HETATM   10  S1  UNL     1       6.388  23.424   6.347  1.00  0.00    -0.083 SA
BRANCH   8  11
HETATM   11  C4  UNL     1       4.743  26.911   6.703  1.00  0.00     0.253 C 
HETATM   12  O1  UNL     1       5.214  27.625   5.744  1.00  0.00    -0.268 OA
HETATM   13  N1  UNL     1       3.889  27.499   7.602  1.00  0.00    -0.353 N 
ATOM     14  H1  UNL     1       3.485  26.959   8.367  1.00  0.00     0.163 HD
BRANCH  13  15
HETATM   15  C5  UNL     1       3.569  28.929   7.437  1.00  0.00     0.076 C 
HETATM   16  C6  UNL     1       4.359  29.631   8.534  1.00  0.00     0.032 C 
HETATM   17  C7  UNL     1       2.086  29.086   7.617  1.00  0.00     0.032 C 
ENDBRANCH  13  15
ENDBRANCH   8  11
ENDBRANCH   1   5
BRANCH   3  18
HETATM   18  O3  UNL     1       3.353  19.859   7.343  1.00  0.00    -0.298 OA
BRANCH  18  19
HETATM   19  C11 UNL     1       1.964  19.652   7.403  1.00  0.00     0.138 C 
HETATM   20  C12 UNL     1       1.347  19.333   6.087  1.00  0.00     0.062 C 
HETATM   21  C13 UNL     1      -0.158  19.525   6.243  1.00  0.00     0.021 C 
HETATM   22  C14 UNL     1      -0.405  21.015   6.518  1.00  0.00     0.037 C 
HETATM   23  C15 UNL     1      -0.811  19.220   4.919  1.00  0.00     0.037 C 
HETATM   24  N3  UNL     1      -0.683  18.815   7.353  1.00  0.00    -0.405 N 
HETATM   25  C16 UNL     1       0.230  18.068   8.126  1.00  0.00     0.021 C 
ATOM     26  H3  UNL     1      -1.677  18.845   7.582  1.00  0.00     0.154 HD
HETATM   27  C17 UNL     1      -0.461  17.869   9.496  1.00  0.00     0.037 C 
HETATM   28  C18 UNL     1       0.411  16.642   7.586  1.00  0.00     0.037 C 
HETATM   29  C19 UNL     1       1.548  18.676   8.434  1.00  0.00     0.062 C 
ENDBRANCH  18  19
ENDBRANCH   3  18
TORSDOF 5
ENDMDL
MODEL 4
REMARK VINA RESULT: -7.719492110      4.266      5.877
REMARK  5 active torsions:
REMARK  status: ('A' for Active; 'I' for Inactive)
REMARK    1  A    between atoms: C3_3  and  C4_4 
REMARK       I    between atoms: C4_4  and  N1_6 
REMARK    2  A    between atoms: N1_6  and  C5_8 
REMARK    3  A    between atoms: C9_13  and  N2_14 
REMARK       I    between atoms: N2_14  and  C10_16 
REMARK    4  A    between atoms: C10_16  and  O3_18 
REMARK    5  A    between atoms: O3_18  and  C11_19 
ROOT
HETATM    1  N2  UNL     1       9.423  24.352   6.909  1.00  0.00    -0.296 N 
ATOM      2  H2  UNL     1       9.525  24.173   5.910  1.00  0.00     0.171 HD
HETATM    3  C10 UNL     1       8.949  23.339   7.797  1.00  0.00     0.365 C 
HETATM    4  O2  UNL     1       8.829  23.587   9.028  1.00  0.00    -0.238 OA
ENDROOT
BRANCH   1   5
HETATM    5  C9  UNL     1       9.752  25.634   7.474  1.00  0.00     0.085 A 
HETATM    6  C2  UNL     1       9.107  26.831   7.284  1.00  0.00    -0.012 A 
HETATM    7  C1  UNL     1       7.843  26.840   6.420  1.00  0.00     0.052 C 
HETATM    8  C3  UNL     1       9.608  27.912   7.920  1.00  0.00     0.047 A 
HETATM    9  C8  UNL     1      10.741  27.681   8.711  1.00  0.00     0.069 A 
HETATM   10  S1  UNL     1      11.025  26.031   8.522  1.00  0.00    -0.083 SA
BRANCH   8  11
HETATM   11  C4  UNL     1       9.102  29.314   7.803  1.00  0.00     0.253 C 
HETATM   12  O1  UNL     1       9.811  30.153   7.136  1.00  0.00    -0.268 OA
HETATM   13  N1  UNL     1       7.926  29.745   8.363  1.00  0.00    -0.353 N 
ATOM     14  H1  UNL     1       7.331  29.103   8.887  1.00  0.00     0.163 HD
BRANCH  13  15
HETATM   15  C5  UNL     1       7.541  31.158   8.190  1.00  0.00     0.076 C 
HETATM   16  C6  UNL     1       6.986  31.576   9.544  1.00  0.00     0.032 C 
HETATM   17  C7  UNL     1       6.500  31.216   7.108  1.00  0.00     0.032 C 
ENDBRANCH  13  15
ENDBRANCH   8  11
ENDBRANCH   1   5
BRANCH   3  18
HETATM   18  O3  UNL     1       8.608  22.082   7.378  1.00  0.00    -0.298 OA
BRANCH  18  19
HETATM   19  C11 UNL     1       7.356  21.805   6.798  1.00  0.00     0.138 C 
HETATM   20  C12 UNL     1       6.231  22.562   7.411  1.00  0.00     0.062 C 
HETATM   21  C13 UNL     1       4.941  21.882   6.961  1.00  0.00     0.021 C 
HETATM   22  C14 UNL     1       4.931  20.471   7.566  1.00  0.00     0.037 C 
HETATM   23  C15 UNL     1       3.781  22.620   7.576  1.00  0.00     0.037 C 
HETATM   24  N3  UNL     1       4.876  21.719   5.554  1.00  0.00    -0.405 N 
HETATM   25  C16 UNL     1       5.974  22.187   4.802  1.00  0.00     0.021 C 
ATOM     26  H3  UNL     1       4.071  21.283   5.105  1.00  0.00     0.154 HD
HETATM   27  C17 UNL     1       5.900  21.431   3.455  1.00  0.00     0.037 C 
HETATM   28  C18 UNL     1       5.819  23.665   4.414  1.00  0.00     0.037 C 
HETATM   29  C19 UNL     1       7.340  21.930   5.324  1.00  0.00     0.062 C 
ENDBRANCH  18  19
ENDBRANCH   3  18
TORSDOF 5
ENDMDL
MODEL 5
REMARK VINA RESULT: -7.665299038      4.708      6.456
REMARK  5 active torsions:
REMARK  status: ('A' for Active; 'I' for Inactive)
REMARK    1  A    between atoms: C3_3  and  C4_4 
REMARK       I    between atoms: C4_4  and  N1_6 
REMARK    2  A    between atoms: N1_6  and  C5_8 
REMARK    3  A    between atoms: C9_13  and  N2_14 
REMARK       I    between atoms: N2_14  and  C10_16 
REMARK    4  A    between atoms: C10_16  and  O3_18 
REMARK    5  A    between atoms: O3_18  and  C11_19 
ROOT
HETATM    1  N2  UNL     1      10.316  25.095   6.696  1.00  0.00    -0.296 N 
ATOM      2  H2  UNL     1      10.700  25.102   5.751  1.00  0.00     0.171 HD
HETATM    3  C10 UNL     1       9.647  23.944   7.213  1.00  0.00     0.365 C 
HETATM    4  O2  UNL     1       9.179  23.960   8.384  1.00  0.00    -0.238 OA
ENDROOT
BRANCH   1   5
HETATM    5  C9  UNL     1      10.430  26.243   7.556  1.00  0.00     0.085 A 
HETATM    6  C2  UNL     1       9.620  27.351   7.597  1.00  0.00    -0.012 A 
HETATM    7  C1  UNL     1       8.399  27.387   6.673  1.00  0.00     0.052 C 
HETATM    8  C3  UNL     1       9.931  28.312   8.492  1.00  0.00     0.047 A 
HETATM    9  C8  UNL     1      11.058  28.062   9.287  1.00  0.00     0.069 A 
HETATM   10  S1  UNL     1      11.592  26.556   8.750  1.00  0.00    -0.083 SA
BRANCH   8  11
HETATM   11  C4  UNL     1       9.225  29.619   8.660  1.00  0.00     0.253 C 
HETATM   12  O1  UNL     1       9.851  30.564   9.265  1.00  0.00    -0.268 OA
HETATM   13  N1  UNL     1       7.956  29.861   8.199  1.00  0.00    -0.353 N 
ATOM     14  H1  UNL     1       7.435  29.138   7.702  1.00  0.00     0.163 HD
BRANCH  13  15
HETATM   15  C5  UNL     1       7.361  31.189   8.440  1.00  0.00     0.076 C 
HETATM   16  C6  UNL     1       6.272  30.943   9.474  1.00  0.00     0.032 C 
HETATM   17  C7  UNL     1       6.803  31.679   7.134  1.00  0.00     0.032 C 
ENDBRANCH  13  15
ENDBRANCH   8  11
ENDBRANCH   1   5
BRANCH   3  18
HETATM   18  O3  UNL     1       9.480  22.793   6.491  1.00  0.00    -0.298 OA
BRANCH  18  19
HETATM   19  C11 UNL     1       8.259  22.475   5.869  1.00  0.00     0.138 C 
HETATM   20  C12 UNL     1       7.255  21.877   6.790  1.00  0.00     0.062 C 
HETATM   21  C13 UNL     1       6.173  21.245   5.918  1.00  0.00     0.021 C 
HETATM   22  C14 UNL     1       6.827  20.095   5.139  1.00  0.00     0.037 C 
HETATM   23  C15 UNL     1       5.145  20.619   6.824  1.00  0.00     0.037 C 
HETATM   24  N3  UNL     1       5.659  22.148   4.953  1.00  0.00    -0.405 N 
HETATM   25  C16 UNL     1       6.204  23.449   4.936  1.00  0.00     0.021 C 
ATOM     26  H3  UNL     1       4.927  21.868   4.300  1.00  0.00     0.154 HD
HETATM   27  C17 UNL     1       5.890  24.005   3.527  1.00  0.00     0.037 C 
HETATM   28  C18 UNL     1       5.464  24.397   5.890  1.00  0.00     0.037 C 
HETATM   29  C19 UNL     1       7.673  23.593   5.098  1.00  0.00     0.062 C 
ENDBRANCH  18  19
ENDBRANCH   3  18
TORSDOF 5
ENDMDL
