MODEL 1
REMARK VINA RESULT: -6.554697827      0.000      0.000
REMARK  6 active torsions:
REMARK  status: ('A' for Active; 'I' for Inactive)
REMARK    1  A    between atoms: C2_2  and  C4_4 
REMARK    2  A    between atoms: C10_13  and  N1_14 
REMARK       I    between atoms: N1_14  and  C11_16 
REMARK    3  A    between atoms: C11_16  and  C12_18 
REMARK    4  A    between atoms: C12_18  and  C13_19 
REMARK    5  A    between atoms: C15_21  and  O5_22 
REMARK    6  A    between atoms: C16_24  and  O6_25 
ROOT
HETATM    1  C4  UNL     1     -25.791   8.848 102.375  1.00  0.00     0.184 C 
HETATM    2  O1  UNL     1     -25.852   7.472 102.540  1.00  0.00    -0.346 OA
HETATM    3  C5  UNL     1     -25.029   6.768 101.710  1.00  0.00     0.297 C 
HETATM    4  O2  UNL     1     -25.154   5.404 101.712  1.00  0.00    -0.323 OA
HETATM    5  C6  UNL     1     -24.775   4.954 100.437  1.00  0.00     0.160 C 
HETATM    6  C7  UNL     1     -24.435   3.501 100.518  1.00  0.00     0.078 C 
HETATM    7  C8  UNL     1     -25.988   5.113  99.544  1.00  0.00     0.078 C 
HETATM    8  O3  UNL     1     -23.761   5.739  99.903  1.00  0.00    -0.353 OA
HETATM    9  C9  UNL     1     -22.865   6.195 100.836  1.00  0.00     0.210 C 
HETATM   10  C10 UNL     1     -23.593   7.155 101.763  1.00  0.00     0.132 C 
HETATM   11  C15 UNL     1     -23.589   8.571 101.157  1.00  0.00     0.184 C 
HETATM   12  C16 UNL     1     -24.473   9.391 102.048  1.00  0.00     0.182 C 
ENDROOT
BRANCH  10  13
HETATM   13  N1  UNL     1     -22.957   7.150 103.035  1.00  0.00    -0.343 N 
HETATM   14  C11 UNL     1     -21.575   7.154 103.324  1.00  0.00     0.218 C 
HETATM   15  O4  UNL     1     -20.684   7.166 102.445  1.00  0.00    -0.274 OA
ATOM     16  H1  UNL     1     -23.581   7.142 103.843  1.00  0.00     0.163 HD
BRANCH  14  17
HETATM   17  C12 UNL     1     -21.082   7.143 104.750  1.00  0.00     0.102 C 
BRANCH  17  18
HETATM   18  C13 UNL     1     -19.858   8.016 104.872  1.00  0.00     0.005 C 
HETATM   19  C14 UNL     1     -19.269   7.822 106.244  1.00  0.00     0.005 C 
ENDBRANCH  17  18
ENDBRANCH  14  17
ENDBRANCH  10  13
BRANCH  11  20
HETATM   20  O5  UNL     1     -24.080   8.406  99.865  1.00  0.00    -0.390 OA
ATOM     21  H5  UNL     1     -24.961   8.069  99.981  1.00  0.00     0.210 HD
ENDBRANCH  11  20
BRANCH  12  22
HETATM   22  O6  UNL     1     -24.474  10.745 101.686  1.00  0.00    -0.390 OA
ATOM     23  H6  UNL     1     -23.615  11.104 101.496  1.00  0.00     0.210 HD
ENDBRANCH  12  22
BRANCH   1  24
HETATM   24  C2  UNL     1     -26.913   9.178 101.495  1.00  0.00    -0.062 C 
HETATM   25  C1  UNL     1     -27.037   9.000 100.214  1.00  0.00     0.016 C 
HETATM   26  C3  UNL     1     -28.091   9.823 102.203  1.00  0.00     0.045 C 
ENDBRANCH   1  24
TORSDOF 6
ENDMDL
MODEL 2
REMARK VINA RESULT: -6.401942740      4.000      6.515
REMARK  6 active torsions:
REMARK  status: ('A' for Active; 'I' for Inactive)
REMARK    1  A    between atoms: C2_2  and  C4_4 
REMARK    2  A    between atoms: C10_13  and  N1_14 
REMARK       I    between atoms: N1_14  and  C11_16 
REMARK    3  A    between atoms: C11_16  and  C12_18 
REMARK    4  A    between atoms: C12_18  and  C13_19 
REMARK    5  A    between atoms: C15_21  and  O5_22 
REMARK    6  A    between atoms: C16_24  and  O6_25 
ROOT
HETATM    1  C4  UNL     1     -22.501   1.809 102.710  1.00  0.00     0.184 C 
HETATM    2  O1  UNL     1     -21.502   2.770 102.715  1.00  0.00    -0.346 OA
HETATM    3  C5  UNL     1     -21.835   3.925 103.361  1.00  0.00     0.297 C 
HETATM    4  O2  UNL     1     -20.955   4.971 103.270  1.00  0.00    -0.323 OA
HETATM    5  C6  UNL     1     -21.706   6.152 103.383  1.00  0.00     0.160 C 
HETATM    6  C7  UNL     1     -20.793   7.272 103.764  1.00  0.00     0.078 C 
HETATM    7  C8  UNL     1     -22.268   6.440 102.007  1.00  0.00     0.078 C 
HETATM    8  O3  UNL     1     -22.783   5.987 104.245  1.00  0.00    -0.353 OA
HETATM    9  C9  UNL     1     -22.520   5.159 105.306  1.00  0.00     0.210 C 
HETATM   10  C10 UNL     1     -22.292   3.756 104.768  1.00  0.00     0.132 C 
HETATM   11  C15 UNL     1     -23.640   3.029 104.613  1.00  0.00     0.184 C 
HETATM   12  C16 UNL     1     -23.323   1.739 103.917  1.00  0.00     0.182 C 
ENDROOT
BRANCH  10  13
HETATM   13  N1  UNL     1     -21.436   3.048 105.656  1.00  0.00    -0.343 N 
HETATM   14  C11 UNL     1     -21.683   2.668 106.994  1.00  0.00     0.218 C 
HETATM   15  O4  UNL     1     -22.748   2.921 107.600  1.00  0.00    -0.274 OA
ATOM     16  H1  UNL     1     -20.527   2.779 105.278  1.00  0.00     0.163 HD
BRANCH  14  17
HETATM   17  C12 UNL     1     -20.644   1.916 107.789  1.00  0.00     0.102 C 
BRANCH  17  18
HETATM   18  C13 UNL     1     -19.467   1.588 106.905  1.00  0.00     0.005 C 
HETATM   19  C14 UNL     1     -18.226   2.169 107.530  1.00  0.00     0.005 C 
ENDBRANCH  17  18
ENDBRANCH  14  17
ENDBRANCH  10  13
BRANCH  11  20
HETATM   20  O5  UNL     1     -24.429   3.898 103.866  1.00  0.00    -0.390 OA
ATOM     21  H5  UNL     1     -25.244   3.429 103.727  1.00  0.00     0.210 HD
ENDBRANCH  11  20
BRANCH  12  22
HETATM   22  O6  UNL     1     -24.447   0.909 103.811  1.00  0.00    -0.390 OA
ATOM     23  H6  UNL     1     -24.746   0.761 102.922  1.00  0.00     0.210 HD
ENDBRANCH  12  22
BRANCH   1  24
HETATM   24  C2  UNL     1     -23.177   1.966 101.421  1.00  0.00    -0.062 C 
HETATM   25  C1  UNL     1     -23.575   3.051 100.825  1.00  0.00     0.016 C 
HETATM   26  C3  UNL     1     -23.444   0.660 100.694  1.00  0.00     0.045 C 
ENDBRANCH   1  24
TORSDOF 6
ENDMDL
MODEL 3
REMARK VINA RESULT: -6.252722569      1.171      1.236
REMARK  6 active torsions:
REMARK  status: ('A' for Active; 'I' for Inactive)
REMARK    1  A    between atoms: C2_2  and  C4_4 
REMARK    2  A    between atoms: C10_13  and  N1_14 
REMARK       I    between atoms: N1_14  and  C11_16 
REMARK    3  A    between atoms: C11_16  and  C12_18 
REMARK    4  A    between atoms: C12_18  and  C13_19 
REMARK    5  A    between atoms: C15_21  and  O5_22 
REMARK    6  A    between atoms: C16_24  and  O6_25 
ROOT
HETATM    1  C4  UNL     1     -25.236   9.025 102.184  1.00  0.00     0.184 C 
HETATM    2  O1  UNL     1     -25.849   7.900 102.712  1.00  0.00    -0.346 OA
HETATM    3  C5  UNL     1     -25.531   6.734 102.078  1.00  0.00     0.297 C 
HETATM    4  O2  UNL     1     -26.220   5.610 102.449  1.00  0.00    -0.323 OA
HETATM    5  C6  UNL     1     -26.256   4.761 101.330  1.00  0.00     0.160 C 
HETATM    6  C7  UNL     1     -26.555   3.370 101.787  1.00  0.00     0.078 C 
HETATM    7  C8  UNL     1     -27.401   5.238 100.462  1.00  0.00     0.078 C 
HETATM    8  O3  UNL     1     -25.093   4.867 100.577  1.00  0.00    -0.353 OA
HETATM    9  C9  UNL     1     -23.964   5.073 101.329  1.00  0.00     0.210 C 
HETATM   10  C10 UNL     1     -24.075   6.440 101.986  1.00  0.00     0.132 C 
HETATM   11  C15 UNL     1     -23.559   7.526 101.023  1.00  0.00     0.184 C 
HETATM   12  C16 UNL     1     -23.874   8.833 101.687  1.00  0.00     0.182 C 
ENDROOT
BRANCH  10  13
HETATM   13  N1  UNL     1     -23.326   6.441 103.194  1.00  0.00    -0.343 N 
HETATM   14  C11 UNL     1     -21.938   6.240 103.365  1.00  0.00     0.218 C 
HETATM   15  O4  UNL     1     -21.148   6.026 102.419  1.00  0.00    -0.274 OA
ATOM     16  H1  UNL     1     -23.860   6.608 104.048  1.00  0.00     0.163 HD
BRANCH  14  17
HETATM   17  C12 UNL     1     -21.315   6.273 104.740  1.00  0.00     0.102 C 
BRANCH  17  18
HETATM   18  C13 UNL     1     -20.507   7.537 104.901  1.00  0.00     0.005 C 
HETATM   19  C14 UNL     1     -19.998   7.598 106.317  1.00  0.00     0.005 C 
ENDBRANCH  17  18
ENDBRANCH  14  17
ENDBRANCH  10  13
BRANCH  11  20
HETATM   20  O5  UNL     1     -24.253   7.309  99.837  1.00  0.00    -0.390 OA
ATOM     21  H5  UNL     1     -23.952   7.993  99.250  1.00  0.00     0.210 HD
ENDBRANCH  11  20
BRANCH  12  22
HETATM   22  O6  UNL     1     -23.353   9.922 100.976  1.00  0.00    -0.390 OA
ATOM     23  H6  UNL     1     -23.997  10.418 100.484  1.00  0.00     0.210 HD
ENDBRANCH  12  22
BRANCH   1  24
HETATM   24  C2  UNL     1     -26.226   9.612 101.280  1.00  0.00    -0.062 C 
HETATM   25  C1  UNL     1     -26.071  10.071 100.074  1.00  0.00     0.016 C 
HETATM   26  C3  UNL     1     -27.629   9.687 101.855  1.00  0.00     0.045 C 
ENDBRANCH   1  24
TORSDOF 6
ENDMDL
MODEL 4
REMARK VINA RESULT: -6.227229115      3.262      4.428
REMARK  6 active torsions:
REMARK  status: ('A' for Active; 'I' for Inactive)
REMARK    1  A    between atoms: C2_2  and  C4_4 
REMARK    2  A    between atoms: C10_13  and  N1_14 
REMARK       I    between atoms: N1_14  and  C11_16 
REMARK    3  A    between atoms: C11_16  and  C12_18 
REMARK    4  A    between atoms: C12_18  and  C13_19 
REMARK    5  A    between atoms: C15_21  and  O5_22 
REMARK    6  A    between atoms: C16_24  and  O6_25 
ROOT
HETATM    1  C4  UNL     1     -22.794   6.666 102.944  1.00  0.00     0.184 C 
HETATM    2  O1  UNL     1     -23.693   5.664 103.274  1.00  0.00    -0.346 OA
HETATM    3  C5  UNL     1     -23.297   4.409 102.910  1.00  0.00     0.297 C 
HETATM    4  O2  UNL     1     -24.205   3.395 103.065  1.00  0.00    -0.323 OA
HETATM    5  C6  UNL     1     -23.908   2.425 102.093  1.00  0.00     0.160 C 
HETATM    6  C7  UNL     1     -24.525   1.127 102.502  1.00  0.00     0.078 C 
HETATM    7  C8  UNL     1     -24.565   2.885 100.809  1.00  0.00     0.078 C 
HETATM    8  O3  UNL     1     -22.542   2.348 101.856  1.00  0.00    -0.353 OA
HETATM    9  C9  UNL     1     -21.774   2.552 102.974  1.00  0.00     0.210 C 
HETATM   10  C10 UNL     1     -21.964   3.992 103.424  1.00  0.00     0.132 C 
HETATM   11  C15 UNL     1     -20.992   4.912 102.662  1.00  0.00     0.184 C 
HETATM   12  C16 UNL     1     -21.379   6.308 103.043  1.00  0.00     0.182 C 
ENDROOT
BRANCH  10  13
HETATM   13  N1  UNL     1     -21.744   4.077 104.826  1.00  0.00    -0.343 N 
HETATM   14  C11 UNL     1     -22.220   3.217 105.841  1.00  0.00     0.218 C 
HETATM   15  O4  UNL     1     -22.934   2.214 105.621  1.00  0.00    -0.274 OA
ATOM     16  H1  UNL     1     -21.168   4.859 105.139  1.00  0.00     0.163 HD
BRANCH  14  17
HETATM   17  C12 UNL     1     -21.882   3.470 107.291  1.00  0.00     0.102 C 
BRANCH  17  18
HETATM   18  C13 UNL     1     -21.409   2.190 107.933  1.00  0.00     0.005 C 
HETATM   19  C14 UNL     1     -19.982   1.949 107.517  1.00  0.00     0.005 C 
ENDBRANCH  17  18
ENDBRANCH  14  17
ENDBRANCH  10  13
BRANCH  11  20
HETATM   20  O5  UNL     1     -21.196   4.611 101.319  1.00  0.00    -0.390 OA
ATOM     21  H5  UNL     1     -21.992   4.092 101.304  1.00  0.00     0.210 HD
ENDBRANCH  11  20
BRANCH  12  22
HETATM   22  O6  UNL     1     -20.499   7.261 102.513  1.00  0.00    -0.390 OA
ATOM     23  H6  UNL     1     -20.611   8.139 102.858  1.00  0.00     0.210 HD
ENDBRANCH  12  22
BRANCH   1  24
HETATM   24  C2  UNL     1     -23.281   7.218 101.680  1.00  0.00    -0.062 C 
HETATM   25  C1  UNL     1     -23.525   6.614 100.555  1.00  0.00     0.016 C 
HETATM   26  C3  UNL     1     -23.531   8.715 101.708  1.00  0.00     0.045 C 
ENDBRANCH   1  24
TORSDOF 6
ENDMDL
MODEL 5
REMARK VINA RESULT: -6.181872663      3.459      7.220
REMARK  6 active torsions:
REMARK  status: ('A' for Active; 'I' for Inactive)
REMARK    1  A    between atoms: C2_2  and  C4_4 
REMARK    2  A    between atoms: C10_13  and  N1_14 
REMARK       I    between atoms: N1_14  and  C11_16 
REMARK    3  A    between atoms: C11_16  and  C12_18 
REMARK    4  A    between atoms: C12_18  and  C13_19 
REMARK    5  A    between atoms: C15_21  and  O5_22 
REMARK    6  A    between atoms: C16_24  and  O6_25 
ROOT
HETATM    1  C4  UNL     1     -22.534   2.714 105.213  1.00  0.00     0.184 C 
HETATM    2  O1  UNL     1     -23.109   3.947 104.948  1.00  0.00    -0.346 OA
HETATM    3  C5  UNL     1     -22.534   4.626 103.913  1.00  0.00     0.297 C 
HETATM    4  O2  UNL     1     -22.950   5.914 103.699  1.00  0.00    -0.323 OA
HETATM    5  C6  UNL     1     -21.872   6.603 103.120  1.00  0.00     0.160 C 
HETATM    6  C7  UNL     1     -22.391   7.829 102.441  1.00  0.00     0.078 C 
HETATM    7  C8  UNL     1     -20.969   7.030 104.258  1.00  0.00     0.078 C 
HETATM    8  O3  UNL     1     -21.128   5.774 102.289  1.00  0.00    -0.353 OA
HETATM    9  C9  UNL     1     -21.882   4.850 101.611  1.00  0.00     0.210 C 
HETATM   10  C10 UNL     1     -22.471   3.882 102.625  1.00  0.00     0.132 C 
HETATM   11  C15 UNL     1     -21.465   2.755 102.920  1.00  0.00     0.184 C 
HETATM   12  C16 UNL     1     -22.062   1.968 104.047  1.00  0.00     0.182 C 
ENDROOT
BRANCH  10  13
HETATM   13  N1  UNL     1     -23.687   3.352 102.113  1.00  0.00    -0.343 N 
HETATM   14  C11 UNL     1     -23.876   2.534 100.977  1.00  0.00     0.218 C 
HETATM   15  O4  UNL     1     -22.943   2.149 100.237  1.00  0.00    -0.274 OA
ATOM     16  H1  UNL     1     -24.531   3.593 102.633  1.00  0.00     0.163 HD
BRANCH  14  17
HETATM   17  C12 UNL     1     -25.255   2.065 100.582  1.00  0.00     0.102 C 
BRANCH  17  18
HETATM   18  C13 UNL     1     -25.236   1.572  99.157  1.00  0.00     0.005 C 
HETATM   19  C14 UNL     1     -25.900   2.606  98.286  1.00  0.00     0.005 C 
ENDBRANCH  17  18
ENDBRANCH  14  17
ENDBRANCH  10  13
BRANCH  11  20
HETATM   20  O5  UNL     1     -20.282   3.411 103.248  1.00  0.00    -0.390 OA
ATOM     21  H5  UNL     1     -19.912   3.676 102.415  1.00  0.00     0.210 HD
ENDBRANCH  11  20
BRANCH  12  22
HETATM   22  O6  UNL     1     -21.306   0.828 104.350  1.00  0.00    -0.390 OA
ATOM     23  H6  UNL     1     -20.385   0.894 104.130  1.00  0.00     0.210 HD
ENDBRANCH  12  22
BRANCH   1  24
HETATM   24  C2  UNL     1     -21.592   2.956 106.307  1.00  0.00    -0.062 C 
HETATM   25  C1  UNL     1     -20.534   2.284 106.648  1.00  0.00     0.016 C 
HETATM   26  C3  UNL     1     -21.920   4.174 107.153  1.00  0.00     0.045 C 
ENDBRANCH   1  24
TORSDOF 6
ENDMDL
