MODEL 1
REMARK VINA RESULT: -6.776908534      0.000      0.000
REMARK  8 active torsions:
REMARK  status: ('A' for Active; 'I' for Inactive)
REMARK    1  A    between atoms: C2_2  and  O1_3 
REMARK    2  A    between atoms: C2_2  and  C3_5 
REMARK    3  A    between atoms: C3_5  and  C4_6 
REMARK    4  A    between atoms: C4_6  and  C5_7 
REMARK    5  A    between atoms: C5_7  and  O3_9 
REMARK    6  A    between atoms: O3_9  and  C6_10 
REMARK    7  A    between atoms: C17_22  and  O5_23 
REMARK    8  A    between atoms: C17_22  and  O6_25 
ROOT
HETATM    1  C6  UNL     1     -21.858   5.943 103.705  1.00  0.00     0.170 C 
HETATM    2  C7  UNL     1     -21.311   6.803 102.642  1.00  0.00     0.068 C 
HETATM    3  C8  UNL     1     -22.498   6.691 101.672  1.00  0.00     0.132 C 
HETATM    4  O4  UNL     1     -23.578   6.876 102.565  1.00  0.00    -0.371 OA
HETATM    5  C9  UNL     1     -23.225   5.631 103.058  1.00  0.00     0.103 C 
HETATM    6  C10 UNL     1     -22.842   5.240 101.687  1.00  0.00     0.056 C 
HETATM    7  C11 UNL     1     -23.867   4.865 100.730  1.00  0.00    -0.009 C 
HETATM    8  C12 UNL     1     -23.835   5.820  99.532  1.00  0.00     0.010 C 
HETATM    9  C13 UNL     1     -25.274   4.765 101.167  1.00  0.00     0.014 C 
HETATM   10  C14 UNL     1     -25.533   4.055 102.449  1.00  0.00     0.049 C 
HETATM   11  C15 UNL     1     -24.308   3.470 103.093  1.00  0.00     0.023 C 
HETATM   12  C16 UNL     1     -24.148   4.820 103.802  1.00  0.00     0.086 C 
HETATM   13  C17 UNL     1     -25.598   5.096 103.554  1.00  0.00     0.169 C 
ENDROOT
BRANCH   1  14
HETATM   14  O3  UNL     1     -21.913   6.306 104.991  1.00  0.00    -0.313 OA
BRANCH  14  15
HETATM   15  C5  UNL     1     -21.406   5.698 106.118  1.00  0.00     0.259 C 
HETATM   16  O2  UNL     1     -20.310   6.166 106.450  1.00  0.00    -0.265 OA
BRANCH  15  17
HETATM   17  C4  UNL     1     -22.088   4.610 106.851  1.00  0.00     0.113 C 
BRANCH  17  18
HETATM   18  C3  UNL     1     -21.428   3.298 106.419  1.00  0.00     0.041 C 
BRANCH  18  19
HETATM   19  C2  UNL     1     -21.267   2.389 107.629  1.00  0.00     0.114 C 
HETATM   20  C1  UNL     1     -19.852   1.821 107.565  1.00  0.00     0.039 C 
BRANCH  19  21
HETATM   21  O1  UNL     1     -21.366   3.096 108.807  1.00  0.00    -0.396 OA
ATOM     22  H1  UNL     1     -22.253   2.983 109.126  1.00  0.00     0.210 HD
ENDBRANCH  19  21
ENDBRANCH  18  19
ENDBRANCH  17  18
ENDBRANCH  15  17
ENDBRANCH  14  15
ENDBRANCH   1  14
BRANCH  13  23
HETATM   23  O5  UNL     1     -25.833   6.386 103.151  1.00  0.00    -0.365 OA
ATOM     24  H5  UNL     1     -26.117   6.988 103.829  1.00  0.00     0.213 HD
ENDBRANCH  13  23
BRANCH  13  25
HETATM   25  O6  UNL     1     -26.378   4.654 104.633  1.00  0.00    -0.365 OA
ATOM     26  H6  UNL     1     -26.062   3.827 104.977  1.00  0.00     0.213 HD
ENDBRANCH  13  25
TORSDOF 8
ENDMDL
MODEL 2
REMARK VINA RESULT: -6.774192782      3.302      5.328
REMARK  8 active torsions:
REMARK  status: ('A' for Active; 'I' for Inactive)
REMARK    1  A    between atoms: C2_2  and  O1_3 
REMARK    2  A    between atoms: C2_2  and  C3_5 
REMARK    3  A    between atoms: C3_5  and  C4_6 
REMARK    4  A    between atoms: C4_6  and  C5_7 
REMARK    5  A    between atoms: C5_7  and  O3_9 
REMARK    6  A    between atoms: O3_9  and  C6_10 
REMARK    7  A    between atoms: C17_22  and  O5_23 
REMARK    8  A    between atoms: C17_22  and  O6_25 
ROOT
HETATM    1  C6  UNL     1     -21.237   6.655 104.432  1.00  0.00     0.170 C 
HETATM    2  C7  UNL     1     -21.529   5.863 105.638  1.00  0.00     0.068 C 
HETATM    3  C8  UNL     1     -21.957   4.571 104.923  1.00  0.00     0.132 C 
HETATM    4  O4  UNL     1     -20.934   4.462 103.954  1.00  0.00    -0.371 OA
HETATM    5  C9  UNL     1     -21.532   5.569 103.375  1.00  0.00     0.103 C 
HETATM    6  C10 UNL     1     -22.838   5.046 103.818  1.00  0.00     0.056 C 
HETATM    7  C11 UNL     1     -23.479   3.977 103.072  1.00  0.00    -0.009 C 
HETATM    8  C12 UNL     1     -23.663   2.751 103.973  1.00  0.00     0.010 C 
HETATM    9  C13 UNL     1     -22.875   3.502 101.811  1.00  0.00     0.014 C 
HETATM   10  C14 UNL     1     -22.407   4.540 100.854  1.00  0.00     0.049 C 
HETATM   11  C15 UNL     1     -22.685   5.952 101.285  1.00  0.00     0.023 C 
HETATM   12  C16 UNL     1     -21.326   5.906 101.993  1.00  0.00     0.086 C 
HETATM   13  C17 UNL     1     -20.926   4.772 101.103  1.00  0.00     0.169 C 
ENDROOT
BRANCH   1  14
HETATM   14  O3  UNL     1     -20.094   7.324 104.249  1.00  0.00    -0.313 OA
BRANCH  14  15
HETATM   15  C5  UNL     1     -19.317   8.035 105.136  1.00  0.00     0.259 C 
HETATM   16  O2  UNL     1     -19.337   7.547 106.273  1.00  0.00    -0.265 OA
BRANCH  15  17
HETATM   17  C4  UNL     1     -18.545   9.245 104.778  1.00  0.00     0.113 C 
BRANCH  17  18
HETATM   18  C3  UNL     1     -17.339   9.299 105.720  1.00  0.00     0.041 C 
BRANCH  18  19
HETATM   19  C2  UNL     1     -16.095   9.677 104.929  1.00  0.00     0.114 C 
HETATM   20  C1  UNL     1     -16.554   9.954 103.500  1.00  0.00     0.039 C 
BRANCH  19  21
HETATM   21  O1  UNL     1     -15.529  10.838 105.404  1.00  0.00    -0.396 OA
ATOM     22  H1  UNL     1     -15.128  10.631 106.240  1.00  0.00     0.210 HD
ENDBRANCH  19  21
ENDBRANCH  18  19
ENDBRANCH  17  18
ENDBRANCH  15  17
ENDBRANCH  14  15
ENDBRANCH   1  14
BRANCH  13  23
HETATM   23  O5  UNL     1     -20.266   3.774 101.775  1.00  0.00    -0.365 OA
ATOM     24  H5  UNL     1     -19.998   3.028 101.252  1.00  0.00     0.213 HD
ENDBRANCH  13  23
BRANCH  13  25
HETATM   25  O6  UNL     1     -20.279   5.249  99.953  1.00  0.00    -0.365 OA
ATOM     26  H6  UNL     1     -19.363   4.996  99.938  1.00  0.00     0.213 HD
ENDBRANCH  13  25
TORSDOF 8
ENDMDL
MODEL 3
REMARK VINA RESULT: -6.760735846      2.006      2.689
REMARK  8 active torsions:
REMARK  status: ('A' for Active; 'I' for Inactive)
REMARK    1  A    between atoms: C2_2  and  O1_3 
REMARK    2  A    between atoms: C2_2  and  C3_5 
REMARK    3  A    between atoms: C3_5  and  C4_6 
REMARK    4  A    between atoms: C4_6  and  C5_7 
REMARK    5  A    between atoms: C5_7  and  O3_9 
REMARK    6  A    between atoms: O3_9  and  C6_10 
REMARK    7  A    between atoms: C17_22  and  O5_23 
REMARK    8  A    between atoms: C17_22  and  O6_25 
ROOT
HETATM    1  C6  UNL     1     -22.293   4.880 101.807  1.00  0.00     0.170 C 
HETATM    2  C7  UNL     1     -21.440   6.050 102.071  1.00  0.00     0.068 C 
HETATM    3  C8  UNL     1     -22.566   7.038 102.414  1.00  0.00     0.132 C 
HETATM    4  O4  UNL     1     -23.356   6.240 103.273  1.00  0.00    -0.371 OA
HETATM    5  C9  UNL     1     -23.659   5.523 102.128  1.00  0.00     0.103 C 
HETATM    6  C10 UNL     1     -23.598   6.786 101.368  1.00  0.00     0.056 C 
HETATM    7  C11 UNL     1     -24.719   7.709 101.408  1.00  0.00    -0.009 C 
HETATM    8  C12 UNL     1     -24.267   9.051 101.991  1.00  0.00     0.010 C 
HETATM    9  C13 UNL     1     -25.958   7.324 102.114  1.00  0.00     0.014 C 
HETATM   10  C14 UNL     1     -26.475   5.952 101.868  1.00  0.00     0.049 C 
HETATM   11  C15 UNL     1     -25.687   5.161 100.862  1.00  0.00     0.023 C 
HETATM   12  C16 UNL     1     -24.828   4.691 102.041  1.00  0.00     0.086 C 
HETATM   13  C17 UNL     1     -25.947   5.048 102.969  1.00  0.00     0.169 C 
ENDROOT
BRANCH   1  14
HETATM   14  O3  UNL     1     -22.091   3.680 102.362  1.00  0.00    -0.313 OA
BRANCH  14  15
HETATM   15  C5  UNL     1     -21.140   3.256 103.263  1.00  0.00     0.259 C 
HETATM   16  O2  UNL     1     -20.012   3.191 102.759  1.00  0.00    -0.265 OA
BRANCH  15  17
HETATM   17  C4  UNL     1     -21.428   2.913 104.673  1.00  0.00     0.113 C 
BRANCH  17  18
HETATM   18  C3  UNL     1     -22.951   2.910 104.830  1.00  0.00     0.041 C 
BRANCH  18  19
HETATM   19  C2  UNL     1     -23.332   3.684 106.084  1.00  0.00     0.114 C 
HETATM   20  C1  UNL     1     -22.145   3.582 107.038  1.00  0.00     0.039 C 
BRANCH  19  21
HETATM   21  O1  UNL     1     -23.520   5.021 105.814  1.00  0.00    -0.396 OA
ATOM     22  H1  UNL     1     -23.301   5.154 104.900  1.00  0.00     0.210 HD
ENDBRANCH  19  21
ENDBRANCH  18  19
ENDBRANCH  17  18
ENDBRANCH  15  17
ENDBRANCH  14  15
ENDBRANCH   1  14
BRANCH  13  23
HETATM   23  O5  UNL     1     -25.514   5.679 104.108  1.00  0.00    -0.365 OA
ATOM     24  H5  UNL     1     -25.952   6.493 104.324  1.00  0.00     0.213 HD
ENDBRANCH  13  23
BRANCH  13  25
HETATM   25  O6  UNL     1     -26.788   3.944 103.179  1.00  0.00    -0.365 OA
ATOM     26  H6  UNL     1     -26.304   3.127 103.153  1.00  0.00     0.213 HD
ENDBRANCH  13  25
TORSDOF 8
ENDMDL
MODEL 4
REMARK VINA RESULT: -6.744312389      2.934      4.590
REMARK  8 active torsions:
REMARK  status: ('A' for Active; 'I' for Inactive)
REMARK    1  A    between atoms: C2_2  and  O1_3 
REMARK    2  A    between atoms: C2_2  and  C3_5 
REMARK    3  A    between atoms: C3_5  and  C4_6 
REMARK    4  A    between atoms: C4_6  and  C5_7 
REMARK    5  A    between atoms: C5_7  and  O3_9 
REMARK    6  A    between atoms: O3_9  and  C6_10 
REMARK    7  A    between atoms: C17_22  and  O5_23 
REMARK    8  A    between atoms: C17_22  and  O6_25 
ROOT
HETATM    1  C6  UNL     1     -21.047   6.637 103.824  1.00  0.00     0.170 C 
HETATM    2  C7  UNL     1     -21.643   7.140 102.575  1.00  0.00     0.068 C 
HETATM    3  C8  UNL     1     -22.750   6.081 102.448  1.00  0.00     0.132 C 
HETATM    4  O4  UNL     1     -23.235   6.055 103.775  1.00  0.00    -0.371 OA
HETATM    5  C9  UNL     1     -22.019   5.465 104.079  1.00  0.00     0.103 C 
HETATM    6  C10 UNL     1     -22.059   4.798 102.764  1.00  0.00     0.056 C 
HETATM    7  C11 UNL     1     -22.886   3.619 102.576  1.00  0.00    -0.009 C 
HETATM    8  C12 UNL     1     -23.940   3.889 101.498  1.00  0.00     0.010 C 
HETATM    9  C13 UNL     1     -23.590   3.029 103.733  1.00  0.00     0.014 C 
HETATM   10  C14 UNL     1     -22.809   2.871 104.989  1.00  0.00     0.049 C 
HETATM   11  C15 UNL     1     -21.367   3.279 104.879  1.00  0.00     0.023 C 
HETATM   12  C16 UNL     1     -21.831   4.687 105.272  1.00  0.00     0.086 C 
HETATM   13  C17 UNL     1     -23.072   4.090 105.858  1.00  0.00     0.169 C 
ENDROOT
BRANCH   1  14
HETATM   14  O3  UNL     1     -20.804   7.409 104.888  1.00  0.00    -0.313 OA
BRANCH  14  15
HETATM   15  C5  UNL     1     -19.617   7.868 105.412  1.00  0.00     0.259 C 
HETATM   16  O2  UNL     1     -19.342   7.332 106.493  1.00  0.00    -0.265 OA
BRANCH  15  17
HETATM   17  C4  UNL     1     -18.762   8.887 104.763  1.00  0.00     0.113 C 
BRANCH  17  18
HETATM   18  C3  UNL     1     -17.564   9.118 105.687  1.00  0.00     0.041 C 
BRANCH  18  19
HETATM   19  C2  UNL     1     -16.364   9.556 104.860  1.00  0.00     0.114 C 
HETATM   20  C1  UNL     1     -16.907  10.007 103.506  1.00  0.00     0.039 C 
BRANCH  19  21
HETATM   21  O1  UNL     1     -15.732  10.642 105.423  1.00  0.00    -0.396 OA
ATOM     22  H1  UNL     1     -15.154  10.308 106.099  1.00  0.00     0.210 HD
ENDBRANCH  19  21
ENDBRANCH  18  19
ENDBRANCH  17  18
ENDBRANCH  15  17
ENDBRANCH  14  15
ENDBRANCH   1  14
BRANCH  13  23
HETATM   23  O5  UNL     1     -24.202   4.809 105.559  1.00  0.00    -0.365 OA
ATOM     24  H5  UNL     1     -24.226   5.205 104.696  1.00  0.00     0.213 HD
ENDBRANCH  13  23
BRANCH  13  25
HETATM   25  O6  UNL     1     -22.888   3.802 107.219  1.00  0.00    -0.365 OA
ATOM     26  H6  UNL     1     -22.717   4.589 107.722  1.00  0.00     0.213 HD
ENDBRANCH  13  25
TORSDOF 8
ENDMDL
MODEL 5
REMARK VINA RESULT: -6.658432791      1.909      2.388
REMARK  8 active torsions:
REMARK  status: ('A' for Active; 'I' for Inactive)
REMARK    1  A    between atoms: C2_2  and  O1_3 
REMARK    2  A    between atoms: C2_2  and  C3_5 
REMARK    3  A    between atoms: C3_5  and  C4_6 
REMARK    4  A    between atoms: C4_6  and  C5_7 
REMARK    5  A    between atoms: C5_7  and  O3_9 
REMARK    6  A    between atoms: O3_9  and  C6_10 
REMARK    7  A    between atoms: C17_22  and  O5_23 
REMARK    8  A    between atoms: C17_22  and  O6_25 
ROOT
HETATM    1  C6  UNL     1     -22.277   4.943 101.735  1.00  0.00     0.170 C 
HETATM    2  C7  UNL     1     -21.431   6.119 101.995  1.00  0.00     0.068 C 
HETATM    3  C8  UNL     1     -22.557   7.085 102.393  1.00  0.00     0.132 C 
HETATM    4  O4  UNL     1     -23.310   6.260 103.261  1.00  0.00    -0.371 OA
HETATM    5  C9  UNL     1     -23.640   5.562 102.112  1.00  0.00     0.103 C 
HETATM    6  C10 UNL     1     -23.620   6.840 101.375  1.00  0.00     0.056 C 
HETATM    7  C11 UNL     1     -24.750   7.747 101.470  1.00  0.00    -0.009 C 
HETATM    8  C12 UNL     1     -24.296   9.084 102.065  1.00  0.00     0.010 C 
HETATM    9  C13 UNL     1     -25.961   7.332 102.207  1.00  0.00     0.014 C 
HETATM   10  C14 UNL     1     -26.468   5.958 101.950  1.00  0.00     0.049 C 
HETATM   11  C15 UNL     1     -25.703   5.198 100.904  1.00  0.00     0.023 C 
HETATM   12  C16 UNL     1     -24.801   4.716 102.046  1.00  0.00     0.086 C 
HETATM   13  C17 UNL     1     -25.893   5.040 103.016  1.00  0.00     0.169 C 
ENDROOT
BRANCH   1  14
HETATM   14  O3  UNL     1     -22.043   3.736 102.260  1.00  0.00    -0.313 OA
BRANCH  14  15
HETATM   15  C5  UNL     1     -21.339   3.366 103.384  1.00  0.00     0.259 C 
HETATM   16  O2  UNL     1     -20.125   3.267 103.167  1.00  0.00    -0.265 OA
BRANCH  15  17
HETATM   17  C4  UNL     1     -21.958   3.114 104.704  1.00  0.00     0.113 C 
BRANCH  17  18
HETATM   18  C3  UNL     1     -21.033   2.150 105.453  1.00  0.00     0.041 C 
BRANCH  18  19
HETATM   19  C2  UNL     1     -20.845   2.638 106.883  1.00  0.00     0.114 C 
HETATM   20  C1  UNL     1     -19.740   1.780 107.495  1.00  0.00     0.039 C 
BRANCH  19  21
HETATM   21  O1  UNL     1     -20.408   3.943 106.917  1.00  0.00    -0.396 OA
ATOM     22  H1  UNL     1     -19.512   3.945 106.600  1.00  0.00     0.210 HD
ENDBRANCH  19  21
ENDBRANCH  18  19
ENDBRANCH  17  18
ENDBRANCH  15  17
ENDBRANCH  14  15
ENDBRANCH   1  14
BRANCH  13  23
HETATM   23  O5  UNL     1     -25.432   5.655 104.153  1.00  0.00    -0.365 OA
ATOM     24  H5  UNL     1     -25.941   6.395 104.461  1.00  0.00     0.213 HD
ENDBRANCH  13  23
BRANCH  13  25
HETATM   25  O6  UNL     1     -26.713   3.922 103.230  1.00  0.00    -0.365 OA
ATOM     26  H6  UNL     1     -27.486   3.944 102.679  1.00  0.00     0.213 HD
ENDBRANCH  13  25
TORSDOF 8
ENDMDL
