MODEL 1
REMARK VINA RESULT: -6.413540516      0.000      0.000
REMARK  8 active torsions:
REMARK  status: ('A' for Active; 'I' for Inactive)
REMARK    1  A    between atoms: C2_2  and  C3_3 
REMARK    2  A    between atoms: C4_4  and  O1_5 
REMARK    3  A    between atoms: C5_7  and  O2_8 
REMARK    4  A    between atoms: C6_10  and  O3_11 
REMARK    5  A    between atoms: C11_17  and  O4_18 
REMARK    6  A    between atoms: O4_18  and  C12_19 
REMARK    7  A    between atoms: C12_19  and  C13_21 
REMARK    8  A    between atoms: C16_24  and  O6_25 
ROOT
HETATM    1  C3  UNL     1     -23.596   4.484 100.202  1.00  0.00     0.046 C 
HETATM    2  C4  UNL     1     -23.351   5.031  98.812  1.00  0.00     0.157 C 
HETATM    3  C5  UNL     1     -24.606   5.079  98.022  1.00  0.00     0.176 C 
HETATM    4  C6  UNL     1     -25.745   5.628  98.783  1.00  0.00     0.158 C 
HETATM    5  C7  UNL     1     -25.469   6.148 100.155  1.00  0.00     0.052 C 
HETATM    6  C8  UNL     1     -24.987   7.541 100.176  1.00  0.00    -0.078 C 
HETATM    7  C9  UNL     1     -25.740   8.524  99.327  1.00  0.00     0.043 C 
HETATM    8  C10 UNL     1     -23.964   7.954 100.879  1.00  0.00     0.011 C 
HETATM    9  C11 UNL     1     -23.208   7.032 101.715  1.00  0.00     0.184 C 
HETATM   10  C16 UNL     1     -24.019   5.842 102.177  1.00  0.00     0.159 C 
HETATM   11  C18 UNL     1     -24.651   5.183 100.972  1.00  0.00     0.038 C 
ENDROOT
BRANCH   9  12
HETATM   12  O4  UNL     1     -22.500   7.634 102.767  1.00  0.00    -0.306 OA
BRANCH  12  13
HETATM   13  C12 UNL     1     -21.281   7.258 103.240  1.00  0.00     0.283 C 
HETATM   14  O5  UNL     1     -20.347   7.114 102.411  1.00  0.00    -0.260 OA
BRANCH  13  15
HETATM   15  C13 UNL     1     -21.044   7.027 104.652  1.00  0.00     0.078 C 
HETATM   16  C14 UNL     1     -20.176   7.767 105.314  1.00  0.00    -0.025 C 
HETATM   17  C15 UNL     1     -19.921   7.537 106.780  1.00  0.00     0.036 C 
ENDBRANCH  13  15
ENDBRANCH  12  13
ENDBRANCH   9  12
BRANCH  10  18
HETATM   18  O6  UNL     1     -24.839   6.088 103.215  1.00  0.00    -0.387 OA
HETATM   19  C17 UNL     1     -25.532   5.044 103.758  1.00  0.00     0.202 C 
ENDBRANCH  10  18
BRANCH   1  20
HETATM   20  C2  UNL     1     -23.731   3.023 100.055  1.00  0.00    -0.029 C 
HETATM   21  C1  UNL     1     -24.474   2.209 100.745  1.00  0.00     0.007 C 
ENDBRANCH   1  20
BRANCH   4  22
HETATM   22  O3  UNL     1     -26.797   4.692  98.862  1.00  0.00    -0.392 OA
ATOM     23  H3  UNL     1     -27.483   4.900  98.239  1.00  0.00     0.210 HD
ENDBRANCH   4  22
BRANCH   2  24
HETATM   24  O1  UNL     1     -22.513   4.076  98.182  1.00  0.00    -0.392 OA
ATOM     25  H1  UNL     1     -22.002   4.572  97.553  1.00  0.00     0.210 HD
ENDBRANCH   2  24
BRANCH   3  26
HETATM   26  O2  UNL     1     -24.915   3.766  97.607  1.00  0.00    -0.390 OA
ATOM     27  H2  UNL     1     -25.091   3.784  96.674  1.00  0.00     0.210 HD
ENDBRANCH   3  26
TORSDOF 8
ENDMDL
MODEL 2
REMARK VINA RESULT: -6.353640595      1.800      2.312
REMARK  8 active torsions:
REMARK  status: ('A' for Active; 'I' for Inactive)
REMARK    1  A    between atoms: C2_2  and  C3_3 
REMARK    2  A    between atoms: C4_4  and  O1_5 
REMARK    3  A    between atoms: C5_7  and  O2_8 
REMARK    4  A    between atoms: C6_10  and  O3_11 
REMARK    5  A    between atoms: C11_17  and  O4_18 
REMARK    6  A    between atoms: O4_18  and  C12_19 
REMARK    7  A    between atoms: C12_19  and  C13_21 
REMARK    8  A    between atoms: C16_24  and  O6_25 
ROOT
HETATM    1  C3  UNL     1     -22.800   4.501 101.202  1.00  0.00     0.046 C 
HETATM    2  C4  UNL     1     -22.575   5.304  99.938  1.00  0.00     0.157 C 
HETATM    3  C5  UNL     1     -23.849   5.861  99.420  1.00  0.00     0.176 C 
HETATM    4  C6  UNL     1     -24.685   6.464 100.476  1.00  0.00     0.158 C 
HETATM    5  C7  UNL     1     -24.113   6.533 101.852  1.00  0.00     0.052 C 
HETATM    6  C8  UNL     1     -23.255   7.710 102.080  1.00  0.00    -0.078 C 
HETATM    7  C9  UNL     1     -23.791   9.031 101.611  1.00  0.00     0.043 C 
HETATM    8  C10 UNL     1     -22.081   7.664 102.655  1.00  0.00     0.011 C 
HETATM    9  C11 UNL     1     -21.526   6.402 103.123  1.00  0.00     0.184 C 
HETATM   10  C16 UNL     1     -22.581   5.373 103.463  1.00  0.00     0.159 C 
HETATM   11  C18 UNL     1     -23.513   5.221 102.282  1.00  0.00     0.038 C 
ENDROOT
BRANCH   9  12
HETATM   12  O4  UNL     1     -20.555   6.522 104.132  1.00  0.00    -0.306 OA
BRANCH  12  13
HETATM   13  C12 UNL     1     -20.167   7.671 104.746  1.00  0.00     0.283 C 
HETATM   14  O5  UNL     1     -20.747   7.994 105.814  1.00  0.00    -0.260 OA
BRANCH  13  15
HETATM   15  C13 UNL     1     -19.118   8.514 104.204  1.00  0.00     0.078 C 
HETATM   16  C14 UNL     1     -18.108   8.895 104.962  1.00  0.00    -0.025 C 
HETATM   17  C15 UNL     1     -17.013   9.769 104.411  1.00  0.00     0.036 C 
ENDBRANCH  13  15
ENDBRANCH  12  13
ENDBRANCH   9  12
BRANCH  10  18
HETATM   18  O6  UNL     1     -23.168   5.543 104.662  1.00  0.00    -0.387 OA
HETATM   19  C17 UNL     1     -23.282   4.463 105.489  1.00  0.00     0.202 C 
ENDBRANCH  10  18
BRANCH   1  20
HETATM   20  C2  UNL     1     -23.362   3.206 100.775  1.00  0.00    -0.029 C 
HETATM   21  C1  UNL     1     -24.197   2.441 101.412  1.00  0.00     0.007 C 
ENDBRANCH   1  20
BRANCH   4  22
HETATM   22  O3  UNL     1     -25.944   5.830 100.545  1.00  0.00    -0.392 OA
ATOM     23  H3  UNL     1     -25.962   5.190 101.246  1.00  0.00     0.210 HD
ENDBRANCH   4  22
BRANCH   2  24
HETATM   24  O1  UNL     1     -22.124   4.364  98.977  1.00  0.00    -0.392 OA
ATOM     25  H1  UNL     1     -21.548   4.853  98.402  1.00  0.00     0.210 HD
ENDBRANCH   2  24
BRANCH   3  26
HETATM   26  O2  UNL     1     -24.566   4.816  98.799  1.00  0.00    -0.390 OA
ATOM     27  H2  UNL     1     -25.060   5.184  98.076  1.00  0.00     0.210 HD
ENDBRANCH   3  26
TORSDOF 8
ENDMDL
MODEL 3
REMARK VINA RESULT: -6.349332715      2.466      4.556
REMARK  8 active torsions:
REMARK  status: ('A' for Active; 'I' for Inactive)
REMARK    1  A    between atoms: C2_2  and  C3_3 
REMARK    2  A    between atoms: C4_4  and  O1_5 
REMARK    3  A    between atoms: C5_7  and  O2_8 
REMARK    4  A    between atoms: C6_10  and  O3_11 
REMARK    5  A    between atoms: C11_17  and  O4_18 
REMARK    6  A    between atoms: O4_18  and  C12_19 
REMARK    7  A    between atoms: C12_19  and  C13_21 
REMARK    8  A    between atoms: C16_24  and  O6_25 
ROOT
HETATM    1  C3  UNL     1     -25.142   8.367 101.383  1.00  0.00     0.046 C 
HETATM    2  C4  UNL     1     -26.596   8.351 100.963  1.00  0.00     0.157 C 
HETATM    3  C5  UNL     1     -26.739   8.597  99.507  1.00  0.00     0.176 C 
HETATM    4  C6  UNL     1     -25.783   7.820  98.695  1.00  0.00     0.158 C 
HETATM    5  C7  UNL     1     -24.910   6.843  99.408  1.00  0.00     0.052 C 
HETATM    6  C8  UNL     1     -25.544   5.531  99.630  1.00  0.00    -0.078 C 
HETATM    7  C9  UNL     1     -26.251   4.921  98.456  1.00  0.00     0.043 C 
HETATM    8  C10 UNL     1     -25.521   4.887 100.768  1.00  0.00     0.011 C 
HETATM    9  C11 UNL     1     -24.845   5.445 101.931  1.00  0.00     0.184 C 
HETATM   10  C16 UNL     1     -23.726   6.397 101.573  1.00  0.00     0.159 C 
HETATM   11  C18 UNL     1     -24.262   7.447 100.626  1.00  0.00     0.038 C 
ENDROOT
BRANCH   9  12
HETATM   12  O4  UNL     1     -24.452   4.502 102.895  1.00  0.00    -0.306 OA
BRANCH  12  13
HETATM   13  C12 UNL     1     -24.652   4.589 104.238  1.00  0.00     0.283 C 
HETATM   14  O5  UNL     1     -25.726   5.103 104.642  1.00  0.00    -0.260 OA
BRANCH  13  15
HETATM   15  C13 UNL     1     -23.671   4.108 105.192  1.00  0.00     0.078 C 
HETATM   16  C14 UNL     1     -22.716   4.906 105.628  1.00  0.00    -0.025 C 
HETATM   17  C15 UNL     1     -21.692   4.418 106.618  1.00  0.00     0.036 C 
ENDBRANCH  13  15
ENDBRANCH  12  13
ENDBRANCH   9  12
BRANCH  10  18
HETATM   18  O6  UNL     1     -22.575   5.803 101.207  1.00  0.00    -0.387 OA
HETATM   19  C17 UNL     1     -21.481   5.954 102.010  1.00  0.00     0.202 C 
ENDBRANCH  10  18
BRANCH   1  20
HETATM   20  C2  UNL     1     -24.741   9.786 101.435  1.00  0.00    -0.029 C 
HETATM   21  C1  UNL     1     -23.643  10.329 101.001  1.00  0.00     0.007 C 
ENDBRANCH   1  20
BRANCH   4  22
HETATM   22  O3  UNL     1     -24.966   8.674  97.925  1.00  0.00    -0.392 OA
ATOM     23  H3  UNL     1     -25.361   8.849  97.079  1.00  0.00     0.210 HD
ENDBRANCH   4  22
BRANCH   2  24
HETATM   24  O1  UNL     1     -27.184   9.462 101.620  1.00  0.00    -0.392 OA
ATOM     25  H1  UNL     1     -28.102   9.238 101.714  1.00  0.00     0.210 HD
ENDBRANCH   2  24
BRANCH   3  26
HETATM   26  O2  UNL     1     -26.538   9.974  99.271  1.00  0.00    -0.390 OA
ATOM     27  H2  UNL     1     -26.138  10.072  98.415  1.00  0.00     0.210 HD
ENDBRANCH   3  26
TORSDOF 8
ENDMDL
MODEL 4
REMARK VINA RESULT: -6.273681725      2.422      5.116
REMARK  8 active torsions:
REMARK  status: ('A' for Active; 'I' for Inactive)
REMARK    1  A    between atoms: C2_2  and  C3_3 
REMARK    2  A    between atoms: C4_4  and  O1_5 
REMARK    3  A    between atoms: C5_7  and  O2_8 
REMARK    4  A    between atoms: C6_10  and  O3_11 
REMARK    5  A    between atoms: C11_17  and  O4_18 
REMARK    6  A    between atoms: O4_18  and  C12_19 
REMARK    7  A    between atoms: C12_19  and  C13_21 
REMARK    8  A    between atoms: C16_24  and  O6_25 
ROOT
HETATM    1  C3  UNL     1     -22.871   5.473 103.505  1.00  0.00     0.046 C 
HETATM    2  C4  UNL     1     -21.637   5.809 102.695  1.00  0.00     0.157 C 
HETATM    3  C5  UNL     1     -21.103   4.609 102.003  1.00  0.00     0.176 C 
HETATM    4  C6  UNL     1     -22.155   3.807 101.349  1.00  0.00     0.158 C 
HETATM    5  C7  UNL     1     -23.546   4.346 101.371  1.00  0.00     0.052 C 
HETATM    6  C8  UNL     1     -23.828   5.307 100.290  1.00  0.00    -0.078 C 
HETATM    7  C9  UNL     1     -23.384   4.915  98.911  1.00  0.00     0.043 C 
HETATM    8  C10 UNL     1     -24.431   6.455 100.466  1.00  0.00     0.011 C 
HETATM    9  C11 UNL     1     -24.876   6.873 101.788  1.00  0.00     0.184 C 
HETATM   10  C16 UNL     1     -25.161   5.713 102.717  1.00  0.00     0.159 C 
HETATM   11  C18 UNL     1     -23.953   4.803 102.747  1.00  0.00     0.038 C 
ENDROOT
BRANCH   9  12
HETATM   12  O4  UNL     1     -25.911   7.822 101.790  1.00  0.00    -0.306 OA
BRANCH  12  13
HETATM   13  C12 UNL     1     -25.775   9.165 101.957  1.00  0.00     0.283 C 
HETATM   14  O5  UNL     1     -25.159   9.571 102.976  1.00  0.00    -0.260 OA
BRANCH  13  15
HETATM   15  C13 UNL     1     -26.313  10.116 101.004  1.00  0.00     0.078 C 
HETATM   16  C14 UNL     1     -26.375   9.815  99.722  1.00  0.00    -0.025 C 
HETATM   17  C15 UNL     1     -26.931  10.794  98.722  1.00  0.00     0.036 C 
ENDBRANCH  13  15
ENDBRANCH  12  13
ENDBRANCH   9  12
BRANCH  10  18
HETATM   18  O6  UNL     1     -26.349   5.113 102.521  1.00  0.00    -0.387 OA
HETATM   19  C17 UNL     1     -26.631   3.981 103.230  1.00  0.00     0.202 C 
ENDBRANCH  10  18
BRANCH   1  20
HETATM   20  C2  UNL     1     -22.394   4.799 104.727  1.00  0.00    -0.029 C 
HETATM   21  C1  UNL     1     -23.098   4.234 105.662  1.00  0.00     0.007 C 
ENDBRANCH   1  20
BRANCH   4  22
HETATM   22  O3  UNL     1     -22.175   2.492 101.858  1.00  0.00    -0.392 OA
ATOM     23  H3  UNL     1     -21.738   1.892 101.265  1.00  0.00     0.210 HD
ENDBRANCH   4  22
BRANCH   2  24
HETATM   24  O1  UNL     1     -20.660   6.192 103.650  1.00  0.00    -0.392 OA
ATOM     25  H1  UNL     1     -20.033   6.716 103.167  1.00  0.00     0.210 HD
ENDBRANCH   2  24
BRANCH   3  26
HETATM   26  O2  UNL     1     -20.436   3.811 102.957  1.00  0.00    -0.390 OA
ATOM     27  H2  UNL     1     -20.918   2.998 103.052  1.00  0.00     0.210 HD
ENDBRANCH   3  26
TORSDOF 8
ENDMDL
MODEL 5
REMARK VINA RESULT: -6.263505050      2.150      2.877
REMARK  8 active torsions:
REMARK  status: ('A' for Active; 'I' for Inactive)
REMARK    1  A    between atoms: C2_2  and  C3_3 
REMARK    2  A    between atoms: C4_4  and  O1_5 
REMARK    3  A    between atoms: C5_7  and  O2_8 
REMARK    4  A    between atoms: C6_10  and  O3_11 
REMARK    5  A    between atoms: C11_17  and  O4_18 
REMARK    6  A    between atoms: O4_18  and  C12_19 
REMARK    7  A    between atoms: C12_19  and  C13_21 
REMARK    8  A    between atoms: C16_24  and  O6_25 
ROOT
HETATM    1  C3  UNL     1     -25.547   6.377  99.820  1.00  0.00     0.046 C 
HETATM    2  C4  UNL     1     -25.294   7.513  98.851  1.00  0.00     0.157 C 
HETATM    3  C5  UNL     1     -26.303   8.590  99.010  1.00  0.00     0.176 C 
HETATM    4  C6  UNL     1     -26.558   8.937 100.421  1.00  0.00     0.158 C 
HETATM    5  C7  UNL     1     -25.720   8.266 101.457  1.00  0.00     0.052 C 
HETATM    6  C8  UNL     1     -24.425   8.928 101.694  1.00  0.00    -0.078 C 
HETATM    7  C9  UNL     1     -24.454  10.420 101.854  1.00  0.00     0.043 C 
HETATM    8  C10 UNL     1     -23.280   8.298 101.771  1.00  0.00     0.011 C 
HETATM    9  C11 UNL     1     -23.210   6.852 101.621  1.00  0.00     0.184 C 
HETATM   10  C16 UNL     1     -24.493   6.148 102.002  1.00  0.00     0.159 C 
HETATM   11  C18 UNL     1     -25.640   6.778 101.243  1.00  0.00     0.038 C 
ENDROOT
BRANCH   9  12
HETATM   12  O4  UNL     1     -22.081   6.252 102.203  1.00  0.00    -0.306 OA
BRANCH  12  13
HETATM   13  C12 UNL     1     -21.280   6.796 103.158  1.00  0.00     0.283 C 
HETATM   14  O5  UNL     1     -20.371   7.582 102.786  1.00  0.00    -0.260 OA
BRANCH  13  15
HETATM   15  C13 UNL     1     -21.451   6.495 104.566  1.00  0.00     0.078 C 
HETATM   16  C14 UNL     1     -21.741   5.269 104.957  1.00  0.00    -0.025 C 
HETATM   17  C15 UNL     1     -21.922   4.944 106.416  1.00  0.00     0.036 C 
ENDBRANCH  13  15
ENDBRANCH  12  13
ENDBRANCH   9  12
BRANCH  10  18
HETATM   18  O6  UNL     1     -24.677   5.987 103.325  1.00  0.00    -0.387 OA
HETATM   19  C17 UNL     1     -25.445   4.943 103.753  1.00  0.00     0.202 C 
ENDBRANCH  10  18
BRANCH   1  20
HETATM   20  C2  UNL     1     -26.674   5.604  99.267  1.00  0.00    -0.029 C 
HETATM   21  C1  UNL     1     -27.622   4.990  99.910  1.00  0.00     0.007 C 
ENDBRANCH   1  20
BRANCH   4  22
HETATM   22  O3  UNL     1     -27.916   8.745 100.749  1.00  0.00    -0.392 OA
ATOM     23  H3  UNL     1     -28.449   9.457 100.416  1.00  0.00     0.210 HD
ENDBRANCH   4  22
BRANCH   2  24
HETATM   24  O1  UNL     1     -25.499   6.954  97.564  1.00  0.00    -0.392 OA
ATOM     25  H1  UNL     1     -25.129   6.081  97.611  1.00  0.00     0.210 HD
ENDBRANCH   2  24
BRANCH   3  26
HETATM   26  O2  UNL     1     -27.506   8.158  98.412  1.00  0.00    -0.390 OA
ATOM     27  H2  UNL     1     -28.228   8.459  98.951  1.00  0.00     0.210 HD
ENDBRANCH   3  26
TORSDOF 8
ENDMDL
