MODEL 1
REMARK VINA RESULT: -6.085975672      0.000      0.000
REMARK  7 active torsions:
REMARK  status: ('A' for Active; 'I' for Inactive)
REMARK    1  A    between atoms: C2_2  and  C3_3 
REMARK    2  A    between atoms: C3_3  and  O1_4 
REMARK    3  A    between atoms: C3_3  and  C4_6 
REMARK    4  A    between atoms: C6_8  and  O2_9 
REMARK    5  A    between atoms: O2_9  and  C7_10 
REMARK       I    between atoms: C7_10  and  N1_12 
REMARK    6  A    between atoms: C9_15  and  C10_16 
REMARK    7  A    between atoms: C10_16  and  O4_17 
ROOT
HETATM    1  C4  UNL     1     -21.187   6.288 103.429  1.00  0.00     0.217 C 
HETATM    2  C5  UNL     1     -21.749   5.625 104.654  1.00  0.00     0.069 C 
HETATM    3  C6  UNL     1     -22.226   4.253 104.335  1.00  0.00     0.145 C 
HETATM    4  C9  UNL     1     -22.946   4.084 103.036  1.00  0.00     0.082 C 
HETATM    5  C15 UNL     1     -22.600   5.112 102.001  1.00  0.00     0.192 C 
HETATM    6  C16 UNL     1     -21.352   4.714 101.197  1.00  0.00     0.040 C 
HETATM    7  N2  UNL     1     -22.329   6.425 102.514  1.00  0.00    -0.064 N 
ATOM      8  H21 UNL     1     -22.181   7.122 101.783  1.00  0.00     0.278 HD
ATOM      9  H22 UNL     1     -23.142   6.866 102.945  1.00  0.00     0.278 HD
ENDROOT
BRANCH   4  10
HETATM   10  C10 UNL     1     -24.418   3.960 103.134  1.00  0.00     0.091 C 
HETATM   11  C12 UNL     1     -25.198   4.496 101.949  1.00  0.00     0.067 C 
HETATM   12  C13 UNL     1     -26.581   4.548 102.592  1.00  0.00     0.170 C 
HETATM   13  O5  UNL     1     -26.431   4.508 103.946  1.00  0.00    -0.388 OA
HETATM   14  C14 UNL     1     -25.066   4.752 104.230  1.00  0.00     0.206 C 
BRANCH  10  15
HETATM   15  O4  UNL     1     -24.791   2.651 103.275  1.00  0.00    -0.382 OA
HETATM   16  C11 UNL     1     -24.137   1.717 102.539  1.00  0.00     0.202 C 
ENDBRANCH  10  15
ENDBRANCH   4  10
BRANCH   3  17
HETATM   17  O2  UNL     1     -21.074   3.394 104.405  1.00  0.00    -0.298 OA
BRANCH  17  18
HETATM   18  C7  UNL     1     -20.907   2.431 105.377  1.00  0.00     0.360 C 
HETATM   19  O3  UNL     1     -21.171   1.236 105.043  1.00  0.00    -0.239 OA
HETATM   20  N1  UNL     1     -20.460   2.750 106.698  1.00  0.00    -0.341 N 
HETATM   21  C8  UNL     1     -20.289   1.720 107.709  1.00  0.00     0.151 C 
ATOM     22  H1  UNL     1     -20.255   3.720 106.935  1.00  0.00     0.164 HD
ENDBRANCH  17  18
ENDBRANCH   3  17
BRANCH   1  23
HETATM   23  C3  UNL     1     -20.700   7.693 103.705  1.00  0.00     0.148 C 
BRANCH  23  24
HETATM   24  C2  UNL     1     -20.270   7.751 105.156  1.00  0.00     0.029 C 
HETATM   25  C1  UNL     1     -18.902   8.411 105.287  1.00  0.00     0.007 C 
ENDBRANCH  23  24
BRANCH  23  26
HETATM   26  O1  UNL     1     -19.641   8.001 102.879  1.00  0.00    -0.393 OA
ATOM     27  H1  UNL     1     -19.574   7.365 102.177  1.00  0.00     0.210 HD
ENDBRANCH  23  26
ENDBRANCH   1  23
TORSDOF 7
ENDMDL
MODEL 2
REMARK VINA RESULT: -6.069025897      3.486      6.046
REMARK  7 active torsions:
REMARK  status: ('A' for Active; 'I' for Inactive)
REMARK    1  A    between atoms: C2_2  and  C3_3 
REMARK    2  A    between atoms: C3_3  and  O1_4 
REMARK    3  A    between atoms: C3_3  and  C4_6 
REMARK    4  A    between atoms: C6_8  and  O2_9 
REMARK    5  A    between atoms: O2_9  and  C7_10 
REMARK       I    between atoms: C7_10  and  N1_12 
REMARK    6  A    between atoms: C9_15  and  C10_16 
REMARK    7  A    between atoms: C10_16  and  O4_17 
ROOT
HETATM    1  C4  UNL     1     -25.471   7.845 101.530  1.00  0.00     0.217 C 
HETATM    2  C5  UNL     1     -24.104   7.884 100.910  1.00  0.00     0.069 C 
HETATM    3  C6  UNL     1     -23.658   6.514 100.540  1.00  0.00     0.145 C 
HETATM    4  C9  UNL     1     -23.971   5.426 101.516  1.00  0.00     0.082 C 
HETATM    5  C15 UNL     1     -25.144   5.714 102.405  1.00  0.00     0.192 C 
HETATM    6  C16 UNL     1     -26.472   5.307 101.746  1.00  0.00     0.040 C 
HETATM    7  N2  UNL     1     -25.301   7.090 102.780  1.00  0.00    -0.064 N 
ATOM      8  H21 UNL     1     -26.054   7.243 103.451  1.00  0.00     0.278 HD
ATOM      9  H22 UNL     1     -24.540   7.439 103.363  1.00  0.00     0.278 HD
ENDROOT
BRANCH   4  10
HETATM   10  C10 UNL     1     -22.832   4.960 102.340  1.00  0.00     0.091 C 
HETATM   11  C12 UNL     1     -23.172   4.583 103.769  1.00  0.00     0.067 C 
HETATM   12  C13 UNL     1     -21.757   4.561 104.340  1.00  0.00     0.170 C 
HETATM   13  O5  UNL     1     -20.938   5.251 103.498  1.00  0.00    -0.388 OA
HETATM   14  C14 UNL     1     -21.762   5.977 102.605  1.00  0.00     0.206 C 
BRANCH  10  15
HETATM   15  O4  UNL     1     -22.244   3.857 101.784  1.00  0.00    -0.382 OA
HETATM   16  C11 UNL     1     -23.044   2.822 101.419  1.00  0.00     0.202 C 
ENDBRANCH  10  15
ENDBRANCH   4  10
BRANCH   3  17
HETATM   17  O2  UNL     1     -24.229   6.233  99.250  1.00  0.00    -0.298 OA
BRANCH  17  18
HETATM   18  C7  UNL     1     -24.159   4.998  98.644  1.00  0.00     0.360 C 
HETATM   19  O3  UNL     1     -23.001   4.588  98.325  1.00  0.00    -0.239 OA
HETATM   20  N1  UNL     1     -25.322   4.209  98.382  1.00  0.00    -0.341 N 
HETATM   21  C8  UNL     1     -25.227   2.908  97.741  1.00  0.00     0.151 C 
ATOM     22  H1  UNL     1     -26.239   4.566  98.650  1.00  0.00     0.164 HD
ENDBRANCH  17  18
ENDBRANCH   3  17
BRANCH   1  23
HETATM   23  C3  UNL     1     -25.960   9.219 101.934  1.00  0.00     0.148 C 
BRANCH  23  24
HETATM   24  C2  UNL     1     -27.471   9.158 102.020  1.00  0.00     0.029 C 
HETATM   25  C1  UNL     1     -28.060   8.559 100.748  1.00  0.00     0.007 C 
ENDBRANCH  23  24
BRANCH  23  26
HETATM   26  O1  UNL     1     -25.425   9.575 103.153  1.00  0.00    -0.393 OA
ATOM     27  H1  UNL     1     -24.675  10.145 103.031  1.00  0.00     0.210 HD
ENDBRANCH  23  26
ENDBRANCH   1  23
TORSDOF 7
ENDMDL
MODEL 3
REMARK VINA RESULT: -5.995568476      3.163      4.737
REMARK  7 active torsions:
REMARK  status: ('A' for Active; 'I' for Inactive)
REMARK    1  A    between atoms: C2_2  and  C3_3 
REMARK    2  A    between atoms: C3_3  and  O1_4 
REMARK    3  A    between atoms: C3_3  and  C4_6 
REMARK    4  A    between atoms: C6_8  and  O2_9 
REMARK    5  A    between atoms: O2_9  and  C7_10 
REMARK       I    between atoms: C7_10  and  N1_12 
REMARK    6  A    between atoms: C9_15  and  C10_16 
REMARK    7  A    between atoms: C10_16  and  O4_17 
ROOT
HETATM    1  C4  UNL     1     -24.279   7.421 100.012  1.00  0.00     0.217 C 
HETATM    2  C5  UNL     1     -24.268   7.903 101.433  1.00  0.00     0.069 C 
HETATM    3  C6  UNL     1     -23.446   7.002 102.286  1.00  0.00     0.145 C 
HETATM    4  C9  UNL     1     -23.582   5.536 102.028  1.00  0.00     0.082 C 
HETATM    5  C15 UNL     1     -24.036   5.193 100.641  1.00  0.00     0.192 C 
HETATM    6  C16 UNL     1     -22.856   5.110  99.659  1.00  0.00     0.040 C 
HETATM    7  N2  UNL     1     -24.963   6.120 100.057  1.00  0.00    -0.064 N 
ATOM      8  H21 UNL     1     -25.319   5.818  99.149  1.00  0.00     0.278 HD
ATOM      9  H22 UNL     1     -25.861   6.152 100.540  1.00  0.00     0.278 HD
ENDROOT
BRANCH   4  10
HETATM   10  C10 UNL     1     -24.398   4.788 103.012  1.00  0.00     0.091 C 
HETATM   11  C12 UNL     1     -24.931   3.451 102.534  1.00  0.00     0.067 C 
HETATM   12  C13 UNL     1     -25.980   3.225 103.619  1.00  0.00     0.170 C 
HETATM   13  O5  UNL     1     -26.243   4.418 104.224  1.00  0.00    -0.388 OA
HETATM   14  C14 UNL     1     -25.690   5.437 103.412  1.00  0.00     0.206 C 
BRANCH  10  15
HETATM   15  O4  UNL     1     -23.680   4.529 104.148  1.00  0.00    -0.382 OA
HETATM   16  C11 UNL     1     -22.493   3.882 104.019  1.00  0.00     0.202 C 
ENDBRANCH  10  15
ENDBRANCH   4  10
BRANCH   3  17
HETATM   17  O2  UNL     1     -22.081   7.430 102.135  1.00  0.00    -0.298 OA
BRANCH  17  18
HETATM   18  C7  UNL     1     -21.182   7.474 103.179  1.00  0.00     0.360 C 
HETATM   19  O3  UNL     1     -19.986   7.777 102.884  1.00  0.00    -0.239 OA
HETATM   20  N1  UNL     1     -21.565   7.192 104.528  1.00  0.00    -0.341 N 
HETATM   21  C8  UNL     1     -20.602   7.243 105.615  1.00  0.00     0.151 C 
ATOM     22  H1  UNL     1     -22.535   6.951 104.732  1.00  0.00     0.164 HD
ENDBRANCH  17  18
ENDBRANCH   3  17
BRANCH   1  23
HETATM   23  C3  UNL     1     -25.115   8.302  99.110  1.00  0.00     0.148 C 
BRANCH  23  24
HETATM   24  C2  UNL     1     -24.476   9.675  99.093  1.00  0.00     0.029 C 
HETATM   25  C1  UNL     1     -24.638  10.328  97.726  1.00  0.00     0.007 C 
ENDBRANCH  23  24
BRANCH  23  26
HETATM   26  O1  UNL     1     -25.157   7.778  97.837  1.00  0.00    -0.393 OA
ATOM     27  H1  UNL     1     -25.535   6.906  97.850  1.00  0.00     0.210 HD
ENDBRANCH  23  26
ENDBRANCH   1  23
TORSDOF 7
ENDMDL
MODEL 4
REMARK VINA RESULT: -5.947348117      3.929      6.042
REMARK  7 active torsions:
REMARK  status: ('A' for Active; 'I' for Inactive)
REMARK    1  A    between atoms: C2_2  and  C3_3 
REMARK    2  A    between atoms: C3_3  and  O1_4 
REMARK    3  A    between atoms: C3_3  and  C4_6 
REMARK    4  A    between atoms: C6_8  and  O2_9 
REMARK    5  A    between atoms: O2_9  and  C7_10 
REMARK       I    between atoms: C7_10  and  N1_12 
REMARK    6  A    between atoms: C9_15  and  C10_16 
REMARK    7  A    between atoms: C10_16  and  O4_17 
ROOT
HETATM    1  C4  UNL     1     -26.322   8.915 101.716  1.00  0.00     0.217 C 
HETATM    2  C5  UNL     1     -26.941   7.548 101.769  1.00  0.00     0.069 C 
HETATM    3  C6  UNL     1     -25.887   6.498 101.806  1.00  0.00     0.145 C 
HETATM    4  C9  UNL     1     -24.701   6.714 100.923  1.00  0.00     0.082 C 
HETATM    5  C15 UNL     1     -24.440   8.150 100.581  1.00  0.00     0.192 C 
HETATM    6  C16 UNL     1     -23.587   8.846 101.654  1.00  0.00     0.040 C 
HETATM    7  N2  UNL     1     -25.613   8.963 100.429  1.00  0.00    -0.064 N 
ATOM      8  H21 UNL     1     -25.409   9.912 100.115  1.00  0.00     0.278 HD
ATOM      9  H22 UNL     1     -26.195   8.689  99.637  1.00  0.00     0.278 HD
ENDROOT
BRANCH   4  10
HETATM   10  C10 UNL     1     -24.669   5.900  99.687  1.00  0.00     0.091 C 
HETATM   11  C12 UNL     1     -25.212   6.579  98.445  1.00  0.00     0.067 C 
HETATM   12  C13 UNL     1     -25.369   5.345  97.561  1.00  0.00     0.170 C 
HETATM   13  O5  UNL     1     -25.365   4.238  98.357  1.00  0.00    -0.388 OA
HETATM   14  C14 UNL     1     -25.535   4.675  99.692  1.00  0.00     0.206 C 
BRANCH  10  15
HETATM   15  O4  UNL     1     -23.391   5.517  99.385  1.00  0.00    -0.382 OA
HETATM   16  C11 UNL     1     -22.615   5.034 100.389  1.00  0.00     0.202 C 
ENDBRANCH  10  15
ENDBRANCH   4  10
BRANCH   3  17
HETATM   17  O2  UNL     1     -25.492   6.366 103.183  1.00  0.00    -0.298 OA
BRANCH  17  18
HETATM   18  C7  UNL     1     -25.306   5.149 103.803  1.00  0.00     0.360 C 
HETATM   19  O3  UNL     1     -26.214   4.778 104.608  1.00  0.00    -0.239 OA
HETATM   20  N1  UNL     1     -24.154   4.338 103.562  1.00  0.00    -0.341 N 
HETATM   21  C8  UNL     1     -23.975   3.058 104.226  1.00  0.00     0.151 C 
ATOM     22  H1  UNL     1     -23.441   4.664 102.909  1.00  0.00     0.164 HD
ENDBRANCH  17  18
ENDBRANCH   3  17
BRANCH   1  23
HETATM   23  C3  UNL     1     -27.359  10.016 101.664  1.00  0.00     0.148 C 
BRANCH  23  24
HETATM   24  C2  UNL     1     -28.037   9.941 100.313  1.00  0.00     0.029 C 
HETATM   25  C1  UNL     1     -29.554   9.940 100.470  1.00  0.00     0.007 C 
ENDBRANCH  23  24
BRANCH  23  26
HETATM   26  O1  UNL     1     -28.282   9.848 102.674  1.00  0.00    -0.393 OA
ATOM     27  H1  UNL     1     -27.849   9.829 103.518  1.00  0.00     0.210 HD
ENDBRANCH  23  26
ENDBRANCH   1  23
TORSDOF 7
ENDMDL
MODEL 5
REMARK VINA RESULT: -5.944414621      3.088      5.446
REMARK  7 active torsions:
REMARK  status: ('A' for Active; 'I' for Inactive)
REMARK    1  A    between atoms: C2_2  and  C3_3 
REMARK    2  A    between atoms: C3_3  and  O1_4 
REMARK    3  A    between atoms: C3_3  and  C4_6 
REMARK    4  A    between atoms: C6_8  and  O2_9 
REMARK    5  A    between atoms: O2_9  and  C7_10 
REMARK       I    between atoms: C7_10  and  N1_12 
REMARK    6  A    between atoms: C9_15  and  C10_16 
REMARK    7  A    between atoms: C10_16  and  O4_17 
ROOT
HETATM    1  C4  UNL     1     -24.516   6.828 101.710  1.00  0.00     0.217 C 
HETATM    2  C5  UNL     1     -23.312   6.522 100.866  1.00  0.00     0.069 C 
HETATM    3  C6  UNL     1     -23.243   5.068 100.561  1.00  0.00     0.145 C 
HETATM    4  C9  UNL     1     -23.589   4.136 101.677  1.00  0.00     0.082 C 
HETATM    5  C15 UNL     1     -24.487   4.731 102.720  1.00  0.00     0.192 C 
HETATM    6  C16 UNL     1     -25.970   4.597 102.339  1.00  0.00     0.040 C 
HETATM    7  N2  UNL     1     -24.277   6.127 102.980  1.00  0.00    -0.064 N 
ATOM      8  H21 UNL     1     -24.842   6.484 103.751  1.00  0.00     0.278 HD
ATOM      9  H22 UNL     1     -23.365   6.329 103.388  1.00  0.00     0.278 HD
ENDROOT
BRANCH   4  10
HETATM   10  C10 UNL     1     -22.440   3.474 102.336  1.00  0.00     0.091 C 
HETATM   11  C12 UNL     1     -22.562   3.302 103.838  1.00  0.00     0.067 C 
HETATM   12  C13 UNL     1     -21.101   2.983 104.148  1.00  0.00     0.170 C 
HETATM   13  O5  UNL     1     -20.336   3.389 103.095  1.00  0.00    -0.388 OA
HETATM   14  C14 UNL     1     -21.141   4.221 102.281  1.00  0.00     0.206 C 
BRANCH  10  15
HETATM   15  O4  UNL     1     -22.236   2.222 101.823  1.00  0.00    -0.382 OA
HETATM   16  C11 UNL     1     -23.306   1.394 101.715  1.00  0.00     0.202 C 
ENDBRANCH  10  15
ENDBRANCH   4  10
BRANCH   3  17
HETATM   17  O2  UNL     1     -24.091   4.849  99.420  1.00  0.00    -0.298 OA
BRANCH  17  18
HETATM   18  C7  UNL     1     -24.382   3.597  98.922  1.00  0.00     0.360 C 
HETATM   19  O3  UNL     1     -25.597   3.235  98.974  1.00  0.00    -0.239 OA
HETATM   20  N1  UNL     1     -23.376   2.741  98.374  1.00  0.00    -0.341 N 
HETATM   21  C8  UNL     1     -23.703   1.424  97.854  1.00  0.00     0.151 C 
ATOM     22  H1  UNL     1     -22.408   3.062  98.346  1.00  0.00     0.164 HD
ENDBRANCH  17  18
ENDBRANCH   3  17
BRANCH   1  23
HETATM   23  C3  UNL     1     -24.620   8.297 102.056  1.00  0.00     0.148 C 
BRANCH  23  24
HETATM   24  C2  UNL     1     -24.604   9.074 100.756  1.00  0.00     0.029 C 
HETATM   25  C1  UNL     1     -23.672  10.276 100.858  1.00  0.00     0.007 C 
ENDBRANCH  23  24
BRANCH  23  26
HETATM   26  O1  UNL     1     -25.787   8.542 102.746  1.00  0.00    -0.393 OA
ATOM     27  H1  UNL     1     -25.759   9.401 103.150  1.00  0.00     0.210 HD
ENDBRANCH  23  26
ENDBRANCH   1  23
TORSDOF 7
ENDMDL
