MODEL 1
REMARK VINA RESULT: -5.934596232      0.000      0.000
REMARK  6 active torsions:
REMARK  status: ('A' for Active; 'I' for Inactive)
REMARK    1  A    between atoms: O1_2  and  C2_3 
REMARK    2  A    between atoms: C7_9  and  C8_10 
REMARK    3  A    between atoms: C8_10  and  O3_11 
REMARK    4  A    between atoms: C9_13  and  O4_14 
REMARK    5  A    between atoms: C10_16  and  O5_17 
REMARK    6  A    between atoms: C12_19  and  O6_20 
ROOT
HETATM    1  C2  UNL     1     -24.076   8.374 100.042  1.00  0.00     0.146 C 
HETATM    2  C3  UNL     1     -25.468   8.135 100.475  1.00  0.00     0.004 C 
HETATM    3  C4  UNL     1     -26.062   7.318  99.631  1.00  0.00     0.012 C 
HETATM    4  C5  UNL     1     -25.129   6.906  98.517  1.00  0.00     0.110 C 
HETATM    5  C6  UNL     1     -24.132   8.081  98.566  1.00  0.00     0.081 C 
HETATM    6  O2  UNL     1     -25.793   6.978  97.360  1.00  0.00    -0.363 OA
HETATM    7  C7  UNL     1     -26.119   5.868  96.678  1.00  0.00     0.178 C 
HETATM    8  C9  UNL     1     -26.040   4.597  97.485  1.00  0.00     0.180 C 
HETATM    9  C10 UNL     1     -24.576   4.530  97.921  1.00  0.00     0.184 C 
HETATM   10  C12 UNL     1     -24.420   5.681  98.895  1.00  0.00     0.188 C 
ENDROOT
BRANCH  10  11
HETATM   11  O6  UNL     1     -24.843   5.211 100.138  1.00  0.00    -0.390 OA
ATOM     12  H6  UNL     1     -25.253   4.358 100.065  1.00  0.00     0.210 HD
ENDBRANCH  10  11
BRANCH   1  13
HETATM   13  O1  UNL     1     -23.656   9.679 100.298  1.00  0.00    -0.387 OA
HETATM   14  C1  UNL     1     -23.755   9.916 101.655  1.00  0.00     0.202 C 
ENDBRANCH   1  13
BRANCH   7  15
HETATM   15  C8  UNL     1     -27.505   6.029  96.057  1.00  0.00     0.198 C 
BRANCH  15  16
HETATM   16  O3  UNL     1     -27.472   5.549  94.758  1.00  0.00    -0.398 OA
ATOM     17  H3  UNL     1     -28.327   5.198  94.538  1.00  0.00     0.209 HD
ENDBRANCH  15  16
ENDBRANCH   7  15
BRANCH   9  18
HETATM   18  O5  UNL     1     -24.388   3.302  98.520  1.00  0.00    -0.385 OA
HETATM   19  C11 UNL     1     -23.140   2.785  98.205  1.00  0.00     0.202 C 
ENDBRANCH   9  18
BRANCH   8  20
HETATM   20  O4  UNL     1     -26.434   3.491  96.793  1.00  0.00    -0.390 OA
ATOM     21  H4  UNL     1     -26.403   2.693  97.306  1.00  0.00     0.210 HD
ENDBRANCH   8  20
TORSDOF 6
ENDMDL
MODEL 2
REMARK VINA RESULT: -5.897149371      5.892      7.823
REMARK  6 active torsions:
REMARK  status: ('A' for Active; 'I' for Inactive)
REMARK    1  A    between atoms: O1_2  and  C2_3 
REMARK    2  A    between atoms: C7_9  and  C8_10 
REMARK    3  A    between atoms: C8_10  and  O3_11 
REMARK    4  A    between atoms: C9_13  and  O4_14 
REMARK    5  A    between atoms: C10_16  and  O5_17 
REMARK    6  A    between atoms: C12_19  and  O6_20 
ROOT
HETATM    1  C2  UNL     1     -20.765   4.397 101.016  1.00  0.00     0.146 C 
HETATM    2  C3  UNL     1     -21.508   5.485 101.686  1.00  0.00     0.004 C 
HETATM    3  C4  UNL     1     -22.126   5.011 102.747  1.00  0.00     0.012 C 
HETATM    4  C5  UNL     1     -21.870   3.532 102.919  1.00  0.00     0.110 C 
HETATM    5  C6  UNL     1     -21.501   3.163 101.469  1.00  0.00     0.081 C 
HETATM    6  O2  UNL     1     -23.027   2.933 103.214  1.00  0.00    -0.363 OA
HETATM    7  C7  UNL     1     -23.249   2.419 104.434  1.00  0.00     0.178 C 
HETATM    8  C9  UNL     1     -22.302   2.910 105.498  1.00  0.00     0.180 C 
HETATM    9  C10 UNL     1     -20.925   2.476 104.992  1.00  0.00     0.184 C 
HETATM   10  C12 UNL     1     -20.689   3.330 103.763  1.00  0.00     0.188 C 
ENDROOT
BRANCH  10  11
HETATM   11  O6  UNL     1     -20.173   4.545 104.215  1.00  0.00    -0.390 OA
ATOM     12  H6  UNL     1     -19.585   4.931 103.576  1.00  0.00     0.210 HD
ENDBRANCH  10  11
BRANCH   1  13
HETATM   13  O1  UNL     1     -20.770   4.527  99.628  1.00  0.00    -0.387 OA
HETATM   14  C1  UNL     1     -22.002   4.124  99.151  1.00  0.00     0.202 C 
ENDBRANCH   1  13
BRANCH   7  15
HETATM   15  C8  UNL     1     -24.699   2.667 104.846  1.00  0.00     0.198 C 
BRANCH  15  16
HETATM   16  O3  UNL     1     -24.817   3.965 105.313  1.00  0.00    -0.398 OA
ATOM     17  H3  UNL     1     -25.338   3.960 106.107  1.00  0.00     0.209 HD
ENDBRANCH  15  16
ENDBRANCH   7  15
BRANCH   9  18
HETATM   18  O5  UNL     1     -20.022   2.740 106.001  1.00  0.00    -0.385 OA
HETATM   19  C11 UNL     1     -19.410   1.572 106.434  1.00  0.00     0.202 C 
ENDBRANCH   9  18
BRANCH   8  20
HETATM   20  O4  UNL     1     -22.583   2.424 106.740  1.00  0.00    -0.390 OA
ATOM     21  H4  UNL     1     -22.522   1.478 106.798  1.00  0.00     0.210 HD
ENDBRANCH   8  20
TORSDOF 6
ENDMDL
MODEL 3
REMARK VINA RESULT: -5.776284804      7.185      9.416
REMARK  6 active torsions:
REMARK  status: ('A' for Active; 'I' for Inactive)
REMARK    1  A    between atoms: O1_2  and  C2_3 
REMARK    2  A    between atoms: C7_9  and  C8_10 
REMARK    3  A    between atoms: C8_10  and  O3_11 
REMARK    4  A    between atoms: C9_13  and  O4_14 
REMARK    5  A    between atoms: C10_16  and  O5_17 
REMARK    6  A    between atoms: C12_19  and  O6_20 
ROOT
HETATM    1  C2  UNL     1     -20.629   3.786 102.286  1.00  0.00     0.146 C 
HETATM    2  C3  UNL     1     -19.828   2.625 102.728  1.00  0.00     0.004 C 
HETATM    3  C4  UNL     1     -20.021   2.417 104.013  1.00  0.00     0.012 C 
HETATM    4  C5  UNL     1     -20.984   3.425 104.596  1.00  0.00     0.110 C 
HETATM    5  C6  UNL     1     -20.828   4.559 103.564  1.00  0.00     0.081 C 
HETATM    6  O2  UNL     1     -20.492   3.858 105.760  1.00  0.00    -0.363 OA
HETATM    7  C7  UNL     1     -21.078   3.532 106.923  1.00  0.00     0.178 C 
HETATM    8  C9  UNL     1     -22.034   2.371 106.834  1.00  0.00     0.180 C 
HETATM    9  C10 UNL     1     -23.090   2.840 105.833  1.00  0.00     0.184 C 
HETATM   10  C12 UNL     1     -22.352   2.907 104.511  1.00  0.00     0.188 C 
ENDROOT
BRANCH  10  11
HETATM   11  O6  UNL     1     -22.375   1.619 103.976  1.00  0.00    -0.390 OA
ATOM     12  H6  UNL     1     -23.206   1.189 104.144  1.00  0.00     0.210 HD
ENDBRANCH  10  11
BRANCH   1  13
HETATM   13  O1  UNL     1     -19.976   4.544 101.315  1.00  0.00    -0.387 OA
HETATM   14  C1  UNL     1     -20.780   4.613 100.194  1.00  0.00     0.202 C 
ENDBRANCH   1  13
BRANCH   7  15
HETATM   15  C8  UNL     1     -20.012   3.274 107.987  1.00  0.00     0.198 C 
BRANCH  15  16
HETATM   16  O3  UNL     1     -20.386   3.909 109.160  1.00  0.00    -0.398 OA
ATOM     17  H3  UNL     1     -19.824   4.662 109.294  1.00  0.00     0.209 HD
ENDBRANCH  15  16
ENDBRANCH   7  15
BRANCH   9  18
HETATM   18  O5  UNL     1     -24.094   1.895 105.831  1.00  0.00    -0.385 OA
HETATM   19  C11 UNL     1     -25.224   2.377 105.187  1.00  0.00     0.202 C 
ENDBRANCH   9  18
BRANCH   8  20
HETATM   20  O4  UNL     1     -22.570   2.017 108.036  1.00  0.00    -0.390 OA
ATOM     21  H4  UNL     1     -22.461   1.097 108.243  1.00  0.00     0.210 HD
ENDBRANCH   8  20
TORSDOF 6
ENDMDL
MODEL 4
REMARK VINA RESULT: -5.600947934      2.505      4.249
REMARK  6 active torsions:
REMARK  status: ('A' for Active; 'I' for Inactive)
REMARK    1  A    between atoms: O1_2  and  C2_3 
REMARK    2  A    between atoms: C7_9  and  C8_10 
REMARK    3  A    between atoms: C8_10  and  O3_11 
REMARK    4  A    between atoms: C9_13  and  O4_14 
REMARK    5  A    between atoms: C10_16  and  O5_17 
REMARK    6  A    between atoms: C12_19  and  O6_20 
ROOT
HETATM    1  C2  UNL     1     -22.735   5.717 102.349  1.00  0.00     0.146 C 
HETATM    2  C3  UNL     1     -21.914   5.496 101.140  1.00  0.00     0.004 C 
HETATM    3  C4  UNL     1     -22.675   5.560 100.069  1.00  0.00     0.012 C 
HETATM    4  C5  UNL     1     -24.115   5.834 100.433  1.00  0.00     0.110 C 
HETATM    5  C6  UNL     1     -24.116   5.328 101.889  1.00  0.00     0.081 C 
HETATM    6  O2  UNL     1     -24.896   5.022  99.715  1.00  0.00    -0.363 OA
HETATM    7  C7  UNL     1     -25.685   5.503  98.741  1.00  0.00     0.178 C 
HETATM    8  C9  UNL     1     -25.328   6.892  98.280  1.00  0.00     0.180 C 
HETATM    9  C10 UNL     1     -25.476   7.747  99.540  1.00  0.00     0.184 C 
HETATM   10  C12 UNL     1     -24.354   7.280 100.445  1.00  0.00     0.188 C 
ENDROOT
BRANCH  10  11
HETATM   11  O6  UNL     1     -23.214   7.987 100.065  1.00  0.00    -0.390 OA
ATOM     12  H6  UNL     1     -22.972   8.632 100.719  1.00  0.00     0.210 HD
ENDBRANCH  10  11
BRANCH   1  13
HETATM   13  O1  UNL     1     -22.309   4.945 103.429  1.00  0.00    -0.387 OA
HETATM   14  C1  UNL     1     -20.935   4.819 103.368  1.00  0.00     0.202 C 
ENDBRANCH   1  13
BRANCH   7  15
HETATM   15  C8  UNL     1     -25.705   4.531  97.562  1.00  0.00     0.198 C 
BRANCH  15  16
HETATM   16  O3  UNL     1     -24.821   4.981  96.595  1.00  0.00    -0.398 OA
ATOM     17  H3  UNL     1     -23.934   4.863  96.911  1.00  0.00     0.209 HD
ENDBRANCH  15  16
ENDBRANCH   7  15
BRANCH   9  18
HETATM   18  O5  UNL     1     -25.332   9.063  99.155  1.00  0.00    -0.385 OA
HETATM   19  C11 UNL     1     -26.336   9.850  99.700  1.00  0.00     0.202 C 
ENDBRANCH   9  18
BRANCH   8  20
HETATM   20  O4  UNL     1     -26.100   7.337  97.249  1.00  0.00    -0.390 OA
ATOM     21  H4  UNL     1     -26.190   6.707  96.545  1.00  0.00     0.210 HD
ENDBRANCH   8  20
TORSDOF 6
ENDMDL
MODEL 5
REMARK VINA RESULT: -5.556683975      1.202      1.290
REMARK  6 active torsions:
REMARK  status: ('A' for Active; 'I' for Inactive)
REMARK    1  A    between atoms: O1_2  and  C2_3 
REMARK    2  A    between atoms: C7_9  and  C8_10 
REMARK    3  A    between atoms: C8_10  and  O3_11 
REMARK    4  A    between atoms: C9_13  and  O4_14 
REMARK    5  A    between atoms: C10_16  and  O5_17 
REMARK    6  A    between atoms: C12_19  and  O6_20 
ROOT
HETATM    1  C2  UNL     1     -23.668   7.647 101.512  1.00  0.00     0.146 C 
HETATM    2  C3  UNL     1     -25.063   7.231 101.768  1.00  0.00     0.004 C 
HETATM    3  C4  UNL     1     -25.539   6.603 100.714  1.00  0.00     0.012 C 
HETATM    4  C5  UNL     1     -24.510   6.522  99.611  1.00  0.00     0.110 C 
HETATM    5  C6  UNL     1     -23.610   7.708 100.008  1.00  0.00     0.081 C 
HETATM    6  O2  UNL     1     -25.104   6.827  98.454  1.00  0.00    -0.363 OA
HETATM    7  C7  UNL     1     -25.302   5.893  97.510  1.00  0.00     0.178 C 
HETATM    8  C9  UNL     1     -25.178   4.474  98.003  1.00  0.00     0.180 C 
HETATM    9  C10 UNL     1     -23.743   4.391  98.526  1.00  0.00     0.184 C 
HETATM   10  C12 UNL     1     -23.735   5.286  99.749  1.00  0.00     0.188 C 
ENDROOT
BRANCH  10  11
HETATM   11  O6  UNL     1     -24.198   4.512 100.812  1.00  0.00    -0.390 OA
ATOM     12  H6  UNL     1     -23.633   4.593 101.572  1.00  0.00     0.210 HD
ENDBRANCH  10  11
BRANCH   1  13
HETATM   13  O1  UNL     1     -23.365   8.876 102.096  1.00  0.00    -0.387 OA
HETATM   14  C1  UNL     1     -22.970   9.752 101.103  1.00  0.00     0.202 C 
ENDBRANCH   1  13
BRANCH   7  15
HETATM   15  C8  UNL     1     -26.656   6.113  96.836  1.00  0.00     0.198 C 
BRANCH  15  16
HETATM   16  O3  UNL     1     -26.581   5.671  95.526  1.00  0.00    -0.398 OA
ATOM     17  H3  UNL     1     -27.322   5.105  95.350  1.00  0.00     0.209 HD
ENDBRANCH  15  16
ENDBRANCH   7  15
BRANCH   9  18
HETATM   18  O5  UNL     1     -23.501   3.069  98.836  1.00  0.00    -0.385 OA
HETATM   19  C11 UNL     1     -22.293   2.649  98.299  1.00  0.00     0.202 C 
ENDBRANCH   9  18
BRANCH   8  20
HETATM   20  O4  UNL     1     -25.443   3.542  97.045  1.00  0.00    -0.390 OA
ATOM     21  H4  UNL     1     -25.231   2.655  97.311  1.00  0.00     0.210 HD
ENDBRANCH   8  20
TORSDOF 6
ENDMDL
