MODEL 1
REMARK VINA RESULT: -6.117490760      0.000      0.000
REMARK  6 active torsions:
REMARK  status: ('A' for Active; 'I' for Inactive)
REMARK    1  A    between atoms: O1_1  and  C1_3 
REMARK    2  A    between atoms: C1_3  and  C2_4 
REMARK    3  A    between atoms: C4_8  and  C5_9 
REMARK    4  A    between atoms: C5_9  and  C6_10 
REMARK    5  A    between atoms: C11_16  and  O5_17 
REMARK    6  A    between atoms: C12_19  and  O6_20 
ROOT
HETATM    1  C2  UNL     1     -25.756   8.642 100.222  1.00  0.00     0.179 C 
HETATM    2  O2  UNL     1     -25.487   7.321 100.531  1.00  0.00    -0.350 OA
HETATM    3  C3  UNL     1     -24.191   7.103 100.945  1.00  0.00     0.271 C 
HETATM    4  O3  UNL     1     -24.169   5.962 101.784  1.00  0.00    -0.351 OA
HETATM    5  C4  UNL     1     -22.844   5.438 101.788  1.00  0.00     0.149 C 
HETATM    6  C8  UNL     1     -21.923   6.542 102.205  1.00  0.00     0.001 C 
HETATM    7  C9  UNL     1     -22.256   7.828 102.205  1.00  0.00    -0.016 C 
HETATM    8  C10 UNL     1     -23.622   8.209 101.768  1.00  0.00     0.095 C 
HETATM    9  C11 UNL     1     -23.648   9.544 101.058  1.00  0.00     0.162 C 
HETATM   10  C12 UNL     1     -24.532   9.430  99.851  1.00  0.00     0.178 C 
ENDROOT
BRANCH   5  11
HETATM   11  C5  UNL     1     -22.824   4.366 102.826  1.00  0.00     0.070 C 
BRANCH  11  12
HETATM   12  C6  UNL     1     -24.121   4.055 103.482  1.00  0.00     0.148 A 
HETATM   13  C7  UNL     1     -24.047   3.079 104.651  1.00  0.00     0.200 A 
HETATM   14  O4  UNL     1     -24.421   4.400 104.775  1.00  0.00    -0.381 OA
ENDBRANCH  11  12
ENDBRANCH   5  11
BRANCH   1  15
HETATM   15  C1  UNL     1     -26.754   8.774  99.080  1.00  0.00     0.198 C 
BRANCH  15  16
HETATM   16  O1  UNL     1     -26.551   9.933  98.348  1.00  0.00    -0.398 OA
ATOM     17  H1  UNL     1     -27.270  10.545  98.449  1.00  0.00     0.209 HD
ENDBRANCH  15  16
ENDBRANCH   1  15
BRANCH   9  18
HETATM   18  O5  UNL     1     -22.359   9.942 100.707  1.00  0.00    -0.392 OA
ATOM     19  H5  UNL     1     -22.382  10.554  99.980  1.00  0.00     0.210 HD
ENDBRANCH   9  18
BRANCH  10  20
HETATM   20  O6  UNL     1     -23.847   8.890  98.777  1.00  0.00    -0.390 OA
ATOM     21  H6  UNL     1     -23.419   9.547  98.242  1.00  0.00     0.210 HD
ENDBRANCH  10  20
TORSDOF 6
ENDMDL
MODEL 2
REMARK VINA RESULT: -6.009451481      2.213      5.384
REMARK  6 active torsions:
REMARK  status: ('A' for Active; 'I' for Inactive)
REMARK    1  A    between atoms: O1_1  and  C1_3 
REMARK    2  A    between atoms: C1_3  and  C2_4 
REMARK    3  A    between atoms: C4_8  and  C5_9 
REMARK    4  A    between atoms: C5_9  and  C6_10 
REMARK    5  A    between atoms: C11_16  and  O5_17 
REMARK    6  A    between atoms: C12_19  and  O6_20 
ROOT
HETATM    1  C2  UNL     1     -22.405   6.953 101.338  1.00  0.00     0.179 C 
HETATM    2  O2  UNL     1     -23.468   6.430 100.623  1.00  0.00    -0.350 OA
HETATM    3  C3  UNL     1     -24.454   7.352 100.346  1.00  0.00     0.271 C 
HETATM    4  O3  UNL     1     -25.133   6.951  99.170  1.00  0.00    -0.351 OA
HETATM    5  C4  UNL     1     -26.420   7.561  99.168  1.00  0.00     0.149 C 
HETATM    6  C8  UNL     1     -26.218   9.039  99.304  1.00  0.00     0.001 C 
HETATM    7  C9  UNL     1     -25.086   9.601  99.713  1.00  0.00    -0.016 C 
HETATM    8  C10 UNL     1     -23.941   8.723 100.058  1.00  0.00     0.095 C 
HETATM    9  C11 UNL     1     -23.102   9.286 101.184  1.00  0.00     0.162 C 
HETATM   10  C12 UNL     1     -22.764   8.175 102.134  1.00  0.00     0.178 C 
ENDROOT
BRANCH   5  11
HETATM   11  C5  UNL     1     -27.016   7.271  97.832  1.00  0.00     0.070 C 
BRANCH  11  12
HETATM   12  C6  UNL     1     -26.732   5.930  97.257  1.00  0.00     0.148 A 
HETATM   13  C7  UNL     1     -27.357   5.654  95.895  1.00  0.00     0.200 A 
HETATM   14  O4  UNL     1     -25.999   5.730  96.116  1.00  0.00    -0.381 OA
ENDBRANCH  11  12
ENDBRANCH   5  11
BRANCH   1  15
HETATM   15  C1  UNL     1     -21.804   5.936 102.300  1.00  0.00     0.198 C 
BRANCH  15  16
HETATM   16  O1  UNL     1     -21.220   6.547 103.397  1.00  0.00    -0.398 OA
ATOM     17  H1  UNL     1     -20.385   6.153 103.617  1.00  0.00     0.209 HD
ENDBRANCH  15  16
ENDBRANCH   1  15
BRANCH   9  18
HETATM   18  O5  UNL     1     -23.776  10.320 101.832  1.00  0.00    -0.392 OA
ATOM     19  H5  UNL     1     -24.275   9.987 102.569  1.00  0.00     0.210 HD
ENDBRANCH   9  18
BRANCH  10  20
HETATM   20  O6  UNL     1     -23.792   7.952 103.032  1.00  0.00    -0.390 OA
ATOM     21  H6  UNL     1     -23.503   7.965 103.937  1.00  0.00     0.210 HD
ENDBRANCH  10  20
TORSDOF 6
ENDMDL
MODEL 3
REMARK VINA RESULT: -5.957526069      1.385      1.547
REMARK  6 active torsions:
REMARK  status: ('A' for Active; 'I' for Inactive)
REMARK    1  A    between atoms: O1_1  and  C1_3 
REMARK    2  A    between atoms: C1_3  and  C2_4 
REMARK    3  A    between atoms: C4_8  and  C5_9 
REMARK    4  A    between atoms: C5_9  and  C6_10 
REMARK    5  A    between atoms: C11_16  and  O5_17 
REMARK    6  A    between atoms: C12_19  and  O6_20 
ROOT
HETATM    1  C2  UNL     1     -25.665   8.450 100.280  1.00  0.00     0.179 C 
HETATM    2  O2  UNL     1     -25.289   7.148 100.557  1.00  0.00    -0.350 OA
HETATM    3  C3  UNL     1     -23.975   7.024 100.950  1.00  0.00     0.271 C 
HETATM    4  O3  UNL     1     -23.852   5.871 101.763  1.00  0.00    -0.351 OA
HETATM    5  C4  UNL     1     -22.490   5.452 101.740  1.00  0.00     0.149 C 
HETATM    6  C8  UNL     1     -21.653   6.617 102.169  1.00  0.00     0.001 C 
HETATM    7  C9  UNL     1     -22.085   7.872 102.201  1.00  0.00    -0.016 C 
HETATM    8  C10 UNL     1     -23.482   8.154 101.790  1.00  0.00     0.095 C 
HETATM    9  C11 UNL     1     -23.622   9.497 101.109  1.00  0.00     0.162 C 
HETATM   10  C12 UNL     1     -24.511   9.339  99.911  1.00  0.00     0.178 C 
ENDROOT
BRANCH   5  11
HETATM   11  C5  UNL     1     -22.372   4.364 102.754  1.00  0.00     0.070 C 
BRANCH  11  12
HETATM   12  C6  UNL     1     -21.150   4.377 103.599  1.00  0.00     0.148 A 
HETATM   13  C7  UNL     1     -20.768   3.039 104.221  1.00  0.00     0.200 A 
HETATM   14  O4  UNL     1     -20.000   3.698 103.286  1.00  0.00    -0.381 OA
ENDBRANCH  11  12
ENDBRANCH   5  11
BRANCH   1  15
HETATM   15  C1  UNL     1     -26.687   8.527  99.154  1.00  0.00     0.198 C 
BRANCH  15  16
HETATM   16  O1  UNL     1     -26.533   9.676  98.396  1.00  0.00    -0.398 OA
ATOM     17  H1  UNL     1     -26.821   9.550  97.500  1.00  0.00     0.209 HD
ENDBRANCH  15  16
ENDBRANCH   1  15
BRANCH   9  18
HETATM   18  O5  UNL     1     -22.374  10.002 100.750  1.00  0.00    -0.392 OA
ATOM     19  H5  UNL     1     -22.193  10.812 101.213  1.00  0.00     0.210 HD
ENDBRANCH   9  18
BRANCH  10  20
HETATM   20  O6  UNL     1     -23.803   8.876  98.817  1.00  0.00    -0.390 OA
ATOM     21  H6  UNL     1     -23.253   9.543  98.422  1.00  0.00     0.210 HD
ENDBRANCH  10  20
TORSDOF 6
ENDMDL
MODEL 4
REMARK VINA RESULT: -5.948865908      3.566      6.317
REMARK  6 active torsions:
REMARK  status: ('A' for Active; 'I' for Inactive)
REMARK    1  A    between atoms: O1_1  and  C1_3 
REMARK    2  A    between atoms: C1_3  and  C2_4 
REMARK    3  A    between atoms: C4_8  and  C5_9 
REMARK    4  A    between atoms: C5_9  and  C6_10 
REMARK    5  A    between atoms: C11_16  and  O5_17 
REMARK    6  A    between atoms: C12_19  and  O6_20 
ROOT
HETATM    1  C2  UNL     1     -23.433   2.529 103.964  1.00  0.00     0.179 C 
HETATM    2  O2  UNL     1     -24.013   3.280 102.958  1.00  0.00    -0.350 OA
HETATM    3  C3  UNL     1     -23.098   3.916 102.146  1.00  0.00     0.271 C 
HETATM    4  O3  UNL     1     -23.685   4.117 100.873  1.00  0.00    -0.351 OA
HETATM    5  C4  UNL     1     -22.994   5.183 100.228  1.00  0.00     0.149 C 
HETATM    6  C8  UNL     1     -21.540   4.827 100.201  1.00  0.00     0.001 C 
HETATM    7  C9  UNL     1     -20.991   3.883 100.958  1.00  0.00    -0.016 C 
HETATM    8  C10 UNL     1     -21.860   3.125 101.891  1.00  0.00     0.095 C 
HETATM    9  C11 UNL     1     -21.138   2.735 103.161  1.00  0.00     0.162 C 
HETATM   10  C12 UNL     1     -22.049   2.984 104.328  1.00  0.00     0.178 C 
ENDROOT
BRANCH   5  11
HETATM   11  C5  UNL     1     -23.512   5.228  98.829  1.00  0.00     0.070 C 
BRANCH  11  12
HETATM   12  C6  UNL     1     -24.989   5.202  98.669  1.00  0.00     0.148 A 
HETATM   13  C7  UNL     1     -25.492   5.153  97.231  1.00  0.00     0.200 A 
HETATM   14  O4  UNL     1     -25.680   4.139  98.145  1.00  0.00    -0.381 OA
ENDBRANCH  11  12
ENDBRANCH   5  11
BRANCH   1  15
HETATM   15  C1  UNL     1     -24.269   2.531 105.237  1.00  0.00     0.198 C 
BRANCH  15  16
HETATM   16  O1  UNL     1     -24.974   3.714 105.389  1.00  0.00    -0.398 OA
ATOM     17  H1  UNL     1     -24.814   4.115 106.234  1.00  0.00     0.209 HD
ENDBRANCH  15  16
ENDBRANCH   1  15
BRANCH   9  18
HETATM   18  O5  UNL     1     -19.945   3.443 103.289  1.00  0.00    -0.392 OA
ATOM     19  H5  UNL     1     -19.815   3.725 104.187  1.00  0.00     0.210 HD
ENDBRANCH   9  18
BRANCH  10  20
HETATM   20  O6  UNL     1     -22.002   4.307 104.727  1.00  0.00    -0.390 OA
ATOM     21  H6  UNL     1     -21.471   4.849 104.156  1.00  0.00     0.210 HD
ENDBRANCH  10  20
TORSDOF 6
ENDMDL
MODEL 5
REMARK VINA RESULT: -5.912997124      2.585      6.336
REMARK  6 active torsions:
REMARK  status: ('A' for Active; 'I' for Inactive)
REMARK    1  A    between atoms: O1_1  and  C1_3 
REMARK    2  A    between atoms: C1_3  and  C2_4 
REMARK    3  A    between atoms: C4_8  and  C5_9 
REMARK    4  A    between atoms: C5_9  and  C6_10 
REMARK    5  A    between atoms: C11_16  and  O5_17 
REMARK    6  A    between atoms: C12_19  and  O6_20 
ROOT
HETATM    1  C2  UNL     1     -23.556   2.565 103.809  1.00  0.00     0.179 C 
HETATM    2  O2  UNL     1     -24.134   3.386 102.858  1.00  0.00    -0.350 OA
HETATM    3  C3  UNL     1     -23.218   4.069 102.087  1.00  0.00     0.271 C 
HETATM    4  O3  UNL     1     -23.808   4.359 100.833  1.00  0.00    -0.351 OA
HETATM    5  C4  UNL     1     -23.112   5.461 100.258  1.00  0.00     0.149 C 
HETATM    6  C8  UNL     1     -21.660   5.098 100.201  1.00  0.00     0.001 C 
HETATM    7  C9  UNL     1     -21.115   4.102 100.891  1.00  0.00    -0.016 C 
HETATM    8  C10 UNL     1     -21.986   3.288 101.774  1.00  0.00     0.095 C 
HETATM    9  C11 UNL     1     -21.263   2.809 103.012  1.00  0.00     0.162 C 
HETATM   10  C12 UNL     1     -22.167   2.985 104.197  1.00  0.00     0.178 C 
ENDROOT
BRANCH   5  11
HETATM   11  C5  UNL     1     -23.635   5.604  98.868  1.00  0.00     0.070 C 
BRANCH  11  12
HETATM   12  C6  UNL     1     -24.748   6.569  98.674  1.00  0.00     0.148 A 
HETATM   13  C7  UNL     1     -24.329   7.999  98.355  1.00  0.00     0.200 A 
HETATM   14  O4  UNL     1     -25.021   7.188  97.482  1.00  0.00    -0.381 OA
ENDBRANCH  11  12
ENDBRANCH   5  11
BRANCH   1  15
HETATM   15  C1  UNL     1     -24.387   2.487 105.083  1.00  0.00     0.198 C 
BRANCH  15  16
HETATM   16  O1  UNL     1     -24.998   3.696 105.374  1.00  0.00    -0.398 OA
ATOM     17  H1  UNL     1     -25.762   3.846 104.830  1.00  0.00     0.209 HD
ENDBRANCH  15  16
ENDBRANCH   1  15
BRANCH   9  18
HETATM   18  O5  UNL     1     -20.064   3.499 103.183  1.00  0.00    -0.392 OA
ATOM     19  H5  UNL     1     -19.329   2.898 103.204  1.00  0.00     0.210 HD
ENDBRANCH   9  18
BRANCH  10  20
HETATM   20  O6  UNL     1     -22.110   4.278 104.684  1.00  0.00    -0.390 OA
ATOM     21  H6  UNL     1     -21.234   4.645 104.663  1.00  0.00     0.210 HD
ENDBRANCH  10  20
TORSDOF 6
ENDMDL
