MODEL 1
REMARK VINA RESULT: -8.021375966      0.000      0.000
REMARK  4 active torsions:
REMARK  status: ('A' for Active; 'I' for Inactive)
REMARK    1  A    between atoms: C2_2  and  N1_5 
REMARK       I    between atoms: N1_5  and  C5_7 
REMARK    2  A    between atoms: C5_7  and  C6_9 
REMARK    3  A    between atoms: N2_12  and  S1_13 
REMARK    4  A    between atoms: S1_13  and  C9_16 
ROOT
HETATM    1  C6  UNL     1     -22.076  33.704   0.894  1.00  0.00     0.082 C 
HETATM    2  C7  UNL     1     -23.071  34.376   1.812  1.00  0.00     0.035 C 
HETATM    3  C8  UNL     1     -23.315  33.457   2.993  1.00  0.00     0.138 C 
HETATM    4  N2  UNL     1     -22.227  32.542   3.116  1.00  0.00    -0.288 N 
HETATM    5  C11 UNL     1     -20.965  33.199   3.061  1.00  0.00     0.193 C 
HETATM    6 CL2  UNL     1     -20.948  34.690   4.048  1.00  0.00    -0.102 Cl
HETATM    7  C12 UNL     1     -20.744  33.667   1.616  1.00  0.00     0.056 C 
ENDROOT
BRANCH   4   8
HETATM    8  S1  UNL     1     -22.407  31.299   4.236  1.00  0.00     0.273 S 
HETATM    9  O2  UNL     1     -23.674  31.528   5.014  1.00  0.00    -0.200 OA
HETATM   10  O3  UNL     1     -21.266  31.332   5.222  1.00  0.00    -0.200 OA
BRANCH   8  11
HETATM   11  C9  UNL     1     -22.509  29.692   3.524  1.00  0.00     0.177 A 
HETATM   12  S2  UNL     1     -22.956  28.189   4.217  1.00  0.00     0.019 SA
HETATM   13  N3  UNL     1     -22.780  27.222   2.854  1.00  0.00    -0.267 N 
HETATM   14  N4  UNL     1     -22.397  28.061   1.940  1.00  0.00    -0.282 N 
ATOM     15  H3  UNL     1     -22.938  26.218   2.766  1.00  0.00     0.195 HD
HETATM   16  C10 UNL     1     -22.247  29.315   2.233  1.00  0.00     0.150 A 
ATOM     17  H4  UNL     1     -22.214  27.733   0.991  1.00  0.00     0.188 HD
HETATM   18 CL1  UNL     1     -21.726  30.505   1.016  1.00  0.00    -0.061 Cl
ENDBRANCH   8  11
ENDBRANCH   4   8
BRANCH   1  19
HETATM   19  C5  UNL     1     -21.932  34.408  -0.394  1.00  0.00     0.222 C 
HETATM   20  N1  UNL     1     -22.098  33.687  -1.606  1.00  0.00    -0.353 N 
ATOM     21  H1  UNL     1     -22.315  32.690  -1.583  1.00  0.00     0.163 HD
HETATM   22  O1  UNL     1     -21.667  35.621  -0.420  1.00  0.00    -0.273 OA
BRANCH  20  23
HETATM   23  C2  UNL     1     -21.958  34.371  -2.872  1.00  0.00     0.022 C 
HETATM   24  C1  UNL     1     -20.505  34.730  -3.109  1.00  0.00     0.037 C 
HETATM   25  C3  UNL     1     -22.438  33.443  -3.963  1.00  0.00     0.037 C 
HETATM   26  C4  UNL     1     -22.811  35.621  -2.897  1.00  0.00     0.037 C 
ENDBRANCH  20  23
ENDBRANCH   1  19
TORSDOF 4
ENDMDL
MODEL 2
REMARK VINA RESULT: -7.584268762      2.001      2.483
REMARK  4 active torsions:
REMARK  status: ('A' for Active; 'I' for Inactive)
REMARK    1  A    between atoms: C2_2  and  N1_5 
REMARK       I    between atoms: N1_5  and  C5_7 
REMARK    2  A    between atoms: C5_7  and  C6_9 
REMARK    3  A    between atoms: N2_12  and  S1_13 
REMARK    4  A    between atoms: S1_13  and  C9_16 
ROOT
HETATM    1  C6  UNL     1     -22.378  35.148   0.953  1.00  0.00     0.082 C 
HETATM    2  C7  UNL     1     -23.581  35.350   1.844  1.00  0.00     0.035 C 
HETATM    3  C8  UNL     1     -23.610  34.221   2.857  1.00  0.00     0.138 C 
HETATM    4  N2  UNL     1     -22.308  33.650   2.967  1.00  0.00    -0.288 N 
HETATM    5  C11 UNL     1     -21.299  34.640   3.135  1.00  0.00     0.193 C 
HETATM    6 CL2  UNL     1     -21.787  35.894   4.312  1.00  0.00    -0.102 Cl
HETATM    7  C12 UNL     1     -21.142  35.379   1.798  1.00  0.00     0.056 C 
ENDROOT
BRANCH   4   8
HETATM    8  S1  UNL     1     -22.173  32.243   3.882  1.00  0.00     0.273 S 
HETATM    9  O2  UNL     1     -23.319  32.188   4.855  1.00  0.00    -0.200 OA
HETATM   10  O3  UNL     1     -20.901  32.281   4.691  1.00  0.00    -0.200 OA
BRANCH   8  11
HETATM   11  C9  UNL     1     -22.213  30.758   2.937  1.00  0.00     0.177 A 
HETATM   12  S2  UNL     1     -22.769  29.188   3.346  1.00  0.00     0.019 SA
HETATM   13  N3  UNL     1     -22.441  28.419   1.888  1.00  0.00    -0.267 N 
HETATM   14  N4  UNL     1     -21.932  29.365   1.159  1.00  0.00    -0.282 N 
ATOM     15  H3  UNL     1     -22.603  27.443   1.637  1.00  0.00     0.195 HD
HETATM   16  C10 UNL     1     -21.798  30.559   1.646  1.00  0.00     0.150 A 
ATOM     17  H4  UNL     1     -21.638  29.169   0.202  1.00  0.00     0.188 HD
HETATM   18 CL1  UNL     1     -21.110  31.891   0.687  1.00  0.00    -0.061 Cl
ENDBRANCH   8  11
ENDBRANCH   4   8
BRANCH   1  19
HETATM   19  C5  UNL     1     -22.375  36.063  -0.205  1.00  0.00     0.222 C 
HETATM   20  N1  UNL     1     -23.139  37.258  -0.152  1.00  0.00    -0.353 N 
ATOM     21  H1  UNL     1     -23.686  37.481   0.680  1.00  0.00     0.163 HD
HETATM   22  O1  UNL     1     -21.710  35.790  -1.218  1.00  0.00    -0.273 OA
BRANCH  20  23
HETATM   23  C2  UNL     1     -23.140  38.158  -1.285  1.00  0.00     0.022 C 
HETATM   24  C1  UNL     1     -23.527  37.408  -2.542  1.00  0.00     0.037 C 
HETATM   25  C3  UNL     1     -24.146  39.252  -1.014  1.00  0.00     0.037 C 
HETATM   26  C4  UNL     1     -21.777  38.793  -1.459  1.00  0.00     0.037 C 
ENDBRANCH  20  23
ENDBRANCH   1  19
TORSDOF 4
ENDMDL
MODEL 3
REMARK VINA RESULT: -7.554935935      3.323      6.861
REMARK  4 active torsions:
REMARK  status: ('A' for Active; 'I' for Inactive)
REMARK    1  A    between atoms: C2_2  and  N1_5 
REMARK       I    between atoms: N1_5  and  C5_7 
REMARK    2  A    between atoms: C5_7  and  C6_9 
REMARK    3  A    between atoms: N2_12  and  S1_13 
REMARK    4  A    between atoms: S1_13  and  C9_16 
ROOT
HETATM    1  C6  UNL     1     -22.219  33.289   3.037  1.00  0.00     0.082 C 
HETATM    2  C7  UNL     1     -20.926  34.058   2.887  1.00  0.00     0.035 C 
HETATM    3  C8  UNL     1     -20.888  34.644   1.488  1.00  0.00     0.138 C 
HETATM    4  N2  UNL     1     -22.213  34.710   0.965  1.00  0.00    -0.288 N 
HETATM    5  C11 UNL     1     -23.125  35.298   1.886  1.00  0.00     0.193 C 
HETATM    6 CL2  UNL     1     -22.438  36.754   2.665  1.00  0.00    -0.102 Cl
HETATM    7  C12 UNL     1     -23.350  34.297   3.027  1.00  0.00     0.056 C 
ENDROOT
BRANCH   4   8
HETATM    8  S1  UNL     1     -22.366  35.133  -0.657  1.00  0.00     0.273 S 
HETATM    9  O2  UNL     1     -21.397  36.243  -0.960  1.00  0.00    -0.200 OA
HETATM   10  O3  UNL     1     -23.752  35.667  -0.916  1.00  0.00    -0.200 OA
BRANCH   8  11
HETATM   11  C9  UNL     1     -22.033  33.821  -1.782  1.00  0.00     0.177 A 
HETATM   12  S2  UNL     1     -21.525  32.207  -1.499  1.00  0.00     0.019 SA
HETATM   13  N3  UNL     1     -21.464  31.680  -3.094  1.00  0.00    -0.267 N 
HETATM   14  N4  UNL     1     -21.825  32.729  -3.769  1.00  0.00    -0.282 N 
ATOM     15  H3  UNL     1     -21.205  30.758  -3.446  1.00  0.00     0.195 HD
HETATM   16  C10 UNL     1     -22.121  33.829  -3.150  1.00  0.00     0.150 A 
ATOM     17  H4  UNL     1     -21.877  32.687  -4.787  1.00  0.00     0.188 HD
HETATM   18 CL1  UNL     1     -22.625  35.292  -4.029  1.00  0.00    -0.061 Cl
ENDBRANCH   8  11
ENDBRANCH   4   8
BRANCH   1  19
HETATM   19  C5  UNL     1     -22.262  32.495   4.279  1.00  0.00     0.222 C 
HETATM   20  N1  UNL     1     -21.072  32.316   5.034  1.00  0.00    -0.353 N 
ATOM     21  H1  UNL     1     -20.197  32.734   4.718  1.00  0.00     0.163 HD
HETATM   22  O1  UNL     1     -23.327  31.986   4.662  1.00  0.00    -0.273 OA
BRANCH  20  23
HETATM   23  C2  UNL     1     -21.108  31.538   6.253  1.00  0.00     0.022 C 
HETATM   24  C1  UNL     1     -21.614  30.140   5.960  1.00  0.00     0.037 C 
HETATM   25  C3  UNL     1     -19.704  31.466   6.805  1.00  0.00     0.037 C 
HETATM   26  C4  UNL     1     -21.995  32.204   7.282  1.00  0.00     0.037 C 
ENDBRANCH  20  23
ENDBRANCH   1  19
TORSDOF 4
ENDMDL
MODEL 4
REMARK VINA RESULT: -7.550227797      2.757      4.144
REMARK  4 active torsions:
REMARK  status: ('A' for Active; 'I' for Inactive)
REMARK    1  A    between atoms: C2_2  and  N1_5 
REMARK       I    between atoms: N1_5  and  C5_7 
REMARK    2  A    between atoms: C5_7  and  C6_9 
REMARK    3  A    between atoms: N2_12  and  S1_13 
REMARK    4  A    between atoms: S1_13  and  C9_16 
ROOT
HETATM    1  C6  UNL     1     -21.358  31.842   1.432  1.00  0.00     0.082 C 
HETATM    2  C7  UNL     1     -22.566  31.044   1.863  1.00  0.00     0.035 C 
HETATM    3  C8  UNL     1     -22.518  30.897   3.372  1.00  0.00     0.138 C 
HETATM    4  N2  UNL     1     -21.683  31.915   3.921  1.00  0.00    -0.288 N 
HETATM    5  C11 UNL     1     -22.002  33.205   3.409  1.00  0.00     0.193 C 
HETATM    6 CL2  UNL     1     -23.768  33.481   3.354  1.00  0.00    -0.102 Cl
HETATM    7  C12 UNL     1     -21.538  33.255   1.947  1.00  0.00     0.056 C 
ENDROOT
BRANCH   4   8
HETATM    8  S1  UNL     1     -21.327  31.798   5.562  1.00  0.00     0.273 S 
HETATM    9  O2  UNL     1     -19.979  32.419   5.809  1.00  0.00    -0.200 OA
HETATM   10  O3  UNL     1     -21.229  30.346   5.960  1.00  0.00    -0.200 OA
BRANCH   8  11
HETATM   11  C9  UNL     1     -22.482  32.609   6.614  1.00  0.00     0.177 A 
HETATM   12  S2  UNL     1     -23.703  31.971   7.635  1.00  0.00     0.019 SA
HETATM   13  N3  UNL     1     -24.300  33.418   8.247  1.00  0.00    -0.267 N 
HETATM   14  N4  UNL     1     -23.563  34.315   7.664  1.00  0.00    -0.282 N 
ATOM     15  H3  UNL     1     -25.058  33.558   8.914  1.00  0.00     0.195 HD
HETATM   16  C10 UNL     1     -22.635  33.953   6.834  1.00  0.00     0.150 A 
ATOM     17  H4  UNL     1     -23.714  35.305   7.860  1.00  0.00     0.188 HD
HETATM   18 CL1  UNL     1     -21.596  35.142   6.013  1.00  0.00    -0.061 Cl
ENDBRANCH   8  11
ENDBRANCH   4   8
BRANCH   1  19
HETATM   19  C5  UNL     1     -21.185  31.857  -0.033  1.00  0.00     0.222 C 
HETATM   20  N1  UNL     1     -21.619  32.988  -0.775  1.00  0.00    -0.353 N 
ATOM     21  H1  UNL     1     -22.046  33.782  -0.297  1.00  0.00     0.163 HD
HETATM   22  O1  UNL     1     -20.666  30.891  -0.614  1.00  0.00    -0.273 OA
BRANCH  20  23
HETATM   23  C2  UNL     1     -21.453  33.009  -2.211  1.00  0.00     0.022 C 
HETATM   24  C1  UNL     1     -21.986  31.725  -2.813  1.00  0.00     0.037 C 
HETATM   25  C3  UNL     1     -22.228  34.187  -2.756  1.00  0.00     0.037 C 
HETATM   26  C4  UNL     1     -19.995  33.185  -2.575  1.00  0.00     0.037 C 
ENDBRANCH  20  23
ENDBRANCH   1  19
TORSDOF 4
ENDMDL
MODEL 5
REMARK VINA RESULT: -7.479612342      1.993      2.106
REMARK  4 active torsions:
REMARK  status: ('A' for Active; 'I' for Inactive)
REMARK    1  A    between atoms: C2_2  and  N1_5 
REMARK       I    between atoms: N1_5  and  C5_7 
REMARK    2  A    between atoms: C5_7  and  C6_9 
REMARK    3  A    between atoms: N2_12  and  S1_13 
REMARK    4  A    between atoms: S1_13  and  C9_16 
ROOT
HETATM    1  C6  UNL     1     -21.921  34.446   1.021  1.00  0.00     0.082 C 
HETATM    2  C7  UNL     1     -23.239  34.786   1.676  1.00  0.00     0.035 C 
HETATM    3  C8  UNL     1     -23.266  34.132   3.044  1.00  0.00     0.138 C 
HETATM    4  N2  UNL     1     -21.932  33.846   3.460  1.00  0.00    -0.288 N 
HETATM    5  C11 UNL     1     -21.067  34.966   3.298  1.00  0.00     0.193 C 
HETATM    6 CL2  UNL     1     -21.832  36.483   3.855  1.00  0.00    -0.102 Cl
HETATM    7  C12 UNL     1     -20.831  35.160   1.793  1.00  0.00     0.056 C 
ENDROOT
BRANCH   4   8
HETATM    8  S1  UNL     1     -21.756  32.926   4.858  1.00  0.00     0.273 S 
HETATM    9  O2  UNL     1     -22.664  33.483   5.921  1.00  0.00    -0.200 OA
HETATM   10  O3  UNL     1     -20.343  33.044   5.371  1.00  0.00    -0.200 OA
BRANCH   8  11
HETATM   11  C9  UNL     1     -22.158  31.224   4.660  1.00  0.00     0.177 A 
HETATM   12  S2  UNL     1     -22.780  30.372   3.307  1.00  0.00     0.019 SA
HETATM   13  N3  UNL     1     -22.849  28.837   3.988  1.00  0.00    -0.267 N 
HETATM   14  N4  UNL     1     -22.405  29.024   5.193  1.00  0.00    -0.282 N 
ATOM     15  H3  UNL     1     -23.164  27.967   3.557  1.00  0.00     0.195 HD
HETATM   16  C10 UNL     1     -22.046  30.210   5.576  1.00  0.00     0.150 A 
ATOM     17  H4  UNL     1     -22.338  28.238   5.840  1.00  0.00     0.188 HD
HETATM   18 CL1  UNL     1     -21.427  30.519   7.216  1.00  0.00    -0.061 Cl
ENDBRANCH   8  11
ENDBRANCH   4   8
BRANCH   1  19
HETATM   19  C5  UNL     1     -21.877  34.845  -0.399  1.00  0.00     0.222 C 
HETATM   20  N1  UNL     1     -21.939  33.846  -1.407  1.00  0.00    -0.353 N 
ATOM     21  H1  UNL     1     -22.014  32.862  -1.149  1.00  0.00     0.163 HD
HETATM   22  O1  UNL     1     -21.786  36.043  -0.711  1.00  0.00    -0.273 OA
BRANCH  20  23
HETATM   23  C2  UNL     1     -21.897  34.231  -2.800  1.00  0.00     0.022 C 
HETATM   24  C1  UNL     1     -20.504  34.703  -3.165  1.00  0.00     0.037 C 
HETATM   25  C3  UNL     1     -22.260  33.024  -3.632  1.00  0.00     0.037 C 
HETATM   26  C4  UNL     1     -22.903  35.326  -3.080  1.00  0.00     0.037 C 
ENDBRANCH  20  23
ENDBRANCH   1  19
TORSDOF 4
ENDMDL
