MODEL 1
REMARK VINA RESULT: -7.585039975      0.000      0.000
REMARK  3 active torsions:
REMARK  status: ('A' for Active; 'I' for Inactive)
REMARK    1  A    between atoms: C1_2  and  C2_3 
REMARK       I    between atoms: C1_2  and  N2_13 
REMARK    2  A    between atoms: C3_4  and  S1_5 
REMARK    3  A    between atoms: S1_5  and  C4_6 
ROOT
HETATM    1  O1  UNL     1     -20.538  35.058   2.393  1.00  0.00    -0.268 OA
HETATM    2  C1  UNL     1     -21.632  35.194   1.803  1.00  0.00     0.247 C 
HETATM    3  N2  UNL     1     -22.847  34.930   2.474  1.00  0.00    -0.302 N 
ATOM      4  H2  UNL     1     -23.598  35.619   2.513  1.00  0.00     0.171 HD
HETATM    5  C7  UNL     1     -22.959  33.754   3.048  1.00  0.00     0.168 A 
HETATM    6  N3  UNL     1     -24.000  33.274   3.736  1.00  0.00    -0.278 N 
ATOM      7  H3  UNL     1     -24.839  33.838   3.869  1.00  0.00     0.189 HD
HETATM    8  N4  UNL     1     -23.925  32.105   4.220  1.00  0.00    -0.286 N 
ATOM      9  H4  UNL     1     -24.710  31.722   4.748  1.00  0.00     0.188 HD
HETATM   10  C8  UNL     1     -22.832  31.379   4.044  1.00  0.00     0.139 A 
HETATM   11 BR2  UNL     1     -22.487  29.590   4.680  1.00  0.00    -0.021 Br
HETATM   12  S2  UNL     1     -21.859  32.443   3.127  1.00  0.00    -0.026 SA
ENDROOT
BRANCH   2  13
HETATM   13  C2  UNL     1     -21.691  35.625   0.414  1.00  0.00     0.081 C 
HETATM   14  C3  UNL     1     -21.747  34.747  -0.567  1.00  0.00     0.057 C 
BRANCH  14  15
HETATM   15  S1  UNL     1     -21.818  35.322  -2.249  1.00  0.00    -0.082 SA
BRANCH  15  16
HETATM   16  C4  UNL     1     -22.170  33.914  -3.288  1.00  0.00     0.098 A 
HETATM   17  C5  UNL     1     -22.926  33.937  -4.430  1.00  0.00     0.086 A 
HETATM   18  C6  UNL     1     -22.941  32.651  -4.912  1.00  0.00     0.147 A 
HETATM   19 BR1  UNL     1     -23.805  31.978  -6.469  1.00  0.00    -0.021 Br
HETATM   20  O2  UNL     1     -22.239  31.932  -4.099  1.00  0.00    -0.229 OA
HETATM   21  N1  UNL     1     -21.770  32.654  -3.128  1.00  0.00    -0.253 N 
ATOM     22  H1  UNL     1     -21.187  32.311  -2.364  1.00  0.00     0.195 HD
ENDBRANCH  15  16
ENDBRANCH  14  15
ENDBRANCH   2  13
TORSDOF 3
ENDMDL
MODEL 2
REMARK VINA RESULT: -7.437740283      1.961      2.148
REMARK  3 active torsions:
REMARK  status: ('A' for Active; 'I' for Inactive)
REMARK    1  A    between atoms: C1_2  and  C2_3 
REMARK       I    between atoms: C1_2  and  N2_13 
REMARK    2  A    between atoms: C3_4  and  S1_5 
REMARK    3  A    between atoms: S1_5  and  C4_6 
ROOT
HETATM    1  O1  UNL     1     -22.033  36.602   3.595  1.00  0.00    -0.268 OA
HETATM    2  C1  UNL     1     -22.649  36.222   2.575  1.00  0.00     0.247 C 
HETATM    3  N2  UNL     1     -23.724  35.311   2.685  1.00  0.00    -0.302 N 
ATOM      4  H2  UNL     1     -24.641  35.514   2.287  1.00  0.00     0.171 HD
HETATM    5  C7  UNL     1     -23.483  34.190   3.325  1.00  0.00     0.168 A 
HETATM    6  N3  UNL     1     -24.327  33.181   3.558  1.00  0.00    -0.278 N 
ATOM      7  H3  UNL     1     -25.291  33.223   3.225  1.00  0.00     0.189 HD
HETATM    8  N4  UNL     1     -23.911  32.170   4.200  1.00  0.00    -0.286 N 
ATOM      9  H4  UNL     1     -24.542  31.391   4.386  1.00  0.00     0.188 HD
HETATM   10  C8  UNL     1     -22.659  32.123   4.629  1.00  0.00     0.139 A 
HETATM   11 BR2  UNL     1     -21.803  30.705   5.619  1.00  0.00    -0.021 Br
HETATM   12  S2  UNL     1     -22.050  33.620   4.074  1.00  0.00    -0.026 SA
ENDROOT
BRANCH   2  13
HETATM   13  C2  UNL     1     -22.283  36.700   1.251  1.00  0.00     0.081 C 
HETATM   14  C3  UNL     1     -23.177  36.775   0.285  1.00  0.00     0.057 C 
BRANCH  14  15
HETATM   15  S1  UNL     1     -22.681  37.365  -1.318  1.00  0.00    -0.082 SA
BRANCH  15  16
HETATM   16  C4  UNL     1     -22.529  35.948  -2.393  1.00  0.00     0.098 A 
HETATM   17  C5  UNL     1     -21.996  34.737  -2.041  1.00  0.00     0.086 A 
HETATM   18  C6  UNL     1     -22.073  33.939  -3.157  1.00  0.00     0.147 A 
HETATM   19 BR1  UNL     1     -21.511  32.133  -3.364  1.00  0.00    -0.021 Br
HETATM   20  O2  UNL     1     -22.614  34.647  -4.093  1.00  0.00    -0.229 OA
HETATM   21  N1  UNL     1     -22.896  35.841  -3.668  1.00  0.00    -0.253 N 
ATOM     22  H1  UNL     1     -23.329  36.579  -4.224  1.00  0.00     0.195 HD
ENDBRANCH  15  16
ENDBRANCH  14  15
ENDBRANCH   2  13
TORSDOF 3
ENDMDL
MODEL 3
REMARK VINA RESULT: -7.402556844      1.631      1.790
REMARK  3 active torsions:
REMARK  status: ('A' for Active; 'I' for Inactive)
REMARK    1  A    between atoms: C1_2  and  C2_3 
REMARK       I    between atoms: C1_2  and  N2_13 
REMARK    2  A    between atoms: C3_4  and  S1_5 
REMARK    3  A    between atoms: S1_5  and  C4_6 
ROOT
HETATM    1  O1  UNL     1     -20.198  34.677   2.977  1.00  0.00    -0.268 OA
HETATM    2  C1  UNL     1     -21.279  35.051   2.473  1.00  0.00     0.247 C 
HETATM    3  N2  UNL     1     -22.504  34.786   3.126  1.00  0.00    -0.302 N 
ATOM      4  H2  UNL     1     -23.171  35.528   3.336  1.00  0.00     0.171 HD
HETATM    5  C7  UNL     1     -22.740  33.535   3.449  1.00  0.00     0.168 A 
HETATM    6  N3  UNL     1     -23.816  33.036   4.065  1.00  0.00    -0.278 N 
ATOM      7  H3  UNL     1     -24.583  33.647   4.346  1.00  0.00     0.189 HD
HETATM    8  N4  UNL     1     -23.867  31.791   4.295  1.00  0.00    -0.286 N 
ATOM      9  H4  UNL     1     -24.681  31.393   4.764  1.00  0.00     0.188 HD
HETATM   10  C8  UNL     1     -22.867  31.004   3.928  1.00  0.00     0.139 A 
HETATM   11 BR2  UNL     1     -22.717  29.095   4.168  1.00  0.00    -0.021 Br
HETATM   12  S2  UNL     1     -21.796  32.125   3.210  1.00  0.00    -0.026 SA
ENDROOT
BRANCH   2  13
HETATM   13  C2  UNL     1     -21.314  35.767   1.207  1.00  0.00     0.081 C 
HETATM   14  C3  UNL     1     -22.457  36.028   0.606  1.00  0.00     0.057 C 
BRANCH  14  15
HETATM   15  S1  UNL     1     -22.449  36.906  -0.941  1.00  0.00    -0.082 SA
BRANCH  15  16
HETATM   16  C4  UNL     1     -22.412  35.693  -2.251  1.00  0.00     0.098 A 
HETATM   17  C5  UNL     1     -21.957  34.407  -2.131  1.00  0.00     0.086 A 
HETATM   18  C6  UNL     1     -22.106  33.825  -3.366  1.00  0.00     0.147 A 
HETATM   19 BR1  UNL     1     -21.673  32.051  -3.902  1.00  0.00    -0.021 Br
HETATM   20  O2  UNL     1     -22.616  34.719  -4.149  1.00  0.00    -0.229 OA
HETATM   21  N1  UNL     1     -22.808  35.835  -3.514  1.00  0.00    -0.253 N 
ATOM     22  H1  UNL     1     -23.199  36.685  -3.919  1.00  0.00     0.195 HD
ENDBRANCH  15  16
ENDBRANCH  14  15
ENDBRANCH   2  13
TORSDOF 3
ENDMDL
MODEL 4
REMARK VINA RESULT: -7.315472976      3.821      4.333
REMARK  3 active torsions:
REMARK  status: ('A' for Active; 'I' for Inactive)
REMARK    1  A    between atoms: C1_2  and  C2_3 
REMARK       I    between atoms: C1_2  and  N2_13 
REMARK    2  A    between atoms: C3_4  and  S1_5 
REMARK    3  A    between atoms: S1_5  and  C4_6 
ROOT
HETATM    1  O1  UNL     1     -20.583  31.175  -1.080  1.00  0.00    -0.268 OA
HETATM    2  C1  UNL     1     -21.210  32.216  -0.785  1.00  0.00     0.247 C 
HETATM    3  N2  UNL     1     -21.211  32.702   0.542  1.00  0.00    -0.302 N 
ATOM      4  H2  UNL     1     -20.941  33.661   0.761  1.00  0.00     0.171 HD
HETATM    5  C7  UNL     1     -21.577  31.857   1.478  1.00  0.00     0.168 A 
HETATM    6  N3  UNL     1     -21.659  32.076   2.794  1.00  0.00    -0.278 N 
ATOM      7  H3  UNL     1     -21.423  32.989   3.184  1.00  0.00     0.189 HD
HETATM    8  N4  UNL     1     -22.036  31.131   3.549  1.00  0.00    -0.286 N 
ATOM      9  H4  UNL     1     -22.105  31.281   4.556  1.00  0.00     0.188 HD
HETATM   10  C8  UNL     1     -22.340  29.949   3.036  1.00  0.00     0.139 A 
HETATM   11 BR2  UNL     1     -22.932  28.370   3.975  1.00  0.00    -0.021 Br
HETATM   12  S2  UNL     1     -22.069  30.219   1.370  1.00  0.00    -0.026 SA
ENDROOT
BRANCH   2  13
HETATM   13  C2  UNL     1     -21.955  32.957  -1.791  1.00  0.00     0.081 C 
HETATM   14  C3  UNL     1     -21.422  33.998  -2.400  1.00  0.00     0.057 C 
BRANCH  14  15
HETATM   15  S1  UNL     1     -22.372  34.873  -3.623  1.00  0.00    -0.082 SA
BRANCH  15  16
HETATM   16  C4  UNL     1     -22.869  36.432  -2.909  1.00  0.00     0.098 A 
HETATM   17  C5  UNL     1     -22.735  36.781  -1.591  1.00  0.00     0.086 A 
HETATM   18  C6  UNL     1     -23.239  38.053  -1.473  1.00  0.00     0.147 A 
HETATM   19 BR1  UNL     1     -23.360  39.142   0.084  1.00  0.00    -0.021 Br
HETATM   20  O2  UNL     1     -23.639  38.415  -2.648  1.00  0.00    -0.229 OA
HETATM   21  N1  UNL     1     -23.431  37.474  -3.518  1.00  0.00    -0.253 N 
ATOM     22  H1  UNL     1     -23.662  37.525  -4.510  1.00  0.00     0.195 HD
ENDBRANCH  15  16
ENDBRANCH  14  15
ENDBRANCH   2  13
TORSDOF 3
ENDMDL
MODEL 5
REMARK VINA RESULT: -7.303369547      1.011      1.011
REMARK  3 active torsions:
REMARK  status: ('A' for Active; 'I' for Inactive)
REMARK    1  A    between atoms: C1_2  and  C2_3 
REMARK       I    between atoms: C1_2  and  N2_13 
REMARK    2  A    between atoms: C3_4  and  S1_5 
REMARK    3  A    between atoms: S1_5  and  C4_6 
ROOT
HETATM    1  O1  UNL     1     -21.618  36.311   2.461  1.00  0.00    -0.268 OA
HETATM    2  C1  UNL     1     -22.344  35.787   1.589  1.00  0.00     0.247 C 
HETATM    3  N2  UNL     1     -23.505  35.070   1.958  1.00  0.00    -0.302 N 
ATOM      4  H2  UNL     1     -24.419  35.290   1.563  1.00  0.00     0.171 HD
HETATM    5  C7  UNL     1     -23.347  34.105   2.835  1.00  0.00     0.168 A 
HETATM    6  N3  UNL     1     -24.281  33.293   3.337  1.00  0.00    -0.278 N 
ATOM      7  H3  UNL     1     -25.255  33.379   3.046  1.00  0.00     0.189 HD
HETATM    8  N4  UNL     1     -23.937  32.413   4.182  1.00  0.00    -0.286 N 
ATOM      9  H4  UNL     1     -24.637  31.783   4.575  1.00  0.00     0.188 HD
HETATM   10  C8  UNL     1     -22.671  32.307   4.556  1.00  0.00     0.139 A 
HETATM   11 BR2  UNL     1     -21.912  31.058   5.815  1.00  0.00    -0.021 Br
HETATM   12  S2  UNL     1     -21.938  33.547   3.635  1.00  0.00    -0.026 SA
ENDROOT
BRANCH   2  13
HETATM   13  C2  UNL     1     -22.023  35.897   0.174  1.00  0.00     0.081 C 
HETATM   14  C3  UNL     1     -22.892  35.540  -0.749  1.00  0.00     0.057 C 
BRANCH  14  15
HETATM   15  S1  UNL     1     -22.453  35.692  -2.467  1.00  0.00    -0.082 SA
BRANCH  15  16
HETATM   16  C4  UNL     1     -22.327  34.044  -3.141  1.00  0.00     0.098 A 
HETATM   17  C5  UNL     1     -22.611  33.689  -4.432  1.00  0.00     0.086 A 
HETATM   18  C6  UNL     1     -22.383  32.338  -4.524  1.00  0.00     0.147 A 
HETATM   19 BR1  UNL     1     -22.580  31.201  -6.038  1.00  0.00    -0.021 Br
HETATM   20  O2  UNL     1     -21.992  31.938  -3.358  1.00  0.00    -0.229 OA
HETATM   21  N1  UNL     1     -21.949  32.928  -2.519  1.00  0.00    -0.253 N 
ATOM     22  H1  UNL     1     -21.670  32.862  -1.540  1.00  0.00     0.195 HD
ENDBRANCH  15  16
ENDBRANCH  14  15
ENDBRANCH   2  13
TORSDOF 3
ENDMDL
