MODEL 1
REMARK VINA RESULT: -8.293793862      0.000      0.000
REMARK  4 active torsions:
REMARK  status: ('A' for Active; 'I' for Inactive)
REMARK    1  A    between atoms: C2_2  and  O1_3 
REMARK    2  A    between atoms: C2_2  and  C3_5 
REMARK    3  A    between atoms: C3_5  and  N1_6 
REMARK    4  A    between atoms: N2_13  and  C7_14 
ROOT
HETATM    1  N1  UNL     1     -21.346  33.698  -1.392  1.00  0.00    -0.262 N 
HETATM    2  C4  UNL     1     -21.826  34.951  -1.413  1.00  0.00     0.273 A 
HETATM    3  O2  UNL     1     -21.859  35.643  -2.467  1.00  0.00    -0.266 OA
HETATM    4  C5  UNL     1     -22.294  35.465  -0.212  1.00  0.00     0.135 A 
HETATM    5 BR1  UNL     1     -22.977  37.240  -0.229  1.00  0.00    -0.040 Br
HETATM    6  C6  UNL     1     -22.270  34.723   0.960  1.00  0.00     0.219 A 
HETATM    7  F1  UNL     1     -22.742  35.285   2.100  1.00  0.00    -0.184 F 
HETATM    8  N2  UNL     1     -21.777  33.475   0.916  1.00  0.00    -0.246 N 
HETATM    9  C16 UNL     1     -21.327  32.985  -0.248  1.00  0.00     0.336 A 
HETATM   10  O4  UNL     1     -20.864  31.814  -0.291  1.00  0.00    -0.246 OA
ENDROOT
BRANCH   8  11
HETATM   11  C7  UNL     1     -21.725  32.660   2.091  1.00  0.00     0.235 C 
HETATM   12  C8  UNL     1     -20.849  33.241   3.175  1.00  0.00     0.059 C 
HETATM   13  C9  UNL     1     -21.208  32.675   4.510  1.00  0.00    -0.004 C 
HETATM   14  C10 UNL     1     -22.087  33.596   5.306  1.00  0.00     0.005 C 
HETATM   15  C14 UNL     1     -21.826  31.307   4.336  1.00  0.00     0.014 C 
HETATM   16  C11 UNL     1     -22.351  32.998   6.651  1.00  0.00     0.000 C 
HETATM   17  C12 UNL     1     -22.989  31.639   6.532  1.00  0.00     0.000 C 
HETATM   18  C13 UNL     1     -22.208  30.701   5.643  1.00  0.00     0.007 C 
HETATM   19  C15 UNL     1     -22.984  31.321   3.377  1.00  0.00     0.175 C 
HETATM   20  O3  UNL     1     -23.006  32.509   2.661  1.00  0.00    -0.366 OA
ENDBRANCH   8  11
BRANCH   1  21
HETATM   21  C3  UNL     1     -20.832  33.091  -2.599  1.00  0.00     0.168 C 
BRANCH  21  22
HETATM   22  C2  UNL     1     -21.871  32.125  -3.117  1.00  0.00     0.132 C 
HETATM   23  C1  UNL     1     -22.416  32.678  -4.420  1.00  0.00     0.041 C 
BRANCH  22  24
HETATM   24  O1  UNL     1     -21.277  30.884  -3.291  1.00  0.00    -0.394 OA
ATOM     25  H1  UNL     1     -21.328  30.355  -2.504  1.00  0.00     0.210 HD
ENDBRANCH  22  24
ENDBRANCH  21  22
ENDBRANCH   1  21
TORSDOF 4
ENDMDL
MODEL 2
REMARK VINA RESULT: -8.024970876      2.785      6.524
REMARK  4 active torsions:
REMARK  status: ('A' for Active; 'I' for Inactive)
REMARK    1  A    between atoms: C2_2  and  O1_3 
REMARK    2  A    between atoms: C2_2  and  C3_5 
REMARK    3  A    between atoms: C3_5  and  N1_6 
REMARK    4  A    between atoms: N2_13  and  C7_14 
ROOT
HETATM    1  N1  UNL     1     -21.743  32.132   2.122  1.00  0.00    -0.262 N 
HETATM    2  C4  UNL     1     -21.481  31.373   1.047  1.00  0.00     0.273 A 
HETATM    3  O2  UNL     1     -21.283  30.130   1.131  1.00  0.00    -0.266 OA
HETATM    4  C5  UNL     1     -21.437  32.017  -0.181  1.00  0.00     0.135 A 
HETATM    5 BR1  UNL     1     -21.068  30.951  -1.713  1.00  0.00    -0.040 Br
HETATM    6  C6  UNL     1     -21.653  33.382  -0.299  1.00  0.00     0.219 A 
HETATM    7  F1  UNL     1     -21.595  33.950  -1.530  1.00  0.00    -0.184 F 
HETATM    8  N2  UNL     1     -21.909  34.087   0.813  1.00  0.00    -0.246 N 
HETATM    9  C16 UNL     1     -21.951  33.458   1.997  1.00  0.00     0.336 A 
HETATM   10  O4  UNL     1     -22.191  34.119   3.043  1.00  0.00    -0.246 OA
ENDROOT
BRANCH   8  11
HETATM   11  C7  UNL     1     -22.140  35.498   0.757  1.00  0.00     0.235 C 
HETATM   12  C8  UNL     1     -21.452  36.164  -0.411  1.00  0.00     0.059 C 
HETATM   13  C9  UNL     1     -22.100  37.470  -0.736  1.00  0.00    -0.004 C 
HETATM   14  C10 UNL     1     -23.050  37.366  -1.893  1.00  0.00     0.005 C 
HETATM   15  C14 UNL     1     -22.765  38.033   0.499  1.00  0.00     0.014 C 
HETATM   16  C11 UNL     1     -23.609  38.718  -2.205  1.00  0.00     0.000 C 
HETATM   17  C12 UNL     1     -24.304  39.314  -1.009  1.00  0.00     0.000 C 
HETATM   18  C13 UNL     1     -23.431  39.337   0.223  1.00  0.00     0.007 C 
HETATM   19  C15 UNL     1     -23.713  37.054   1.134  1.00  0.00     0.175 C 
HETATM   20  O3  UNL     1     -23.515  35.782   0.616  1.00  0.00    -0.366 OA
ENDBRANCH   8  11
BRANCH   1  21
HETATM   21  C3  UNL     1     -21.798  31.541   3.440  1.00  0.00     0.168 C 
BRANCH  21  22
HETATM   22  C2  UNL     1     -23.188  30.987   3.646  1.00  0.00     0.132 C 
HETATM   23  C1  UNL     1     -23.055  29.591   4.225  1.00  0.00     0.041 C 
BRANCH  22  24
HETATM   24  O1  UNL     1     -23.882  31.834   4.497  1.00  0.00    -0.394 OA
ATOM     25  H1  UNL     1     -23.710  32.748   4.304  1.00  0.00     0.210 HD
ENDBRANCH  22  24
ENDBRANCH  21  22
ENDBRANCH   1  21
TORSDOF 4
ENDMDL
MODEL 3
REMARK VINA RESULT: -7.953505469      3.514      6.767
REMARK  4 active torsions:
REMARK  status: ('A' for Active; 'I' for Inactive)
REMARK    1  A    between atoms: C2_2  and  O1_3 
REMARK    2  A    between atoms: C2_2  and  C3_5 
REMARK    3  A    between atoms: C3_5  and  N1_6 
REMARK    4  A    between atoms: N2_13  and  C7_14 
ROOT
HETATM    1  N1  UNL     1     -22.624  31.472   4.165  1.00  0.00    -0.262 N 
HETATM    2  C4  UNL     1     -22.340  30.650   3.143  1.00  0.00     0.273 A 
HETATM    3  O2  UNL     1     -22.318  29.396   3.271  1.00  0.00    -0.266 OA
HETATM    4  C5  UNL     1     -22.069  31.243   1.918  1.00  0.00     0.135 A 
HETATM    5 BR1  UNL     1     -21.666  30.090   0.460  1.00  0.00    -0.040 Br
HETATM    6  C6  UNL     1     -22.089  32.620   1.751  1.00  0.00     0.219 A 
HETATM    7  F1  UNL     1     -21.814  33.135   0.527  1.00  0.00    -0.184 F 
HETATM    8  N2  UNL     1     -22.380  33.388   2.813  1.00  0.00    -0.246 N 
HETATM    9  C16 UNL     1     -22.641  32.808   3.994  1.00  0.00     0.336 A 
HETATM   10  O4  UNL     1     -22.914  33.528   4.991  1.00  0.00    -0.246 OA
ENDROOT
BRANCH   8  11
HETATM   11  C7  UNL     1     -22.416  34.814   2.705  1.00  0.00     0.235 C 
HETATM   12  C8  UNL     1     -21.475  35.352   1.654  1.00  0.00     0.059 C 
HETATM   13  C9  UNL     1     -21.891  36.718   1.215  1.00  0.00    -0.004 C 
HETATM   14  C10 UNL     1     -22.655  36.698  -0.076  1.00  0.00     0.005 C 
HETATM   15  C14 UNL     1     -22.662  37.398   2.323  1.00  0.00     0.014 C 
HETATM   16  C11 UNL     1     -22.981  38.098  -0.488  1.00  0.00     0.000 C 
HETATM   17  C12 UNL     1     -23.770  38.814   0.577  1.00  0.00     0.000 C 
HETATM   18  C13 UNL     1     -23.105  38.766   1.931  1.00  0.00     0.007 C 
HETATM   19  C15 UNL     1     -23.815  36.565   2.811  1.00  0.00     0.175 C 
HETATM   20  O3  UNL     1     -23.704  35.263   2.345  1.00  0.00    -0.366 OA
ENDBRANCH   8  11
BRANCH   1  21
HETATM   21  C3  UNL     1     -22.910  30.935   5.477  1.00  0.00     0.168 C 
BRANCH  21  22
HETATM   22  C2  UNL     1     -21.601  30.545   6.120  1.00  0.00     0.132 C 
HETATM   23  C1  UNL     1     -21.526  31.217   7.477  1.00  0.00     0.041 C 
BRANCH  22  24
HETATM   24  O1  UNL     1     -21.551  29.163   6.225  1.00  0.00    -0.394 OA
ATOM     25  H1  UNL     1     -22.302  28.750   5.813  1.00  0.00     0.210 HD
ENDBRANCH  22  24
ENDBRANCH  21  22
ENDBRANCH   1  21
TORSDOF 4
ENDMDL
MODEL 4
REMARK VINA RESULT: -7.936093478      2.119      2.604
REMARK  4 active torsions:
REMARK  status: ('A' for Active; 'I' for Inactive)
REMARK    1  A    between atoms: C2_2  and  O1_3 
REMARK    2  A    between atoms: C2_2  and  C3_5 
REMARK    3  A    between atoms: C3_5  and  N1_6 
REMARK    4  A    between atoms: N2_13  and  C7_14 
ROOT
HETATM    1  N1  UNL     1     -21.485  34.075  -2.195  1.00  0.00    -0.262 N 
HETATM    2  C4  UNL     1     -22.097  35.083  -2.836  1.00  0.00     0.273 A 
HETATM    3  O2  UNL     1     -22.085  35.189  -4.092  1.00  0.00    -0.266 OA
HETATM    4  C5  UNL     1     -22.757  36.017  -2.050  1.00  0.00     0.135 A 
HETATM    5 BR1  UNL     1     -23.630  37.450  -2.946  1.00  0.00    -0.040 Br
HETATM    6  C6  UNL     1     -22.786  35.920  -0.667  1.00  0.00     0.219 A 
HETATM    7  F1  UNL     1     -23.449  36.868   0.043  1.00  0.00    -0.184 F 
HETATM    8  N2  UNL     1     -22.154  34.889  -0.085  1.00  0.00    -0.246 N 
HETATM    9  C16 UNL     1     -21.518  33.989  -0.850  1.00  0.00     0.336 A 
HETATM   10  O4  UNL     1     -20.924  33.021  -0.306  1.00  0.00    -0.246 OA
ENDROOT
BRANCH   8  11
HETATM   11  C7  UNL     1     -22.147  34.734   1.337  1.00  0.00     0.235 C 
HETATM   12  C8  UNL     1     -21.154  35.639   2.026  1.00  0.00     0.059 C 
HETATM   13  C9  UNL     1     -21.516  35.832   3.462  1.00  0.00    -0.004 C 
HETATM   14  C10 UNL     1     -22.233  37.128   3.705  1.00  0.00     0.005 C 
HETATM   15  C14 UNL     1     -22.308  34.642   3.954  1.00  0.00     0.014 C 
HETATM   16  C11 UNL     1     -22.505  37.285   5.167  1.00  0.00     0.000 C 
HETATM   17  C12 UNL     1     -23.313  36.132   5.702  1.00  0.00     0.000 C 
HETATM   18  C13 UNL     1     -22.698  34.790   5.385  1.00  0.00     0.007 C 
HETATM   19  C15 UNL     1     -23.500  34.351   3.086  1.00  0.00     0.175 C 
HETATM   20  O3  UNL     1     -23.408  35.045   1.887  1.00  0.00    -0.366 OA
ENDBRANCH   8  11
BRANCH   1  21
HETATM   21  C3  UNL     1     -20.768  33.063  -2.939  1.00  0.00     0.168 C 
BRANCH  21  22
HETATM   22  C2  UNL     1     -21.714  31.916  -3.201  1.00  0.00     0.132 C 
HETATM   23  C1  UNL     1     -21.748  31.669  -4.696  1.00  0.00     0.041 C 
BRANCH  22  24
HETATM   24  O1  UNL     1     -21.268  30.803  -2.504  1.00  0.00    -0.394 OA
ATOM     25  H1  UNL     1     -20.702  30.257  -3.036  1.00  0.00     0.210 HD
ENDBRANCH  22  24
ENDBRANCH  21  22
ENDBRANCH   1  21
TORSDOF 4
ENDMDL
MODEL 5
REMARK VINA RESULT: -7.935766559      2.221      3.582
REMARK  4 active torsions:
REMARK  status: ('A' for Active; 'I' for Inactive)
REMARK    1  A    between atoms: C2_2  and  O1_3 
REMARK    2  A    between atoms: C2_2  and  C3_5 
REMARK    3  A    between atoms: C3_5  and  N1_6 
REMARK    4  A    between atoms: N2_13  and  C7_14 
ROOT
HETATM    1  N1  UNL     1     -21.734  35.702  -0.817  1.00  0.00    -0.262 N 
HETATM    2  C4  UNL     1     -21.657  34.788  -1.797  1.00  0.00     0.273 A 
HETATM    3  O2  UNL     1     -21.579  35.109  -3.014  1.00  0.00    -0.266 OA
HETATM    4  C5  UNL     1     -21.665  33.454  -1.415  1.00  0.00     0.135 A 
HETATM    5 BR1  UNL     1     -21.556  32.150  -2.794  1.00  0.00    -0.040 Br
HETATM    6  C6  UNL     1     -21.748  33.076  -0.082  1.00  0.00     0.219 A 
HETATM    7  F1  UNL     1     -21.751  31.755   0.224  1.00  0.00    -0.184 F 
HETATM    8  N2  UNL     1     -21.823  34.037   0.851  1.00  0.00    -0.246 N 
HETATM    9  C16 UNL     1     -21.814  35.324   0.474  1.00  0.00     0.336 A 
HETATM   10  O4  UNL     1     -21.885  36.228   1.349  1.00  0.00    -0.246 OA
ENDROOT
BRANCH   8  11
HETATM   11  C7  UNL     1     -21.910  33.712   2.241  1.00  0.00     0.235 C 
HETATM   12  C8  UNL     1     -23.159  32.938   2.590  1.00  0.00     0.059 C 
HETATM   13  C9  UNL     1     -22.984  32.192   3.872  1.00  0.00    -0.004 C 
HETATM   14  C10 UNL     1     -22.651  30.745   3.654  1.00  0.00     0.005 C 
HETATM   15  C14 UNL     1     -21.955  32.890   4.732  1.00  0.00     0.014 C 
HETATM   16  C11 UNL     1     -22.555  30.048   4.973  1.00  0.00     0.000 C 
HETATM   17  C12 UNL     1     -21.525  30.693   5.862  1.00  0.00     0.000 C 
HETATM   18  C13 UNL     1     -21.740  32.179   6.025  1.00  0.00     0.007 C 
HETATM   19  C15 UNL     1     -20.659  33.113   4.005  1.00  0.00     0.175 C 
HETATM   20  O3  UNL     1     -20.825  32.905   2.643  1.00  0.00    -0.366 OA
ENDBRANCH   8  11
BRANCH   1  21
HETATM   21  C3  UNL     1     -21.740  37.113  -1.131  1.00  0.00     0.168 C 
BRANCH  21  22
HETATM   22  C2  UNL     1     -23.157  37.513  -1.464  1.00  0.00     0.132 C 
HETATM   23  C1  UNL     1     -23.477  38.783  -0.701  1.00  0.00     0.041 C 
BRANCH  22  24
HETATM   24  O1  UNL     1     -23.258  37.695  -2.835  1.00  0.00    -0.394 OA
ATOM     25  H1  UNL     1     -22.513  37.326  -3.296  1.00  0.00     0.210 HD
ENDBRANCH  22  24
ENDBRANCH  21  22
ENDBRANCH   1  21
TORSDOF 4
ENDMDL
