MODEL 1
REMARK VINA RESULT: -7.655371327      0.000      0.000
REMARK  6 active torsions:
REMARK  status: ('A' for Active; 'I' for Inactive)
REMARK    1  A    between atoms: C2_2  and  O2_4 
REMARK    2  A    between atoms: O2_4  and  C3_5 
REMARK    3  A    between atoms: C5_7  and  C6_8 
REMARK    4  A    between atoms: C11_13  and  O3_14 
REMARK    5  A    between atoms: O3_14  and  C12_15 
REMARK    6  A    between atoms: C12_15  and  N2_19 
ROOT
HETATM    1  C3  UNL     1     -22.153  32.138   2.139  1.00  0.00     0.198 C 
HETATM    2  C4  UNL     1     -21.960  31.815   3.595  1.00  0.00     0.013 C 
HETATM    3  C5  UNL     1     -21.416  32.832   4.241  1.00  0.00    -0.063 C 
HETATM    4  C9  UNL     1     -21.188  33.907   3.297  1.00  0.00     0.048 C 
HETATM    5  C10 UNL     1     -19.782  33.882   2.720  1.00  0.00     0.026 C 
HETATM    6  C11 UNL     1     -21.463  35.302   3.781  1.00  0.00     0.150 C 
HETATM    7  C13 UNL     1     -21.536  36.198   2.582  1.00  0.00     0.071 C 
HETATM    8  C14 UNL     1     -22.150  35.611   1.364  1.00  0.00     0.068 C 
HETATM    9  C15 UNL     1     -21.969  36.544   0.214  1.00  0.00     0.046 C 
HETATM   10  C16 UNL     1     -23.639  35.390   1.674  1.00  0.00     0.119 C 
HETATM   11  C17 UNL     1     -23.530  34.125   2.455  1.00  0.00     0.168 C 
HETATM   12  O4  UNL     1     -24.413  33.665   3.140  1.00  0.00    -0.294 OA
HETATM   13  C18 UNL     1     -22.179  33.631   2.192  1.00  0.00     0.165 C 
HETATM   14  O5  UNL     1     -21.734  34.304   1.085  1.00  0.00    -0.357 OA
ENDROOT
BRANCH   6  15
HETATM   15  O3  UNL     1     -22.577  35.337   4.613  1.00  0.00    -0.313 OA
BRANCH  15  16
HETATM   16  C12 UNL     1     -23.020  36.452   5.294  1.00  0.00     0.259 C 
HETATM   17  N1  UNL     1     -24.286  36.694   5.251  1.00  0.00    -0.186 N 
HETATM   18  F1  UNL     1     -24.853  37.749   5.871  1.00  0.00    -0.098 F 
ATOM     19  H1  UNL     1     -24.886  36.059   4.723  1.00  0.00     0.203 HD
BRANCH  16  20
HETATM   20  N2  UNL     1     -22.077  37.242   5.983  1.00  0.00    -0.262 N 
HETATM   21 CL1  UNL     1     -21.755  38.851   5.433  1.00  0.00     0.014 Cl
ATOM     22  H2  UNL     1     -21.589  36.869   6.797  1.00  0.00     0.184 HD
ENDBRANCH  16  20
ENDBRANCH  15  16
ENDBRANCH   6  15
BRANCH   3  23
HETATM   23  C6  UNL     1     -21.075  32.882   5.703  1.00  0.00     0.007 C 
HETATM   24  C7  UNL     1     -19.972  31.905   6.049  1.00  0.00     0.014 C 
HETATM   25  C8  UNL     1     -22.309  32.512   6.499  1.00  0.00     0.014 C 
ENDBRANCH   3  23
BRANCH   1  26
HETATM   26  O2  UNL     1     -21.156  31.620   1.329  1.00  0.00    -0.309 OA
BRANCH  26  27
HETATM   27  C2  UNL     1     -21.328  30.561   0.467  1.00  0.00     0.255 C 
HETATM   28  C1  UNL     1     -20.891  30.539  -0.941  1.00  0.00     0.126 C 
HETATM   29  O1  UNL     1     -21.908  29.534   0.942  1.00  0.00    -0.266 OA
ENDBRANCH  26  27
ENDBRANCH   1  26
TORSDOF 6
ENDMDL
MODEL 2
REMARK VINA RESULT: -7.565782261      0.898      1.108
REMARK  6 active torsions:
REMARK  status: ('A' for Active; 'I' for Inactive)
REMARK    1  A    between atoms: C2_2  and  O2_4 
REMARK    2  A    between atoms: O2_4  and  C3_5 
REMARK    3  A    between atoms: C5_7  and  C6_8 
REMARK    4  A    between atoms: C11_13  and  O3_14 
REMARK    5  A    between atoms: O3_14  and  C12_15 
REMARK    6  A    between atoms: C12_15  and  N2_19 
ROOT
HETATM    1  C3  UNL     1     -22.117  32.156   2.098  1.00  0.00     0.198 C 
HETATM    2  C4  UNL     1     -21.933  31.851   3.559  1.00  0.00     0.013 C 
HETATM    3  C5  UNL     1     -21.386  32.872   4.194  1.00  0.00    -0.063 C 
HETATM    4  C9  UNL     1     -21.145  33.933   3.238  1.00  0.00     0.048 C 
HETATM    5  C10 UNL     1     -19.737  33.891   2.668  1.00  0.00     0.026 C 
HETATM    6  C11 UNL     1     -21.412  35.337   3.703  1.00  0.00     0.150 C 
HETATM    7  C13 UNL     1     -21.473  36.218   2.492  1.00  0.00     0.071 C 
HETATM    8  C14 UNL     1     -22.085  35.620   1.278  1.00  0.00     0.068 C 
HETATM    9  C15 UNL     1     -21.892  36.536   0.118  1.00  0.00     0.046 C 
HETATM   10  C16 UNL     1     -23.577  35.413   1.584  1.00  0.00     0.119 C 
HETATM   11  C17 UNL     1     -23.481  34.158   2.381  1.00  0.00     0.168 C 
HETATM   12  O4  UNL     1     -24.371  33.712   3.068  1.00  0.00    -0.294 OA
HETATM   13  C18 UNL     1     -22.133  33.650   2.132  1.00  0.00     0.165 C 
HETATM   14  O5  UNL     1     -21.678  34.306   1.019  1.00  0.00    -0.357 OA
ENDROOT
BRANCH   6  15
HETATM   15  O3  UNL     1     -22.530  35.390   4.529  1.00  0.00    -0.313 OA
BRANCH  15  16
HETATM   16  C12 UNL     1     -22.927  36.496   5.250  1.00  0.00     0.259 C 
HETATM   17  N1  UNL     1     -21.999  37.160   5.853  1.00  0.00    -0.186 N 
HETATM   18  F1  UNL     1     -22.247  38.261   6.592  1.00  0.00    -0.098 F 
ATOM     19  H1  UNL     1     -21.035  36.837   5.767  1.00  0.00     0.203 HD
BRANCH  16  20
HETATM   20  N2  UNL     1     -24.297  36.827   5.283  1.00  0.00    -0.262 N 
HETATM   21 CL1  UNL     1     -24.992  37.695   3.957  1.00  0.00     0.014 Cl
ATOM     22  H2  UNL     1     -24.873  36.558   6.081  1.00  0.00     0.184 HD
ENDBRANCH  16  20
ENDBRANCH  15  16
ENDBRANCH   6  15
BRANCH   3  23
HETATM   23  C6  UNL     1     -21.052  32.938   5.657  1.00  0.00     0.007 C 
HETATM   24  C7  UNL     1     -19.992  31.924   6.031  1.00  0.00     0.014 C 
HETATM   25  C8  UNL     1     -22.304  32.636   6.453  1.00  0.00     0.014 C 
ENDBRANCH   3  23
BRANCH   1  26
HETATM   26  O2  UNL     1     -21.120  31.621   1.299  1.00  0.00    -0.309 OA
BRANCH  26  27
HETATM   27  C2  UNL     1     -21.299  30.562   0.440  1.00  0.00     0.255 C 
HETATM   28  C1  UNL     1     -20.871  30.538  -0.971  1.00  0.00     0.126 C 
HETATM   29  O1  UNL     1     -21.877  29.536   0.920  1.00  0.00    -0.266 OA
ENDBRANCH  26  27
ENDBRANCH   1  26
TORSDOF 6
ENDMDL
MODEL 3
REMARK VINA RESULT: -7.332588867      3.099      4.669
REMARK  6 active torsions:
REMARK  status: ('A' for Active; 'I' for Inactive)
REMARK    1  A    between atoms: C2_2  and  O2_4 
REMARK    2  A    between atoms: O2_4  and  C3_5 
REMARK    3  A    between atoms: C5_7  and  C6_8 
REMARK    4  A    between atoms: C11_13  and  O3_14 
REMARK    5  A    between atoms: O3_14  and  C12_15 
REMARK    6  A    between atoms: C12_15  and  N2_19 
ROOT
HETATM    1  C3  UNL     1     -21.057  33.043   4.362  1.00  0.00     0.198 C 
HETATM    2  C4  UNL     1     -20.848  32.185   3.145  1.00  0.00     0.013 C 
HETATM    3  C5  UNL     1     -21.794  32.395   2.245  1.00  0.00    -0.063 C 
HETATM    4  C9  UNL     1     -22.713  33.385   2.768  1.00  0.00     0.048 C 
HETATM    5  C10 UNL     1     -23.906  32.755   3.468  1.00  0.00     0.026 C 
HETATM    6  C11 UNL     1     -23.236  34.403   1.795  1.00  0.00     0.150 C 
HETATM    7  C13 UNL     1     -23.841  35.525   2.584  1.00  0.00     0.071 C 
HETATM    8  C14 UNL     1     -23.157  35.872   3.856  1.00  0.00     0.068 C 
HETATM    9  C15 UNL     1     -23.981  36.856   4.614  1.00  0.00     0.046 C 
HETATM   10  C16 UNL     1     -21.788  36.463   3.481  1.00  0.00     0.119 C 
HETATM   11  C17 UNL     1     -21.051  35.195   3.215  1.00  0.00     0.168 C 
HETATM   12  O4  UNL     1     -19.987  35.128   2.644  1.00  0.00    -0.294 OA
HETATM   13  C18 UNL     1     -21.889  34.141   3.783  1.00  0.00     0.165 C 
HETATM   14  O5  UNL     1     -22.773  34.765   4.622  1.00  0.00    -0.357 OA
ENDROOT
BRANCH   6  15
HETATM   15  O3  UNL     1     -22.253  34.784   0.887  1.00  0.00    -0.313 OA
BRANCH  15  16
HETATM   16  C12 UNL     1     -22.466  35.578  -0.220  1.00  0.00     0.259 C 
HETATM   17  N1  UNL     1     -23.041  35.023  -1.232  1.00  0.00    -0.186 N 
HETATM   18  F1  UNL     1     -23.310  35.684  -2.377  1.00  0.00    -0.098 F 
ATOM     19  H1  UNL     1     -23.305  34.040  -1.164  1.00  0.00     0.203 HD
BRANCH  16  20
HETATM   20  N2  UNL     1     -22.049  36.925  -0.176  1.00  0.00    -0.262 N 
HETATM   21 CL1  UNL     1     -23.197  38.155   0.227  1.00  0.00     0.014 Cl
ATOM     22  H2  UNL     1     -21.081  37.171  -0.381  1.00  0.00     0.184 HD
ENDBRANCH  16  20
ENDBRANCH  15  16
ENDBRANCH   6  15
BRANCH   3  23
HETATM   23  C6  UNL     1     -21.918  31.725   0.908  1.00  0.00     0.007 C 
HETATM   24  C7  UNL     1     -22.022  30.221   1.048  1.00  0.00     0.014 C 
HETATM   25  C8  UNL     1     -20.683  32.044   0.091  1.00  0.00     0.014 C 
ENDBRANCH   3  23
BRANCH   1  26
HETATM   26  O2  UNL     1     -21.664  32.368   5.408  1.00  0.00    -0.309 OA
BRANCH  26  27
HETATM   27  C2  UNL     1     -21.449  31.042   5.704  1.00  0.00     0.255 C 
HETATM   28  C1  UNL     1     -22.316  29.930   5.272  1.00  0.00     0.126 C 
HETATM   29  O1  UNL     1     -20.421  30.777   6.403  1.00  0.00    -0.266 OA
ENDBRANCH  26  27
ENDBRANCH   1  26
TORSDOF 6
ENDMDL
MODEL 4
REMARK VINA RESULT: -7.314030439      3.352      4.871
REMARK  6 active torsions:
REMARK  status: ('A' for Active; 'I' for Inactive)
REMARK    1  A    between atoms: C2_2  and  O2_4 
REMARK    2  A    between atoms: O2_4  and  C3_5 
REMARK    3  A    between atoms: C5_7  and  C6_8 
REMARK    4  A    between atoms: C11_13  and  O3_14 
REMARK    5  A    between atoms: O3_14  and  C12_15 
REMARK    6  A    between atoms: C12_15  and  N2_19 
ROOT
HETATM    1  C3  UNL     1     -21.080  33.034   4.330  1.00  0.00     0.198 C 
HETATM    2  C4  UNL     1     -20.858  32.180   3.113  1.00  0.00     0.013 C 
HETATM    3  C5  UNL     1     -21.779  32.412   2.193  1.00  0.00    -0.063 C 
HETATM    4  C9  UNL     1     -22.693  33.414   2.701  1.00  0.00     0.048 C 
HETATM    5  C10 UNL     1     -23.913  32.802   3.370  1.00  0.00     0.026 C 
HETATM    6  C11 UNL     1     -23.175  34.448   1.723  1.00  0.00     0.150 C 
HETATM    7  C13 UNL     1     -23.778  35.575   2.504  1.00  0.00     0.071 C 
HETATM    8  C14 UNL     1     -23.117  35.903   3.793  1.00  0.00     0.068 C 
HETATM    9  C15 UNL     1     -23.941  36.898   4.538  1.00  0.00     0.046 C 
HETATM   10  C16 UNL     1     -21.729  36.471   3.453  1.00  0.00     0.119 C 
HETATM   11  C17 UNL     1     -21.009  35.192   3.196  1.00  0.00     0.168 C 
HETATM   12  O4  UNL     1     -19.934  35.109   2.649  1.00  0.00    -0.294 OA
HETATM   13  C18 UNL     1     -21.879  34.150   3.739  1.00  0.00     0.165 C 
HETATM   14  O5  UNL     1     -22.770  34.785   4.561  1.00  0.00    -0.357 OA
ENDROOT
BRANCH   6  15
HETATM   15  O3  UNL     1     -22.165  34.815   0.839  1.00  0.00    -0.313 OA
BRANCH  15  16
HETATM   16  C12 UNL     1     -22.354  35.541  -0.318  1.00  0.00     0.259 C 
HETATM   17  N1  UNL     1     -22.129  36.810  -0.252  1.00  0.00    -0.186 N 
HETATM   18  F1  UNL     1     -22.274  37.637  -1.307  1.00  0.00    -0.098 F 
ATOM     19  H1  UNL     1     -21.829  37.205   0.640  1.00  0.00     0.203 HD
BRANCH  16  20
HETATM   20  N2  UNL     1     -22.772  34.863  -1.481  1.00  0.00    -0.262 N 
HETATM   21 CL1  UNL     1     -21.609  34.475  -2.702  1.00  0.00     0.014 Cl
ATOM     22  H2  UNL     1     -23.751  34.604  -1.602  1.00  0.00     0.184 HD
ENDBRANCH  16  20
ENDBRANCH  15  16
ENDBRANCH   6  15
BRANCH   3  23
HETATM   23  C6  UNL     1     -21.885  31.751   0.849  1.00  0.00     0.007 C 
HETATM   24  C7  UNL     1     -22.030  30.249   0.978  1.00  0.00     0.014 C 
HETATM   25  C8  UNL     1     -20.621  32.043   0.067  1.00  0.00     0.014 C 
ENDBRANCH   3  23
BRANCH   1  26
HETATM   26  O2  UNL     1     -21.722  32.364   5.358  1.00  0.00    -0.309 OA
BRANCH  26  27
HETATM   27  C2  UNL     1     -21.516  31.040   5.670  1.00  0.00     0.255 C 
HETATM   28  C1  UNL     1     -22.368  29.924   5.218  1.00  0.00     0.126 C 
HETATM   29  O1  UNL     1     -20.510  30.781   6.402  1.00  0.00    -0.266 OA
ENDBRANCH  26  27
ENDBRANCH   1  26
TORSDOF 6
ENDMDL
MODEL 5
REMARK VINA RESULT: -7.280790059      3.075      4.624
REMARK  6 active torsions:
REMARK  status: ('A' for Active; 'I' for Inactive)
REMARK    1  A    between atoms: C2_2  and  O2_4 
REMARK    2  A    between atoms: O2_4  and  C3_5 
REMARK    3  A    between atoms: C5_7  and  C6_8 
REMARK    4  A    between atoms: C11_13  and  O3_14 
REMARK    5  A    between atoms: O3_14  and  C12_15 
REMARK    6  A    between atoms: C12_15  and  N2_19 
ROOT
HETATM    1  C3  UNL     1     -22.762  35.321   0.835  1.00  0.00     0.198 C 
HETATM    2  C4  UNL     1     -22.524  33.873   0.508  1.00  0.00     0.013 C 
HETATM    3  C5  UNL     1     -21.794  33.287   1.441  1.00  0.00    -0.063 C 
HETATM    4  C9  UNL     1     -21.471  34.269   2.455  1.00  0.00     0.048 C 
HETATM    5  C10 UNL     1     -20.125  34.933   2.211  1.00  0.00     0.026 C 
HETATM    6  C11 UNL     1     -21.502  33.802   3.883  1.00  0.00     0.150 C 
HETATM    7  C13 UNL     1     -21.519  35.015   4.763  1.00  0.00     0.071 C 
HETATM    8  C14 UNL     1     -22.291  36.178   4.258  1.00  0.00     0.068 C 
HETATM    9  C15 UNL     1     -22.050  37.359   5.136  1.00  0.00     0.046 C 
HETATM   10  C16 UNL     1     -23.773  35.770   4.267  1.00  0.00     0.119 C 
HETATM   11  C17 UNL     1     -23.804  34.968   3.012  1.00  0.00     0.168 C 
HETATM   12  O4  UNL     1     -24.699  34.218   2.699  1.00  0.00    -0.294 OA
HETATM   13  C18 UNL     1     -22.562  35.303   2.316  1.00  0.00     0.165 C 
HETATM   14  O5  UNL     1     -22.095  36.451   2.898  1.00  0.00    -0.357 OA
ENDROOT
BRANCH   6  15
HETATM   15  O3  UNL     1     -22.541  32.903   4.097  1.00  0.00    -0.313 OA
BRANCH  15  16
HETATM   16  C12 UNL     1     -22.633  32.043   5.171  1.00  0.00     0.259 C 
HETATM   17  N1  UNL     1     -23.510  32.329   6.072  1.00  0.00    -0.186 N 
HETATM   18  F1  UNL     1     -23.705  31.574   7.172  1.00  0.00    -0.098 F 
ATOM     19  H1  UNL     1     -24.082  33.165   5.946  1.00  0.00     0.203 HD
BRANCH  16  20
HETATM   20  N2  UNL     1     -21.777  30.923   5.215  1.00  0.00    -0.262 N 
HETATM   21 CL1  UNL     1     -22.425  29.347   4.916  1.00  0.00     0.014 Cl
ATOM     22  H2  UNL     1     -20.785  31.041   5.423  1.00  0.00     0.184 HD
ENDBRANCH  16  20
ENDBRANCH  15  16
ENDBRANCH   6  15
BRANCH   3  23
HETATM   23  C6  UNL     1     -21.354  31.851   1.459  1.00  0.00     0.007 C 
HETATM   24  C7  UNL     1     -20.710  31.451   0.149  1.00  0.00     0.014 C 
HETATM   25  C8  UNL     1     -22.571  30.977   1.681  1.00  0.00     0.014 C 
ENDBRANCH   3  23
BRANCH   1  26
HETATM   26  O2  UNL     1     -21.909  36.180   0.162  1.00  0.00    -0.309 OA
BRANCH  26  27
HETATM   27  C2  UNL     1     -22.219  36.813  -1.020  1.00  0.00     0.255 C 
HETATM   28  C1  UNL     1     -22.695  38.204  -1.132  1.00  0.00     0.126 C 
HETATM   29  O1  UNL     1     -22.075  36.130  -2.082  1.00  0.00    -0.266 OA
ENDBRANCH  26  27
ENDBRANCH   1  26
TORSDOF 6
ENDMDL
