MODEL 1
REMARK VINA RESULT: -8.693671001      0.000      0.000
REMARK  4 active torsions:
REMARK  status: ('A' for Active; 'I' for Inactive)
REMARK    1  A    between atoms: C2_2  and  C13_25 
REMARK    2  A    between atoms: N1_3  and  N2_5 
REMARK       I    between atoms: N2_5  and  C3_7 
REMARK    3  A    between atoms: C3_7  and  C4_9 
REMARK    4  A    between atoms: C7_13  and  S1_14 
ROOT
HETATM    1  C4  UNL     1     -22.399  34.387   2.069  1.00  0.00     0.059 C 
HETATM    2  C5  UNL     1     -22.444  34.876   0.783  1.00  0.00     0.075 C 
HETATM    3  C6  UNL     1     -22.156  34.394  -0.497  1.00  0.00     0.196 C 
HETATM    4  O2  UNL     1     -22.303  35.247  -1.396  1.00  0.00    -0.287 OA
HETATM    5  C7  UNL     1     -21.740  33.191  -1.027  1.00  0.00     0.134 C 
HETATM    6  C9  UNL     1     -21.506  31.931  -0.514  1.00  0.00     0.109 C 
HETATM    7 CL1  UNL     1     -20.961  30.786  -1.725  1.00  0.00    -0.078 Cl
HETATM    8  C10 UNL     1     -21.615  31.398   0.758  1.00  0.00     0.196 C 
HETATM    9  O5  UNL     1     -21.313  30.177   0.749  1.00  0.00    -0.287 OA
HETATM   10  C11 UNL     1     -21.962  31.835   2.024  1.00  0.00     0.081 C 
HETATM   11  C12 UNL     1     -22.150  33.094   2.532  1.00  0.00     0.053 C 
HETATM   12 CL2  UNL     1     -22.058  33.133   4.292  1.00  0.00    -0.083 Cl
ENDROOT
BRANCH   1  13
HETATM   13  C3  UNL     1     -22.644  35.349   3.109  1.00  0.00     0.271 C 
HETATM   14  N2  UNL     1     -23.928  35.601   3.666  1.00  0.00    -0.266 N 
ATOM     15  H2  UNL     1     -24.728  35.075   3.316  1.00  0.00     0.190 HD
HETATM   16  O1  UNL     1     -21.682  36.013   3.562  1.00  0.00    -0.266 OA
BRANCH  14  17
HETATM   17  N1  UNL     1     -24.128  36.534   4.665  1.00  0.00    -0.303 N 
HETATM   18  C2  UNL     1     -24.586  37.718   4.473  1.00  0.00     0.038 C 
HETATM   19  C1  UNL     1     -24.952  38.204   3.111  1.00  0.00     0.068 C 
ATOM     20  H1  UNL     1     -23.897  36.264   5.621  1.00  0.00     0.186 HD
BRANCH  18  21
HETATM   21  C13 UNL     1     -24.758  38.620   5.615  1.00  0.00     0.135 C 
HETATM   22  C14 UNL     1     -24.886  40.069   5.203  1.00  0.00     0.058 C 
HETATM   23  C15 UNL     1     -23.547  38.426   6.530  1.00  0.00     0.058 C 
HETATM   24  F1  UNL     1     -25.855  38.242   6.339  1.00  0.00    -0.237 F 
ENDBRANCH  18  21
ENDBRANCH  14  17
ENDBRANCH   1  13
BRANCH   5  25
HETATM   25  S1  UNL     1     -21.451  33.317  -2.747  1.00  0.00     0.177 S 
HETATM   26  C8  UNL     1     -22.106  34.840  -3.398  1.00  0.00     0.167 C 
HETATM   27  O3  UNL     1     -19.967  33.321  -3.057  1.00  0.00    -0.223 OA
HETATM   28  O4  UNL     1     -22.107  32.180  -3.470  1.00  0.00    -0.223 OA
ENDBRANCH   5  25
TORSDOF 4
ENDMDL
MODEL 2
REMARK VINA RESULT: -8.648112776      3.282      4.644
REMARK  4 active torsions:
REMARK  status: ('A' for Active; 'I' for Inactive)
REMARK    1  A    between atoms: C2_2  and  C13_25 
REMARK    2  A    between atoms: N1_3  and  N2_5 
REMARK       I    between atoms: N2_5  and  C3_7 
REMARK    3  A    between atoms: C3_7  and  C4_9 
REMARK    4  A    between atoms: C7_13  and  S1_14 
ROOT
HETATM    1  C4  UNL     1     -22.098  34.260   2.107  1.00  0.00     0.059 C 
HETATM    2  C5  UNL     1     -21.501  33.245   1.393  1.00  0.00     0.075 C 
HETATM    3  C6  UNL     1     -21.336  32.912   0.047  1.00  0.00     0.196 C 
HETATM    4  O2  UNL     1     -20.747  31.826  -0.130  1.00  0.00    -0.287 OA
HETATM    5  C7  UNL     1     -21.669  33.490  -1.160  1.00  0.00     0.134 C 
HETATM    6  C9  UNL     1     -22.243  34.687  -1.540  1.00  0.00     0.109 C 
HETATM    7 CL1  UNL     1     -22.426  34.842  -3.277  1.00  0.00    -0.078 Cl
HETATM    8  C10 UNL     1     -22.700  35.780  -0.824  1.00  0.00     0.196 C 
HETATM    9  O5  UNL     1     -23.131  36.666  -1.607  1.00  0.00    -0.287 OA
HETATM   10  C11 UNL     1     -22.812  36.162   0.500  1.00  0.00     0.081 C 
HETATM   11  C12 UNL     1     -22.671  35.454   1.666  1.00  0.00     0.053 C 
HETATM   12 CL2  UNL     1     -23.424  36.261   3.041  1.00  0.00    -0.083 Cl
ENDROOT
BRANCH   1  13
HETATM   13  C3  UNL     1     -22.147  34.073   3.532  1.00  0.00     0.271 C 
HETATM   14  N2  UNL     1     -23.110  33.261   4.191  1.00  0.00    -0.266 N 
ATOM     15  H2  UNL     1     -23.811  32.777   3.631  1.00  0.00     0.190 HD
HETATM   16  O1  UNL     1     -21.299  34.654   4.250  1.00  0.00    -0.266 OA
BRANCH  14  17
HETATM   17  N1  UNL     1     -23.128  33.104   5.563  1.00  0.00    -0.303 N 
HETATM   18  C2  UNL     1     -22.731  32.051   6.180  1.00  0.00     0.038 C 
HETATM   19  C1  UNL     1     -22.198  30.868   5.445  1.00  0.00     0.068 C 
ATOM     20  H1  UNL     1     -23.482  33.878   6.125  1.00  0.00     0.186 HD
BRANCH  18  21
HETATM   21  C13 UNL     1     -22.797  32.003   7.643  1.00  0.00     0.135 C 
HETATM   22  C14 UNL     1     -24.214  31.917   8.163  1.00  0.00     0.058 C 
HETATM   23  C15 UNL     1     -22.108  33.264   8.168  1.00  0.00     0.058 C 
HETATM   24  F1  UNL     1     -22.066  30.942   8.102  1.00  0.00    -0.237 F 
ENDBRANCH  18  21
ENDBRANCH  14  17
ENDBRANCH   1  13
BRANCH   5  25
HETATM   25  S1  UNL     1     -21.258  32.448  -2.503  1.00  0.00     0.177 S 
HETATM   26  C8  UNL     1     -20.928  30.788  -1.949  1.00  0.00     0.167 C 
HETATM   27  O3  UNL     1     -22.402  32.350  -3.493  1.00  0.00    -0.223 OA
HETATM   28  O4  UNL     1     -20.036  32.958  -3.203  1.00  0.00    -0.223 OA
ENDBRANCH   5  25
TORSDOF 4
ENDMDL
MODEL 3
REMARK VINA RESULT: -8.469518673      2.419      3.630
REMARK  4 active torsions:
REMARK  status: ('A' for Active; 'I' for Inactive)
REMARK    1  A    between atoms: C2_2  and  C13_25 
REMARK    2  A    between atoms: N1_3  and  N2_5 
REMARK       I    between atoms: N2_5  and  C3_7 
REMARK    3  A    between atoms: C3_7  and  C4_9 
REMARK    4  A    between atoms: C7_13  and  S1_14 
ROOT
HETATM    1  C4  UNL     1     -22.583  35.898   1.238  1.00  0.00     0.059 C 
HETATM    2  C5  UNL     1     -21.995  34.699   0.905  1.00  0.00     0.075 C 
HETATM    3  C6  UNL     1     -21.758  33.976  -0.267  1.00  0.00     0.196 C 
HETATM    4  O2  UNL     1     -21.217  32.868  -0.069  1.00  0.00    -0.287 OA
HETATM    5  C7  UNL     1     -21.975  34.180  -1.613  1.00  0.00     0.134 C 
HETATM    6  C9  UNL     1     -22.456  35.228  -2.373  1.00  0.00     0.109 C 
HETATM    7 CL1  UNL     1     -22.511  34.866  -4.087  1.00  0.00    -0.078 Cl
HETATM    8  C10 UNL     1     -22.900  36.498  -2.049  1.00  0.00     0.196 C 
HETATM    9  O5  UNL     1     -23.227  37.126  -3.089  1.00  0.00    -0.287 OA
HETATM   10  C11 UNL     1     -23.081  37.259  -0.908  1.00  0.00     0.081 C 
HETATM   11  C12 UNL     1     -23.058  36.925   0.421  1.00  0.00     0.053 C 
HETATM   12 CL2  UNL     1     -23.858  38.127   1.433  1.00  0.00    -0.083 Cl
ENDROOT
BRANCH   1  13
HETATM   13  C3  UNL     1     -22.740  36.144   2.646  1.00  0.00     0.271 C 
HETATM   14  N2  UNL     1     -21.785  36.838   3.439  1.00  0.00    -0.266 N 
ATOM     15  H2  UNL     1     -20.936  37.186   2.994  1.00  0.00     0.190 HD
HETATM   16  O1  UNL     1     -23.772  35.729   3.225  1.00  0.00    -0.266 OA
BRANCH  14  17
HETATM   17  N1  UNL     1     -21.967  37.056   4.790  1.00  0.00    -0.303 N 
HETATM   18  C2  UNL     1     -22.364  38.164   5.301  1.00  0.00     0.038 C 
HETATM   19  C1  UNL     1     -22.673  39.351   4.451  1.00  0.00     0.068 C 
ATOM     20  H1  UNL     1     -21.772  36.283   5.427  1.00  0.00     0.186 HD
BRANCH  18  21
HETATM   21  C13 UNL     1     -22.522  38.275   6.753  1.00  0.00     0.135 C 
HETATM   22  C14 UNL     1     -21.554  39.257   7.375  1.00  0.00     0.058 C 
HETATM   23  C15 UNL     1     -22.318  36.876   7.338  1.00  0.00     0.058 C 
HETATM   24  F1  UNL     1     -23.808  38.636   7.050  1.00  0.00    -0.237 F 
ENDBRANCH  18  21
ENDBRANCH  14  17
ENDBRANCH   1  13
BRANCH   5  25
HETATM   25  S1  UNL     1     -21.531  32.774  -2.553  1.00  0.00     0.177 S 
HETATM   26  C8  UNL     1     -21.628  31.290  -1.573  1.00  0.00     0.167 C 
HETATM   27  O3  UNL     1     -22.472  32.576  -3.725  1.00  0.00    -0.223 OA
HETATM   28  O4  UNL     1     -20.127  32.908  -3.059  1.00  0.00    -0.223 OA
ENDBRANCH   5  25
TORSDOF 4
ENDMDL
MODEL 4
REMARK VINA RESULT: -8.408939393      1.528      1.654
REMARK  4 active torsions:
REMARK  status: ('A' for Active; 'I' for Inactive)
REMARK    1  A    between atoms: C2_2  and  C13_25 
REMARK    2  A    between atoms: N1_3  and  N2_5 
REMARK       I    between atoms: N2_5  and  C3_7 
REMARK    3  A    between atoms: C3_7  and  C4_9 
REMARK    4  A    between atoms: C7_13  and  S1_14 
ROOT
HETATM    1  C4  UNL     1     -22.707  34.832   1.729  1.00  0.00     0.059 C 
HETATM    2  C5  UNL     1     -22.751  35.144   0.389  1.00  0.00     0.075 C 
HETATM    3  C6  UNL     1     -22.376  34.530  -0.809  1.00  0.00     0.196 C 
HETATM    4  O2  UNL     1     -22.567  35.242  -1.816  1.00  0.00    -0.287 OA
HETATM    5  C7  UNL     1     -21.837  33.312  -1.166  1.00  0.00     0.134 C 
HETATM    6  C9  UNL     1     -21.509  32.156  -0.486  1.00  0.00     0.109 C 
HETATM    7 CL1  UNL     1     -20.822  30.920  -1.522  1.00  0.00    -0.078 Cl
HETATM    8  C10 UNL     1     -21.615  31.785   0.843  1.00  0.00     0.196 C 
HETATM    9  O5  UNL     1     -21.205  30.606   1.001  1.00  0.00    -0.287 OA
HETATM   10  C11 UNL     1     -22.043  32.347   2.031  1.00  0.00     0.081 C 
HETATM   11  C12 UNL     1     -22.361  33.639   2.364  1.00  0.00     0.053 C 
HETATM   12 CL2  UNL     1     -22.335  33.913   4.105  1.00  0.00    -0.083 Cl
ENDROOT
BRANCH   1  13
HETATM   13  C3  UNL     1     -23.074  35.894   2.627  1.00  0.00     0.271 C 
HETATM   14  N2  UNL     1     -22.241  37.008   2.918  1.00  0.00    -0.266 N 
ATOM     15  H2  UNL     1     -21.327  37.069   2.469  1.00  0.00     0.190 HD
HETATM   16  O1  UNL     1     -24.191  35.850   3.195  1.00  0.00    -0.266 OA
BRANCH  14  17
HETATM   17  N1  UNL     1     -22.625  38.010   3.787  1.00  0.00    -0.303 N 
HETATM   18  C2  UNL     1     -23.078  39.154   3.422  1.00  0.00     0.038 C 
HETATM   19  C1  UNL     1     -23.234  39.511   1.983  1.00  0.00     0.068 C 
ATOM     20  H1  UNL     1     -22.543  37.829   4.787  1.00  0.00     0.186 HD
BRANCH  18  21
HETATM   21  C13 UNL     1     -23.456  40.138   4.440  1.00  0.00     0.135 C 
HETATM   22  C14 UNL     1     -22.484  40.187   5.597  1.00  0.00     0.058 C 
HETATM   23  C15 UNL     1     -24.857  39.767   4.929  1.00  0.00     0.058 C 
HETATM   24  F1  UNL     1     -23.560  41.376   3.866  1.00  0.00    -0.237 F 
ENDBRANCH  18  21
ENDBRANCH  14  17
ENDBRANCH   1  13
BRANCH   5  25
HETATM   25  S1  UNL     1     -21.500  33.241  -2.881  1.00  0.00     0.177 S 
HETATM   26  C8  UNL     1     -22.247  34.611  -3.739  1.00  0.00     0.167 C 
HETATM   27  O3  UNL     1     -20.011  33.325  -3.153  1.00  0.00    -0.223 OA
HETATM   28  O4  UNL     1     -22.042  31.972  -3.466  1.00  0.00    -0.223 OA
ENDBRANCH   5  25
TORSDOF 4
ENDMDL
MODEL 5
REMARK VINA RESULT: -8.389891899      2.880      4.150
REMARK  4 active torsions:
REMARK  status: ('A' for Active; 'I' for Inactive)
REMARK    1  A    between atoms: C2_2  and  C13_25 
REMARK    2  A    between atoms: N1_3  and  N2_5 
REMARK       I    between atoms: N2_5  and  C3_7 
REMARK    3  A    between atoms: C3_7  and  C4_9 
REMARK    4  A    between atoms: C7_13  and  S1_14 
ROOT
HETATM    1  C4  UNL     1     -22.574  35.675   1.571  1.00  0.00     0.059 C 
HETATM    2  C5  UNL     1     -22.016  34.524   1.062  1.00  0.00     0.075 C 
HETATM    3  C6  UNL     1     -21.766  33.992  -0.204  1.00  0.00     0.196 C 
HETATM    4  O2  UNL     1     -21.270  32.846  -0.175  1.00  0.00    -0.287 OA
HETATM    5  C7  UNL     1     -21.933  34.419  -1.505  1.00  0.00     0.134 C 
HETATM    6  C9  UNL     1     -22.354  35.593  -2.096  1.00  0.00     0.109 C 
HETATM    7 CL1  UNL     1     -22.366  35.516  -3.847  1.00  0.00    -0.078 Cl
HETATM    8  C10 UNL     1     -22.765  36.810  -1.582  1.00  0.00     0.196 C 
HETATM    9  O5  UNL     1     -23.037  37.610  -2.514  1.00  0.00    -0.287 OA
HETATM   10  C11 UNL     1     -22.956  37.384  -0.338  1.00  0.00     0.081 C 
HETATM   11  C12 UNL     1     -22.988  36.838   0.919  1.00  0.00     0.053 C 
HETATM   12 CL2  UNL     1     -23.779  37.891   2.092  1.00  0.00    -0.083 Cl
ENDROOT
BRANCH   1  13
HETATM   13  C3  UNL     1     -22.767  35.697   2.996  1.00  0.00     0.271 C 
HETATM   14  N2  UNL     1     -21.739  36.001   3.929  1.00  0.00    -0.266 N 
ATOM     15  H2  UNL     1     -20.806  36.218   3.579  1.00  0.00     0.190 HD
HETATM   16  O1  UNL     1     -23.902  35.434   3.459  1.00  0.00    -0.266 OA
BRANCH  14  17
HETATM   17  N1  UNL     1     -21.959  36.011   5.292  1.00  0.00    -0.303 N 
HETATM   18  C2  UNL     1     -21.748  35.013   6.071  1.00  0.00     0.038 C 
HETATM   19  C1  UNL     1     -21.230  33.714   5.554  1.00  0.00     0.068 C 
ATOM     20  H1  UNL     1     -22.314  36.872   5.709  1.00  0.00     0.186 HD
BRANCH  18  21
HETATM   21  C13 UNL     1     -22.018  35.146   7.505  1.00  0.00     0.135 C 
HETATM   22  C14 UNL     1     -21.935  36.577   7.987  1.00  0.00     0.058 C 
HETATM   23  C15 UNL     1     -21.000  34.272   8.239  1.00  0.00     0.058 C 
HETATM   24  F1  UNL     1     -23.252  34.629   7.791  1.00  0.00    -0.237 F 
ENDBRANCH  18  21
ENDBRANCH  14  17
ENDBRANCH   1  13
BRANCH   5  25
HETATM   25  S1  UNL     1     -21.507  33.167  -2.649  1.00  0.00     0.177 S 
HETATM   26  C8  UNL     1     -21.710  31.548  -1.934  1.00  0.00     0.167 C 
HETATM   27  O3  UNL     1     -22.402  33.211  -3.872  1.00  0.00    -0.223 OA
HETATM   28  O4  UNL     1     -20.077  33.314  -3.073  1.00  0.00    -0.223 OA
ENDBRANCH   5  25
TORSDOF 4
ENDMDL
