MODEL 1
REMARK VINA RESULT: -8.733300623      0.000      0.000
REMARK  7 active torsions:
REMARK  status: ('A' for Active; 'I' for Inactive)
REMARK    1  A    between atoms: C2_2  and  C5_5 
REMARK    2  A    between atoms: C5_5  and  N1_6 
REMARK    3  A    between atoms: C5_5  and  N2_15 
REMARK    4  A    between atoms: N1_6  and  C6_8 
REMARK       I    between atoms: N2_15  and  C11_17 
REMARK    5  A    between atoms: C11_17  and  O2_19 
REMARK    6  A    between atoms: O2_19  and  C12_20 
REMARK    7  A    between atoms: C12_20  and  C13_21 
ROOT
HETATM    1  N2  UNL     1     -21.858  32.782  -1.344  1.00  0.00    -0.291 N 
ATOM      2  H2  UNL     1     -22.109  32.083  -2.043  1.00  0.00     0.172 HD
HETATM    3  C11 UNL     1     -21.265  32.396  -0.051  1.00  0.00     0.366 C 
HETATM    4  O1  UNL     1     -20.967  33.232   0.791  1.00  0.00    -0.238 OA
ENDROOT
BRANCH   1   5
HETATM    5  C5  UNL     1     -22.058  34.118  -1.567  1.00  0.00     0.089 C 
BRANCH   5   6
HETATM    6  C2  UNL     1     -21.608  33.927  -3.323  1.00  0.00     0.007 C 
HETATM    7  C1  UNL     1     -21.890  32.507  -3.521  1.00  0.00     0.022 C 
HETATM    8  C3  UNL     1     -22.582  34.778  -4.003  1.00  0.00     0.022 C 
HETATM    9  C4  UNL     1     -20.246  34.407  -3.296  1.00  0.00     0.022 C 
ENDBRANCH   5   6
BRANCH   5  10
HETATM   10  N1  UNL     1     -22.226  35.235  -1.754  1.00  0.00    -0.374 N 
ATOM     11  H1  UNL     1     -22.288  35.359  -2.764  1.00  0.00     0.161 HD
BRANCH  10  12
HETATM   12  C6  UNL     1     -22.382  36.504  -1.179  1.00  0.00     0.088 C 
HETATM   13  C7  UNL     1     -22.861  36.536   0.259  1.00  0.00     0.031 C 
HETATM   14  C8  UNL     1     -23.287  37.987   0.467  1.00  0.00     0.081 C 
HETATM   15  C9  UNL     1     -23.267  38.639  -0.897  1.00  0.00     0.245 C 
HETATM   16  F1  UNL     1     -21.999  39.164  -1.176  1.00  0.00    -0.206 F 
HETATM   17  F2  UNL     1     -24.267  39.548  -1.080  1.00  0.00    -0.206 F 
HETATM   18  C10 UNL     1     -23.403  37.419  -1.821  1.00  0.00     0.104 C 
ENDBRANCH  10  12
ENDBRANCH   5  10
ENDBRANCH   1   5
BRANCH   3  19
HETATM   19  O2  UNL     1     -21.037  31.051   0.221  1.00  0.00    -0.301 OA
BRANCH  19  20
HETATM   20  C12 UNL     1     -22.067  30.255   0.818  1.00  0.00     0.213 C 
BRANCH  20  21
HETATM   21  C13 UNL     1     -21.984  30.299   2.323  1.00  0.00     0.159 C 
HETATM   22  O3  UNL     1     -22.437  29.093   2.860  1.00  0.00    -0.352 OA
HETATM   23  C14 UNL     1     -23.104  29.776   3.917  1.00  0.00     0.286 C 
HETATM   24  O4  UNL     1     -22.226  29.889   4.956  1.00  0.00    -0.242 OA
HETATM   25  C16 UNL     1     -23.090  30.980   3.051  1.00  0.00     0.089 C 
HETATM   26  S1  UNL     1     -22.452  31.494   5.452  1.00  0.00     0.268 S 
HETATM   27  O5  UNL     1     -21.257  32.050   6.125  1.00  0.00    -0.199 OA
HETATM   28  O6  UNL     1     -23.682  31.546   6.308  1.00  0.00    -0.199 OA
HETATM   29  C15 UNL     1     -22.729  32.198   3.838  1.00  0.00     0.183 C 
ENDBRANCH  20  21
ENDBRANCH  19  20
ENDBRANCH   3  19
TORSDOF 7
ENDMDL
MODEL 2
REMARK VINA RESULT: -8.531244856      1.316      1.859
REMARK  7 active torsions:
REMARK  status: ('A' for Active; 'I' for Inactive)
REMARK    1  A    between atoms: C2_2  and  C5_5 
REMARK    2  A    between atoms: C5_5  and  N1_6 
REMARK    3  A    between atoms: C5_5  and  N2_15 
REMARK    4  A    between atoms: N1_6  and  C6_8 
REMARK       I    between atoms: N2_15  and  C11_17 
REMARK    5  A    between atoms: C11_17  and  O2_19 
REMARK    6  A    between atoms: O2_19  and  C12_20 
REMARK    7  A    between atoms: C12_20  and  C13_21 
ROOT
HETATM    1  N2  UNL     1     -21.710  32.258  -0.620  1.00  0.00    -0.291 N 
ATOM      2  H2  UNL     1     -21.514  31.379  -1.099  1.00  0.00     0.172 HD
HETATM    3  C11 UNL     1     -21.680  32.355   0.850  1.00  0.00     0.366 C 
HETATM    4  O1  UNL     1     -21.919  33.408   1.427  1.00  0.00    -0.238 OA
ENDROOT
BRANCH   1   5
HETATM    5  C5  UNL     1     -22.011  33.398  -1.317  1.00  0.00     0.089 C 
BRANCH   5   6
HETATM    6  C2  UNL     1     -21.275  32.706  -2.834  1.00  0.00     0.007 C 
HETATM    7  C1  UNL     1     -21.066  31.320  -2.425  1.00  0.00     0.022 C 
HETATM    8  C3  UNL     1     -22.358  32.832  -3.807  1.00  0.00     0.022 C 
HETATM    9  C4  UNL     1     -20.151  33.597  -3.008  1.00  0.00     0.022 C 
ENDBRANCH   5   6
BRANCH   5  10
HETATM   10  N1  UNL     1     -22.264  34.351  -1.899  1.00  0.00    -0.374 N 
ATOM     11  H1  UNL     1     -21.993  34.185  -2.868  1.00  0.00     0.161 HD
BRANCH  10  12
HETATM   12  C6  UNL     1     -22.788  35.649  -1.842  1.00  0.00     0.088 C 
HETATM   13  C7  UNL     1     -23.211  36.263  -3.162  1.00  0.00     0.031 C 
HETATM   14  C8  UNL     1     -23.367  37.746  -2.839  1.00  0.00     0.081 C 
HETATM   15  C9  UNL     1     -22.802  37.945  -1.450  1.00  0.00     0.245 C 
HETATM   16  F1  UNL     1     -23.790  37.739  -0.479  1.00  0.00    -0.206 F 
HETATM   17  F2  UNL     1     -22.146  39.130  -1.295  1.00  0.00    -0.206 F 
HETATM   18  C10 UNL     1     -21.866  36.733  -1.326  1.00  0.00     0.104 C 
ENDBRANCH  10  12
ENDBRANCH   5  10
ENDBRANCH   1   5
BRANCH   3  19
HETATM   19  O2  UNL     1     -21.373  31.226   1.602  1.00  0.00    -0.301 OA
BRANCH  19  20
HETATM   20  C12 UNL     1     -22.364  30.641   2.455  1.00  0.00     0.213 C 
BRANCH  20  21
HETATM   21  C13 UNL     1     -22.110  30.989   3.900  1.00  0.00     0.159 C 
HETATM   22  O3  UNL     1     -22.780  30.089   4.731  1.00  0.00    -0.352 OA
HETATM   23  C14 UNL     1     -23.144  31.135   5.626  1.00  0.00     0.286 C 
HETATM   24  O4  UNL     1     -22.158  31.240   6.564  1.00  0.00    -0.242 OA
HETATM   25  C16 UNL     1     -22.934  32.075   4.498  1.00  0.00     0.089 C 
HETATM   26  S1  UNL     1     -21.934  32.917   6.673  1.00  0.00     0.268 S 
HETATM   27  O5  UNL     1     -20.576  33.276   7.134  1.00  0.00    -0.199 OA
HETATM   28  O6  UNL     1     -23.016  33.472   7.552  1.00  0.00    -0.199 OA
HETATM   29  C15 UNL     1     -22.206  33.299   4.954  1.00  0.00     0.183 C 
ENDBRANCH  20  21
ENDBRANCH  19  20
ENDBRANCH   3  19
TORSDOF 7
ENDMDL
MODEL 3
REMARK VINA RESULT: -8.391795063      5.124      6.851
REMARK  7 active torsions:
REMARK  status: ('A' for Active; 'I' for Inactive)
REMARK    1  A    between atoms: C2_2  and  C5_5 
REMARK    2  A    between atoms: C5_5  and  N1_6 
REMARK    3  A    between atoms: C5_5  and  N2_15 
REMARK    4  A    between atoms: N1_6  and  C6_8 
REMARK       I    between atoms: N2_15  and  C11_17 
REMARK    5  A    between atoms: C11_17  and  O2_19 
REMARK    6  A    between atoms: O2_19  and  C12_20 
REMARK    7  A    between atoms: C12_20  and  C13_21 
ROOT
HETATM    1  N2  UNL     1     -22.941  34.391   2.582  1.00  0.00    -0.291 N 
ATOM      2  H2  UNL     1     -22.943  33.604   3.230  1.00  0.00     0.172 HD
HETATM    3  C11 UNL     1     -23.531  35.691   2.949  1.00  0.00     0.366 C 
HETATM    4  O1  UNL     1     -23.534  36.635   2.171  1.00  0.00    -0.238 OA
ENDROOT
BRANCH   1   5
HETATM    5  C5  UNL     1     -22.388  34.285   1.333  1.00  0.00     0.089 C 
BRANCH   5   6
HETATM    6  C2  UNL     1     -21.278  32.955   1.900  1.00  0.00     0.007 C 
HETATM    7  C1  UNL     1     -22.092  32.355   2.954  1.00  0.00     0.022 C 
HETATM    8  C3  UNL     1     -21.180  32.091   0.726  1.00  0.00     0.022 C 
HETATM    9  C4  UNL     1     -20.100  33.723   2.230  1.00  0.00     0.022 C 
ENDBRANCH   5   6
BRANCH   5  10
HETATM   10  N1  UNL     1     -21.927  34.196   0.289  1.00  0.00    -0.374 N 
ATOM     11  H1  UNL     1     -21.264  33.423   0.325  1.00  0.00     0.161 HD
BRANCH  10  12
HETATM   12  C6  UNL     1     -21.890  34.702  -1.017  1.00  0.00     0.088 C 
HETATM   13  C7  UNL     1     -22.899  35.785  -1.348  1.00  0.00     0.031 C 
HETATM   14  C8  UNL     1     -22.873  35.852  -2.872  1.00  0.00     0.081 C 
HETATM   15  C9  UNL     1     -22.058  34.666  -3.340  1.00  0.00     0.245 C 
HETATM   16  F1  UNL     1     -20.698  34.995  -3.409  1.00  0.00    -0.206 F 
HETATM   17  F2  UNL     1     -22.526  34.106  -4.492  1.00  0.00    -0.206 F 
HETATM   18  C10 UNL     1     -22.176  33.721  -2.134  1.00  0.00     0.104 C 
ENDBRANCH  10  12
ENDBRANCH   5  10
ENDBRANCH   1   5
BRANCH   3  19
HETATM   19  O2  UNL     1     -24.099  35.850   4.208  1.00  0.00    -0.301 OA
BRANCH  19  20
HETATM   20  C12 UNL     1     -23.350  36.468   5.261  1.00  0.00     0.213 C 
BRANCH  20  21
HETATM   21  C13 UNL     1     -23.913  37.823   5.606  1.00  0.00     0.159 C 
HETATM   22  O3  UNL     1     -25.200  37.951   5.079  1.00  0.00    -0.352 OA
HETATM   23  C14 UNL     1     -24.949  39.304   4.711  1.00  0.00     0.286 C 
HETATM   24  O4  UNL     1     -25.319  40.095   5.761  1.00  0.00    -0.242 OA
HETATM   25  C16 UNL     1     -23.504  38.973   4.753  1.00  0.00     0.089 C 
HETATM   26  S1  UNL     1     -24.032  41.193   5.862  1.00  0.00     0.268 S 
HETATM   27  O5  UNL     1     -23.872  41.752   7.222  1.00  0.00    -0.199 OA
HETATM   28  O6  UNL     1     -24.241  42.249   4.817  1.00  0.00    -0.199 OA
HETATM   29  C15 UNL     1     -22.728  40.062   5.419  1.00  0.00     0.183 C 
ENDBRANCH  20  21
ENDBRANCH  19  20
ENDBRANCH   3  19
TORSDOF 7
ENDMDL
MODEL 4
REMARK VINA RESULT: -8.383513719      5.209      7.132
REMARK  7 active torsions:
REMARK  status: ('A' for Active; 'I' for Inactive)
REMARK    1  A    between atoms: C2_2  and  C5_5 
REMARK    2  A    between atoms: C5_5  and  N1_6 
REMARK    3  A    between atoms: C5_5  and  N2_15 
REMARK    4  A    between atoms: N1_6  and  C6_8 
REMARK       I    between atoms: N2_15  and  C11_17 
REMARK    5  A    between atoms: C11_17  and  O2_19 
REMARK    6  A    between atoms: O2_19  and  C12_20 
REMARK    7  A    between atoms: C12_20  and  C13_21 
ROOT
HETATM    1  N2  UNL     1     -22.952  34.274   2.536  1.00  0.00    -0.291 N 
ATOM      2  H2  UNL     1     -23.072  33.624   3.312  1.00  0.00     0.172 HD
HETATM    3  C11 UNL     1     -23.543  35.623   2.565  1.00  0.00     0.366 C 
HETATM    4  O1  UNL     1     -23.404  36.403   1.632  1.00  0.00    -0.238 OA
ENDROOT
BRANCH   1   5
HETATM    5  C5  UNL     1     -22.234  33.928   1.422  1.00  0.00     0.089 C 
BRANCH   5   6
HETATM    6  C2  UNL     1     -21.239  32.745   2.388  1.00  0.00     0.007 C 
HETATM    7  C1  UNL     1     -19.969  33.462   2.467  1.00  0.00     0.022 C 
HETATM    8  C3  UNL     1     -21.930  32.714   3.674  1.00  0.00     0.022 C 
HETATM    9  C4  UNL     1     -21.365  31.566   1.564  1.00  0.00     0.022 C 
ENDBRANCH   5   6
BRANCH   5  10
HETATM   10  N1  UNL     1     -21.634  33.640   0.490  1.00  0.00    -0.374 N 
ATOM     11  H1  UNL     1     -20.933  32.963   0.790  1.00  0.00     0.161 HD
BRANCH  10  12
HETATM   12  C6  UNL     1     -21.459  33.824  -0.888  1.00  0.00     0.088 C 
HETATM   13  C7  UNL     1     -22.243  34.957  -1.521  1.00  0.00     0.031 C 
HETATM   14  C8  UNL     1     -22.148  34.672  -3.017  1.00  0.00     0.081 C 
HETATM   15  C9  UNL     1     -21.544  33.293  -3.153  1.00  0.00     0.245 C 
HETATM   16  F1  UNL     1     -20.145  33.366  -3.188  1.00  0.00    -0.206 F 
HETATM   17  F2  UNL     1     -22.061  32.573  -4.190  1.00  0.00    -0.206 F 
HETATM   18  C10 UNL     1     -21.875  32.678  -1.785  1.00  0.00     0.104 C 
ENDBRANCH  10  12
ENDBRANCH   5  10
ENDBRANCH   1   5
BRANCH   3  19
HETATM   19  O2  UNL     1     -24.276  36.023   3.677  1.00  0.00    -0.301 OA
BRANCH  19  20
HETATM   20  C12 UNL     1     -23.602  36.460   4.862  1.00  0.00     0.213 C 
BRANCH  20  21
HETATM   21  C13 UNL     1     -24.072  37.830   5.280  1.00  0.00     0.159 C 
HETATM   22  O3  UNL     1     -25.343  38.076   4.758  1.00  0.00    -0.352 OA
HETATM   23  C14 UNL     1     -24.998  39.427   4.466  1.00  0.00     0.286 C 
HETATM   24  O4  UNL     1     -25.319  40.182   5.557  1.00  0.00    -0.242 OA
HETATM   25  C16 UNL     1     -23.579  38.994   4.494  1.00  0.00     0.089 C 
HETATM   26  S1  UNL     1     -23.960  41.182   5.722  1.00  0.00     0.268 S 
HETATM   27  O5  UNL     1     -23.771  41.652   7.112  1.00  0.00    -0.199 OA
HETATM   28  O6  UNL     1     -24.089  42.305   4.737  1.00  0.00    -0.199 OA
HETATM   29  C15 UNL     1     -22.734  39.989   5.221  1.00  0.00     0.183 C 
ENDBRANCH  20  21
ENDBRANCH  19  20
ENDBRANCH   3  19
TORSDOF 7
ENDMDL
MODEL 5
REMARK VINA RESULT: -8.363842823      2.520      4.057
REMARK  7 active torsions:
REMARK  status: ('A' for Active; 'I' for Inactive)
REMARK    1  A    between atoms: C2_2  and  C5_5 
REMARK    2  A    between atoms: C5_5  and  N1_6 
REMARK    3  A    between atoms: C5_5  and  N2_15 
REMARK    4  A    between atoms: N1_6  and  C6_8 
REMARK       I    between atoms: N2_15  and  C11_17 
REMARK    5  A    between atoms: C11_17  and  O2_19 
REMARK    6  A    between atoms: O2_19  and  C12_20 
REMARK    7  A    between atoms: C12_20  and  C13_21 
ROOT
HETATM    1  N2  UNL     1     -21.899  33.023   2.118  1.00  0.00    -0.291 N 
ATOM      2  H2  UNL     1     -21.856  33.273   3.105  1.00  0.00     0.172 HD
HETATM    3  C11 UNL     1     -21.894  31.615   1.681  1.00  0.00     0.366 C 
HETATM    4  O1  UNL     1     -21.942  31.313   0.496  1.00  0.00    -0.238 OA
ENDROOT
BRANCH   1   5
HETATM    5  C5  UNL     1     -21.966  33.981   1.141  1.00  0.00     0.089 C 
BRANCH   5   6
HETATM    6  C2  UNL     1     -22.236  35.283   2.389  1.00  0.00     0.007 C 
HETATM    7  C1  UNL     1     -21.165  34.976   3.335  1.00  0.00     0.022 C 
HETATM    8  C3  UNL     1     -21.970  36.509   1.642  1.00  0.00     0.022 C 
HETATM    9  C4  UNL     1     -23.615  35.029   2.735  1.00  0.00     0.022 C 
ENDBRANCH   5   6
BRANCH   5  10
HETATM   10  N1  UNL     1     -22.020  34.782   0.325  1.00  0.00    -0.374 N 
ATOM     11  H1  UNL     1     -22.163  35.675   0.797  1.00  0.00     0.161 HD
BRANCH  10  12
HETATM   12  C6  UNL     1     -21.973  35.053  -1.049  1.00  0.00     0.088 C 
HETATM   13  C7  UNL     1     -23.020  36.011  -1.582  1.00  0.00     0.031 C 
HETATM   14  C8  UNL     1     -22.959  35.811  -3.094  1.00  0.00     0.081 C 
HETATM   15  C9  UNL     1     -22.081  34.603  -3.331  1.00  0.00     0.245 C 
HETATM   16  F1  UNL     1     -20.736  34.980  -3.435  1.00  0.00    -0.206 F 
HETATM   17  F2  UNL     1     -22.494  33.827  -4.374  1.00  0.00    -0.206 F 
HETATM   18  C10 UNL     1     -22.187  33.879  -1.981  1.00  0.00     0.104 C 
ENDBRANCH  10  12
ENDBRANCH   5  10
ENDBRANCH   1   5
BRANCH   3  19
HETATM   19  O2  UNL     1     -21.834  30.606   2.635  1.00  0.00    -0.301 OA
BRANCH  19  20
HETATM   20  C12 UNL     1     -23.001  30.260   3.390  1.00  0.00     0.213 C 
BRANCH  20  21
HETATM   21  C13 UNL     1     -22.924  30.809   4.792  1.00  0.00     0.159 C 
HETATM   22  O3  UNL     1     -23.342  32.141   4.805  1.00  0.00    -0.352 OA
HETATM   23  C14 UNL     1     -22.315  32.489   5.729  1.00  0.00     0.286 C 
HETATM   24  O4  UNL     1     -22.820  32.336   6.988  1.00  0.00    -0.242 OA
HETATM   25  C16 UNL     1     -21.594  31.275   5.273  1.00  0.00     0.089 C 
HETATM   26  S1  UNL     1     -21.555  31.548   7.795  1.00  0.00     0.268 S 
HETATM   27  O5  UNL     1     -22.031  30.748   8.945  1.00  0.00    -0.199 OA
HETATM   28  O6  UNL     1     -20.538  32.581   8.182  1.00  0.00    -0.199 OA
HETATM   29  C15 UNL     1     -21.002  30.541   6.433  1.00  0.00     0.183 C 
ENDBRANCH  20  21
ENDBRANCH  19  20
ENDBRANCH   3  19
TORSDOF 7
ENDMDL
