MODEL 1
REMARK VINA RESULT: -6.680789546      0.000      0.000
REMARK  5 active torsions:
REMARK  status: ('A' for Active; 'I' for Inactive)
REMARK    1  A    between atoms: C2_2  and  C3_3 
REMARK    2  A    between atoms: C3_3  and  C5_5 
REMARK    3  A    between atoms: C5_5  and  C6_6 
REMARK    4  A    between atoms: C6_6  and  C7_7 
REMARK       I    between atoms: C7_7  and  N1_9 
REMARK    5  A    between atoms: N1_9  and  C8_11 
ROOT
HETATM    1  C8  UNL     1      23.275 -12.896   6.179  1.00  0.00     0.131 A 
HETATM    2  N2  UNL     1      23.285 -13.367   4.945  1.00  0.00    -0.284 N 
ATOM      3  H2  UNL     1      23.669 -12.867   4.142  1.00  0.00     0.188 HD
HETATM    4  N3  UNL     1      22.737 -14.568   4.882  1.00  0.00    -0.295 N 
ATOM      5  H3  UNL     1      22.637 -15.123   4.032  1.00  0.00     0.187 HD
HETATM    6  C9  UNL     1      22.327 -14.948   6.116  1.00  0.00     0.103 A 
HETATM    7  C10 UNL     1      22.660 -13.902   6.948  1.00  0.00     0.019 A 
HETATM    8  C11 UNL     1      22.229 -14.252   8.323  1.00  0.00     0.053 C 
HETATM    9  C12 UNL     1      22.169 -15.761   8.293  1.00  0.00     0.090 C 
HETATM   10  C13 UNL     1      21.699 -16.001   6.903  1.00  0.00     0.178 C 
HETATM   11  O2  UNL     1      20.939 -16.883   6.444  1.00  0.00    -0.291 OA
ENDROOT
BRANCH   1  12
HETATM   12  N1  UNL     1      23.682 -11.837   6.737  1.00  0.00    -0.312 N 
HETATM   13  C7  UNL     1      22.861 -10.894   7.410  1.00  0.00     0.223 C 
HETATM   14  O1  UNL     1      22.929 -10.822   8.640  1.00  0.00    -0.273 OA
ATOM     15  H1  UNL     1      24.683 -11.645   6.701  1.00  0.00     0.170 HD
BRANCH  13  16
HETATM   16  C6  UNL     1      21.956 -10.028   6.637  1.00  0.00     0.108 C 
BRANCH  16  17
HETATM   17  C5  UNL     1      20.552  -9.981   7.097  1.00  0.00     0.047 C 
BRANCH  17  18
HETATM   18  C3  UNL     1      19.731  -8.830   6.772  1.00  0.00    -0.068 C 
HETATM   19  C4  UNL     1      18.479  -8.999   6.375  1.00  0.00     0.019 C 
BRANCH  18  20
HETATM   20  C2  UNL     1      20.200  -7.469   6.821  1.00  0.00    -0.004 C 
HETATM   21  C1  UNL     1      19.366  -6.459   6.852  1.00  0.00     0.012 C 
ENDBRANCH  18  20
ENDBRANCH  17  18
ENDBRANCH  16  17
ENDBRANCH  13  16
ENDBRANCH   1  12
TORSDOF 5
ENDMDL
MODEL 2
REMARK VINA RESULT: -6.601119745      4.117      6.559
REMARK  5 active torsions:
REMARK  status: ('A' for Active; 'I' for Inactive)
REMARK    1  A    between atoms: C2_2  and  C3_3 
REMARK    2  A    between atoms: C3_3  and  C5_5 
REMARK    3  A    between atoms: C5_5  and  C6_6 
REMARK    4  A    between atoms: C6_6  and  C7_7 
REMARK       I    between atoms: C7_7  and  N1_9 
REMARK    5  A    between atoms: N1_9  and  C8_11 
ROOT
HETATM    1  C8  UNL     1      22.193  -7.493   4.339  1.00  0.00     0.131 A 
HETATM    2  N2  UNL     1      22.316  -6.182   4.447  1.00  0.00    -0.284 N 
ATOM      3  H2  UNL     1      23.086  -5.715   4.928  1.00  0.00     0.188 HD
HETATM    4  N3  UNL     1      21.318  -5.552   3.854  1.00  0.00    -0.295 N 
ATOM      5  H3  UNL     1      21.206  -4.539   3.810  1.00  0.00     0.187 HD
HETATM    6  C9  UNL     1      20.465  -6.456   3.313  1.00  0.00     0.103 A 
HETATM    7  C10 UNL     1      21.004  -7.687   3.610  1.00  0.00     0.019 A 
HETATM    8  C11 UNL     1      20.110  -8.730   3.050  1.00  0.00     0.053 C 
HETATM    9  C12 UNL     1      19.374  -8.000   1.952  1.00  0.00     0.090 C 
HETATM   10  C13 UNL     1      19.239  -6.645   2.549  1.00  0.00     0.178 C 
HETATM   11  O2  UNL     1      18.313  -5.807   2.460  1.00  0.00    -0.291 OA
ENDROOT
BRANCH   1  12
HETATM   12  N1  UNL     1      22.874  -8.490   4.711  1.00  0.00    -0.312 N 
HETATM   13  C7  UNL     1      22.356  -9.650   5.346  1.00  0.00     0.223 C 
HETATM   14  O1  UNL     1      22.317 -10.706   4.709  1.00  0.00    -0.273 OA
ATOM     15  H1  UNL     1      23.879  -8.460   4.540  1.00  0.00     0.170 HD
BRANCH  13  16
HETATM   16  C6  UNL     1      21.881  -9.572   6.738  1.00  0.00     0.108 C 
BRANCH  16  17
HETATM   17  C5  UNL     1      20.434  -9.787   6.943  1.00  0.00     0.047 C 
BRANCH  17  18
HETATM   18  C3  UNL     1      19.514  -8.679   6.766  1.00  0.00    -0.068 C 
HETATM   19  C4  UNL     1      18.273  -8.905   6.363  1.00  0.00     0.019 C 
BRANCH  18  20
HETATM   20  C2  UNL     1      19.870  -7.298   6.972  1.00  0.00    -0.004 C 
HETATM   21  C1  UNL     1      19.006  -6.334   6.776  1.00  0.00     0.012 C 
ENDBRANCH  18  20
ENDBRANCH  17  18
ENDBRANCH  16  17
ENDBRANCH  13  16
ENDBRANCH   1  12
TORSDOF 5
ENDMDL
MODEL 3
REMARK VINA RESULT: -6.557606746      2.330      5.960
REMARK  5 active torsions:
REMARK  status: ('A' for Active; 'I' for Inactive)
REMARK    1  A    between atoms: C2_2  and  C3_3 
REMARK    2  A    between atoms: C3_3  and  C5_5 
REMARK    3  A    between atoms: C5_5  and  C6_6 
REMARK    4  A    between atoms: C6_6  and  C7_7 
REMARK       I    between atoms: C7_7  and  N1_9 
REMARK    5  A    between atoms: N1_9  and  C8_11 
ROOT
HETATM    1  C8  UNL     1      22.008  -9.917   6.368  1.00  0.00     0.131 A 
HETATM    2  N2  UNL     1      22.442 -10.141   5.140  1.00  0.00    -0.284 N 
ATOM      3  H2  UNL     1      23.331 -10.591   4.918  1.00  0.00     0.188 HD
HETATM    4  N3  UNL     1      21.581  -9.709   4.236  1.00  0.00    -0.295 N 
ATOM      5  H3  UNL     1      21.706  -9.777   3.227  1.00  0.00     0.187 HD
HETATM    6  C9  UNL     1      20.507  -9.163   4.855  1.00  0.00     0.103 A 
HETATM    7  C10 UNL     1      20.761  -9.286   6.203  1.00  0.00     0.019 A 
HETATM    8  C11 UNL     1      19.620  -8.696   6.944  1.00  0.00     0.053 C 
HETATM    9  C12 UNL     1      18.487  -8.766   5.947  1.00  0.00     0.090 C 
HETATM   10  C13 UNL     1      19.212  -8.520   4.673  1.00  0.00     0.178 C 
HETATM   11  O2  UNL     1      18.854  -7.909   3.640  1.00  0.00    -0.291 OA
ENDROOT
BRANCH   1  12
HETATM   12  N1  UNL     1      22.447 -10.151   7.530  1.00  0.00    -0.312 N 
HETATM   13  C7  UNL     1      22.810 -11.429   8.031  1.00  0.00     0.223 C 
HETATM   14  O1  UNL     1      24.006 -11.676   8.209  1.00  0.00    -0.273 OA
ATOM     15  H1  UNL     1      22.549  -9.355   8.160  1.00  0.00     0.170 HD
BRANCH  13  16
HETATM   16  C6  UNL     1      21.765 -12.424   8.325  1.00  0.00     0.108 C 
BRANCH  16  17
HETATM   17  C5  UNL     1      22.220 -13.824   8.455  1.00  0.00     0.047 C 
BRANCH  17  18
HETATM   18  C3  UNL     1      22.271 -14.671   7.279  1.00  0.00    -0.068 C 
HETATM   19  C4  UNL     1      21.372 -15.630   7.114  1.00  0.00     0.019 C 
BRANCH  18  20
HETATM   20  C2  UNL     1      23.278 -14.565   6.255  1.00  0.00    -0.004 C 
HETATM   21  C1  UNL     1      23.074 -13.862   5.167  1.00  0.00     0.012 C 
ENDBRANCH  18  20
ENDBRANCH  17  18
ENDBRANCH  16  17
ENDBRANCH  13  16
ENDBRANCH   1  12
TORSDOF 5
ENDMDL
MODEL 4
REMARK VINA RESULT: -6.408512548      6.537     10.910
REMARK  5 active torsions:
REMARK  status: ('A' for Active; 'I' for Inactive)
REMARK    1  A    between atoms: C2_2  and  C3_3 
REMARK    2  A    between atoms: C3_3  and  C5_5 
REMARK    3  A    between atoms: C5_5  and  C6_6 
REMARK    4  A    between atoms: C6_6  and  C7_7 
REMARK       I    between atoms: C7_7  and  N1_9 
REMARK    5  A    between atoms: N1_9  and  C8_11 
ROOT
HETATM    1  C8  UNL     1      18.593  -3.002   6.983  1.00  0.00     0.131 A 
HETATM    2  N2  UNL     1      18.429  -2.771   8.274  1.00  0.00    -0.284 N 
ATOM      3  H2  UNL     1      18.982  -3.209   9.011  1.00  0.00     0.188 HD
HETATM    4  N3  UNL     1      17.460  -1.899   8.490  1.00  0.00    -0.295 N 
ATOM      5  H3  UNL     1      17.159  -1.571   9.407  1.00  0.00     0.187 HD
HETATM    6  C9  UNL     1      16.926  -1.509   7.307  1.00  0.00     0.103 A 
HETATM    7  C10 UNL     1      17.631  -2.197   6.345  1.00  0.00     0.019 A 
HETATM    8  C11 UNL     1      17.088  -1.820   5.018  1.00  0.00     0.053 C 
HETATM    9  C12 UNL     1      16.449  -0.475   5.274  1.00  0.00     0.090 C 
HETATM   10  C13 UNL     1      15.934  -0.663   6.656  1.00  0.00     0.178 C 
HETATM   11  O2  UNL     1      14.895  -0.226   7.202  1.00  0.00    -0.291 OA
ENDROOT
BRANCH   1  12
HETATM   12  N1  UNL     1      19.373  -3.718   6.294  1.00  0.00    -0.312 N 
HETATM   13  C7  UNL     1      19.131  -5.063   5.907  1.00  0.00     0.223 C 
HETATM   14  O1  UNL     1      18.877  -5.301   4.723  1.00  0.00    -0.273 OA
ATOM     15  H1  UNL     1      20.249  -3.294   5.989  1.00  0.00     0.170 HD
BRANCH  13  16
HETATM   16  C6  UNL     1      19.187  -6.136   6.915  1.00  0.00     0.108 C 
BRANCH  16  17
HETATM   17  C5  UNL     1      20.087  -7.267   6.608  1.00  0.00     0.047 C 
BRANCH  17  18
HETATM   18  C3  UNL     1      19.572  -8.623   6.657  1.00  0.00    -0.068 C 
HETATM   19  C4  UNL     1      18.281  -8.849   6.466  1.00  0.00     0.019 C 
BRANCH  18  20
HETATM   20  C2  UNL     1      20.382  -9.780   6.938  1.00  0.00    -0.004 C 
HETATM   21  C1  UNL     1      21.690  -9.709   6.961  1.00  0.00     0.012 C 
ENDBRANCH  18  20
ENDBRANCH  17  18
ENDBRANCH  16  17
ENDBRANCH  13  16
ENDBRANCH   1  12
TORSDOF 5
ENDMDL
MODEL 5
REMARK VINA RESULT: -6.398339658      3.797      5.791
REMARK  5 active torsions:
REMARK  status: ('A' for Active; 'I' for Inactive)
REMARK    1  A    between atoms: C2_2  and  C3_3 
REMARK    2  A    between atoms: C3_3  and  C5_5 
REMARK    3  A    between atoms: C5_5  and  C6_6 
REMARK    4  A    between atoms: C6_6  and  C7_7 
REMARK       I    between atoms: C7_7  and  N1_9 
REMARK    5  A    between atoms: N1_9  and  C8_11 
ROOT
HETATM    1  C8  UNL     1      21.950  -9.401   3.780  1.00  0.00     0.131 A 
HETATM    2  N2  UNL     1      21.945 -10.404   2.920  1.00  0.00    -0.284 N 
ATOM      3  H2  UNL     1      22.505 -11.251   3.021  1.00  0.00     0.188 HD
HETATM    4  N3  UNL     1      21.122 -10.173   1.913  1.00  0.00    -0.295 N 
ATOM      5  H3  UNL     1      20.956 -10.808   1.132  1.00  0.00     0.187 HD
HETATM    6  C9  UNL     1      20.532  -8.964   2.074  1.00  0.00     0.103 A 
HETATM    7  C10 UNL     1      21.045  -8.463   3.250  1.00  0.00     0.019 A 
HETATM    8  C11 UNL     1      20.443  -7.128   3.484  1.00  0.00     0.053 C 
HETATM    9  C12 UNL     1      19.161  -7.182   2.685  1.00  0.00     0.090 C 
HETATM   10  C13 UNL     1      19.584  -8.005   1.522  1.00  0.00     0.178 C 
HETATM   11  O2  UNL     1      19.246  -7.944   0.318  1.00  0.00    -0.291 OA
ENDROOT
BRANCH   1  12
HETATM   12  N1  UNL     1      22.538  -9.161   4.873  1.00  0.00    -0.312 N 
HETATM   13  C7  UNL     1      22.339  -9.871   6.087  1.00  0.00     0.223 C 
HETATM   14  O1  UNL     1      23.237 -10.615   6.490  1.00  0.00    -0.273 OA
ATOM     15  H1  UNL     1      23.211  -8.395   4.883  1.00  0.00     0.170 HD
BRANCH  13  16
HETATM   16  C6  UNL     1      21.081  -9.706   6.834  1.00  0.00     0.108 C 
BRANCH  16  17
HETATM   17  C5  UNL     1      20.604  -8.317   7.003  1.00  0.00     0.047 C 
BRANCH  17  18
HETATM   18  C3  UNL     1      19.211  -8.004   6.742  1.00  0.00    -0.068 C 
HETATM   19  C4  UNL     1      18.363  -8.970   6.422  1.00  0.00     0.019 C 
BRANCH  18  20
HETATM   20  C2  UNL     1      18.668  -6.671   6.776  1.00  0.00    -0.004 C 
HETATM   21  C1  UNL     1      19.444  -5.616   6.762  1.00  0.00     0.012 C 
ENDBRANCH  18  20
ENDBRANCH  17  18
ENDBRANCH  16  17
ENDBRANCH  13  16
ENDBRANCH   1  12
TORSDOF 5
ENDMDL
