MODEL 1
REMARK VINA RESULT: -5.643834002      0.000      0.000
REMARK  4 active torsions:
REMARK  status: ('A' for Active; 'I' for Inactive)
REMARK    1  A    between atoms: C2_2  and  N1_3 
REMARK    2  A    between atoms: N1_3  and  C3_4 
REMARK       I    between atoms: N1_3  and  C5_6 
REMARK       I    between atoms: N3_8  and  C6_10 
REMARK    3  A    between atoms: C6_10  and  C7_12 
REMARK       I    between atoms: C7_12  and  N4_14 
REMARK    4  A    between atoms: N4_14  and  C8_16 
ROOT
HETATM    1  N1  UNL     1      23.090 -14.715   6.954  1.00  0.00    -0.356 N 
HETATM    2  C5  UNL     1      22.668 -13.452   7.433  1.00  0.00     0.193 C 
HETATM    3  N2  UNL     1      21.627 -13.418   8.386  1.00  0.00    -0.063 NA
HETATM    4  N3  UNL     1      23.260 -12.378   6.973  1.00  0.00    -0.293 N 
ATOM      5  H3  UNL     1      24.012 -12.424   6.286  1.00  0.00     0.172 HD
HETATM    6  C6  UNL     1      22.784 -11.141   7.501  1.00  0.00     0.315 C 
HETATM    7  O1  UNL     1      23.060 -10.898   8.702  1.00  0.00    -0.262 OA
ENDROOT
BRANCH   6   8
HETATM    8  C7  UNL     1      22.019 -10.183   6.732  1.00  0.00     0.310 C 
HETATM    9  O2  UNL     1      22.545  -9.636   5.733  1.00  0.00    -0.262 OA
HETATM   10  N4  UNL     1      20.694  -9.847   7.075  1.00  0.00    -0.345 N 
ATOM     11  H4  UNL     1      20.267 -10.291   7.887  1.00  0.00     0.163 HD
BRANCH  10  12
HETATM   12  C8  UNL     1      19.921  -8.892   6.311  1.00  0.00     0.022 C 
HETATM   13  C9  UNL     1      20.330  -7.494   6.715  1.00  0.00     0.037 C 
HETATM   14  C10 UNL     1      20.144  -9.011   4.823  1.00  0.00     0.037 C 
HETATM   15  C11 UNL     1      18.470  -9.084   6.622  1.00  0.00     0.037 C 
ENDBRANCH  10  12
ENDBRANCH   6   8
BRANCH   1  16
HETATM   16  C2  UNL     1      24.451 -15.126   7.274  1.00  0.00     0.121 C 
HETATM   17  C1  UNL     1      24.417 -16.068   8.455  1.00  0.00     0.026 C 
ENDBRANCH   1  16
BRANCH   1  18
HETATM   18  C3  UNL     1      22.195 -15.544   6.200  1.00  0.00     0.121 C 
HETATM   19  C4  UNL     1      22.395 -15.299   4.726  1.00  0.00     0.026 C 
ENDBRANCH   1  18
TORSDOF 4
ENDMDL
MODEL 2
REMARK VINA RESULT: -5.469921429      0.554      1.398
REMARK  4 active torsions:
REMARK  status: ('A' for Active; 'I' for Inactive)
REMARK    1  A    between atoms: C2_2  and  N1_3 
REMARK    2  A    between atoms: N1_3  and  C3_4 
REMARK       I    between atoms: N1_3  and  C5_6 
REMARK       I    between atoms: N3_8  and  C6_10 
REMARK    3  A    between atoms: C6_10  and  C7_12 
REMARK       I    between atoms: C7_12  and  N4_14 
REMARK    4  A    between atoms: N4_14  and  C8_16 
ROOT
HETATM    1  N1  UNL     1      22.922 -14.736   6.968  1.00  0.00    -0.356 N 
HETATM    2  C5  UNL     1      22.560 -13.458   7.455  1.00  0.00     0.193 C 
HETATM    3  N2  UNL     1      21.563 -13.385   8.453  1.00  0.00    -0.063 NA
HETATM    4  N3  UNL     1      23.164 -12.406   6.961  1.00  0.00    -0.293 N 
ATOM      5  H3  UNL     1      23.882 -12.479   6.241  1.00  0.00     0.172 HD
HETATM    6  C6  UNL     1      22.749 -11.151   7.499  1.00  0.00     0.315 C 
HETATM    7  O1  UNL     1      23.085 -10.909   8.685  1.00  0.00    -0.262 OA
ENDROOT
BRANCH   6   8
HETATM    8  C7  UNL     1      21.980 -10.175   6.757  1.00  0.00     0.310 C 
HETATM    9  O2  UNL     1      22.499  -9.609   5.765  1.00  0.00    -0.262 OA
HETATM   10  N4  UNL     1      20.660  -9.841   7.119  1.00  0.00    -0.345 N 
ATOM     11  H4  UNL     1      20.239 -10.300   7.927  1.00  0.00     0.163 HD
BRANCH  10  12
HETATM   12  C8  UNL     1      19.883  -8.869   6.383  1.00  0.00     0.022 C 
HETATM   13  C9  UNL     1      20.143  -9.051   4.905  1.00  0.00     0.037 C 
HETATM   14  C10 UNL     1      18.396  -9.019   6.597  1.00  0.00     0.037 C 
HETATM   15  C11 UNL     1      20.316  -7.495   6.788  1.00  0.00     0.037 C 
ENDBRANCH  10  12
ENDBRANCH   6   8
BRANCH   1  16
HETATM   16  C2  UNL     1      24.282 -15.187   7.230  1.00  0.00     0.121 C 
HETATM   17  C1  UNL     1      24.840 -15.825   5.978  1.00  0.00     0.026 C 
ENDBRANCH   1  16
BRANCH   1  18
HETATM   18  C3  UNL     1      21.969 -15.542   6.261  1.00  0.00     0.121 C 
HETATM   19  C4  UNL     1      21.357 -16.549   7.200  1.00  0.00     0.026 C 
ENDBRANCH   1  18
TORSDOF 4
ENDMDL
MODEL 3
REMARK VINA RESULT: -5.305859781      1.344      6.138
REMARK  4 active torsions:
REMARK  status: ('A' for Active; 'I' for Inactive)
REMARK    1  A    between atoms: C2_2  and  N1_3 
REMARK    2  A    between atoms: N1_3  and  C3_4 
REMARK       I    between atoms: N1_3  and  C5_6 
REMARK       I    between atoms: N3_8  and  C6_10 
REMARK    3  A    between atoms: C6_10  and  C7_12 
REMARK       I    between atoms: C7_12  and  N4_14 
REMARK    4  A    between atoms: N4_14  and  C8_16 
ROOT
HETATM    1  N1  UNL     1      20.734  -9.123   5.912  1.00  0.00    -0.356 N 
HETATM    2  C5  UNL     1      21.656  -9.999   6.533  1.00  0.00     0.193 C 
HETATM    3  N2  UNL     1      22.986 -10.008   6.059  1.00  0.00    -0.063 NA
HETATM    4  N3  UNL     1      21.235 -10.757   7.515  1.00  0.00    -0.293 N 
ATOM      5  H3  UNL     1      20.270 -10.735   7.844  1.00  0.00     0.172 HD
HETATM    6  C6  UNL     1      22.218 -11.613   8.094  1.00  0.00     0.315 C 
HETATM    7  O1  UNL     1      23.116 -11.060   8.776  1.00  0.00    -0.262 OA
ENDROOT
BRANCH   6   8
HETATM    8  C7  UNL     1      22.224 -13.052   7.933  1.00  0.00     0.310 C 
HETATM    9  O2  UNL     1      21.714 -13.772   8.824  1.00  0.00    -0.262 OA
HETATM   10  N4  UNL     1      22.787 -13.668   6.797  1.00  0.00    -0.345 N 
ATOM     11  H4  UNL     1      23.203 -13.082   6.073  1.00  0.00     0.163 HD
BRANCH  10  12
HETATM   12  C8  UNL     1      22.795 -15.104   6.627  1.00  0.00     0.022 C 
HETATM   13  C9  UNL     1      23.332 -15.432   5.252  1.00  0.00     0.037 C 
HETATM   14  C10 UNL     1      23.674 -15.811   7.630  1.00  0.00     0.037 C 
HETATM   15  C11 UNL     1      21.392 -15.612   6.736  1.00  0.00     0.037 C 
ENDBRANCH  10  12
ENDBRANCH   6   8
BRANCH   1  16
HETATM   16  C2  UNL     1      20.185  -8.048   6.728  1.00  0.00     0.121 C 
HETATM   17  C1  UNL     1      18.676  -8.121   6.688  1.00  0.00     0.026 C 
ENDBRANCH   1  16
BRANCH   1  18
HETATM   18  C3  UNL     1      20.381  -9.297   4.533  1.00  0.00     0.121 C 
HETATM   19  C4  UNL     1      20.944  -8.163   3.716  1.00  0.00     0.026 C 
ENDBRANCH   1  18
TORSDOF 4
ENDMDL
MODEL 4
REMARK VINA RESULT: -5.193616144      0.771      1.399
REMARK  4 active torsions:
REMARK  status: ('A' for Active; 'I' for Inactive)
REMARK    1  A    between atoms: C2_2  and  N1_3 
REMARK    2  A    between atoms: N1_3  and  C3_4 
REMARK       I    between atoms: N1_3  and  C5_6 
REMARK       I    between atoms: N3_8  and  C6_10 
REMARK    3  A    between atoms: C6_10  and  C7_12 
REMARK       I    between atoms: C7_12  and  N4_14 
REMARK    4  A    between atoms: N4_14  and  C8_16 
ROOT
HETATM    1  N1  UNL     1      23.867 -14.398   6.576  1.00  0.00    -0.356 N 
HETATM    2  C5  UNL     1      23.159 -13.304   7.129  1.00  0.00     0.193 C 
HETATM    3  N2  UNL     1      21.992 -13.578   7.874  1.00  0.00    -0.063 NA
HETATM    4  N3  UNL     1      23.619 -12.095   6.926  1.00  0.00    -0.293 N 
ATOM      5  H3  UNL     1      24.465 -11.917   6.386  1.00  0.00     0.172 HD
HETATM    6  C6  UNL     1      22.855 -11.042   7.514  1.00  0.00     0.315 C 
HETATM    7  O1  UNL     1      22.892 -10.952   8.766  1.00  0.00    -0.262 OA
ENDROOT
BRANCH   6   8
HETATM    8  C7  UNL     1      22.065 -10.101   6.749  1.00  0.00     0.310 C 
HETATM    9  O2  UNL     1      22.575  -9.537   5.752  1.00  0.00    -0.262 OA
HETATM   10  N4  UNL     1      20.732  -9.801   7.095  1.00  0.00    -0.345 N 
ATOM     11  H4  UNL     1      20.318 -10.259   7.907  1.00  0.00     0.163 HD
BRANCH  10  12
HETATM   12  C8  UNL     1      19.933  -8.865   6.336  1.00  0.00     0.022 C 
HETATM   13  C9  UNL     1      20.159  -9.109   4.861  1.00  0.00     0.037 C 
HETATM   14  C10 UNL     1      18.452  -9.011   6.591  1.00  0.00     0.037 C 
HETATM   15  C11 UNL     1      20.369  -7.473   6.671  1.00  0.00     0.037 C 
ENDBRANCH  10  12
ENDBRANCH   6   8
BRANCH   1  16
HETATM   16  C2  UNL     1      25.212 -14.643   7.080  1.00  0.00     0.121 C 
HETATM   17  C1  UNL     1      26.050 -15.247   5.977  1.00  0.00     0.026 C 
ENDBRANCH   1  16
BRANCH   1  18
HETATM   18  C3  UNL     1      23.262 -15.223   5.572  1.00  0.00     0.121 C 
HETATM   19  C4  UNL     1      22.818 -14.370   4.411  1.00  0.00     0.026 C 
ENDBRANCH   1  18
TORSDOF 4
ENDMDL
MODEL 5
REMARK VINA RESULT: -5.111873542      1.209      1.288
REMARK  4 active torsions:
REMARK  status: ('A' for Active; 'I' for Inactive)
REMARK    1  A    between atoms: C2_2  and  N1_3 
REMARK    2  A    between atoms: N1_3  and  C3_4 
REMARK       I    between atoms: N1_3  and  C5_6 
REMARK       I    between atoms: N3_8  and  C6_10 
REMARK    3  A    between atoms: C6_10  and  C7_12 
REMARK       I    between atoms: C7_12  and  N4_14 
REMARK    4  A    between atoms: N4_14  and  C8_16 
ROOT
HETATM    1  N1  UNL     1      24.643 -14.117   6.930  1.00  0.00    -0.356 N 
HETATM    2  C5  UNL     1      23.523 -13.326   7.279  1.00  0.00     0.193 C 
HETATM    3  N2  UNL     1      22.259 -13.953   7.334  1.00  0.00    -0.063 NA
HETATM    4  N3  UNL     1      23.710 -12.055   7.535  1.00  0.00    -0.293 N 
ATOM      5  H3  UNL     1      24.631 -11.621   7.490  1.00  0.00     0.172 HD
HETATM    6  C6  UNL     1      22.537 -11.320   7.880  1.00  0.00     0.315 C 
HETATM    7  O1  UNL     1      22.025 -11.571   8.999  1.00  0.00    -0.262 OA
ENDROOT
BRANCH   6   8
HETATM    8  C7  UNL     1      21.931 -10.326   7.020  1.00  0.00     0.310 C 
HETATM    9  O2  UNL     1      22.605  -9.825   6.089  1.00  0.00    -0.262 OA
HETATM   10  N4  UNL     1      20.598  -9.905   7.200  1.00  0.00    -0.345 N 
ATOM     11  H4  UNL     1      20.050 -10.312   7.958  1.00  0.00     0.163 HD
BRANCH  10  12
HETATM   12  C8  UNL     1      19.982  -8.915   6.345  1.00  0.00     0.022 C 
HETATM   13  C9  UNL     1      20.518  -7.549   6.710  1.00  0.00     0.037 C 
HETATM   14  C10 UNL     1      20.280  -9.135   4.881  1.00  0.00     0.037 C 
HETATM   15  C11 UNL     1      18.503  -8.933   6.568  1.00  0.00     0.037 C 
ENDBRANCH  10  12
ENDBRANCH   6   8
BRANCH   1  16
HETATM   16  C2  UNL     1      25.670 -14.301   7.947  1.00  0.00     0.121 C 
HETATM   17  C1  UNL     1      25.386 -15.574   8.710  1.00  0.00     0.026 C 
ENDBRANCH   1  16
BRANCH   1  18
HETATM   18  C3  UNL     1      24.736 -14.713   5.629  1.00  0.00     0.121 C 
HETATM   19  C4  UNL     1      24.812 -13.634   4.579  1.00  0.00     0.026 C 
ENDBRANCH   1  18
TORSDOF 4
ENDMDL
