MODEL 1
REMARK VINA RESULT: -5.162975424      0.000      0.000
REMARK  6 active torsions:
REMARK  status: ('A' for Active; 'I' for Inactive)
REMARK    1  A    between atoms: C2_2  and  C3_3 
REMARK    2  A    between atoms: C4_4  and  C5_5 
REMARK    3  A    between atoms: C7_9  and  N2_10 
REMARK       I    between atoms: N2_10  and  C8_12 
REMARK    4  A    between atoms: C8_12  and  C9_14 
REMARK    5  A    between atoms: C9_14  and  C10_15 
REMARK    6  A    between atoms: C10_15  and  S1_16 
ROOT
HETATM    1  C5  UNL     1      22.025 -10.399   6.650  1.00  0.00     0.118 A 
HETATM    2  C6  UNL     1      22.995 -10.375   5.654  1.00  0.00     0.145 A 
HETATM    3  N1  UNL     1      24.055 -11.126   6.034  1.00  0.00    -0.199 N 
ATOM      4  H1  UNL     1      24.915 -11.294   5.512  1.00  0.00     0.183 HD
HETATM    5  C7  UNL     1      23.731 -11.599   7.245  1.00  0.00     0.685 A 
HETATM    6  N3  UNL     1      22.525 -11.176   7.626  1.00  0.00    -0.182 N 
ATOM      7  H3  UNL     1      22.063 -11.403   8.506  1.00  0.00     0.185 HD
ENDROOT
BRANCH   5   8
HETATM    8  N2  UNL     1      24.479 -12.363   7.957  1.00  0.00    -0.159 N 
HETATM    9  C8  UNL     1      25.228 -13.440   7.449  1.00  0.00     0.236 C 
HETATM   10  O1  UNL     1      26.077 -13.235   6.555  1.00  0.00    -0.273 OA
ATOM     11  H2  UNL     1      24.534 -12.177   8.958  1.00  0.00     0.187 HD
BRANCH   9  12
HETATM   12  C9  UNL     1      24.989 -14.799   7.989  1.00  0.00     0.113 C 
BRANCH  12  13
HETATM   13  C10 UNL     1      24.662 -15.746   6.865  1.00  0.00     0.072 C 
BRANCH  13  14
HETATM   14  S1  UNL     1      22.982 -15.501   6.390  1.00  0.00    -0.228 SA
HETATM   15  C11 UNL     1      22.838 -14.453   4.964  1.00  0.00     0.078 C 
HETATM   16  C12 UNL     1      21.947 -14.983   7.709  1.00  0.00     0.078 C 
ENDBRANCH  13  14
ENDBRANCH  12  13
ENDBRANCH   9  12
ENDBRANCH   5   8
BRANCH   1  17
HETATM   17  C4  UNL     1      20.753  -9.733   6.636  1.00  0.00    -0.047 C 
HETATM   18  C3  UNL     1      19.694  -9.159   6.624  1.00  0.00    -0.100 C 
BRANCH  18  19
HETATM   19  C2  UNL     1      18.410  -8.444   6.591  1.00  0.00     0.090 C 
HETATM   20  C1  UNL     1      18.654  -6.943   6.707  1.00  0.00     0.018 C 
ENDBRANCH  18  19
ENDBRANCH   1  17
TORSDOF 6
ENDMDL
MODEL 2
REMARK VINA RESULT: -5.144471914      1.382      1.953
REMARK  6 active torsions:
REMARK  status: ('A' for Active; 'I' for Inactive)
REMARK    1  A    between atoms: C2_2  and  C3_3 
REMARK    2  A    between atoms: C4_4  and  C5_5 
REMARK    3  A    between atoms: C7_9  and  N2_10 
REMARK       I    between atoms: N2_10  and  C8_12 
REMARK    4  A    between atoms: C8_12  and  C9_14 
REMARK    5  A    between atoms: C9_14  and  C10_15 
REMARK    6  A    between atoms: C10_15  and  S1_16 
ROOT
HETATM    1  C5  UNL     1      21.885 -10.621   7.005  1.00  0.00     0.118 A 
HETATM    2  C6  UNL     1      22.510 -10.979   8.195  1.00  0.00     0.145 A 
HETATM    3  N1  UNL     1      23.604 -11.730   7.925  1.00  0.00    -0.199 N 
ATOM      4  H1  UNL     1      24.257 -12.137   8.595  1.00  0.00     0.183 HD
HETATM    5  C7  UNL     1      23.642 -11.824   6.590  1.00  0.00     0.685 A 
HETATM    6  N3  UNL     1      22.626 -11.169   6.026  1.00  0.00    -0.182 N 
ATOM      7  H3  UNL     1      22.444 -11.096   5.025  1.00  0.00     0.185 HD
ENDROOT
BRANCH   5   8
HETATM    8  N2  UNL     1      24.538 -12.462   5.925  1.00  0.00    -0.159 N 
HETATM    9  C8  UNL     1      24.269 -13.530   5.051  1.00  0.00     0.236 C 
HETATM   10  O1  UNL     1      23.498 -13.357   4.083  1.00  0.00    -0.273 OA
ATOM     11  H2  UNL     1      25.510 -12.174   6.040  1.00  0.00     0.187 HD
BRANCH   9  12
HETATM   12  C9  UNL     1      24.910 -14.842   5.302  1.00  0.00     0.113 C 
BRANCH  12  13
HETATM   13  C10 UNL     1      23.855 -15.884   5.565  1.00  0.00     0.072 C 
BRANCH  13  14
HETATM   14  S1  UNL     1      23.426 -15.835   7.274  1.00  0.00    -0.228 SA
HETATM   15  C11 UNL     1      21.901 -14.970   7.553  1.00  0.00     0.078 C 
HETATM   16  C12 UNL     1      24.721 -15.260   8.308  1.00  0.00     0.078 C 
ENDBRANCH  13  14
ENDBRANCH  12  13
ENDBRANCH   9  12
ENDBRANCH   5   8
BRANCH   1  17
HETATM   17  C4  UNL     1      20.698  -9.828   6.855  1.00  0.00    -0.047 C 
HETATM   18  C3  UNL     1      19.695  -9.174   6.718  1.00  0.00    -0.100 C 
BRANCH  18  19
HETATM   19  C2  UNL     1      18.459  -8.398   6.553  1.00  0.00     0.090 C 
HETATM   20  C1  UNL     1      18.765  -6.909   6.682  1.00  0.00     0.018 C 
ENDBRANCH  18  19
ENDBRANCH   1  17
TORSDOF 6
ENDMDL
MODEL 3
REMARK VINA RESULT: -5.108562432      2.994      4.103
REMARK  6 active torsions:
REMARK  status: ('A' for Active; 'I' for Inactive)
REMARK    1  A    between atoms: C2_2  and  C3_3 
REMARK    2  A    between atoms: C4_4  and  C5_5 
REMARK    3  A    between atoms: C7_9  and  N2_10 
REMARK       I    between atoms: N2_10  and  C8_12 
REMARK    4  A    between atoms: C8_12  and  C9_14 
REMARK    5  A    between atoms: C9_14  and  C10_15 
REMARK    6  A    between atoms: C10_15  and  S1_16 
ROOT
HETATM    1  C5  UNL     1      21.769 -10.710   7.320  1.00  0.00     0.118 A 
HETATM    2  C6  UNL     1      21.893 -11.574   8.403  1.00  0.00     0.145 A 
HETATM    3  N1  UNL     1      23.109 -12.166   8.375  1.00  0.00    -0.199 N 
ATOM      4  H1  UNL     1      23.484 -12.846   9.037  1.00  0.00     0.183 HD
HETATM    5  C7  UNL     1      23.716 -11.667   7.289  1.00  0.00     0.685 A 
HETATM    6  N3  UNL     1      22.931 -10.799   6.650  1.00  0.00    -0.182 N 
ATOM      7  H3  UNL     1      23.172 -10.289   5.800  1.00  0.00     0.185 HD
ENDROOT
BRANCH   5   8
HETATM    8  N2  UNL     1      24.901 -11.979   6.904  1.00  0.00    -0.159 N 
HETATM    9  C8  UNL     1      25.764 -12.840   7.605  1.00  0.00     0.236 C 
HETATM   10  O1  UNL     1      25.403 -14.011   7.851  1.00  0.00    -0.273 OA
ATOM     11  H2  UNL     1      25.238 -11.575   6.030  1.00  0.00     0.187 HD
BRANCH   9  12
HETATM   12  C9  UNL     1      27.088 -12.333   8.037  1.00  0.00     0.113 C 
BRANCH  12  13
HETATM   13  C10 UNL     1      27.755 -11.610   6.897  1.00  0.00     0.072 C 
BRANCH  13  14
HETATM   14  S1  UNL     1      29.215 -10.829   7.502  1.00  0.00    -0.228 SA
HETATM   15  C11 UNL     1      29.434 -11.082   9.245  1.00  0.00     0.078 C 
HETATM   16  C12 UNL     1      29.346  -9.138   7.049  1.00  0.00     0.078 C 
ENDBRANCH  13  14
ENDBRANCH  12  13
ENDBRANCH   9  12
ENDBRANCH   5   8
BRANCH   1  17
HETATM   17  C4  UNL     1      20.636  -9.894   6.989  1.00  0.00    -0.047 C 
HETATM   18  C3  UNL     1      19.674  -9.218   6.722  1.00  0.00    -0.100 C 
BRANCH  18  19
HETATM   19  C2  UNL     1      18.497  -8.392   6.420  1.00  0.00     0.090 C 
HETATM   20  C1  UNL     1      18.817  -6.925   6.683  1.00  0.00     0.018 C 
ENDBRANCH  18  19
ENDBRANCH   1  17
TORSDOF 6
ENDMDL
MODEL 4
REMARK VINA RESULT: -5.097309458      1.102      1.272
REMARK  6 active torsions:
REMARK  status: ('A' for Active; 'I' for Inactive)
REMARK    1  A    between atoms: C2_2  and  C3_3 
REMARK    2  A    between atoms: C4_4  and  C5_5 
REMARK    3  A    between atoms: C7_9  and  N2_10 
REMARK       I    between atoms: N2_10  and  C8_12 
REMARK    4  A    between atoms: C8_12  and  C9_14 
REMARK    5  A    between atoms: C9_14  and  C10_15 
REMARK    6  A    between atoms: C10_15  and  S1_16 
ROOT
HETATM    1  C5  UNL     1      21.928 -10.458   6.748  1.00  0.00     0.118 A 
HETATM    2  C6  UNL     1      23.022 -10.289   5.906  1.00  0.00     0.145 A 
HETATM    3  N1  UNL     1      24.006 -11.149   6.260  1.00  0.00    -0.199 N 
ATOM      4  H1  UNL     1      24.923 -11.254   5.827  1.00  0.00     0.183 HD
HETATM    5  C7  UNL     1      23.514 -11.831   7.303  1.00  0.00     0.685 A 
HETATM    6  N3  UNL     1      22.277 -11.432   7.606  1.00  0.00    -0.182 N 
ATOM      7  H3  UNL     1      21.697 -11.803   8.358  1.00  0.00     0.185 HD
ENDROOT
BRANCH   5   8
HETATM    8  N2  UNL     1      24.143 -12.754   7.937  1.00  0.00    -0.159 N 
HETATM    9  C8  UNL     1      24.350 -14.056   7.448  1.00  0.00     0.236 C 
HETATM   10  O1  UNL     1      24.950 -14.220   6.364  1.00  0.00    -0.273 OA
ATOM     11  H2  UNL     1      24.518 -12.527   8.858  1.00  0.00     0.187 HD
BRANCH   9  12
HETATM   12  C9  UNL     1      23.847 -15.207   8.234  1.00  0.00     0.113 C 
BRANCH  12  13
HETATM   13  C10 UNL     1      22.343 -15.251   8.170  1.00  0.00     0.072 C 
BRANCH  13  14
HETATM   14  S1  UNL     1      21.863 -16.519   7.043  1.00  0.00    -0.228 SA
HETATM   15  C11 UNL     1      21.693 -15.908   5.385  1.00  0.00     0.078 C 
HETATM   16  C12 UNL     1      20.459 -17.432   7.567  1.00  0.00     0.078 C 
ENDBRANCH  13  14
ENDBRANCH  12  13
ENDBRANCH   9  12
ENDBRANCH   5   8
BRANCH   1  17
HETATM   17  C4  UNL     1      20.685  -9.742   6.707  1.00  0.00    -0.047 C 
HETATM   18  C3  UNL     1      19.650  -9.126   6.667  1.00  0.00    -0.100 C 
BRANCH  18  19
HETATM   19  C2  UNL     1      18.394  -8.366   6.596  1.00  0.00     0.090 C 
HETATM   20  C1  UNL     1      18.689  -6.874   6.708  1.00  0.00     0.018 C 
ENDBRANCH  18  19
ENDBRANCH   1  17
TORSDOF 6
ENDMDL
MODEL 5
REMARK VINA RESULT: -5.094987210      2.902      3.998
REMARK  6 active torsions:
REMARK  status: ('A' for Active; 'I' for Inactive)
REMARK    1  A    between atoms: C2_2  and  C3_3 
REMARK    2  A    between atoms: C4_4  and  C5_5 
REMARK    3  A    between atoms: C7_9  and  N2_10 
REMARK       I    between atoms: N2_10  and  C8_12 
REMARK    4  A    between atoms: C8_12  and  C9_14 
REMARK    5  A    between atoms: C9_14  and  C10_15 
REMARK    6  A    between atoms: C10_15  and  S1_16 
ROOT
HETATM    1  C5  UNL     1      21.743 -10.679   7.313  1.00  0.00     0.118 A 
HETATM    2  C6  UNL     1      21.867 -11.541   8.398  1.00  0.00     0.145 A 
HETATM    3  N1  UNL     1      23.082 -12.137   8.368  1.00  0.00    -0.199 N 
ATOM      4  H1  UNL     1      23.457 -12.815   9.031  1.00  0.00     0.183 HD
HETATM    5  C7  UNL     1      23.688 -11.641   7.281  1.00  0.00     0.685 A 
HETATM    6  N3  UNL     1      22.904 -10.772   6.641  1.00  0.00    -0.182 N 
ATOM      7  H3  UNL     1      23.144 -10.265   5.789  1.00  0.00     0.185 HD
ENDROOT
BRANCH   5   8
HETATM    8  N2  UNL     1      24.871 -11.957   6.893  1.00  0.00    -0.159 N 
HETATM    9  C8  UNL     1      25.728 -12.831   7.586  1.00  0.00     0.236 C 
HETATM   10  O1  UNL     1      25.358 -14.002   7.820  1.00  0.00    -0.273 OA
ATOM     11  H2  UNL     1      25.213 -11.546   6.025  1.00  0.00     0.187 HD
BRANCH   9  12
HETATM   12  C9  UNL     1      27.054 -12.337   8.025  1.00  0.00     0.113 C 
BRANCH  12  13
HETATM   13  C10 UNL     1      27.680 -13.326   8.973  1.00  0.00     0.072 C 
BRANCH  13  14
HETATM   14  S1  UNL     1      29.265 -12.724   9.453  1.00  0.00    -0.228 SA
HETATM   15  C11 UNL     1      29.692 -13.213  11.105  1.00  0.00     0.078 C 
HETATM   16  C12 UNL     1      29.473 -11.001   9.190  1.00  0.00     0.078 C 
ENDBRANCH  13  14
ENDBRANCH  12  13
ENDBRANCH   9  12
ENDBRANCH   5   8
BRANCH   1  17
HETATM   17  C4  UNL     1      20.612  -9.861   6.983  1.00  0.00    -0.047 C 
HETATM   18  C3  UNL     1      19.651  -9.182   6.717  1.00  0.00    -0.100 C 
BRANCH  18  19
HETATM   19  C2  UNL     1      18.476  -8.354   6.416  1.00  0.00     0.090 C 
HETATM   20  C1  UNL     1      18.799  -6.887   6.683  1.00  0.00     0.018 C 
ENDBRANCH  18  19
ENDBRANCH   1  17
TORSDOF 6
ENDMDL
