MODEL 1
REMARK VINA RESULT: -9.016422178      0.000      0.000
REMARK  13 active torsions:
REMARK  status: ('A' for Active; 'I' for Inactive)
REMARK    1  A    between atoms: C2_2  and  N1_3 
REMARK    2  A    between atoms: N1_3  and  C4_5 
REMARK    3  A    between atoms: N1_3  and  C6_7 
REMARK    4  A    between atoms: C6_7  and  C7_8 
REMARK    5  A    between atoms: C7_8  and  N2_9 
REMARK    6  A    between atoms: N2_9  and  O1_10 
REMARK    7  A    between atoms: N2_9  and  C8_12 
REMARK    8  A    between atoms: C8_12  and  C9_13 
REMARK    9  A    between atoms: C9_13  and  C10_14 
REMARK   10  A    between atoms: C10_14  and  O2_15 
REMARK   11  A    between atoms: O2_15  and  C11_16 
REMARK   12  A    between atoms: C14_19  and  N3_20 
REMARK   13  A    between atoms: N3_20  and  C15_22 
ROOT
HETATM    1  C11 UNL     1      -4.946  23.419  14.362  1.00  0.00     0.091 A 
HETATM    2  C12 UNL     1      -3.669  23.898  14.364  1.00  0.00     0.054 A 
HETATM    3  C13 UNL     1      -3.201  24.626  13.310  1.00  0.00     0.021 A 
HETATM    4  C14 UNL     1      -1.865  25.085  13.400  1.00  0.00     0.053 A 
HETATM    5  C23 UNL     1      -1.423  25.819  12.319  1.00  0.00    -0.012 A 
HETATM    6  C24 UNL     1      -0.053  26.377  12.250  1.00  0.00     0.052 C 
HETATM    7  C25 UNL     1      -2.264  26.059  11.249  1.00  0.00     0.014 A 
HETATM    8  C26 UNL     1      -1.750  26.842  10.079  1.00  0.00     0.068 C 
HETATM    9  N5  UNL     1      -3.522  25.608  11.204  1.00  0.00    -0.359 N 
ATOM     10  H5  UNL     1      -4.112  25.808  10.397  1.00  0.00     0.166 HD
HETATM   11  C27 UNL     1      -4.000  24.889  12.231  1.00  0.00     0.046 A 
HETATM   12  C28 UNL     1      -5.324  24.417  12.185  1.00  0.00     0.057 A 
HETATM   13  C29 UNL     1      -5.759  23.688  13.266  1.00  0.00     0.069 A 
HETATM   14 CL1  UNL     1      -7.415  23.087  13.219  1.00  0.00    -0.081 Cl
ENDROOT
BRANCH   1  15
HETATM   15  O2  UNL     1      -5.497  22.686  15.367  1.00  0.00    -0.349 OA
BRANCH  15  16
HETATM   16  C10 UNL     1      -5.310  22.865  16.759  1.00  0.00     0.181 C 
BRANCH  16  17
HETATM   17  C9  UNL     1      -6.488  22.141  17.467  1.00  0.00     0.073 C 
BRANCH  17  18
HETATM   18  C8  UNL     1      -7.523  23.172  17.673  1.00  0.00     0.092 C 
BRANCH  18  19
HETATM   19  N2  UNL     1      -8.376  23.556  16.646  1.00  0.00    -0.274 N 
BRANCH  19  20
HETATM   20  C7  UNL     1      -8.455  24.809  15.997  1.00  0.00     0.182 C 
BRANCH  20  21
HETATM   21  C6  UNL     1      -7.432  25.789  16.412  1.00  0.00     0.259 C 
BRANCH  21  22
HETATM   22  N1  UNL     1      -7.258  26.866  15.435  1.00  0.00    -0.070 N 
HETATM   23  C3  UNL     1      -7.922  26.633  14.193  1.00  0.00     0.272 C 
BRANCH  22  24
HETATM   24  C2  UNL     1      -7.779  28.097  15.999  1.00  0.00     0.232 C 
HETATM   25  C1  UNL     1      -9.268  28.211  15.953  1.00  0.00     0.035 C 
ENDBRANCH  22  24
BRANCH  22  26
HETATM   26  C4  UNL     1      -5.833  26.970  15.170  1.00  0.00     0.232 C 
HETATM   27  C5  UNL     1      -5.546  27.714  13.876  1.00  0.00     0.035 C 
ENDBRANCH  22  26
ENDBRANCH  21  22
ENDBRANCH  20  21
ENDBRANCH  19  20
BRANCH  19  28
HETATM   28  O1  UNL     1      -9.161  22.699  16.250  1.00  0.00    -0.288 OA
ATOM     29  H1  UNL     1      -8.769  21.934  15.843  1.00  0.00     0.244 HD
ENDBRANCH  19  28
ENDBRANCH  18  19
ENDBRANCH  17  18
ENDBRANCH  16  17
ENDBRANCH  15  16
ENDBRANCH   1  15
BRANCH   4  30
HETATM   30  N3  UNL     1      -1.225  24.810  14.408  1.00  0.00    -0.353 N 
ATOM     31  H3  UNL     1      -1.267  25.611  15.038  1.00  0.00     0.166 HD
BRANCH  30  32
HETATM   32  C15 UNL     1      -0.482  23.845  15.002  1.00  0.00     0.060 A 
HETATM   33  C16 UNL     1      -1.059  22.849  15.803  1.00  0.00     0.032 A 
HETATM   34  C17 UNL     1      -0.350  21.871  16.427  1.00  0.00     0.003 A 
HETATM   35  C18 UNL     1       1.003  21.816  16.294  1.00  0.00     0.014 A 
HETATM   36  C19 UNL     1       1.628  22.774  15.513  1.00  0.00    -0.006 A 
HETATM   37  C20 UNL     1       2.974  22.928  15.229  1.00  0.00     0.030 A 
HETATM   38  C22 UNL     1       0.907  23.760  14.885  1.00  0.00     0.069 A 
HETATM   39  C21 UNL     1       3.055  24.031  14.414  1.00  0.00     0.089 A 
HETATM   40  N4  UNL     1       1.788  24.515  14.221  1.00  0.00    -0.363 N 
ATOM     41  H4  UNL     1       1.553  25.330  13.655  1.00  0.00     0.165 HD
ENDBRANCH  30  32
ENDBRANCH   4  30
TORSDOF 13
ENDMDL
MODEL 2
REMARK VINA RESULT: -8.912499208      2.632      3.604
REMARK  13 active torsions:
REMARK  status: ('A' for Active; 'I' for Inactive)
REMARK    1  A    between atoms: C2_2  and  N1_3 
REMARK    2  A    between atoms: N1_3  and  C4_5 
REMARK    3  A    between atoms: N1_3  and  C6_7 
REMARK    4  A    between atoms: C6_7  and  C7_8 
REMARK    5  A    between atoms: C7_8  and  N2_9 
REMARK    6  A    between atoms: N2_9  and  O1_10 
REMARK    7  A    between atoms: N2_9  and  C8_12 
REMARK    8  A    between atoms: C8_12  and  C9_13 
REMARK    9  A    between atoms: C9_13  and  C10_14 
REMARK   10  A    between atoms: C10_14  and  O2_15 
REMARK   11  A    between atoms: O2_15  and  C11_16 
REMARK   12  A    between atoms: C14_19  and  N3_20 
REMARK   13  A    between atoms: N3_20  and  C15_22 
ROOT
HETATM    1  C11 UNL     1      -5.429  24.686  14.672  1.00  0.00     0.091 A 
HETATM    2  C12 UNL     1      -4.078  24.831  14.548  1.00  0.00     0.054 A 
HETATM    3  C13 UNL     1      -3.531  25.228  13.364  1.00  0.00     0.021 A 
HETATM    4  C14 UNL     1      -2.121  25.356  13.328  1.00  0.00     0.053 A 
HETATM    5  C23 UNL     1      -1.599  25.760  12.118  1.00  0.00    -0.012 A 
HETATM    6  C24 UNL     1      -0.145  25.947  11.906  1.00  0.00     0.052 C 
HETATM    7  C25 UNL     1      -2.436  26.010  11.046  1.00  0.00     0.014 A 
HETATM    8  C26 UNL     1      -1.839  26.428   9.736  1.00  0.00     0.068 C 
HETATM    9  N5  UNL     1      -3.764  25.879  11.122  1.00  0.00    -0.359 N 
ATOM     10  H5  UNL     1      -4.348  26.073  10.310  1.00  0.00     0.166 HD
HETATM   11  C27 UNL     1      -4.321  25.488  12.279  1.00  0.00     0.046 A 
HETATM   12  C28 UNL     1      -5.719  25.352  12.359  1.00  0.00     0.057 A 
HETATM   13  C29 UNL     1      -6.233  24.951  13.569  1.00  0.00     0.069 A 
HETATM   14 CL1  UNL     1      -7.983  24.774  13.682  1.00  0.00    -0.081 Cl
ENDROOT
BRANCH   1  15
HETATM   15  O2  UNL     1      -6.061  24.295  15.812  1.00  0.00    -0.349 OA
BRANCH  15  16
HETATM   16  C10 UNL     1      -5.971  23.036  16.452  1.00  0.00     0.181 C 
BRANCH  16  17
HETATM   17  C9  UNL     1      -7.364  22.752  17.080  1.00  0.00     0.073 C 
BRANCH  17  18
HETATM   18  C8  UNL     1      -8.141  22.065  16.030  1.00  0.00     0.092 C 
BRANCH  18  19
HETATM   19  N2  UNL     1      -9.401  22.514  15.652  1.00  0.00    -0.274 N 
BRANCH  19  20
HETATM   20  C7  UNL     1     -10.232  22.020  14.622  1.00  0.00     0.182 C 
BRANCH  20  21
HETATM   21  C6  UNL     1     -11.286  22.951  14.172  1.00  0.00     0.259 C 
BRANCH  21  22
HETATM   22  N1  UNL     1     -12.592  22.302  14.046  1.00  0.00    -0.070 N 
HETATM   23  C3  UNL     1     -13.439  22.896  13.063  1.00  0.00     0.272 C 
BRANCH  22  24
HETATM   24  C2  UNL     1     -12.390  20.912  13.684  1.00  0.00     0.232 C 
HETATM   25  C1  UNL     1     -12.503  20.637  12.219  1.00  0.00     0.035 C 
ENDBRANCH  22  24
BRANCH  22  26
HETATM   26  C4  UNL     1     -13.250  22.420  15.336  1.00  0.00     0.232 C 
HETATM   27  C5  UNL     1     -13.261  23.854  15.842  1.00  0.00     0.035 C 
ENDBRANCH  22  26
ENDBRANCH  21  22
ENDBRANCH  20  21
ENDBRANCH  19  20
BRANCH  19  28
HETATM   28  O1  UNL     1      -9.850  23.459  16.296  1.00  0.00    -0.288 OA
ATOM     29  H1  UNL     1      -9.325  23.745  17.035  1.00  0.00     0.244 HD
ENDBRANCH  19  28
ENDBRANCH  18  19
ENDBRANCH  17  18
ENDBRANCH  16  17
ENDBRANCH  15  16
ENDBRANCH   1  15
BRANCH   4  30
HETATM   30  N3  UNL     1      -1.491  25.113  14.351  1.00  0.00    -0.353 N 
ATOM     31  H3  UNL     1      -1.590  25.909  14.981  1.00  0.00     0.166 HD
BRANCH  30  32
HETATM   32  C15 UNL     1      -0.714  24.186  14.961  1.00  0.00     0.060 A 
HETATM   33  C16 UNL     1      -1.253  23.040  15.563  1.00  0.00     0.032 A 
HETATM   34  C17 UNL     1      -0.511  22.093  16.196  1.00  0.00     0.003 A 
HETATM   35  C18 UNL     1       0.841  22.224  16.275  1.00  0.00     0.014 A 
HETATM   36  C19 UNL     1       1.431  23.336  15.697  1.00  0.00    -0.006 A 
HETATM   37  C20 UNL     1       2.768  23.688  15.645  1.00  0.00     0.030 A 
HETATM   38  C22 UNL     1       0.676  24.290  15.058  1.00  0.00     0.069 A 
HETATM   39  C21 UNL     1       2.809  24.879  14.960  1.00  0.00     0.089 A 
HETATM   40  N4  UNL     1       1.528  25.220  14.616  1.00  0.00    -0.363 N 
ATOM     41  H4  UNL     1       1.265  26.059  14.100  1.00  0.00     0.165 HD
ENDBRANCH  30  32
ENDBRANCH   4  30
TORSDOF 13
ENDMDL
MODEL 3
REMARK VINA RESULT: -8.887320889      2.701      5.301
REMARK  13 active torsions:
REMARK  status: ('A' for Active; 'I' for Inactive)
REMARK    1  A    between atoms: C2_2  and  N1_3 
REMARK    2  A    between atoms: N1_3  and  C4_5 
REMARK    3  A    between atoms: N1_3  and  C6_7 
REMARK    4  A    between atoms: C6_7  and  C7_8 
REMARK    5  A    between atoms: C7_8  and  N2_9 
REMARK    6  A    between atoms: N2_9  and  O1_10 
REMARK    7  A    between atoms: N2_9  and  C8_12 
REMARK    8  A    between atoms: C8_12  and  C9_13 
REMARK    9  A    between atoms: C9_13  and  C10_14 
REMARK   10  A    between atoms: C10_14  and  O2_15 
REMARK   11  A    between atoms: O2_15  and  C11_16 
REMARK   12  A    between atoms: C14_19  and  N3_20 
REMARK   13  A    between atoms: N3_20  and  C15_22 
ROOT
HETATM    1  C11 UNL     1      -5.588  23.365  13.548  1.00  0.00     0.091 A 
HETATM    2  C12 UNL     1      -4.398  23.608  12.927  1.00  0.00     0.054 A 
HETATM    3  C13 UNL     1      -3.233  23.592  13.635  1.00  0.00     0.021 A 
HETATM    4  C14 UNL     1      -2.046  23.850  12.908  1.00  0.00     0.053 A 
HETATM    5  C23 UNL     1      -0.885  23.826  13.652  1.00  0.00    -0.012 A 
HETATM    6  C24 UNL     1       0.446  24.072  13.050  1.00  0.00     0.052 C 
HETATM    7  C25 UNL     1      -0.932  23.564  15.008  1.00  0.00     0.014 A 
HETATM    8  C26 UNL     1       0.343  23.564  15.796  1.00  0.00     0.068 C 
HETATM    9  N5  UNL     1      -2.075  23.323  15.657  1.00  0.00    -0.359 N 
ATOM     10  H5  UNL     1      -2.068  23.132  16.659  1.00  0.00     0.166 HD
HETATM   11  C27 UNL     1      -3.232  23.335  14.978  1.00  0.00     0.046 A 
HETATM   12  C28 UNL     1      -4.435  23.079  15.661  1.00  0.00     0.057 A 
HETATM   13  C29 UNL     1      -5.588  23.103  14.914  1.00  0.00     0.069 A 
HETATM   14 CL1  UNL     1      -7.103  22.787  15.758  1.00  0.00    -0.081 Cl
ENDROOT
BRANCH   1  15
HETATM   15  O2  UNL     1      -6.797  23.360  12.923  1.00  0.00    -0.349 OA
BRANCH  15  16
HETATM   16  C10 UNL     1      -7.387  24.419  12.192  1.00  0.00     0.181 C 
BRANCH  16  17
HETATM   17  C9  UNL     1      -7.226  25.703  13.052  1.00  0.00     0.073 C 
BRANCH  17  18
HETATM   18  C8  UNL     1      -8.572  25.999  13.580  1.00  0.00     0.092 C 
BRANCH  18  19
HETATM   19  N2  UNL     1      -8.879  25.812  14.923  1.00  0.00    -0.274 N 
BRANCH  19  20
HETATM   20  C7  UNL     1     -10.087  25.344  15.486  1.00  0.00     0.182 C 
BRANCH  20  21
HETATM   21  C6  UNL     1     -11.094  24.890  14.507  1.00  0.00     0.259 C 
BRANCH  21  22
HETATM   22  N1  UNL     1     -11.726  23.628  14.895  1.00  0.00    -0.070 N 
HETATM   23  C3  UNL     1     -12.490  23.710  16.098  1.00  0.00     0.272 C 
BRANCH  22  24
HETATM   24  C2  UNL     1     -12.613  23.202  13.828  1.00  0.00     0.232 C 
HETATM   25  C1  UNL     1     -14.041  23.050  14.243  1.00  0.00     0.035 C 
ENDBRANCH  22  24
BRANCH  22  26
HETATM   26  C4  UNL     1     -10.657  22.667  15.105  1.00  0.00     0.232 C 
HETATM   27  C5  UNL     1     -10.239  21.986  13.812  1.00  0.00     0.035 C 
ENDBRANCH  22  26
ENDBRANCH  21  22
ENDBRANCH  20  21
ENDBRANCH  19  20
BRANCH  19  28
HETATM   28  O1  UNL     1      -7.988  26.088  15.722  1.00  0.00    -0.288 OA
ATOM     29  H1  UNL     1      -7.179  25.597  15.627  1.00  0.00     0.244 HD
ENDBRANCH  19  28
ENDBRANCH  18  19
ENDBRANCH  17  18
ENDBRANCH  16  17
ENDBRANCH  15  16
ENDBRANCH   1  15
BRANCH   4  30
HETATM   30  N3  UNL     1      -2.138  24.061  11.704  1.00  0.00    -0.353 N 
ATOM     31  H3  UNL     1      -2.811  23.399  11.317  1.00  0.00     0.166 HD
BRANCH  30  32
HETATM   32  C15 UNL     1      -1.685  24.840  10.693  1.00  0.00     0.060 A 
HETATM   33  C16 UNL     1      -1.677  26.240  10.777  1.00  0.00     0.032 A 
HETATM   34  C17 UNL     1      -1.243  27.059   9.782  1.00  0.00     0.003 A 
HETATM   35  C18 UNL     1      -0.780  26.532   8.616  1.00  0.00     0.014 A 
HETATM   36  C19 UNL     1      -0.762  25.154   8.476  1.00  0.00    -0.006 A 
HETATM   37  C20 UNL     1      -0.342  24.391   7.401  1.00  0.00     0.030 A 
HETATM   38  C22 UNL     1      -1.202  24.332   9.485  1.00  0.00     0.069 A 
HETATM   39  C21 UNL     1      -0.537  23.084   7.779  1.00  0.00     0.089 A 
HETATM   40  N4  UNL     1      -1.058  23.077   9.046  1.00  0.00    -0.363 N 
ATOM     41  H4  UNL     1      -1.300  22.240   9.574  1.00  0.00     0.165 HD
ENDBRANCH  30  32
ENDBRANCH   4  30
TORSDOF 13
ENDMDL
MODEL 4
REMARK VINA RESULT: -8.845543847      3.312      5.832
REMARK  13 active torsions:
REMARK  status: ('A' for Active; 'I' for Inactive)
REMARK    1  A    between atoms: C2_2  and  N1_3 
REMARK    2  A    between atoms: N1_3  and  C4_5 
REMARK    3  A    between atoms: N1_3  and  C6_7 
REMARK    4  A    between atoms: C6_7  and  C7_8 
REMARK    5  A    between atoms: C7_8  and  N2_9 
REMARK    6  A    between atoms: N2_9  and  O1_10 
REMARK    7  A    between atoms: N2_9  and  C8_12 
REMARK    8  A    between atoms: C8_12  and  C9_13 
REMARK    9  A    between atoms: C9_13  and  C10_14 
REMARK   10  A    between atoms: C10_14  and  O2_15 
REMARK   11  A    between atoms: O2_15  and  C11_16 
REMARK   12  A    between atoms: C14_19  and  N3_20 
REMARK   13  A    between atoms: N3_20  and  C15_22 
ROOT
HETATM    1  C11 UNL     1      -5.445  23.233  13.563  1.00  0.00     0.091 A 
HETATM    2  C12 UNL     1      -4.268  23.513  12.934  1.00  0.00     0.054 A 
HETATM    3  C13 UNL     1      -3.099  23.548  13.635  1.00  0.00     0.021 A 
HETATM    4  C14 UNL     1      -1.926  23.843  12.899  1.00  0.00     0.053 A 
HETATM    5  C23 UNL     1      -0.761  23.869  13.637  1.00  0.00    -0.012 A 
HETATM    6  C24 UNL     1       0.556  24.160  13.025  1.00  0.00     0.052 C 
HETATM    7  C25 UNL     1      -0.791  23.619  14.996  1.00  0.00     0.014 A 
HETATM    8  C26 UNL     1       0.487  23.674  15.776  1.00  0.00     0.068 C 
HETATM    9  N5  UNL     1      -1.922  23.342  15.654  1.00  0.00    -0.359 N 
ATOM     10  H5  UNL     1      -1.902  23.161  16.657  1.00  0.00     0.166 HD
HETATM   11  C27 UNL     1      -3.082  23.304  14.981  1.00  0.00     0.046 A 
HETATM   12  C28 UNL     1      -4.271  23.010  15.673  1.00  0.00     0.057 A 
HETATM   13  C29 UNL     1      -5.428  22.983  14.932  1.00  0.00     0.069 A 
HETATM   14 CL1  UNL     1      -6.925  22.620  15.787  1.00  0.00    -0.081 Cl
ENDROOT
BRANCH   1  15
HETATM   15  O2  UNL     1      -6.656  23.176  12.945  1.00  0.00    -0.349 OA
BRANCH  15  16
HETATM   16  C10 UNL     1      -7.319  24.226  12.264  1.00  0.00     0.181 C 
BRANCH  16  17
HETATM   17  C9  UNL     1      -8.081  25.047  13.339  1.00  0.00     0.073 C 
BRANCH  17  18
HETATM   18  C8  UNL     1      -9.221  24.205  13.750  1.00  0.00     0.092 C 
BRANCH  18  19
HETATM   19  N2  UNL     1     -10.407  24.766  14.209  1.00  0.00    -0.274 N 
BRANCH  19  20
HETATM   20  C7  UNL     1     -11.565  24.103  14.673  1.00  0.00     0.182 C 
BRANCH  20  21
HETATM   21  C6  UNL     1     -11.533  22.633  14.546  1.00  0.00     0.259 C 
BRANCH  21  22
HETATM   22  N1  UNL     1     -12.816  22.079  14.112  1.00  0.00    -0.070 N 
HETATM   23  C3  UNL     1     -13.561  22.946  13.258  1.00  0.00     0.272 C 
BRANCH  22  24
HETATM   24  C2  UNL     1     -12.572  20.842  13.394  1.00  0.00     0.232 C 
HETATM   25  C1  UNL     1     -11.144  20.632  13.002  1.00  0.00     0.035 C 
ENDBRANCH  22  24
BRANCH  22  26
HETATM   26  C4  UNL     1     -13.603  21.844  15.311  1.00  0.00     0.232 C 
HETATM   27  C5  UNL     1     -13.733  20.362  15.627  1.00  0.00     0.035 C 
ENDBRANCH  22  26
ENDBRANCH  21  22
ENDBRANCH  20  21
ENDBRANCH  19  20
BRANCH  19  28
HETATM   28  O1  UNL     1     -10.455  25.993  14.212  1.00  0.00    -0.288 OA
ATOM     29  H1  UNL     1      -9.735  26.437  13.778  1.00  0.00     0.244 HD
ENDBRANCH  19  28
ENDBRANCH  18  19
ENDBRANCH  17  18
ENDBRANCH  16  17
ENDBRANCH  15  16
ENDBRANCH   1  15
BRANCH   4  30
HETATM   30  N3  UNL     1      -2.033  24.039  11.694  1.00  0.00    -0.353 N 
ATOM     31  H3  UNL     1      -2.680  23.346  11.317  1.00  0.00     0.166 HD
BRANCH  30  32
HETATM   32  C15 UNL     1      -1.616  24.826  10.674  1.00  0.00     0.060 A 
HETATM   33  C16 UNL     1      -1.624  26.226  10.762  1.00  0.00     0.032 A 
HETATM   34  C17 UNL     1      -1.227  27.053   9.758  1.00  0.00     0.003 A 
HETATM   35  C18 UNL     1      -0.787  26.535   8.579  1.00  0.00     0.014 A 
HETATM   36  C19 UNL     1      -0.755  25.157   8.435  1.00  0.00    -0.006 A 
HETATM   37  C20 UNL     1      -0.354  24.402   7.347  1.00  0.00     0.030 A 
HETATM   38  C22 UNL     1      -1.158  24.327   9.452  1.00  0.00     0.069 A 
HETATM   39  C21 UNL     1      -0.522  23.092   7.726  1.00  0.00     0.089 A 
HETATM   40  N4  UNL     1      -1.010  23.076   9.006  1.00  0.00    -0.363 N 
ATOM     41  H4  UNL     1      -1.227  22.234   9.538  1.00  0.00     0.165 HD
ENDBRANCH  30  32
ENDBRANCH   4  30
TORSDOF 13
ENDMDL
MODEL 5
REMARK VINA RESULT: -8.816272768      2.578      3.466
REMARK  13 active torsions:
REMARK  status: ('A' for Active; 'I' for Inactive)
REMARK    1  A    between atoms: C2_2  and  N1_3 
REMARK    2  A    between atoms: N1_3  and  C4_5 
REMARK    3  A    between atoms: N1_3  and  C6_7 
REMARK    4  A    between atoms: C6_7  and  C7_8 
REMARK    5  A    between atoms: C7_8  and  N2_9 
REMARK    6  A    between atoms: N2_9  and  O1_10 
REMARK    7  A    between atoms: N2_9  and  C8_12 
REMARK    8  A    between atoms: C8_12  and  C9_13 
REMARK    9  A    between atoms: C9_13  and  C10_14 
REMARK   10  A    between atoms: C10_14  and  O2_15 
REMARK   11  A    between atoms: O2_15  and  C11_16 
REMARK   12  A    between atoms: C14_19  and  N3_20 
REMARK   13  A    between atoms: N3_20  and  C15_22 
ROOT
HETATM    1  C11 UNL     1      -5.185  25.067  14.777  1.00  0.00     0.091 A 
HETATM    2  C12 UNL     1      -3.837  25.094  14.573  1.00  0.00     0.054 A 
HETATM    3  C13 UNL     1      -3.329  25.391  13.342  1.00  0.00     0.021 A 
HETATM    4  C14 UNL     1      -1.918  25.400  13.224  1.00  0.00     0.053 A 
HETATM    5  C23 UNL     1      -1.437  25.703  11.968  1.00  0.00    -0.012 A 
HETATM    6  C24 UNL     1       0.013  25.759  11.669  1.00  0.00     0.052 C 
HETATM    7  C25 UNL     1      -2.312  25.972  10.932  1.00  0.00     0.014 A 
HETATM    8  C26 UNL     1      -1.761  26.279   9.573  1.00  0.00     0.068 C 
HETATM    9  N5  UNL     1      -3.640  25.955  11.087  1.00  0.00    -0.359 N 
ATOM     10  H5  UNL     1      -4.252  26.160  10.298  1.00  0.00     0.166 HD
HETATM   11  C27 UNL     1      -4.158  25.664  12.290  1.00  0.00     0.046 A 
HETATM   12  C28 UNL     1      -5.555  25.649  12.452  1.00  0.00     0.057 A 
HETATM   13  C29 UNL     1      -6.029  25.347  13.707  1.00  0.00     0.069 A 
HETATM   14 CL1  UNL     1      -7.778  25.321  13.924  1.00  0.00    -0.081 Cl
ENDROOT
BRANCH   1  15
HETATM   15  O2  UNL     1      -5.780  24.783  15.967  1.00  0.00    -0.349 OA
BRANCH  15  16
HETATM   16  C10 UNL     1      -5.984  23.504  16.538  1.00  0.00     0.181 C 
BRANCH  16  17
HETATM   17  C9  UNL     1      -7.413  23.508  17.148  1.00  0.00     0.073 C 
BRANCH  17  18
HETATM   18  C8  UNL     1      -8.107  22.354  16.545  1.00  0.00     0.092 C 
BRANCH  18  19
HETATM   19  N2  UNL     1      -8.956  22.508  15.455  1.00  0.00    -0.274 N 
BRANCH  19  20
HETATM   20  C7  UNL     1     -10.226  23.126  15.418  1.00  0.00     0.182 C 
BRANCH  20  21
HETATM   21  C6  UNL     1     -10.967  22.948  14.154  1.00  0.00     0.259 C 
BRANCH  21  22
HETATM   22  N1  UNL     1     -12.233  22.238  14.341  1.00  0.00    -0.070 N 
HETATM   23  C3  UNL     1     -12.865  22.501  15.594  1.00  0.00     0.272 C 
BRANCH  22  24
HETATM   24  C2  UNL     1     -13.149  22.628  13.285  1.00  0.00     0.232 C 
HETATM   25  C1  UNL     1     -14.371  23.342  13.767  1.00  0.00     0.035 C 
ENDBRANCH  22  24
BRANCH  22  26
HETATM   26  C4  UNL     1     -11.935  20.817  14.279  1.00  0.00     0.232 C 
HETATM   27  C5  UNL     1     -11.309  20.423  12.950  1.00  0.00     0.035 C 
ENDBRANCH  22  26
ENDBRANCH  21  22
ENDBRANCH  20  21
ENDBRANCH  19  20
BRANCH  19  28
HETATM   28  O1  UNL     1      -8.551  22.051  14.389  1.00  0.00    -0.288 OA
ATOM     29  H1  UNL     1      -8.213  21.163  14.421  1.00  0.00     0.244 HD
ENDBRANCH  19  28
ENDBRANCH  18  19
ENDBRANCH  17  18
ENDBRANCH  16  17
ENDBRANCH  15  16
ENDBRANCH   1  15
BRANCH   4  30
HETATM   30  N3  UNL     1      -1.252  25.152  14.222  1.00  0.00    -0.353 N 
ATOM     31  H3  UNL     1      -1.210  25.996  14.793  1.00  0.00     0.166 HD
BRANCH  30  32
HETATM   32  C15 UNL     1      -0.550  24.181  14.854  1.00  0.00     0.060 A 
HETATM   33  C16 UNL     1      -1.179  23.103  15.493  1.00  0.00     0.032 A 
HETATM   34  C17 UNL     1      -0.513  22.115  16.149  1.00  0.00     0.003 A 
HETATM   35  C18 UNL     1       0.846  22.133  16.215  1.00  0.00     0.014 A 
HETATM   36  C19 UNL     1       1.522  23.174  15.600  1.00  0.00    -0.006 A 
HETATM   37  C20 UNL     1       2.884  23.410  15.529  1.00  0.00     0.030 A 
HETATM   38  C22 UNL     1       0.844  24.169  14.938  1.00  0.00     0.069 A 
HETATM   39  C21 UNL     1       3.019  24.572  14.809  1.00  0.00     0.089 A 
HETATM   40  N4  UNL     1       1.768  25.010  14.464  1.00  0.00    -0.363 N 
ATOM     41  H4  UNL     1       1.572  25.853  13.925  1.00  0.00     0.165 HD
ENDBRANCH  30  32
ENDBRANCH   4  30
TORSDOF 13
ENDMDL
