MODEL 1
REMARK VINA RESULT: -9.574623847      0.000      0.000
REMARK  12 active torsions:
REMARK  status: ('A' for Active; 'I' for Inactive)
REMARK    1  A    between atoms: C2_2  and  C3_3 
REMARK    2  A    between atoms: C3_3  and  O1_4 
REMARK    3  A    between atoms: C3_3  and  C4_6 
REMARK    4  A    between atoms: C5_7  and  C6_8 
REMARK    5  A    between atoms: C5_7  and  C26_33 
REMARK    6  A    between atoms: C7_9  and  C8_10 
REMARK    7  A    between atoms: C14_17  and  C15_18 
REMARK       I    between atoms: C15_18  and  N1_20 
REMARK    8  A    between atoms: N1_20  and  C16_22 
REMARK    9  A    between atoms: C16_22  and  C17_23 
REMARK   10  A    between atoms: C17_23  and  N2_24 
REMARK   11  A    between atoms: C26_33  and  C27_34 
REMARK   12  A    between atoms: C27_34  and  C28_35 
ROOT
HETATM    1  C8  UNL     1      -4.439  23.565  13.965  1.00  0.00    -0.021 C 
HETATM    2  C9  UNL     1      -4.535  22.048  14.266  1.00  0.00     0.020 C 
HETATM    3  C10 UNL     1      -4.671  24.299  15.242  1.00  0.00     0.018 C 
HETATM    4  C11 UNL     1      -3.279  24.643  15.827  1.00  0.00    -0.008 C 
HETATM    5  C12 UNL     1      -2.866  26.014  15.451  1.00  0.00     0.026 C 
HETATM    6  C13 UNL     1      -2.849  26.236  13.947  1.00  0.00     0.101 C 
HETATM    7 CL1  UNL     1      -4.349  26.963  13.470  1.00  0.00    -0.124 Cl
HETATM    8  C14 UNL     1      -2.397  24.998  13.227  1.00  0.00     0.062 C 
HETATM    9  C21 UNL     1      -0.866  24.942  13.514  1.00  0.00     0.021 C 
HETATM   10  C22 UNL     1      -0.427  23.606  14.017  1.00  0.00     0.002 C 
HETATM   11  C23 UNL     1      -1.063  23.478  15.392  1.00  0.00     0.005 C 
HETATM   12  C24 UNL     1      -2.508  23.540  15.183  1.00  0.00    -0.004 C 
HETATM   13  C25 UNL     1      -2.973  23.751  13.727  1.00  0.00     0.021 C 
ENDROOT
BRANCH   1  14
HETATM   14  C7  UNL     1      -5.349  23.833  12.916  1.00  0.00    -0.017 C 
HETATM   15  C6  UNL     1      -6.606  23.928  12.779  1.00  0.00     0.004 C 
BRANCH  15  16
HETATM   16  C5  UNL     1      -7.896  23.883  13.344  1.00  0.00    -0.059 C 
HETATM   17  C4  UNL     1      -8.389  22.628  13.701  1.00  0.00     0.011 C 
BRANCH  17  18
HETATM   18  C3  UNL     1      -9.676  22.377  14.285  1.00  0.00     0.141 C 
BRANCH  18  19
HETATM   19  C2  UNL     1     -10.468  21.319  13.476  1.00  0.00     0.031 C 
HETATM   20  C1  UNL     1     -11.843  21.146  14.078  1.00  0.00     0.008 C 
ENDBRANCH  18  19
BRANCH  18  21
HETATM   21  O1  UNL     1      -9.598  21.871  15.581  1.00  0.00    -0.392 OA
ATOM     22  H1  UNL     1     -10.117  22.462  16.113  1.00  0.00     0.210 HD
ENDBRANCH  18  21
ENDBRANCH  17  18
BRANCH  16  23
HETATM   23  C26 UNL     1      -8.832  24.929  13.701  1.00  0.00     0.042 C 
BRANCH  23  24
HETATM   24  C27 UNL     1      -8.413  26.353  13.438  1.00  0.00     0.032 C 
BRANCH  24  25
HETATM   25  C28 UNL     1      -7.503  26.826  14.498  1.00  0.00    -0.024 C 
HETATM   26  C29 UNL     1      -7.961  27.550  15.495  1.00  0.00    -0.091 C 
HETATM   27  C30 UNL     1      -9.419  27.902  15.561  1.00  0.00     0.042 C 
HETATM   28  C31 UNL     1      -7.092  28.059  16.597  1.00  0.00     0.042 C 
ENDBRANCH  24  25
ENDBRANCH  23  24
ENDBRANCH  16  23
ENDBRANCH  15  16
ENDBRANCH   1  14
BRANCH   8  29
HETATM   29  C15 UNL     1      -2.412  25.169  11.760  1.00  0.00     0.228 C 
HETATM   30  O2  UNL     1      -2.617  24.116  11.063  1.00  0.00    -0.273 OA
HETATM   31  N1  UNL     1      -2.220  26.366  11.055  1.00  0.00    -0.359 N 
ATOM     32  H1  UNL     1      -2.058  27.214  11.597  1.00  0.00     0.162 HD
BRANCH  31  33
HETATM   33  C16 UNL     1      -2.235  26.484   9.613  1.00  0.00     0.150 C 
BRANCH  33  34
HETATM   34  C17 UNL     1      -0.937  27.025   9.058  1.00  0.00     0.255 C 
BRANCH  34  35
HETATM   35  N2  UNL     1      -0.414  26.211   7.997  1.00  0.00    -0.077 N 
HETATM   36  C18 UNL     1       1.045  26.412   7.977  1.00  0.00     0.271 C 
HETATM   37  C19 UNL     1      -0.606  24.788   8.270  1.00  0.00     0.271 C 
HETATM   38  C20 UNL     1      -0.875  26.566   6.683  1.00  0.00     0.271 C 
ENDBRANCH  34  35
ENDBRANCH  33  34
ENDBRANCH  31  33
ENDBRANCH   8  29
TORSDOF 12
ENDMDL
MODEL 2
REMARK VINA RESULT: -9.286533811      3.019      8.660
REMARK  12 active torsions:
REMARK  status: ('A' for Active; 'I' for Inactive)
REMARK    1  A    between atoms: C2_2  and  C3_3 
REMARK    2  A    between atoms: C3_3  and  O1_4 
REMARK    3  A    between atoms: C3_3  and  C4_6 
REMARK    4  A    between atoms: C5_7  and  C6_8 
REMARK    5  A    between atoms: C5_7  and  C26_33 
REMARK    6  A    between atoms: C7_9  and  C8_10 
REMARK    7  A    between atoms: C14_17  and  C15_18 
REMARK       I    between atoms: C15_18  and  N1_20 
REMARK    8  A    between atoms: N1_20  and  C16_22 
REMARK    9  A    between atoms: C16_22  and  C17_23 
REMARK   10  A    between atoms: C17_23  and  N2_24 
REMARK   11  A    between atoms: C26_33  and  C27_34 
REMARK   12  A    between atoms: C27_34  and  C28_35 
ROOT
HETATM    1  C8  UNL     1      -6.108  26.508  14.180  1.00  0.00    -0.021 C 
HETATM    2  C9  UNL     1      -5.891  27.777  13.317  1.00  0.00     0.020 C 
HETATM    3  C10 UNL     1      -5.458  26.739  15.502  1.00  0.00     0.018 C 
HETATM    4  C11 UNL     1      -6.566  27.214  16.476  1.00  0.00    -0.008 C 
HETATM    5  C12 UNL     1      -7.105  26.082  17.264  1.00  0.00     0.026 C 
HETATM    6  C13 UNL     1      -7.645  24.959  16.393  1.00  0.00     0.101 C 
HETATM    7 CL1  UNL     1      -6.415  23.752  16.207  1.00  0.00    -0.124 Cl
HETATM    8  C14 UNL     1      -8.300  25.506  15.157  1.00  0.00     0.062 C 
HETATM    9  C21 UNL     1      -9.636  26.112  15.684  1.00  0.00     0.021 C 
HETATM   10  C22 UNL     1      -9.853  27.512  15.213  1.00  0.00     0.002 C 
HETATM   11  C23 UNL     1      -8.778  28.331  15.911  1.00  0.00     0.005 C 
HETATM   12  C24 UNL     1      -7.496  27.791  15.461  1.00  0.00    -0.004 C 
HETATM   13  C25 UNL     1      -7.568  26.586  14.501  1.00  0.00     0.021 C 
ENDROOT
BRANCH   1  14
HETATM   14  C7  UNL     1      -5.622  25.413  13.429  1.00  0.00    -0.017 C 
HETATM   15  C6  UNL     1      -4.591  25.142  12.743  1.00  0.00     0.004 C 
BRANCH  15  16
HETATM   16  C5  UNL     1      -3.336  25.530  12.232  1.00  0.00    -0.059 C 
HETATM   17  C4  UNL     1      -3.225  25.653  10.847  1.00  0.00     0.011 C 
BRANCH  17  18
HETATM   18  C3  UNL     1      -2.035  26.032  10.140  1.00  0.00     0.141 C 
BRANCH  18  19
HETATM   19  C2  UNL     1      -1.229  24.791   9.681  1.00  0.00     0.031 C 
HETATM   20  C1  UNL     1       0.217  24.946  10.088  1.00  0.00     0.008 C 
ENDBRANCH  18  19
BRANCH  18  21
HETATM   21  O1  UNL     1      -2.297  26.755   8.979  1.00  0.00    -0.392 OA
ATOM     22  H1  UNL     1      -2.887  27.450   9.242  1.00  0.00     0.210 HD
ENDBRANCH  18  21
ENDBRANCH  17  18
BRANCH  16  23
HETATM   23  C26 UNL     1      -2.099  25.902  12.887  1.00  0.00     0.042 C 
BRANCH  23  24
HETATM   24  C27 UNL     1      -2.060  25.822  14.393  1.00  0.00     0.032 C 
BRANCH  24  25
HETATM   25  C28 UNL     1      -1.056  24.834  14.829  1.00  0.00    -0.024 C 
HETATM   26  C29 UNL     1      -1.431  23.659  15.283  1.00  0.00    -0.091 C 
HETATM   27  C30 UNL     1      -2.889  23.313  15.361  1.00  0.00     0.042 C 
HETATM   28  C31 UNL     1      -0.464  22.617  15.740  1.00  0.00     0.042 C 
ENDBRANCH  24  25
ENDBRANCH  23  24
ENDBRANCH  16  23
ENDBRANCH  15  16
ENDBRANCH   1  14
BRANCH   8  29
HETATM   29  C15 UNL     1      -8.797  24.434  14.270  1.00  0.00     0.228 C 
HETATM   30  O2  UNL     1      -8.682  24.634  13.012  1.00  0.00    -0.273 OA
HETATM   31  N1  UNL     1      -9.387  23.225  14.666  1.00  0.00    -0.359 N 
ATOM     32  H1  UNL     1      -9.483  23.051  15.666  1.00  0.00     0.162 HD
BRANCH  31  33
HETATM   33  C16 UNL     1      -9.868  22.207  13.758  1.00  0.00     0.150 C 
BRANCH  33  34
HETATM   34  C17 UNL     1     -10.850  21.260  14.410  1.00  0.00     0.255 C 
BRANCH  34  35
HETATM   35  N2  UNL     1     -12.141  21.293  13.781  1.00  0.00    -0.077 N 
HETATM   36  C18 UNL     1     -13.049  20.489  14.616  1.00  0.00     0.271 C 
HETATM   37  C19 UNL     1     -12.703  22.643  13.784  1.00  0.00     0.271 C 
HETATM   38  C20 UNL     1     -12.188  20.702  12.472  1.00  0.00     0.271 C 
ENDBRANCH  34  35
ENDBRANCH  33  34
ENDBRANCH  31  33
ENDBRANCH   8  29
TORSDOF 12
ENDMDL
MODEL 3
REMARK VINA RESULT: -9.234119733      3.100      8.813
REMARK  12 active torsions:
REMARK  status: ('A' for Active; 'I' for Inactive)
REMARK    1  A    between atoms: C2_2  and  C3_3 
REMARK    2  A    between atoms: C3_3  and  O1_4 
REMARK    3  A    between atoms: C3_3  and  C4_6 
REMARK    4  A    between atoms: C5_7  and  C6_8 
REMARK    5  A    between atoms: C5_7  and  C26_33 
REMARK    6  A    between atoms: C7_9  and  C8_10 
REMARK    7  A    between atoms: C14_17  and  C15_18 
REMARK       I    between atoms: C15_18  and  N1_20 
REMARK    8  A    between atoms: N1_20  and  C16_22 
REMARK    9  A    between atoms: C16_22  and  C17_23 
REMARK   10  A    between atoms: C17_23  and  N2_24 
REMARK   11  A    between atoms: C26_33  and  C27_34 
REMARK   12  A    between atoms: C27_34  and  C28_35 
ROOT
HETATM    1  C8  UNL     1      -5.988  26.272  14.056  1.00  0.00    -0.021 C 
HETATM    2  C9  UNL     1      -5.706  27.537  13.207  1.00  0.00     0.020 C 
HETATM    3  C10 UNL     1      -5.284  26.431  15.361  1.00  0.00     0.018 C 
HETATM    4  C11 UNL     1      -6.325  26.965  16.376  1.00  0.00    -0.008 C 
HETATM    5  C12 UNL     1      -6.920  25.860  17.161  1.00  0.00     0.026 C 
HETATM    6  C13 UNL     1      -7.565  24.794  16.289  1.00  0.00     0.101 C 
HETATM    7 CL1  UNL     1      -6.431  23.506  16.045  1.00  0.00    -0.124 Cl
HETATM    8  C14 UNL     1      -8.216  25.409  15.084  1.00  0.00     0.062 C 
HETATM    9  C21 UNL     1      -9.489  26.099  15.662  1.00  0.00     0.021 C 
HETATM   10  C22 UNL     1      -9.619  27.519  15.221  1.00  0.00     0.002 C 
HETATM   11  C23 UNL     1      -8.468  28.247  15.898  1.00  0.00     0.005 C 
HETATM   12  C24 UNL     1      -7.242  27.626  15.400  1.00  0.00    -0.004 C 
HETATM   13  C25 UNL     1      -7.428  26.447  14.423  1.00  0.00     0.021 C 
ENDROOT
BRANCH   1  14
HETATM   14  C7  UNL     1      -5.605  25.158  13.272  1.00  0.00    -0.017 C 
HETATM   15  C6  UNL     1      -4.523  24.645  12.856  1.00  0.00     0.004 C 
BRANCH  15  16
HETATM   16  C5  UNL     1      -3.115  24.664  12.792  1.00  0.00    -0.059 C 
HETATM   17  C4  UNL     1      -2.525  25.722  12.102  1.00  0.00     0.011 C 
BRANCH  17  18
HETATM   18  C3  UNL     1      -1.114  25.914  11.924  1.00  0.00     0.141 C 
BRANCH  18  19
HETATM   19  C2  UNL     1      -0.782  26.373  10.482  1.00  0.00     0.031 C 
HETATM   20  C1  UNL     1      -2.062  26.561   9.702  1.00  0.00     0.008 C 
ENDBRANCH  18  19
BRANCH  18  21
HETATM   21  O1  UNL     1      -0.588  26.899  12.757  1.00  0.00    -0.392 OA
ATOM     22  H1  UNL     1      -0.961  26.732  13.613  1.00  0.00     0.210 HD
ENDBRANCH  18  21
ENDBRANCH  17  18
BRANCH  16  23
HETATM   23  C26 UNL     1      -2.109  23.800  13.375  1.00  0.00     0.042 C 
BRANCH  23  24
HETATM   24  C27 UNL     1      -1.877  23.910  14.861  1.00  0.00     0.032 C 
BRANCH  24  25
HETATM   25  C28 UNL     1      -0.472  24.261  15.137  1.00  0.00    -0.024 C 
HETATM   26  C29 UNL     1       0.285  23.463  15.857  1.00  0.00    -0.091 C 
HETATM   27  C30 UNL     1      -0.278  22.185  16.405  1.00  0.00     0.042 C 
HETATM   28  C31 UNL     1       1.714  23.762  16.172  1.00  0.00     0.042 C 
ENDBRANCH  24  25
ENDBRANCH  23  24
ENDBRANCH  16  23
ENDBRANCH  15  16
ENDBRANCH   1  14
BRANCH   8  29
HETATM   29  C15 UNL     1      -8.815  24.392  14.195  1.00  0.00     0.228 C 
HETATM   30  O2  UNL     1      -8.716  24.603  12.937  1.00  0.00    -0.273 OA
HETATM   31  N1  UNL     1      -9.484  23.225  14.589  1.00  0.00    -0.359 N 
ATOM     32  H1  UNL     1      -9.568  23.042  15.589  1.00  0.00     0.162 HD
BRANCH  31  33
HETATM   33  C16 UNL     1     -10.063  22.260  13.680  1.00  0.00     0.150 C 
BRANCH  33  34
HETATM   34  C17 UNL     1     -10.975  21.276  14.376  1.00  0.00     0.255 C 
BRANCH  34  35
HETATM   35  N2  UNL     1     -12.296  21.262  13.815  1.00  0.00    -0.077 N 
HETATM   36  C18 UNL     1     -13.109  20.356  14.644  1.00  0.00     0.271 C 
HETATM   37  C19 UNL     1     -12.938  22.571  13.926  1.00  0.00     0.271 C 
HETATM   38  C20 UNL     1     -12.377  20.744  12.477  1.00  0.00     0.271 C 
ENDBRANCH  34  35
ENDBRANCH  33  34
ENDBRANCH  31  33
ENDBRANCH   8  29
TORSDOF 12
ENDMDL
MODEL 4
REMARK VINA RESULT: -9.183756321      3.103      8.932
REMARK  12 active torsions:
REMARK  status: ('A' for Active; 'I' for Inactive)
REMARK    1  A    between atoms: C2_2  and  C3_3 
REMARK    2  A    between atoms: C3_3  and  O1_4 
REMARK    3  A    between atoms: C3_3  and  C4_6 
REMARK    4  A    between atoms: C5_7  and  C6_8 
REMARK    5  A    between atoms: C5_7  and  C26_33 
REMARK    6  A    between atoms: C7_9  and  C8_10 
REMARK    7  A    between atoms: C14_17  and  C15_18 
REMARK       I    between atoms: C15_18  and  N1_20 
REMARK    8  A    between atoms: N1_20  and  C16_22 
REMARK    9  A    between atoms: C16_22  and  C17_23 
REMARK   10  A    between atoms: C17_23  and  N2_24 
REMARK   11  A    between atoms: C26_33  and  C27_34 
REMARK   12  A    between atoms: C27_34  and  C28_35 
ROOT
HETATM    1  C8  UNL     1      -6.090  26.449  14.119  1.00  0.00    -0.021 C 
HETATM    2  C9  UNL     1      -5.887  27.721  13.257  1.00  0.00     0.020 C 
HETATM    3  C10 UNL     1      -5.439  26.685  15.440  1.00  0.00     0.018 C 
HETATM    4  C11 UNL     1      -6.549  27.147  16.417  1.00  0.00    -0.008 C 
HETATM    5  C12 UNL     1      -7.075  26.010  17.205  1.00  0.00     0.026 C 
HETATM    6  C13 UNL     1      -7.606  24.882  16.334  1.00  0.00     0.101 C 
HETATM    7 CL1  UNL     1      -6.366  23.687  16.143  1.00  0.00    -0.124 Cl
HETATM    8  C14 UNL     1      -8.269  25.424  15.101  1.00  0.00     0.062 C 
HETATM    9  C21 UNL     1      -9.610  26.017  15.632  1.00  0.00     0.021 C 
HETATM   10  C22 UNL     1      -9.842  27.416  15.163  1.00  0.00     0.002 C 
HETATM   11  C23 UNL     1      -8.772  28.244  15.859  1.00  0.00     0.005 C 
HETATM   12  C24 UNL     1      -7.487  27.717  15.406  1.00  0.00    -0.004 C 
HETATM   13  C25 UNL     1      -7.550  26.513  14.444  1.00  0.00     0.021 C 
ENDROOT
BRANCH   1  14
HETATM   14  C7  UNL     1      -5.596  25.359  13.365  1.00  0.00    -0.017 C 
HETATM   15  C6  UNL     1      -4.516  25.051  12.778  1.00  0.00     0.004 C 
BRANCH  15  16
HETATM   16  C5  UNL     1      -3.191  25.376  12.422  1.00  0.00    -0.059 C 
HETATM   17  C4  UNL     1      -2.972  25.805  11.113  1.00  0.00     0.011 C 
BRANCH  17  18
HETATM   18  C3  UNL     1      -1.699  26.175  10.563  1.00  0.00     0.141 C 
BRANCH  18  19
HETATM   19  C2  UNL     1      -1.156  25.085   9.606  1.00  0.00     0.031 C 
HETATM   20  C1  UNL     1       0.353  25.054   9.677  1.00  0.00     0.008 C 
ENDBRANCH  18  19
BRANCH  18  21
HETATM   21  O1  UNL     1      -1.752  27.342   9.804  1.00  0.00    -0.392 OA
ATOM     22  H1  UNL     1      -1.137  27.938  10.214  1.00  0.00     0.210 HD
ENDBRANCH  18  21
ENDBRANCH  17  18
BRANCH  16  23
HETATM   23  C26 UNL     1      -1.966  25.414  13.193  1.00  0.00     0.042 C 
BRANCH  23  24
HETATM   24  C27 UNL     1      -1.340  24.094  13.566  1.00  0.00     0.032 C 
BRANCH  24  25
HETATM   25  C28 UNL     1       0.121  24.145  13.373  1.00  0.00    -0.024 C 
HETATM   26  C29 UNL     1       0.935  23.886  14.372  1.00  0.00    -0.091 C 
HETATM   27  C30 UNL     1       0.380  23.534  15.722  1.00  0.00     0.042 C 
HETATM   28  C31 UNL     1       2.422  23.921  14.241  1.00  0.00     0.042 C 
ENDBRANCH  24  25
ENDBRANCH  23  24
ENDBRANCH  16  23
ENDBRANCH  15  16
ENDBRANCH   1  14
BRANCH   8  29
HETATM   29  C15 UNL     1      -8.759  24.350  14.214  1.00  0.00     0.228 C 
HETATM   30  O2  UNL     1      -8.631  24.544  12.956  1.00  0.00    -0.273 OA
HETATM   31  N1  UNL     1      -9.354  23.143  14.609  1.00  0.00    -0.359 N 
ATOM     32  H1  UNL     1      -9.461  22.973  15.609  1.00  0.00     0.162 HD
BRANCH  31  33
HETATM   33  C16 UNL     1      -9.826  22.121  13.701  1.00  0.00     0.150 C 
BRANCH  33  34
HETATM   34  C17 UNL     1     -10.823  21.184  14.344  1.00  0.00     0.255 C 
BRANCH  34  35
HETATM   35  N2  UNL     1     -12.139  21.317  13.785  1.00  0.00    -0.077 N 
HETATM   36  C18 UNL     1     -13.048  20.513  14.620  1.00  0.00     0.271 C 
HETATM   37  C19 UNL     1     -12.629  22.691  13.891  1.00  0.00     0.271 C 
HETATM   38  C20 UNL     1     -12.281  20.806  12.450  1.00  0.00     0.271 C 
ENDBRANCH  34  35
ENDBRANCH  33  34
ENDBRANCH  31  33
ENDBRANCH   8  29
TORSDOF 12
ENDMDL
MODEL 5
REMARK VINA RESULT: -8.897278523      3.161      8.593
REMARK  12 active torsions:
REMARK  status: ('A' for Active; 'I' for Inactive)
REMARK    1  A    between atoms: C2_2  and  C3_3 
REMARK    2  A    between atoms: C3_3  and  O1_4 
REMARK    3  A    between atoms: C3_3  and  C4_6 
REMARK    4  A    between atoms: C5_7  and  C6_8 
REMARK    5  A    between atoms: C5_7  and  C26_33 
REMARK    6  A    between atoms: C7_9  and  C8_10 
REMARK    7  A    between atoms: C14_17  and  C15_18 
REMARK       I    between atoms: C15_18  and  N1_20 
REMARK    8  A    between atoms: N1_20  and  C16_22 
REMARK    9  A    between atoms: C16_22  and  C17_23 
REMARK   10  A    between atoms: C17_23  and  N2_24 
REMARK   11  A    between atoms: C26_33  and  C27_34 
REMARK   12  A    between atoms: C27_34  and  C28_35 
ROOT
HETATM    1  C8  UNL     1      -5.710  25.590  13.967  1.00  0.00    -0.021 C 
HETATM    2  C9  UNL     1      -5.290  26.756  13.037  1.00  0.00     0.020 C 
HETATM    3  C10 UNL     1      -5.066  25.811  15.294  1.00  0.00     0.018 C 
HETATM    4  C11 UNL     1      -6.118  26.500  16.199  1.00  0.00    -0.008 C 
HETATM    5  C12 UNL     1      -6.834  25.510  17.035  1.00  0.00     0.026 C 
HETATM    6  C13 UNL     1      -7.509  24.421  16.216  1.00  0.00     0.101 C 
HETATM    7 CL1  UNL     1      -6.462  23.042  16.144  1.00  0.00    -0.124 Cl
HETATM    8  C14 UNL     1      -8.047  24.975  14.928  1.00  0.00     0.062 C 
HETATM    9  C21 UNL     1      -9.294  25.798  15.372  1.00  0.00     0.021 C 
HETATM   10  C22 UNL     1      -9.295  27.181  14.810  1.00  0.00     0.002 C 
HETATM   11  C23 UNL     1      -8.131  27.882  15.493  1.00  0.00     0.005 C 
HETATM   12  C24 UNL     1      -6.929  27.137  15.121  1.00  0.00    -0.004 C 
HETATM   13  C25 UNL     1      -7.151  25.895  14.233  1.00  0.00     0.021 C 
ENDROOT
BRANCH   1  14
HETATM   14  C7  UNL     1      -5.369  24.390  13.300  1.00  0.00    -0.017 C 
HETATM   15  C6  UNL     1      -4.318  23.714  13.085  1.00  0.00     0.004 C 
BRANCH  15  16
HETATM   16  C5  UNL     1      -2.929  23.545  13.247  1.00  0.00    -0.059 C 
HETATM   17  C4  UNL     1      -2.413  23.717  14.531  1.00  0.00     0.011 C 
BRANCH  17  18
HETATM   18  C3  UNL     1      -1.031  23.591  14.895  1.00  0.00     0.141 C 
BRANCH  18  19
HETATM   19  C2  UNL     1      -0.372  24.977  15.108  1.00  0.00     0.031 C 
HETATM   20  C1  UNL     1       0.472  25.327  13.905  1.00  0.00     0.008 C 
ENDBRANCH  18  19
BRANCH  18  21
HETATM   21  O1  UNL     1      -0.841  22.903  16.091  1.00  0.00    -0.392 OA
ATOM     22  H1  UNL     1      -1.252  22.057  15.964  1.00  0.00     0.210 HD
ENDBRANCH  18  21
ENDBRANCH  17  18
BRANCH  16  23
HETATM   23  C26 UNL     1      -1.889  23.151  12.319  1.00  0.00     0.042 C 
BRANCH  23  24
HETATM   24  C27 UNL     1      -2.066  23.542  10.873  1.00  0.00     0.032 C 
BRANCH  24  25
HETATM   25  C28 UNL     1      -1.159  24.652  10.526  1.00  0.00    -0.024 C 
HETATM   26  C29 UNL     1      -1.636  25.858  10.311  1.00  0.00    -0.091 C 
HETATM   27  C30 UNL     1      -3.110  26.114  10.417  1.00  0.00     0.042 C 
HETATM   28  C31 UNL     1      -0.771  27.023   9.956  1.00  0.00     0.042 C 
ENDBRANCH  24  25
ENDBRANCH  23  24
ENDBRANCH  16  23
ENDBRANCH  15  16
ENDBRANCH   1  14
BRANCH   8  29
HETATM   29  C15 UNL     1      -8.672  23.930  14.091  1.00  0.00     0.228 C 
HETATM   30  O2  UNL     1      -8.488  24.024  12.829  1.00  0.00    -0.273 OA
HETATM   31  N1  UNL     1      -9.449  22.852  14.538  1.00  0.00    -0.359 N 
ATOM     32  H1  UNL     1      -9.602  22.764  15.542  1.00  0.00     0.162 HD
BRANCH  31  33
HETATM   33  C16 UNL     1     -10.049  21.856  13.677  1.00  0.00     0.150 C 
BRANCH  33  34
HETATM   34  C17 UNL     1     -11.081  21.014  14.390  1.00  0.00     0.255 C 
BRANCH  34  35
HETATM   35  N2  UNL     1     -12.392  21.154  13.819  1.00  0.00    -0.077 N 
HETATM   36  C18 UNL     1     -13.295  20.282  14.589  1.00  0.00     0.271 C 
HETATM   37  C19 UNL     1     -12.912  22.509  13.999  1.00  0.00     0.271 C 
HETATM   38  C20 UNL     1     -12.502  20.721  12.453  1.00  0.00     0.271 C 
ENDBRANCH  34  35
ENDBRANCH  33  34
ENDBRANCH  31  33
ENDBRANCH   8  29
TORSDOF 12
ENDMDL
