MODEL 1
REMARK VINA RESULT: -8.806371026      0.000      0.000
REMARK  12 active torsions:
REMARK  status: ('A' for Active; 'I' for Inactive)
REMARK    1  A    between atoms: C2_2  and  C3_3 
REMARK    2  A    between atoms: C3_3  and  C4_4 
REMARK    3  A    between atoms: C4_4  and  C5_5 
REMARK    4  A    between atoms: C5_5  and  C6_6 
REMARK    5  A    between atoms: C6_6  and  N1_7 
REMARK    6  A    between atoms: N1_7  and  C7_8 
REMARK    7  A    between atoms: N1_7  and  C11_12 
REMARK    8  A    between atoms: C7_8  and  C8_9 
REMARK    9  A    between atoms: C8_9  and  C9_10 
REMARK   10  A    between atoms: C11_12  and  C12_13 
REMARK   11  A    between atoms: C24_28  and  C25_29 
REMARK   12  A    between atoms: C26_30  and  O1_32 
ROOT
HETATM    1  C12 UNL     1      -1.939  24.682  12.435  1.00  0.00     0.110 C 
HETATM    2  C13 UNL     1      -2.556  23.379  12.739  1.00  0.00     0.099 C 
HETATM    3  C14 UNL     1      -4.049  23.553  12.918  1.00  0.00     0.019 A 
HETATM    4  N2  UNL     1      -4.907  22.679  13.472  1.00  0.00    -0.358 N 
ATOM      5  H2  UNL     1      -4.670  21.764  13.856  1.00  0.00     0.166 HD
HETATM    6  C15 UNL     1      -6.154  23.235  13.429  1.00  0.00     0.044 A 
HETATM    7  C16 UNL     1      -7.332  22.716  13.875  1.00  0.00     0.049 A 
HETATM    8  C17 UNL     1      -8.481  23.489  13.713  1.00  0.00     0.013 A 
HETATM    9 BR1  UNL     1     -10.135  22.753  14.343  1.00  0.00    -0.051 Br
HETATM   10  C18 UNL     1      -8.404  24.722  13.126  1.00  0.00     0.020 A 
HETATM   11  C19 UNL     1      -7.211  25.223  12.686  1.00  0.00     0.015 A 
HETATM   12  C20 UNL     1      -6.047  24.491  12.826  1.00  0.00    -0.001 A 
HETATM   13  C21 UNL     1      -4.728  24.679  12.510  1.00  0.00    -0.022 A 
HETATM   14  C22 UNL     1      -4.029  25.849  11.847  1.00  0.00     0.054 C 
HETATM   15  C23 UNL     1      -2.803  25.235  11.245  1.00  0.00     0.066 C 
HETATM   16  C24 UNL     1      -1.905  26.027  10.460  1.00  0.00     0.028 C 
HETATM   17  C27 UNL     1      -0.622  25.991  11.248  1.00  0.00     0.290 C 
HETATM   18  O2  UNL     1       0.228  26.899  11.318  1.00  0.00    -0.260 OA
HETATM   19  O3  UNL     1      -0.672  24.704  11.838  1.00  0.00    -0.303 OA
ENDROOT
BRANCH   1  20
HETATM   20  C11 UNL     1      -1.968  25.690  13.560  1.00  0.00     0.312 C 
BRANCH  20  21
HETATM   21  N1  UNL     1      -2.019  25.189  14.881  1.00  0.00     0.091 N 
BRANCH  21  22
HETATM   22  C6  UNL     1      -2.993  25.608  15.789  1.00  0.00     0.272 C 
BRANCH  22  23
HETATM   23  C5  UNL     1      -3.786  26.841  15.391  1.00  0.00     0.030 C 
BRANCH  23  24
HETATM   24  C4  UNL     1      -5.253  26.484  15.689  1.00  0.00     0.002 C 
BRANCH  24  25
HETATM   25  C3  UNL     1      -6.167  27.593  15.304  1.00  0.00    -0.000 C 
BRANCH  25  26
HETATM   26  C2  UNL     1      -7.171  27.995  16.332  1.00  0.00    -0.005 C 
HETATM   27  C1  UNL     1      -8.583  28.023  15.817  1.00  0.00     0.005 C 
ENDBRANCH  25  26
ENDBRANCH  24  25
ENDBRANCH  23  24
ENDBRANCH  22  23
ENDBRANCH  21  22
BRANCH  21  28
HETATM   28  C7  UNL     1      -0.668  25.223  15.407  1.00  0.00     0.272 C 
BRANCH  28  29
HETATM   29  C8  UNL     1       0.061  23.926  15.357  1.00  0.00     0.030 C 
BRANCH  29  30
HETATM   30  C9  UNL     1      -0.719  22.835  16.104  1.00  0.00    -0.003 C 
HETATM   31  C10 UNL     1       0.115  21.583  16.187  1.00  0.00     0.005 C 
ENDBRANCH  29  30
ENDBRANCH  28  29
ENDBRANCH  21  28
ENDBRANCH  20  21
ENDBRANCH   1  20
BRANCH  16  32
HETATM   32  C25 UNL     1      -1.920  26.616   9.275  1.00  0.00     0.066 C 
HETATM   33  C26 UNL     1      -1.139  26.244   8.136  1.00  0.00     0.150 C 
HETATM   34  N3  UNL     1      -0.182  25.234   8.022  1.00  0.00    -0.075 NA
BRANCH  33  35
HETATM   35  O1  UNL     1      -1.342  26.937   7.052  1.00  0.00    -0.348 OA
ATOM     36  H1  UNL     1      -1.160  26.493   6.233  1.00  0.00     0.219 HD
ENDBRANCH  33  35
ENDBRANCH  16  32
TORSDOF 12
ENDMDL
MODEL 2
REMARK VINA RESULT: -8.502409765      1.658      1.899
REMARK  12 active torsions:
REMARK  status: ('A' for Active; 'I' for Inactive)
REMARK    1  A    between atoms: C2_2  and  C3_3 
REMARK    2  A    between atoms: C3_3  and  C4_4 
REMARK    3  A    between atoms: C4_4  and  C5_5 
REMARK    4  A    between atoms: C5_5  and  C6_6 
REMARK    5  A    between atoms: C6_6  and  N1_7 
REMARK    6  A    between atoms: N1_7  and  C7_8 
REMARK    7  A    between atoms: N1_7  and  C11_12 
REMARK    8  A    between atoms: C7_8  and  C8_9 
REMARK    9  A    between atoms: C8_9  and  C9_10 
REMARK   10  A    between atoms: C11_12  and  C12_13 
REMARK   11  A    between atoms: C24_28  and  C25_29 
REMARK   12  A    between atoms: C26_30  and  O1_32 
ROOT
HETATM    1  C12 UNL     1      -2.153  23.743  13.641  1.00  0.00     0.110 C 
HETATM    2  C13 UNL     1      -3.063  23.075  14.588  1.00  0.00     0.099 C 
HETATM    3  C14 UNL     1      -4.478  23.561  14.361  1.00  0.00     0.019 A 
HETATM    4  N2  UNL     1      -5.529  23.413  15.187  1.00  0.00    -0.358 N 
ATOM      5  H2  UNL     1      -5.520  22.946  16.094  1.00  0.00     0.166 HD
HETATM    6  C15 UNL     1      -6.611  23.999  14.593  1.00  0.00     0.044 A 
HETATM    7  C16 UNL     1      -7.888  24.095  15.058  1.00  0.00     0.049 A 
HETATM    8  C17 UNL     1      -8.820  24.748  14.255  1.00  0.00     0.013 A 
HETATM    9 BR1  UNL     1     -10.615  24.880  14.916  1.00  0.00    -0.051 Br
HETATM   10  C18 UNL     1      -8.445  25.267  13.046  1.00  0.00     0.020 A 
HETATM   11  C19 UNL     1      -7.158  25.159  12.599  1.00  0.00     0.015 A 
HETATM   12  C20 UNL     1      -6.200  24.520  13.363  1.00  0.00    -0.001 A 
HETATM   13  C21 UNL     1      -4.867  24.241  13.228  1.00  0.00    -0.022 A 
HETATM   14  C22 UNL     1      -3.899  24.564  12.107  1.00  0.00     0.054 C 
HETATM   15  C23 UNL     1      -2.835  23.518  12.244  1.00  0.00     0.066 C 
HETATM   16  C24 UNL     1      -1.759  23.449  11.302  1.00  0.00     0.028 C 
HETATM   17  C27 UNL     1      -0.539  23.728  12.140  1.00  0.00     0.290 C 
HETATM   18  O2  UNL     1       0.497  24.309  11.766  1.00  0.00    -0.260 OA
HETATM   19  O3  UNL     1      -0.901  23.166  13.389  1.00  0.00    -0.303 OA
ENDROOT
BRANCH   1  20
HETATM   20  C11 UNL     1      -1.973  25.228  13.855  1.00  0.00     0.312 C 
BRANCH  20  21
HETATM   21  N1  UNL     1      -1.667  25.664  15.164  1.00  0.00     0.091 N 
BRANCH  21  22
HETATM   22  C6  UNL     1      -2.408  26.662  15.799  1.00  0.00     0.272 C 
BRANCH  22  23
HETATM   23  C5  UNL     1      -3.581  27.220  15.012  1.00  0.00     0.030 C 
BRANCH  23  24
HETATM   24  C4  UNL     1      -4.817  26.940  15.885  1.00  0.00     0.002 C 
BRANCH  24  25
HETATM   25  C3  UNL     1      -6.029  27.605  15.335  1.00  0.00    -0.000 C 
BRANCH  25  26
HETATM   26  C2  UNL     1      -7.077  27.974  16.331  1.00  0.00    -0.005 C 
HETATM   27  C1  UNL     1      -8.460  28.054  15.747  1.00  0.00     0.005 C 
ENDBRANCH  25  26
ENDBRANCH  24  25
ENDBRANCH  23  24
ENDBRANCH  22  23
ENDBRANCH  21  22
BRANCH  21  28
HETATM   28  C7  UNL     1      -0.232  25.865  15.227  1.00  0.00     0.272 C 
BRANCH  28  29
HETATM   29  C8  UNL     1       0.538  24.735  15.816  1.00  0.00     0.030 C 
BRANCH  29  30
HETATM   30  C9  UNL     1       2.047  24.971  15.672  1.00  0.00    -0.003 C 
HETATM   31  C10 UNL     1       2.599  24.081  14.588  1.00  0.00     0.005 C 
ENDBRANCH  29  30
ENDBRANCH  28  29
ENDBRANCH  21  28
ENDBRANCH  20  21
ENDBRANCH   1  20
BRANCH  16  32
HETATM   32  C25 UNL     1      -1.608  23.116  10.031  1.00  0.00     0.066 C 
HETATM   33  C26 UNL     1      -1.344  24.011   8.947  1.00  0.00     0.150 C 
HETATM   34  N3  UNL     1      -1.229  25.403   8.969  1.00  0.00    -0.075 NA
BRANCH  33  35
HETATM   35  O1  UNL     1      -1.189  23.463   7.777  1.00  0.00    -0.348 OA
ATOM     36  H1  UNL     1      -0.710  23.975   7.136  1.00  0.00     0.219 HD
ENDBRANCH  33  35
ENDBRANCH  16  32
TORSDOF 12
ENDMDL
MODEL 3
REMARK VINA RESULT: -8.460678704      1.036      1.189
REMARK  12 active torsions:
REMARK  status: ('A' for Active; 'I' for Inactive)
REMARK    1  A    between atoms: C2_2  and  C3_3 
REMARK    2  A    between atoms: C3_3  and  C4_4 
REMARK    3  A    between atoms: C4_4  and  C5_5 
REMARK    4  A    between atoms: C5_5  and  C6_6 
REMARK    5  A    between atoms: C6_6  and  N1_7 
REMARK    6  A    between atoms: N1_7  and  C7_8 
REMARK    7  A    between atoms: N1_7  and  C11_12 
REMARK    8  A    between atoms: C7_8  and  C8_9 
REMARK    9  A    between atoms: C8_9  and  C9_10 
REMARK   10  A    between atoms: C11_12  and  C12_13 
REMARK   11  A    between atoms: C24_28  and  C25_29 
REMARK   12  A    between atoms: C26_30  and  O1_32 
ROOT
HETATM    1  C12 UNL     1      -1.758  24.101  12.643  1.00  0.00     0.110 C 
HETATM    2  C13 UNL     1      -2.587  23.047  13.255  1.00  0.00     0.099 C 
HETATM    3  C14 UNL     1      -4.028  23.508  13.319  1.00  0.00     0.019 A 
HETATM    4  N2  UNL     1      -5.020  22.969  14.049  1.00  0.00    -0.358 N 
ATOM      5  H2  UNL     1      -4.941  22.164  14.670  1.00  0.00     0.166 HD
HETATM    6  C15 UNL     1      -6.154  23.693  13.809  1.00  0.00     0.044 A 
HETATM    7  C16 UNL     1      -7.401  23.516  14.326  1.00  0.00     0.049 A 
HETATM    8  C17 UNL     1      -8.401  24.397  13.919  1.00  0.00     0.013 A 
HETATM    9 BR1  UNL     1     -10.154  24.141  14.652  1.00  0.00    -0.051 Br
HETATM   10  C18 UNL     1      -8.117  25.398  13.030  1.00  0.00     0.020 A 
HETATM   11  C19 UNL     1      -6.857  25.557  12.524  1.00  0.00     0.015 A 
HETATM   12  C20 UNL     1      -5.835  24.706  12.900  1.00  0.00    -0.001 A 
HETATM   13  C21 UNL     1      -4.506  24.582  12.601  1.00  0.00    -0.022 A 
HETATM   14  C22 UNL     1      -3.619  25.399  11.682  1.00  0.00     0.054 C 
HETATM   15  C23 UNL     1      -2.519  24.451  11.314  1.00  0.00     0.066 C 
HETATM   16  C24 UNL     1      -1.503  24.844  10.386  1.00  0.00     0.028 C 
HETATM   17  C27 UNL     1      -0.241  24.807  11.208  1.00  0.00     0.290 C 
HETATM   18  O2  UNL     1       0.752  25.546  11.072  1.00  0.00    -0.260 OA
HETATM   19  O3  UNL     1      -0.508  23.751  12.114  1.00  0.00    -0.303 OA
ENDROOT
BRANCH   1  20
HETATM   20  C11 UNL     1      -1.608  25.363  13.460  1.00  0.00     0.312 C 
BRANCH  20  21
HETATM   21  N1  UNL     1      -1.551  25.225  14.865  1.00  0.00     0.091 N 
BRANCH  21  22
HETATM   22  C6  UNL     1      -2.193  26.124  15.720  1.00  0.00     0.272 C 
BRANCH  22  23
HETATM   23  C5  UNL     1      -3.274  26.983  15.088  1.00  0.00     0.030 C 
BRANCH  23  24
HETATM   24  C4  UNL     1      -4.594  26.467  15.687  1.00  0.00     0.002 C 
BRANCH  24  25
HETATM   25  C3  UNL     1      -5.678  27.478  15.558  1.00  0.00    -0.000 C 
BRANCH  25  26
HETATM   26  C2  UNL     1      -6.986  27.112  16.175  1.00  0.00    -0.005 C 
HETATM   27  C1  UNL     1      -8.127  27.982  15.729  1.00  0.00     0.005 C 
ENDBRANCH  25  26
ENDBRANCH  24  25
ENDBRANCH  23  24
ENDBRANCH  22  23
ENDBRANCH  21  22
BRANCH  21  28
HETATM   28  C7  UNL     1      -0.169  24.961  15.217  1.00  0.00     0.272 C 
BRANCH  28  29
HETATM   29  C8  UNL     1       0.093  23.604  15.771  1.00  0.00     0.030 C 
BRANCH  29  30
HETATM   30  C9  UNL     1       1.468  23.090  15.321  1.00  0.00    -0.003 C 
HETATM   31  C10 UNL     1       2.089  24.074  14.364  1.00  0.00     0.005 C 
ENDBRANCH  29  30
ENDBRANCH  28  29
ENDBRANCH  21  28
ENDBRANCH  20  21
ENDBRANCH   1  20
BRANCH  16  32
HETATM   32  C25 UNL     1      -1.422  25.089   9.089  1.00  0.00     0.066 C 
HETATM   33  C26 UNL     1      -1.281  26.374   8.477  1.00  0.00     0.150 C 
HETATM   34  N3  UNL     1      -1.239  27.632   9.081  1.00  0.00    -0.075 NA
BRANCH  33  35
HETATM   35  O1  UNL     1      -1.178  26.382   7.179  1.00  0.00    -0.348 OA
ATOM     36  H1  UNL     1      -1.106  27.236   6.771  1.00  0.00     0.219 HD
ENDBRANCH  33  35
ENDBRANCH  16  32
TORSDOF 12
ENDMDL
MODEL 4
REMARK VINA RESULT: -8.189952687      1.377      4.141
REMARK  12 active torsions:
REMARK  status: ('A' for Active; 'I' for Inactive)
REMARK    1  A    between atoms: C2_2  and  C3_3 
REMARK    2  A    between atoms: C3_3  and  C4_4 
REMARK    3  A    between atoms: C4_4  and  C5_5 
REMARK    4  A    between atoms: C5_5  and  C6_6 
REMARK    5  A    between atoms: C6_6  and  N1_7 
REMARK    6  A    between atoms: N1_7  and  C7_8 
REMARK    7  A    between atoms: N1_7  and  C11_12 
REMARK    8  A    between atoms: C7_8  and  C8_9 
REMARK    9  A    between atoms: C8_9  and  C9_10 
REMARK   10  A    between atoms: C11_12  and  C12_13 
REMARK   11  A    between atoms: C24_28  and  C25_29 
REMARK   12  A    between atoms: C26_30  and  O1_32 
ROOT
HETATM    1  C12 UNL     1      -3.007  24.060  12.888  1.00  0.00     0.110 C 
HETATM    2  C13 UNL     1      -3.994  22.969  12.966  1.00  0.00     0.099 C 
HETATM    3  C14 UNL     1      -5.372  23.546  13.206  1.00  0.00     0.019 A 
HETATM    4  N2  UNL     1      -6.469  22.884  13.614  1.00  0.00    -0.358 N 
ATOM      5  H2  UNL     1      -6.528  21.887  13.822  1.00  0.00     0.166 HD
HETATM    6  C15 UNL     1      -7.492  23.786  13.699  1.00  0.00     0.044 A 
HETATM    7  C16 UNL     1      -8.785  23.573  14.070  1.00  0.00     0.049 A 
HETATM    8  C17 UNL     1      -9.645  24.669  14.076  1.00  0.00     0.013 A 
HETATM    9 BR1  UNL     1     -11.463  24.361  14.600  1.00  0.00    -0.051 Br
HETATM   10  C18 UNL     1      -9.185  25.907  13.718  1.00  0.00     0.020 A 
HETATM   11  C19 UNL     1      -7.883  26.098  13.349  1.00  0.00     0.015 A 
HETATM   12  C20 UNL     1      -6.995  25.039  13.329  1.00  0.00    -0.001 A 
HETATM   13  C21 UNL     1      -5.671  24.878  13.023  1.00  0.00    -0.022 A 
HETATM   14  C22 UNL     1      -4.633  25.884  12.566  1.00  0.00     0.054 C 
HETATM   15  C23 UNL     1      -3.627  25.049  11.836  1.00  0.00     0.066 C 
HETATM   16  C24 UNL     1      -2.509  25.663  11.186  1.00  0.00     0.028 C 
HETATM   17  C27 UNL     1      -1.321  25.106  11.927  1.00  0.00     0.290 C 
HETATM   18  O2  UNL     1      -0.242  25.690  12.140  1.00  0.00    -0.260 OA
HETATM   19  O3  UNL     1      -1.771  23.808  12.276  1.00  0.00    -0.303 OA
ENDROOT
BRANCH   1  20
HETATM   20  C11 UNL     1      -2.771  24.813  14.176  1.00  0.00     0.312 C 
BRANCH  20  21
HETATM   21  N1  UNL     1      -1.537  24.608  14.833  1.00  0.00     0.091 N 
BRANCH  21  22
HETATM   22  C6  UNL     1      -1.307  23.487  15.633  1.00  0.00     0.272 C 
BRANCH  22  23
HETATM   23  C5  UNL     1      -0.125  22.619  15.236  1.00  0.00     0.030 C 
BRANCH  23  24
HETATM   24  C4  UNL     1       1.048  23.127  16.093  1.00  0.00     0.002 C 
BRANCH  24  25
HETATM   25  C3  UNL     1       2.356  22.734  15.505  1.00  0.00    -0.000 C 
BRANCH  25  26
HETATM   26  C2  UNL     1       3.039  23.776  14.683  1.00  0.00    -0.005 C 
HETATM   27  C1  UNL     1       2.534  25.169  14.934  1.00  0.00     0.005 C 
ENDBRANCH  25  26
ENDBRANCH  24  25
ENDBRANCH  23  24
ENDBRANCH  22  23
ENDBRANCH  21  22
BRANCH  21  28
HETATM   28  C7  UNL     1      -1.165  25.864  15.456  1.00  0.00     0.272 C 
BRANCH  28  29
HETATM   29  C8  UNL     1      -1.939  27.049  14.997  1.00  0.00     0.030 C 
BRANCH  29  30
HETATM   30  C9  UNL     1      -2.788  27.621  16.140  1.00  0.00    -0.003 C 
HETATM   31  C10 UNL     1      -4.246  27.577  15.761  1.00  0.00     0.005 C 
ENDBRANCH  29  30
ENDBRANCH  28  29
ENDBRANCH  21  28
ENDBRANCH  20  21
ENDBRANCH   1  20
BRANCH  16  32
HETATM   32  C25 UNL     1      -2.308  26.430  10.128  1.00  0.00     0.066 C 
HETATM   33  C26 UNL     1      -1.635  26.053   8.924  1.00  0.00     0.150 C 
HETATM   34  N3  UNL     1      -1.017  24.840   8.609  1.00  0.00    -0.075 NA
BRANCH  33  35
HETATM   35  O1  UNL     1      -1.587  26.955   7.987  1.00  0.00    -0.348 OA
ATOM     36  H1  UNL     1      -0.790  26.980   7.471  1.00  0.00     0.219 HD
ENDBRANCH  33  35
ENDBRANCH  16  32
TORSDOF 12
ENDMDL
MODEL 5
REMARK VINA RESULT: -8.167735953      0.950      4.197
REMARK  12 active torsions:
REMARK  status: ('A' for Active; 'I' for Inactive)
REMARK    1  A    between atoms: C2_2  and  C3_3 
REMARK    2  A    between atoms: C3_3  and  C4_4 
REMARK    3  A    between atoms: C4_4  and  C5_5 
REMARK    4  A    between atoms: C5_5  and  C6_6 
REMARK    5  A    between atoms: C6_6  and  N1_7 
REMARK    6  A    between atoms: N1_7  and  C7_8 
REMARK    7  A    between atoms: N1_7  and  C11_12 
REMARK    8  A    between atoms: C7_8  and  C8_9 
REMARK    9  A    between atoms: C8_9  and  C9_10 
REMARK   10  A    between atoms: C11_12  and  C12_13 
REMARK   11  A    between atoms: C24_28  and  C25_29 
REMARK   12  A    between atoms: C26_30  and  O1_32 
ROOT
HETATM    1  C12 UNL     1      -1.876  24.800  12.463  1.00  0.00     0.110 C 
HETATM    2  C13 UNL     1      -2.439  23.482  12.802  1.00  0.00     0.099 C 
HETATM    3  C14 UNL     1      -3.943  23.592  12.940  1.00  0.00     0.019 A 
HETATM    4  N2  UNL     1      -4.773  22.699  13.507  1.00  0.00    -0.358 N 
ATOM      5  H2  UNL     1      -4.503  21.811  13.931  1.00  0.00     0.166 HD
HETATM    6  C15 UNL     1      -6.043  23.194  13.415  1.00  0.00     0.044 A 
HETATM    7  C16 UNL     1      -7.206  22.638  13.853  1.00  0.00     0.049 A 
HETATM    8  C17 UNL     1      -8.384  23.350  13.636  1.00  0.00     0.013 A 
HETATM    9 BR1  UNL     1     -10.018  22.561  14.256  1.00  0.00    -0.051 Br
HETATM   10  C18 UNL     1      -8.350  24.563  13.005  1.00  0.00     0.020 A 
HETATM   11  C19 UNL     1      -7.171  25.102  12.573  1.00  0.00     0.015 A 
HETATM   12  C20 UNL     1      -5.978  24.431  12.767  1.00  0.00    -0.001 A 
HETATM   13  C21 UNL     1      -4.663  24.670  12.475  1.00  0.00    -0.022 A 
HETATM   14  C22 UNL     1      -4.002  25.846  11.785  1.00  0.00     0.054 C 
HETATM   15  C23 UNL     1      -2.734  25.269  11.234  1.00  0.00     0.066 C 
HETATM   16  C24 UNL     1      -1.855  26.073  10.440  1.00  0.00     0.028 C 
HETATM   17  C27 UNL     1      -0.591  26.126  11.258  1.00  0.00     0.290 C 
HETATM   18  O2  UNL     1       0.215  27.074  11.313  1.00  0.00    -0.260 OA
HETATM   19  O3  UNL     1      -0.596  24.859  11.895  1.00  0.00    -0.303 OA
ENDROOT
BRANCH   1  20
HETATM   20  C11 UNL     1      -1.978  25.846  13.548  1.00  0.00     0.312 C 
BRANCH  20  21
HETATM   21  N1  UNL     1      -1.568  25.476  14.849  1.00  0.00     0.091 N 
BRANCH  21  22
HETATM   22  C6  UNL     1      -0.730  24.382  15.073  1.00  0.00     0.272 C 
BRANCH  22  23
HETATM   23  C5  UNL     1       0.635  24.701  15.657  1.00  0.00     0.030 C 
BRANCH  23  24
HETATM   24  C4  UNL     1       1.560  24.873  14.439  1.00  0.00     0.002 C 
BRANCH  24  25
HETATM   25  C3  UNL     1       2.646  23.857  14.437  1.00  0.00    -0.000 C 
BRANCH  25  26
HETATM   26  C2  UNL     1       2.922  23.198  15.747  1.00  0.00    -0.005 C 
HETATM   27  C1  UNL     1       2.785  21.702  15.708  1.00  0.00     0.005 C 
ENDBRANCH  25  26
ENDBRANCH  24  25
ENDBRANCH  23  24
ENDBRANCH  22  23
ENDBRANCH  21  22
BRANCH  21  28
HETATM   28  C7  UNL     1      -2.746  25.501  15.696  1.00  0.00     0.272 C 
BRANCH  28  29
HETATM   29  C8  UNL     1      -3.591  26.719  15.566  1.00  0.00     0.030 C 
BRANCH  29  30
HETATM   30  C9  UNL     1      -5.080  26.362  15.665  1.00  0.00    -0.003 C 
HETATM   31  C10 UNL     1      -5.906  27.457  15.042  1.00  0.00     0.005 C 
ENDBRANCH  29  30
ENDBRANCH  28  29
ENDBRANCH  21  28
ENDBRANCH  20  21
ENDBRANCH   1  20
BRANCH  16  32
HETATM   32  C25 UNL     1      -1.867  26.616   9.234  1.00  0.00     0.066 C 
HETATM   33  C26 UNL     1      -1.085  26.202   8.111  1.00  0.00     0.150 C 
HETATM   34  N3  UNL     1      -0.128  25.188   8.036  1.00  0.00    -0.075 NA
BRANCH  33  35
HETATM   35  O1  UNL     1      -1.286  26.854   7.002  1.00  0.00    -0.348 OA
ATOM     36  H1  UNL     1      -0.519  27.245   6.602  1.00  0.00     0.219 HD
ENDBRANCH  33  35
ENDBRANCH  16  32
TORSDOF 12
ENDMDL
