MODEL 1
REMARK VINA RESULT: -8.868503747      0.000      0.000
REMARK  14 active torsions:
REMARK  status: ('A' for Active; 'I' for Inactive)
REMARK    1  A    between atoms: C3_3  and  C13_13 
REMARK    2  A    between atoms: C4_4  and  C5_5 
REMARK    3  A    between atoms: C5_5  and  C6_6 
REMARK    4  A    between atoms: C6_6  and  C8_8 
REMARK    5  A    between atoms: C8_8  and  C9_9 
REMARK    6  A    between atoms: C9_9  and  C10_10 
REMARK    7  A    between atoms: C10_10  and  C11_11 
REMARK    8  A    between atoms: C13_13  and  C14_14 
REMARK    9  A    between atoms: C14_14  and  C15_15 
REMARK   10  A    between atoms: C15_15  and  C16_16 
REMARK   11  A    between atoms: C15_15  and  C26_32 
REMARK   12  A    between atoms: C16_16  and  C17_17 
REMARK   13  A    between atoms: C17_17  and  C18_18 
REMARK   14  A    between atoms: C18_18  and  C19_19 
ROOT
HETATM    1  C1  UNL     1      -3.861  27.109  15.401  1.00  0.00     0.018 C 
HETATM    2  C2  UNL     1      -4.249  26.659  14.353  1.00  0.00    -0.078 C 
HETATM    3  C3  UNL     1      -4.715  26.095  13.084  1.00  0.00     0.017 C 
HETATM    4  C4  UNL     1      -6.005  25.462  13.023  1.00  0.00     0.021 C 
ENDROOT
BRANCH   3   5
HETATM    5  C13 UNL     1      -3.889  26.205  12.037  1.00  0.00     0.021 C 
BRANCH   5   6
HETATM    6  C14 UNL     1      -3.300  25.054  11.448  1.00  0.00     0.015 C 
BRANCH   6   7
HETATM    7  C15 UNL     1      -2.132  25.044  10.842  1.00  0.00     0.018 C 
BRANCH   7   8
HETATM    8  C16 UNL     1      -1.323  26.242  10.717  1.00  0.00     0.046 C 
BRANCH   8   9
HETATM    9  C17 UNL     1      -0.144  26.434  11.573  1.00  0.00     0.007 C 
BRANCH   9  10
HETATM   10  C18 UNL     1      -0.253  26.479  13.050  1.00  0.00     0.031 C 
BRANCH  10  11
HETATM   11  C19 UNL     1       0.613  25.301  13.551  1.00  0.00     0.127 C 
HETATM   12  N1  UNL     1       1.791  25.773  14.197  1.00  0.00    -0.306 N 
HETATM   13  S1  UNL     1       2.234  24.334  15.104  1.00  0.00     0.260 S 
ATOM     14  H1  UNL     1       2.247  26.683  14.147  1.00  0.00     0.173 HD
HETATM   15  O1  UNL     1       3.035  23.429  14.251  1.00  0.00    -0.200 OA
HETATM   16  O2  UNL     1       2.892  24.709  16.385  1.00  0.00    -0.200 OA
HETATM   17  C20 UNL     1       0.594  23.747  15.360  1.00  0.00     0.087 A 
HETATM   18  C21 UNL     1       0.026  22.863  16.248  1.00  0.00     0.027 A 
HETATM   19  C25 UNL     1      -0.150  24.407  14.409  1.00  0.00    -0.010 A 
HETATM   20  C22 UNL     1      -1.341  22.593  16.224  1.00  0.00     0.020 A 
HETATM   21  C23 UNL     1      -2.107  23.243  15.281  1.00  0.00     0.011 A 
HETATM   22 BR1  UNL     1      -4.005  22.909  15.202  1.00  0.00    -0.051 Br
HETATM   23  C24 UNL     1      -1.518  24.121  14.406  1.00  0.00     0.030 A 
ENDBRANCH  10  11
ENDBRANCH   9  10
ENDBRANCH   8   9
ENDBRANCH   7   8
BRANCH   7  24
HETATM   24  C26 UNL     1      -1.665  23.742  10.389  1.00  0.00     0.205 C 
HETATM   25  O3  UNL     1      -1.305  22.870  11.258  1.00  0.00    -0.644 OA
HETATM   26  O4  UNL     1      -1.560  23.341   9.082  1.00  0.00    -0.644 OA
ENDBRANCH   7  24
ENDBRANCH   6   7
ENDBRANCH   5   6
ENDBRANCH   3   5
BRANCH   4  27
HETATM   27  C5  UNL     1      -6.752  25.407  14.134  1.00  0.00     0.008 C 
BRANCH  27  28
HETATM   28  C6  UNL     1      -8.180  25.205  14.018  1.00  0.00    -0.066 C 
HETATM   29  C7  UNL     1      -8.716  23.897  13.515  1.00  0.00     0.048 C 
BRANCH  28  30
HETATM   30  C8  UNL     1      -9.028  26.139  14.340  1.00  0.00    -0.020 C 
BRANCH  30  31
HETATM   31  C9  UNL     1      -9.409  26.543  15.692  1.00  0.00     0.031 C 
BRANCH  31  32
HETATM   32  C10 UNL     1      -9.279  28.055  15.854  1.00  0.00     0.030 C 
BRANCH  32  33
HETATM   33  C11 UNL     1      -7.853  28.420  15.828  1.00  0.00    -0.037 C 
HETATM   34  C12 UNL     1      -7.083  28.177  16.879  1.00  0.00     0.007 C 
ENDBRANCH  32  33
ENDBRANCH  31  32
ENDBRANCH  30  31
ENDBRANCH  28  30
ENDBRANCH  27  28
ENDBRANCH   4  27
TORSDOF 14
ENDMDL
MODEL 2
REMARK VINA RESULT: -8.797889317      2.835      4.770
REMARK  14 active torsions:
REMARK  status: ('A' for Active; 'I' for Inactive)
REMARK    1  A    between atoms: C3_3  and  C13_13 
REMARK    2  A    between atoms: C4_4  and  C5_5 
REMARK    3  A    between atoms: C5_5  and  C6_6 
REMARK    4  A    between atoms: C6_6  and  C8_8 
REMARK    5  A    between atoms: C8_8  and  C9_9 
REMARK    6  A    between atoms: C9_9  and  C10_10 
REMARK    7  A    between atoms: C10_10  and  C11_11 
REMARK    8  A    between atoms: C13_13  and  C14_14 
REMARK    9  A    between atoms: C14_14  and  C15_15 
REMARK   10  A    between atoms: C15_15  and  C16_16 
REMARK   11  A    between atoms: C15_15  and  C26_32 
REMARK   12  A    between atoms: C16_16  and  C17_17 
REMARK   13  A    between atoms: C17_17  and  C18_18 
REMARK   14  A    between atoms: C18_18  and  C19_19 
ROOT
HETATM    1  C1  UNL     1      -8.988  28.131  16.456  1.00  0.00     0.018 C 
HETATM    2  C2  UNL     1      -8.305  27.686  15.569  1.00  0.00    -0.078 C 
HETATM    3  C3  UNL     1      -7.473  27.129  14.500  1.00  0.00     0.017 C 
HETATM    4  C4  UNL     1      -8.062  26.240  13.535  1.00  0.00     0.021 C 
ENDROOT
BRANCH   3   5
HETATM    5  C13 UNL     1      -6.185  27.491  14.491  1.00  0.00     0.021 C 
BRANCH   5   6
HETATM    6  C14 UNL     1      -5.342  27.216  15.601  1.00  0.00     0.015 C 
BRANCH   6   7
HETATM    7  C15 UNL     1      -4.303  26.409  15.563  1.00  0.00     0.018 C 
BRANCH   7   8
HETATM    8  C16 UNL     1      -4.452  24.966  15.604  1.00  0.00     0.046 C 
BRANCH   8   9
HETATM    9  C17 UNL     1      -4.490  24.189  14.357  1.00  0.00     0.007 C 
BRANCH   9  10
HETATM   10  C18 UNL     1      -3.720  22.935  14.196  1.00  0.00     0.031 C 
BRANCH  10  11
HETATM   11  C19 UNL     1      -2.863  23.150  12.928  1.00  0.00     0.127 C 
HETATM   12  N1  UNL     1      -3.446  24.136  12.081  1.00  0.00    -0.306 N 
HETATM   13  S1  UNL     1      -2.050  24.550  11.096  1.00  0.00     0.260 S 
ATOM     14  H1  UNL     1      -4.399  24.498  12.053  1.00  0.00     0.173 HD
HETATM   15  O1  UNL     1      -1.937  23.607   9.962  1.00  0.00    -0.200 OA
HETATM   16  O2  UNL     1      -2.101  25.982  10.699  1.00  0.00    -0.200 OA
HETATM   17  C20 UNL     1      -0.837  24.260  12.339  1.00  0.00     0.087 A 
HETATM   18  C21 UNL     1       0.471  24.654  12.504  1.00  0.00     0.027 A 
HETATM   19  C25 UNL     1      -1.486  23.475  13.265  1.00  0.00    -0.010 A 
HETATM   20  C22 UNL     1       1.204  24.271  13.627  1.00  0.00     0.020 A 
HETATM   21  C23 UNL     1       0.575  23.486  14.567  1.00  0.00     0.011 A 
HETATM   22 BR1  UNL     1       1.541  22.928  16.141  1.00  0.00    -0.051 Br
HETATM   23  C24 UNL     1      -0.731  23.107  14.380  1.00  0.00     0.030 A 
ENDBRANCH  10  11
ENDBRANCH   9  10
ENDBRANCH   8   9
ENDBRANCH   7   8
BRANCH   7  24
HETATM   24  C26 UNL     1      -3.009  27.051  15.388  1.00  0.00     0.205 C 
HETATM   25  O3  UNL     1      -2.703  28.053  16.127  1.00  0.00    -0.644 OA
HETATM   26  O4  UNL     1      -2.052  26.686  14.475  1.00  0.00    -0.644 OA
ENDBRANCH   7  24
ENDBRANCH   6   7
ENDBRANCH   5   6
ENDBRANCH   3   5
BRANCH   4  27
HETATM   27  C5  UNL     1      -9.365  25.944  13.639  1.00  0.00     0.008 C 
BRANCH  27  28
HETATM   28  C6  UNL     1      -9.758  24.649  14.149  1.00  0.00    -0.066 C 
HETATM   29  C7  UNL     1     -10.897  24.538  15.120  1.00  0.00     0.048 C 
BRANCH  28  30
HETATM   30  C8  UNL     1      -9.145  23.559  13.787  1.00  0.00    -0.020 C 
BRANCH  30  31
HETATM   31  C9  UNL     1      -8.787  22.432  14.645  1.00  0.00     0.031 C 
BRANCH  31  32
HETATM   32  C10 UNL     1      -7.494  22.726  15.402  1.00  0.00     0.030 C 
BRANCH  32  33
HETATM   33  C11 UNL     1      -7.826  23.174  16.764  1.00  0.00    -0.037 C 
HETATM   34  C12 UNL     1      -7.559  24.417  17.141  1.00  0.00     0.007 C 
ENDBRANCH  32  33
ENDBRANCH  31  32
ENDBRANCH  30  31
ENDBRANCH  28  30
ENDBRANCH  27  28
ENDBRANCH   4  27
TORSDOF 14
ENDMDL
MODEL 3
REMARK VINA RESULT: -8.707476842      4.205      6.812
REMARK  14 active torsions:
REMARK  status: ('A' for Active; 'I' for Inactive)
REMARK    1  A    between atoms: C3_3  and  C13_13 
REMARK    2  A    between atoms: C4_4  and  C5_5 
REMARK    3  A    between atoms: C5_5  and  C6_6 
REMARK    4  A    between atoms: C6_6  and  C8_8 
REMARK    5  A    between atoms: C8_8  and  C9_9 
REMARK    6  A    between atoms: C9_9  and  C10_10 
REMARK    7  A    between atoms: C10_10  and  C11_11 
REMARK    8  A    between atoms: C13_13  and  C14_14 
REMARK    9  A    between atoms: C14_14  and  C15_15 
REMARK   10  A    between atoms: C15_15  and  C16_16 
REMARK   11  A    between atoms: C15_15  and  C26_32 
REMARK   12  A    between atoms: C16_16  and  C17_17 
REMARK   13  A    between atoms: C17_17  and  C18_18 
REMARK   14  A    between atoms: C18_18  and  C19_19 
ROOT
HETATM    1  C1  UNL     1      -9.110  22.751  14.945  1.00  0.00     0.018 C 
HETATM    2  C2  UNL     1      -9.861  23.693  14.924  1.00  0.00    -0.078 C 
HETATM    3  C3  UNL     1     -10.782  24.831  14.882  1.00  0.00     0.017 C 
HETATM    4  C4  UNL     1     -12.112  24.684  15.409  1.00  0.00     0.021 C 
ENDROOT
BRANCH   3   5
HETATM    5  C13 UNL     1     -10.316  25.962  14.341  1.00  0.00     0.021 C 
BRANCH   5   6
HETATM    6  C14 UNL     1      -9.421  26.800  15.060  1.00  0.00     0.015 C 
BRANCH   6   7
HETATM    7  C15 UNL     1      -8.117  26.820  14.884  1.00  0.00     0.018 C 
BRANCH   7   8
HETATM    8  C16 UNL     1      -7.523  26.874  13.562  1.00  0.00     0.046 C 
BRANCH   8   9
HETATM    9  C17 UNL     1      -6.269  26.160  13.283  1.00  0.00     0.007 C 
BRANCH   9  10
HETATM   10  C18 UNL     1      -4.948  26.803  13.467  1.00  0.00     0.031 C 
BRANCH  10  11
HETATM   11  C19 UNL     1      -3.998  25.656  13.882  1.00  0.00     0.127 C 
HETATM   12  N1  UNL     1      -4.720  24.594  14.497  1.00  0.00    -0.306 N 
HETATM   13  S1  UNL     1      -3.547  23.296  14.329  1.00  0.00     0.260 S 
ATOM     14  H1  UNL     1      -5.650  24.587  14.915  1.00  0.00     0.173 HD
HETATM   15  O1  UNL     1      -2.591  23.333  15.458  1.00  0.00    -0.200 OA
HETATM   16  O2  UNL     1      -4.238  21.990  14.155  1.00  0.00    -0.200 OA
HETATM   17  C20 UNL     1      -2.835  23.865  12.822  1.00  0.00     0.087 A 
HETATM   18  C21 UNL     1      -2.081  23.266  11.839  1.00  0.00     0.027 A 
HETATM   19  C25 UNL     1      -3.207  25.188  12.754  1.00  0.00    -0.010 A 
HETATM   20  C22 UNL     1      -1.655  23.980  10.721  1.00  0.00     0.020 A 
HETATM   21  C23 UNL     1      -2.015  25.307  10.630  1.00  0.00     0.011 A 
HETATM   22 BR1  UNL     1      -1.455  26.344   9.104  1.00  0.00    -0.051 Br
HETATM   23  C24 UNL     1      -2.769  25.881  11.623  1.00  0.00     0.030 A 
ENDBRANCH  10  11
ENDBRANCH   9  10
ENDBRANCH   8   9
ENDBRANCH   7   8
BRANCH   7  24
HETATM   24  C26 UNL     1      -7.316  26.876  16.098  1.00  0.00     0.205 C 
HETATM   25  O3  UNL     1      -6.930  25.782  16.644  1.00  0.00    -0.644 OA
HETATM   26  O4  UNL     1      -6.925  28.021  16.746  1.00  0.00    -0.644 OA
ENDBRANCH   7  24
ENDBRANCH   6   7
ENDBRANCH   5   6
ENDBRANCH   3   5
BRANCH   4  27
HETATM   27  C5  UNL     1     -12.475  23.504  15.929  1.00  0.00     0.008 C 
BRANCH  27  28
HETATM   28  C6  UNL     1     -13.392  22.659  15.196  1.00  0.00    -0.066 C 
HETATM   29  C7  UNL     1     -14.203  23.229  14.069  1.00  0.00     0.048 C 
BRANCH  28  30
HETATM   30  C8  UNL     1     -13.539  21.399  15.488  1.00  0.00    -0.020 C 
BRANCH  30  31
HETATM   31  C9  UNL     1     -13.149  20.259  14.660  1.00  0.00     0.031 C 
BRANCH  31  32
HETATM   32  C10 UNL     1     -11.648  20.287  14.385  1.00  0.00     0.030 C 
BRANCH  32  33
HETATM   33  C11 UNL     1     -11.428  20.539  12.951  1.00  0.00    -0.037 C 
HETATM   34  C12 UNL     1     -12.461  20.695  12.135  1.00  0.00     0.007 C 
ENDBRANCH  32  33
ENDBRANCH  31  32
ENDBRANCH  30  31
ENDBRANCH  28  30
ENDBRANCH  27  28
ENDBRANCH   4  27
TORSDOF 14
ENDMDL
MODEL 4
REMARK VINA RESULT: -8.640922541      2.986      4.922
REMARK  14 active torsions:
REMARK  status: ('A' for Active; 'I' for Inactive)
REMARK    1  A    between atoms: C3_3  and  C13_13 
REMARK    2  A    between atoms: C4_4  and  C5_5 
REMARK    3  A    between atoms: C5_5  and  C6_6 
REMARK    4  A    between atoms: C6_6  and  C8_8 
REMARK    5  A    between atoms: C8_8  and  C9_9 
REMARK    6  A    between atoms: C9_9  and  C10_10 
REMARK    7  A    between atoms: C10_10  and  C11_11 
REMARK    8  A    between atoms: C13_13  and  C14_14 
REMARK    9  A    between atoms: C14_14  and  C15_15 
REMARK   10  A    between atoms: C15_15  and  C16_16 
REMARK   11  A    between atoms: C15_15  and  C26_32 
REMARK   12  A    between atoms: C16_16  and  C17_17 
REMARK   13  A    between atoms: C17_17  and  C18_18 
REMARK   14  A    between atoms: C18_18  and  C19_19 
ROOT
HETATM    1  C1  UNL     1      -9.131  27.960  16.089  1.00  0.00     0.018 C 
HETATM    2  C2  UNL     1      -8.265  27.624  15.322  1.00  0.00    -0.078 C 
HETATM    3  C3  UNL     1      -7.208  27.199  14.400  1.00  0.00     0.017 C 
HETATM    4  C4  UNL     1      -7.497  26.202  13.405  1.00  0.00     0.021 C 
ENDROOT
BRANCH   3   5
HETATM    5  C13 UNL     1      -6.012  27.779  14.550  1.00  0.00     0.021 C 
BRANCH   5   6
HETATM    6  C14 UNL     1      -4.819  27.091  14.200  1.00  0.00     0.015 C 
BRANCH   6   7
HETATM    7  C15 UNL     1      -4.109  26.362  15.034  1.00  0.00     0.018 C 
BRANCH   7   8
HETATM    8  C16 UNL     1      -4.541  25.044  15.459  1.00  0.00     0.046 C 
BRANCH   8   9
HETATM    9  C17 UNL     1      -4.656  23.951  14.483  1.00  0.00     0.007 C 
BRANCH   9  10
HETATM   10  C18 UNL     1      -3.687  22.832  14.450  1.00  0.00     0.031 C 
BRANCH  10  11
HETATM   11  C19 UNL     1      -2.888  23.032  13.142  1.00  0.00     0.127 C 
HETATM   12  N1  UNL     1      -3.533  23.973  12.289  1.00  0.00    -0.306 N 
HETATM   13  S1  UNL     1      -2.191  24.397  11.238  1.00  0.00     0.260 S 
ATOM     14  H1  UNL     1      -4.497  24.306  12.289  1.00  0.00     0.173 HD
HETATM   15  O1  UNL     1      -2.093  23.423  10.129  1.00  0.00    -0.200 OA
HETATM   16  O2  UNL     1      -2.301  25.815  10.799  1.00  0.00    -0.200 OA
HETATM   17  C20 UNL     1      -0.921  24.183  12.439  1.00  0.00     0.087 A 
HETATM   18  C21 UNL     1       0.380  24.620  12.540  1.00  0.00     0.027 A 
HETATM   19  C25 UNL     1      -1.509  23.408  13.413  1.00  0.00    -0.010 A 
HETATM   20  C22 UNL     1       1.167  24.295  13.642  1.00  0.00     0.020 A 
HETATM   21  C23 UNL     1       0.600  23.521  14.631  1.00  0.00     0.011 A 
HETATM   22 BR1  UNL     1       1.644  23.041  16.180  1.00  0.00    -0.051 Br
HETATM   23  C24 UNL     1      -0.699  23.097  14.508  1.00  0.00     0.030 A 
ENDBRANCH  10  11
ENDBRANCH   9  10
ENDBRANCH   8   9
ENDBRANCH   7   8
BRANCH   7  24
HETATM   24  C26 UNL     1      -2.825  26.923  15.430  1.00  0.00     0.205 C 
HETATM   25  O3  UNL     1      -2.801  27.955  16.190  1.00  0.00    -0.644 OA
HETATM   26  O4  UNL     1      -1.595  26.447  15.052  1.00  0.00    -0.644 OA
ENDBRANCH   7  24
ENDBRANCH   6   7
ENDBRANCH   5   6
ENDBRANCH   3   5
BRANCH   4  27
HETATM   27  C5  UNL     1      -8.732  25.687  13.344  1.00  0.00     0.008 C 
BRANCH  27  28
HETATM   28  C6  UNL     1      -8.958  24.333  13.801  1.00  0.00    -0.066 C 
HETATM   29  C7  UNL     1      -7.987  23.247  13.440  1.00  0.00     0.048 C 
BRANCH  28  30
HETATM   30  C8  UNL     1      -9.993  24.023  14.526  1.00  0.00    -0.020 C 
BRANCH  30  31
HETATM   31  C9  UNL     1     -11.071  24.920  14.940  1.00  0.00     0.031 C 
BRANCH  31  32
HETATM   32  C10 UNL     1     -12.319  24.122  15.307  1.00  0.00     0.030 C 
BRANCH  32  33
HETATM   33  C11 UNL     1     -12.706  23.282  14.162  1.00  0.00    -0.037 C 
HETATM   34  C12 UNL     1     -13.987  23.073  13.890  1.00  0.00     0.007 C 
ENDBRANCH  32  33
ENDBRANCH  31  32
ENDBRANCH  30  31
ENDBRANCH  28  30
ENDBRANCH  27  28
ENDBRANCH   4  27
TORSDOF 14
ENDMDL
MODEL 5
REMARK VINA RESULT: -8.556038841      2.634      4.166
REMARK  14 active torsions:
REMARK  status: ('A' for Active; 'I' for Inactive)
REMARK    1  A    between atoms: C3_3  and  C13_13 
REMARK    2  A    between atoms: C4_4  and  C5_5 
REMARK    3  A    between atoms: C5_5  and  C6_6 
REMARK    4  A    between atoms: C6_6  and  C8_8 
REMARK    5  A    between atoms: C8_8  and  C9_9 
REMARK    6  A    between atoms: C9_9  and  C10_10 
REMARK    7  A    between atoms: C10_10  and  C11_11 
REMARK    8  A    between atoms: C13_13  and  C14_14 
REMARK    9  A    between atoms: C14_14  and  C15_15 
REMARK   10  A    between atoms: C15_15  and  C16_16 
REMARK   11  A    between atoms: C15_15  and  C26_32 
REMARK   12  A    between atoms: C16_16  and  C17_17 
REMARK   13  A    between atoms: C17_17  and  C18_18 
REMARK   14  A    between atoms: C18_18  and  C19_19 
ROOT
HETATM    1  C1  UNL     1      -7.304  23.094  12.930  1.00  0.00     0.018 C 
HETATM    2  C2  UNL     1      -7.052  23.438  14.057  1.00  0.00    -0.078 C 
HETATM    3  C3  UNL     1      -6.754  23.874  15.424  1.00  0.00     0.017 C 
HETATM    4  C4  UNL     1      -7.795  23.850  16.416  1.00  0.00     0.021 C 
ENDROOT
BRANCH   3   5
HETATM    5  C13 UNL     1      -5.502  24.279  15.666  1.00  0.00     0.021 C 
BRANCH   5   6
HETATM    6  C14 UNL     1      -5.160  25.657  15.622  1.00  0.00     0.015 C 
BRANCH   6   7
HETATM    7  C15 UNL     1      -4.450  26.218  14.666  1.00  0.00     0.018 C 
BRANCH   7   8
HETATM    8  C16 UNL     1      -4.938  26.310  13.303  1.00  0.00     0.046 C 
BRANCH   8   9
HETATM    9  C17 UNL     1      -4.381  25.442  12.256  1.00  0.00     0.007 C 
BRANCH   9  10
HETATM   10  C18 UNL     1      -3.844  24.096  12.563  1.00  0.00     0.031 C 
BRANCH  10  11
HETATM   11  C19 UNL     1      -2.494  24.023  11.814  1.00  0.00     0.127 C 
HETATM   12  N1  UNL     1      -2.320  25.153  10.965  1.00  0.00    -0.306 N 
HETATM   13  S1  UNL     1      -0.581  25.085  10.725  1.00  0.00     0.260 S 
ATOM     14  H1  UNL     1      -3.007  25.812  10.600  1.00  0.00     0.173 HD
HETATM   15  O1  UNL     1      -0.262  24.167   9.610  1.00  0.00    -0.200 OA
HETATM   16  O2  UNL     1      -0.023  26.455  10.568  1.00  0.00    -0.200 OA
HETATM   17  C20 UNL     1      -0.190  24.398  12.299  1.00  0.00     0.087 A 
HETATM   18  C21 UNL     1       0.961  24.332  13.051  1.00  0.00     0.027 A 
HETATM   19  C25 UNL     1      -1.381  23.868  12.738  1.00  0.00    -0.010 A 
HETATM   20  C22 UNL     1       0.971  23.718  14.302  1.00  0.00     0.020 A 
HETATM   21  C23 UNL     1      -0.211  23.180  14.763  1.00  0.00     0.011 A 
HETATM   22 BR1  UNL     1      -0.255  22.320  16.489  1.00  0.00    -0.051 Br
HETATM   23  C24 UNL     1      -1.345  23.260  13.995  1.00  0.00     0.030 A 
ENDBRANCH  10  11
ENDBRANCH   9  10
ENDBRANCH   8   9
ENDBRANCH   7   8
BRANCH   7  24
HETATM   24  C26 UNL     1      -3.190  26.817  15.081  1.00  0.00     0.205 C 
HETATM   25  O3  UNL     1      -3.176  27.601  16.097  1.00  0.00    -0.644 OA
HETATM   26  O4  UNL     1      -1.976  26.630  14.471  1.00  0.00    -0.644 OA
ENDBRANCH   7  24
ENDBRANCH   6   7
ENDBRANCH   5   6
ENDBRANCH   3   5
BRANCH   4  27
HETATM   27  C5  UNL     1      -9.015  23.425  16.064  1.00  0.00     0.008 C 
BRANCH  27  28
HETATM   28  C6  UNL     1     -10.032  24.396  15.722  1.00  0.00    -0.066 C 
HETATM   29  C7  UNL     1     -11.416  23.940  15.364  1.00  0.00     0.048 C 
BRANCH  28  30
HETATM   30  C8  UNL     1      -9.779  25.673  15.714  1.00  0.00    -0.020 C 
BRANCH  30  31
HETATM   31  C9  UNL     1      -9.469  26.494  14.546  1.00  0.00     0.031 C 
BRANCH  31  32
HETATM   32  C10 UNL     1      -8.221  27.335  14.799  1.00  0.00     0.030 C 
BRANCH  32  33
HETATM   33  C11 UNL     1      -8.281  27.886  16.163  1.00  0.00    -0.037 C 
HETATM   34  C12 UNL     1      -7.173  28.298  16.765  1.00  0.00     0.007 C 
ENDBRANCH  32  33
ENDBRANCH  31  32
ENDBRANCH  30  31
ENDBRANCH  28  30
ENDBRANCH  27  28
ENDBRANCH   4  27
TORSDOF 14
ENDMDL
