MODEL 1
REMARK VINA RESULT: -9.516810324      0.000      0.000
REMARK  12 active torsions:
REMARK  status: ('A' for Active; 'I' for Inactive)
REMARK    1  A    between atoms: S1_2  and  C2_3 
REMARK    2  A    between atoms: N1_8  and  C6_9 
REMARK    3  A    between atoms: C6_9  and  C7_10 
REMARK    4  A    between atoms: C7_10  and  C8_11 
REMARK    5  A    between atoms: C8_11  and  C9_12 
REMARK    6  A    between atoms: C9_12  and  C10_13 
REMARK    7  A    between atoms: C10_13  and  C11_14 
REMARK    8  A    between atoms: C11_14  and  N2_15 
REMARK    9  A    between atoms: C15_21  and  N4_22 
REMARK   10  A    between atoms: N5_25  and  C16_26 
REMARK   11  A    between atoms: C16_26  and  C17_27 
REMARK   12  A    between atoms: C17_27  and  C18_28 
ROOT
HETATM    1  N2  UNL     1      -5.024  26.274  14.937  1.00  0.00    -0.364 N 
HETATM    2  C12 UNL     1      -5.865  25.207  14.922  1.00  0.00     0.092 A 
HETATM    3  C13 UNL     1      -5.519  24.039  14.296  1.00  0.00     0.049 A 
HETATM    4  C14 UNL     1      -4.303  23.947  13.677  1.00  0.00     0.079 A 
HETATM    5  N3  UNL     1      -3.696  22.970  12.998  1.00  0.00    -0.190 N 
ATOM      6  H3  UNL     1      -4.091  22.046  12.823  1.00  0.00     0.184 HD
HETATM    7  C15 UNL     1      -2.476  23.392  12.577  1.00  0.00     0.679 A 
HETATM    8  N5  UNL     1      -2.332  24.648  13.004  1.00  0.00    -0.180 N 
HETATM    9  C24 UNL     1      -3.457  25.023  13.694  1.00  0.00     0.094 A 
HETATM   10  C25 UNL     1      -3.827  26.210  14.338  1.00  0.00     0.123 A 
ENDROOT
BRANCH   1  11
HETATM   11  C11 UNL     1      -5.441  27.465  15.619  1.00  0.00     0.128 C 
BRANCH  11  12
HETATM   12  C10 UNL     1      -6.758  27.383  16.310  1.00  0.00     0.020 C 
BRANCH  12  13
HETATM   13  C9  UNL     1      -7.753  28.434  16.003  1.00  0.00     0.002 C 
BRANCH  13  14
HETATM   14  C8  UNL     1      -9.126  27.911  15.694  1.00  0.00     0.002 C 
BRANCH  14  15
HETATM   15  C7  UNL     1      -9.112  26.861  14.632  1.00  0.00     0.020 C 
BRANCH  15  16
HETATM   16  C6  UNL     1     -10.354  26.003  14.619  1.00  0.00     0.128 C 
BRANCH  16  17
HETATM   17  N1  UNL     1     -10.037  24.604  14.826  1.00  0.00    -0.364 N 
HETATM   18  C5  UNL     1      -9.110  24.303  15.743  1.00  0.00     0.109 A 
HETATM   19  C4  UNL     1      -8.743  22.998  15.999  1.00  0.00     0.027 A 
HETATM   20  C3  UNL     1      -9.371  22.016  15.268  1.00  0.00     0.040 A 
HETATM   21 BR1  UNL     1      -7.425  22.625  17.307  1.00  0.00    -0.050 Br
HETATM   22  C2  UNL     1     -10.322  22.339  14.327  1.00  0.00     0.017 A 
HETATM   23  C26 UNL     1     -10.657  23.658  14.107  1.00  0.00     0.109 A 
BRANCH  22  24
HETATM   24  S1  UNL     1     -11.075  21.007  13.428  1.00  0.00    -0.133 SA
HETATM   25  C1  UNL     1     -12.592  20.517  14.292  1.00  0.00     0.095 C 
ENDBRANCH  22  24
ENDBRANCH  16  17
ENDBRANCH  15  16
ENDBRANCH  14  15
ENDBRANCH  13  14
ENDBRANCH  12  13
ENDBRANCH  11  12
ENDBRANCH   1  11
BRANCH   8  26
HETATM   26  C16 UNL     1      -1.225  25.591  12.873  1.00  0.00     0.148 C 
BRANCH  26  27
HETATM   27  C17 UNL     1      -0.283  25.610  14.031  1.00  0.00     0.025 C 
BRANCH  27  28
HETATM   28  C18 UNL     1       0.684  24.497  14.165  1.00  0.00    -0.013 C 
HETATM   29  C19 UNL     1       0.224  23.492  15.235  1.00  0.00     0.005 C 
HETATM   30  C20 UNL     1       1.349  22.985  16.071  1.00  0.00     0.000 C 
HETATM   31  C21 UNL     1       2.621  22.701  15.305  1.00  0.00     0.000 C 
HETATM   32  C22 UNL     1       3.085  23.908  14.546  1.00  0.00     0.000 C 
HETATM   33  C23 UNL     1       2.069  25.006  14.605  1.00  0.00     0.005 C 
ENDBRANCH  27  28
ENDBRANCH  26  27
ENDBRANCH   8  26
BRANCH   7  34
HETATM   34  N4  UNL     1      -1.642  22.696  11.876  1.00  0.00    -0.234 N 
ATOM     35  H42 UNL     1      -1.713  21.711  11.623  1.00  0.00     0.174 HD
ATOM     36  H41 UNL     1      -0.767  23.041  11.484  1.00  0.00     0.174 HD
ENDBRANCH   7  34
TORSDOF 12
ENDMDL
MODEL 2
REMARK VINA RESULT: -9.313693051      1.568      2.313
REMARK  12 active torsions:
REMARK  status: ('A' for Active; 'I' for Inactive)
REMARK    1  A    between atoms: S1_2  and  C2_3 
REMARK    2  A    between atoms: N1_8  and  C6_9 
REMARK    3  A    between atoms: C6_9  and  C7_10 
REMARK    4  A    between atoms: C7_10  and  C8_11 
REMARK    5  A    between atoms: C8_11  and  C9_12 
REMARK    6  A    between atoms: C9_12  and  C10_13 
REMARK    7  A    between atoms: C10_13  and  C11_14 
REMARK    8  A    between atoms: C11_14  and  N2_15 
REMARK    9  A    between atoms: C15_21  and  N4_22 
REMARK   10  A    between atoms: N5_25  and  C16_26 
REMARK   11  A    between atoms: C16_26  and  C17_27 
REMARK   12  A    between atoms: C17_27  and  C18_28 
ROOT
HETATM    1  N2  UNL     1      -5.113  26.449  14.420  1.00  0.00    -0.364 N 
HETATM    2  C12 UNL     1      -5.981  25.546  13.892  1.00  0.00     0.092 A 
HETATM    3  C13 UNL     1      -5.532  24.430  13.235  1.00  0.00     0.049 A 
HETATM    4  C14 UNL     1      -4.186  24.223  13.112  1.00  0.00     0.079 A 
HETATM    5  N3  UNL     1      -3.460  23.259  12.541  1.00  0.00    -0.190 N 
ATOM      6  H3  UNL     1      -3.842  22.443  12.062  1.00  0.00     0.184 HD
HETATM    7  C15 UNL     1      -2.138  23.526  12.695  1.00  0.00     0.679 A 
HETATM    8  N5  UNL     1      -2.051  24.673  13.372  1.00  0.00    -0.180 N 
HETATM    9  C24 UNL     1      -3.314  25.133  13.645  1.00  0.00     0.094 A 
HETATM   10  C25 UNL     1      -3.790  26.268  14.313  1.00  0.00     0.123 A 
ENDROOT
BRANCH   1  11
HETATM   11  C11 UNL     1      -5.647  27.591  15.104  1.00  0.00     0.128 C 
BRANCH  11  12
HETATM   12  C10 UNL     1      -6.821  27.325  15.982  1.00  0.00     0.020 C 
BRANCH  12  13
HETATM   13  C9  UNL     1      -7.851  28.381  16.077  1.00  0.00     0.002 C 
BRANCH  13  14
HETATM   14  C8  UNL     1      -9.233  27.930  15.700  1.00  0.00     0.002 C 
BRANCH  14  15
HETATM   15  C7  UNL     1      -9.222  26.898  14.620  1.00  0.00     0.020 C 
BRANCH  15  16
HETATM   16  C6  UNL     1     -10.380  25.932  14.701  1.00  0.00     0.128 C 
BRANCH  16  17
HETATM   17  N1  UNL     1      -9.927  24.574  14.926  1.00  0.00    -0.364 N 
HETATM   18  C5  UNL     1     -10.503  23.599  14.213  1.00  0.00     0.109 A 
HETATM   19  C4  UNL     1     -10.138  22.277  14.369  1.00  0.00     0.027 A 
HETATM   20  C3  UNL     1      -9.153  22.004  15.292  1.00  0.00     0.040 A 
HETATM   21 BR1  UNL     1     -10.984  20.934  13.337  1.00  0.00    -0.050 Br
HETATM   22  C2  UNL     1      -8.571  23.017  16.018  1.00  0.00     0.017 A 
HETATM   23  C26 UNL     1      -8.968  24.323  15.827  1.00  0.00     0.109 A 
BRANCH  22  24
HETATM   24  S1  UNL     1      -7.313  22.571  17.189  1.00  0.00    -0.133 SA
HETATM   25  C1  UNL     1      -5.693  22.843  16.424  1.00  0.00     0.095 C 
ENDBRANCH  22  24
ENDBRANCH  16  17
ENDBRANCH  15  16
ENDBRANCH  14  15
ENDBRANCH  13  14
ENDBRANCH  12  13
ENDBRANCH  11  12
ENDBRANCH   1  11
BRANCH   8  26
HETATM   26  C16 UNL     1      -0.895  25.431  13.843  1.00  0.00     0.148 C 
BRANCH  26  27
HETATM   27  C17 UNL     1      -0.560  25.221  15.283  1.00  0.00     0.025 C 
BRANCH  27  28
HETATM   28  C18 UNL     1       0.688  24.496  15.613  1.00  0.00    -0.013 C 
HETATM   29  C19 UNL     1       1.856  24.983  14.737  1.00  0.00     0.005 C 
HETATM   30  C20 UNL     1       2.742  23.872  14.288  1.00  0.00     0.000 C 
HETATM   31  C21 UNL     1       3.011  22.820  15.341  1.00  0.00     0.000 C 
HETATM   32  C22 UNL     1       1.735  22.240  15.874  1.00  0.00     0.000 C 
HETATM   33  C23 UNL     1       0.545  22.985  15.355  1.00  0.00     0.005 C 
ENDBRANCH  27  28
ENDBRANCH  26  27
ENDBRANCH   8  26
BRANCH   7  34
HETATM   34  N4  UNL     1      -1.168  22.803  12.242  1.00  0.00    -0.234 N 
ATOM     35  H42 UNL     1      -0.855  21.895  12.588  1.00  0.00     0.174 HD
ATOM     36  H41 UNL     1      -0.554  23.053  11.468  1.00  0.00     0.174 HD
ENDBRANCH   7  34
TORSDOF 12
ENDMDL
MODEL 3
REMARK VINA RESULT: -9.214988387      1.247      1.542
REMARK  12 active torsions:
REMARK  status: ('A' for Active; 'I' for Inactive)
REMARK    1  A    between atoms: S1_2  and  C2_3 
REMARK    2  A    between atoms: N1_8  and  C6_9 
REMARK    3  A    between atoms: C6_9  and  C7_10 
REMARK    4  A    between atoms: C7_10  and  C8_11 
REMARK    5  A    between atoms: C8_11  and  C9_12 
REMARK    6  A    between atoms: C9_12  and  C10_13 
REMARK    7  A    between atoms: C10_13  and  C11_14 
REMARK    8  A    between atoms: C11_14  and  N2_15 
REMARK    9  A    between atoms: C15_21  and  N4_22 
REMARK   10  A    between atoms: N5_25  and  C16_26 
REMARK   11  A    between atoms: C16_26  and  C17_27 
REMARK   12  A    between atoms: C17_27  and  C18_28 
ROOT
HETATM    1  N2  UNL     1      -5.122  26.747  14.897  1.00  0.00    -0.364 N 
HETATM    2  C12 UNL     1      -5.745  26.772  13.690  1.00  0.00     0.092 A 
HETATM    3  C13 UNL     1      -5.303  26.002  12.646  1.00  0.00     0.049 A 
HETATM    4  C14 UNL     1      -4.215  25.194  12.827  1.00  0.00     0.079 A 
HETATM    5  N3  UNL     1      -3.562  24.351  12.023  1.00  0.00    -0.190 N 
ATOM      6  H3  UNL     1      -3.804  24.163  11.050  1.00  0.00     0.184 HD
HETATM    7  C15 UNL     1      -2.528  23.783  12.694  1.00  0.00     0.679 A 
HETATM    8  N5  UNL     1      -2.547  24.285  13.931  1.00  0.00    -0.180 N 
HETATM    9  C24 UNL     1      -3.589  25.169  14.044  1.00  0.00     0.094 A 
HETATM   10  C25 UNL     1      -4.054  25.963  15.099  1.00  0.00     0.123 A 
ENDROOT
BRANCH   1  11
HETATM   11  C11 UNL     1      -5.640  27.569  15.952  1.00  0.00     0.128 C 
BRANCH  11  12
HETATM   12  C10 UNL     1      -7.056  27.309  16.334  1.00  0.00     0.020 C 
BRANCH  12  13
HETATM   13  C9  UNL     1      -8.029  28.403  16.124  1.00  0.00     0.002 C 
BRANCH  13  14
HETATM   14  C8  UNL     1      -9.384  27.944  15.670  1.00  0.00     0.002 C 
BRANCH  14  15
HETATM   15  C7  UNL     1      -9.307  26.938  14.568  1.00  0.00     0.020 C 
BRANCH  15  16
HETATM   16  C6  UNL     1     -10.516  26.037  14.492  1.00  0.00     0.128 C 
BRANCH  16  17
HETATM   17  N1  UNL     1     -10.136  24.643  14.376  1.00  0.00    -0.364 N 
HETATM   18  C5  UNL     1      -8.833  24.360  14.257  1.00  0.00     0.109 A 
HETATM   19  C4  UNL     1      -8.384  23.061  14.135  1.00  0.00     0.027 A 
HETATM   20  C3  UNL     1      -9.336  22.066  14.140  1.00  0.00     0.040 A 
HETATM   21 BR1  UNL     1      -6.530  22.713  13.968  1.00  0.00    -0.050 Br
HETATM   22  C2  UNL     1     -10.672  22.372  14.262  1.00  0.00     0.017 A 
HETATM   23  C26 UNL     1     -11.073  23.686  14.383  1.00  0.00     0.109 A 
BRANCH  22  24
HETATM   24  S1  UNL     1     -11.828  21.025  14.253  1.00  0.00    -0.133 SA
HETATM   25  C1  UNL     1     -13.372  21.588  15.018  1.00  0.00     0.095 C 
ENDBRANCH  22  24
ENDBRANCH  16  17
ENDBRANCH  15  16
ENDBRANCH  14  15
ENDBRANCH  13  14
ENDBRANCH  12  13
ENDBRANCH  11  12
ENDBRANCH   1  11
BRANCH   8  26
HETATM   26  C16 UNL     1      -1.699  24.026  15.091  1.00  0.00     0.148 C 
BRANCH  26  27
HETATM   27  C17 UNL     1      -0.516  24.929  15.211  1.00  0.00     0.025 C 
BRANCH  27  28
HETATM   28  C18 UNL     1       0.789  24.328  15.570  1.00  0.00    -0.013 C 
HETATM   29  C19 UNL     1       1.917  24.890  14.688  1.00  0.00     0.005 C 
HETATM   30  C20 UNL     1       2.902  23.850  14.280  1.00  0.00     0.000 C 
HETATM   31  C21 UNL     1       3.253  22.859  15.366  1.00  0.00     0.000 C 
HETATM   32  C22 UNL     1       2.030  22.183  15.908  1.00  0.00     0.000 C 
HETATM   33  C23 UNL     1       0.782  22.803  15.359  1.00  0.00     0.005 C 
ENDBRANCH  27  28
ENDBRANCH  26  27
ENDBRANCH   8  26
BRANCH   7  34
HETATM   34  N4  UNL     1      -1.686  22.937  12.200  1.00  0.00    -0.234 N 
ATOM     35  H42 UNL     1      -0.717  23.109  11.930  1.00  0.00     0.174 HD
ATOM     36  H41 UNL     1      -1.883  21.959  11.989  1.00  0.00     0.174 HD
ENDBRANCH   7  34
TORSDOF 12
ENDMDL
MODEL 4
REMARK VINA RESULT: -9.166598658      0.952      1.476
REMARK  12 active torsions:
REMARK  status: ('A' for Active; 'I' for Inactive)
REMARK    1  A    between atoms: S1_2  and  C2_3 
REMARK    2  A    between atoms: N1_8  and  C6_9 
REMARK    3  A    between atoms: C6_9  and  C7_10 
REMARK    4  A    between atoms: C7_10  and  C8_11 
REMARK    5  A    between atoms: C8_11  and  C9_12 
REMARK    6  A    between atoms: C9_12  and  C10_13 
REMARK    7  A    between atoms: C10_13  and  C11_14 
REMARK    8  A    between atoms: C11_14  and  N2_15 
REMARK    9  A    between atoms: C15_21  and  N4_22 
REMARK   10  A    between atoms: N5_25  and  C16_26 
REMARK   11  A    between atoms: C16_26  and  C17_27 
REMARK   12  A    between atoms: C17_27  and  C18_28 
ROOT
HETATM    1  N2  UNL     1      -5.496  26.307  15.101  1.00  0.00    -0.364 N 
HETATM    2  C12 UNL     1      -5.595  27.061  13.975  1.00  0.00     0.092 A 
HETATM    3  C13 UNL     1      -4.923  26.720  12.831  1.00  0.00     0.049 A 
HETATM    4  C14 UNL     1      -4.141  25.598  12.824  1.00  0.00     0.079 A 
HETATM    5  N3  UNL     1      -3.382  25.021  11.890  1.00  0.00    -0.190 N 
ATOM      6  H3  UNL     1      -3.261  25.366  10.937  1.00  0.00     0.184 HD
HETATM    7  C15 UNL     1      -2.797  23.905  12.397  1.00  0.00     0.679 A 
HETATM    8  N5  UNL     1      -3.204  23.796  13.663  1.00  0.00    -0.180 N 
HETATM    9  C24 UNL     1      -4.044  24.839  13.959  1.00  0.00     0.094 A 
HETATM   10  C25 UNL     1      -4.737  25.203  15.121  1.00  0.00     0.123 A 
ENDROOT
BRANCH   1  11
HETATM   11  C11 UNL     1      -6.233  26.713  16.263  1.00  0.00     0.128 C 
BRANCH  11  12
HETATM   12  C10 UNL     1      -7.032  27.961  16.115  1.00  0.00     0.020 C 
BRANCH  12  13
HETATM   13  C9  UNL     1      -8.406  27.957  16.661  1.00  0.00     0.002 C 
BRANCH  13  14
HETATM   14  C8  UNL     1      -9.484  27.949  15.616  1.00  0.00     0.002 C 
BRANCH  14  15
HETATM   15  C7  UNL     1      -9.293  26.864  14.606  1.00  0.00     0.020 C 
BRANCH  15  16
HETATM   16  C6  UNL     1     -10.483  25.943  14.482  1.00  0.00     0.128 C 
BRANCH  16  17
HETATM   17  N1  UNL     1     -10.115  24.561  14.717  1.00  0.00    -0.364 N 
HETATM   18  C5  UNL     1      -9.115  24.319  15.573  1.00  0.00     0.109 A 
HETATM   19  C4  UNL     1      -8.696  23.034  15.850  1.00  0.00     0.027 A 
HETATM   20  C3  UNL     1      -9.350  22.009  15.206  1.00  0.00     0.040 A 
HETATM   21 BR1  UNL     1      -7.275  22.745  17.068  1.00  0.00    -0.050 Br
HETATM   22  C2  UNL     1     -10.376  22.273  14.327  1.00  0.00     0.017 A 
HETATM   23  C26 UNL     1     -10.761  23.574  14.083  1.00  0.00     0.109 A 
BRANCH  22  24
HETATM   24  S1  UNL     1     -11.159  20.889  13.538  1.00  0.00    -0.133 SA
HETATM   25  C1  UNL     1     -12.688  20.507  14.434  1.00  0.00     0.095 C 
ENDBRANCH  22  24
ENDBRANCH  16  17
ENDBRANCH  15  16
ENDBRANCH  14  15
ENDBRANCH  13  14
ENDBRANCH  12  13
ENDBRANCH  11  12
ENDBRANCH   1  11
BRANCH   8  26
HETATM   26  C16 UNL     1      -2.923  22.791  14.684  1.00  0.00     0.148 C 
BRANCH  26  27
HETATM   27  C17 UNL     1      -1.783  23.125  15.589  1.00  0.00     0.025 C 
BRANCH  27  28
HETATM   28  C18 UNL     1      -0.414  23.106  15.026  1.00  0.00    -0.013 C 
HETATM   29  C19 UNL     1       0.559  22.374  15.966  1.00  0.00     0.005 C 
HETATM   30  C20 UNL     1       1.890  23.038  16.048  1.00  0.00     0.000 C 
HETATM   31  C21 UNL     1       2.410  23.566  14.730  1.00  0.00     0.000 C 
HETATM   32  C22 UNL     1       1.434  24.511  14.095  1.00  0.00     0.000 C 
HETATM   33  C23 UNL     1       0.138  24.532  14.844  1.00  0.00     0.005 C 
ENDBRANCH  27  28
ENDBRANCH  26  27
ENDBRANCH   8  26
BRANCH   7  34
HETATM   34  N4  UNL     1      -1.986  23.127  11.760  1.00  0.00    -0.234 N 
ATOM     35  H42 UNL     1      -1.999  22.894  10.767  1.00  0.00     0.174 HD
ATOM     36  H41 UNL     1      -1.211  22.612  12.175  1.00  0.00     0.174 HD
ENDBRANCH   7  34
TORSDOF 12
ENDMDL
MODEL 5
REMARK VINA RESULT: -8.783903877      2.319      3.191
REMARK  12 active torsions:
REMARK  status: ('A' for Active; 'I' for Inactive)
REMARK    1  A    between atoms: S1_2  and  C2_3 
REMARK    2  A    between atoms: N1_8  and  C6_9 
REMARK    3  A    between atoms: C6_9  and  C7_10 
REMARK    4  A    between atoms: C7_10  and  C8_11 
REMARK    5  A    between atoms: C8_11  and  C9_12 
REMARK    6  A    between atoms: C9_12  and  C10_13 
REMARK    7  A    between atoms: C10_13  and  C11_14 
REMARK    8  A    between atoms: C11_14  and  N2_15 
REMARK    9  A    between atoms: C15_21  and  N4_22 
REMARK   10  A    between atoms: N5_25  and  C16_26 
REMARK   11  A    between atoms: C16_26  and  C17_27 
REMARK   12  A    between atoms: C17_27  and  C18_28 
ROOT
HETATM    1  N2  UNL     1      -4.649  26.230  14.867  1.00  0.00    -0.364 N 
HETATM    2  C12 UNL     1      -4.839  25.071  15.551  1.00  0.00     0.092 A 
HETATM    3  C13 UNL     1      -4.358  23.879  15.077  1.00  0.00     0.049 A 
HETATM    4  C14 UNL     1      -3.673  23.859  13.894  1.00  0.00     0.079 A 
HETATM    5  N3  UNL     1      -3.099  22.880  13.189  1.00  0.00    -0.190 N 
ATOM      6  H3  UNL     1      -3.082  21.896  13.457  1.00  0.00     0.184 HD
HETATM    7  C15 UNL     1      -2.541  23.392  12.062  1.00  0.00     0.679 A 
HETATM    8  N5  UNL     1      -2.775  24.706  12.075  1.00  0.00    -0.180 N 
HETATM    9  C24 UNL     1      -3.481  25.027  13.207  1.00  0.00     0.094 A 
HETATM   10  C25 UNL     1      -3.980  26.236  13.706  1.00  0.00     0.123 A 
ENDROOT
BRANCH   1  11
HETATM   11  C11 UNL     1      -5.168  27.446  15.423  1.00  0.00     0.128 C 
BRANCH  11  12
HETATM   12  C10 UNL     1      -6.607  27.717  15.147  1.00  0.00     0.020 C 
BRANCH  12  13
HETATM   13  C9  UNL     1      -7.430  28.223  16.267  1.00  0.00     0.002 C 
BRANCH  13  14
HETATM   14  C8  UNL     1      -8.908  28.190  16.009  1.00  0.00     0.002 C 
BRANCH  14  15
HETATM   15  C7  UNL     1      -9.497  26.836  16.232  1.00  0.00     0.020 C 
BRANCH  15  16
HETATM   16  C6  UNL     1      -9.826  26.105  14.952  1.00  0.00     0.128 C 
BRANCH  16  17
HETATM   17  N1  UNL     1      -9.574  24.683  15.069  1.00  0.00    -0.364 N 
HETATM   18  C5  UNL     1      -8.643  24.285  15.944  1.00  0.00     0.109 A 
HETATM   19  C4  UNL     1      -8.334  22.951  16.114  1.00  0.00     0.027 A 
HETATM   20  C3  UNL     1      -9.026  22.045  15.343  1.00  0.00     0.040 A 
HETATM   21 BR1  UNL     1      -7.007  22.440  17.365  1.00  0.00    -0.050 Br
HETATM   22  C2  UNL     1      -9.981  22.468  14.447  1.00  0.00     0.017 A 
HETATM   23  C26 UNL     1     -10.255  23.813  14.312  1.00  0.00     0.109 A 
BRANCH  22  24
HETATM   24  S1  UNL     1     -10.819  21.229  13.492  1.00  0.00    -0.133 SA
HETATM   25  C1  UNL     1     -12.328  20.748  14.373  1.00  0.00     0.095 C 
ENDBRANCH  22  24
ENDBRANCH  16  17
ENDBRANCH  15  16
ENDBRANCH  14  15
ENDBRANCH  13  14
ENDBRANCH  12  13
ENDBRANCH  11  12
ENDBRANCH   1  11
BRANCH   8  26
HETATM   26  C16 UNL     1      -2.395  25.764  11.144  1.00  0.00     0.148 C 
BRANCH  26  27
HETATM   27  C17 UNL     1      -1.004  26.276  11.319  1.00  0.00     0.025 C 
BRANCH  27  28
HETATM   28  C18 UNL     1      -0.146  26.395  10.118  1.00  0.00    -0.013 C 
HETATM   29  C19 UNL     1      -0.879  27.139   8.988  1.00  0.00     0.005 C 
HETATM   30  C20 UNL     1      -0.621  26.546   7.645  1.00  0.00     0.000 C 
HETATM   31  C21 UNL     1       0.808  26.104   7.419  1.00  0.00     0.000 C 
HETATM   32  C22 UNL     1       1.255  25.135   8.472  1.00  0.00     0.000 C 
HETATM   33  C23 UNL     1       0.234  25.010   9.560  1.00  0.00     0.005 C 
ENDBRANCH  27  28
ENDBRANCH  26  27
ENDBRANCH   8  26
BRANCH   7  34
HETATM   34  N4  UNL     1      -1.924  22.710  11.153  1.00  0.00    -0.234 N 
ATOM     35  H42 UNL     1      -0.922  22.683  10.970  1.00  0.00     0.174 HD
ATOM     36  H41 UNL     1      -2.369  22.104  10.465  1.00  0.00     0.174 HD
ENDBRANCH   7  34
TORSDOF 12
ENDMDL
