MODEL 1
REMARK VINA RESULT: -8.148104177      0.000      0.000
REMARK  8 active torsions:
REMARK  status: ('A' for Active; 'I' for Inactive)
REMARK    1  A    between atoms: C2_2  and  N1_3 
REMARK    2  A    between atoms: C14_16  and  C15_17 
REMARK    3  A    between atoms: C15_17  and  C17_19 
REMARK    4  A    between atoms: C17_19  and  C18_20 
REMARK    5  A    between atoms: C18_20  and  O2_21 
REMARK    6  A    between atoms: O2_21  and  C19_22 
REMARK    7  A    between atoms: C19_22  and  C20_23 
REMARK    8  A    between atoms: C20_23  and  O3_24 
ROOT
HETATM    1  N1  UNL     1       0.074  25.583  15.482  1.00  0.00    -0.322 N 
HETATM    2  C3  UNL     1       0.486  24.213  15.748  1.00  0.00     0.224 C 
HETATM    3  O1  UNL     1       1.684  23.945  15.884  1.00  0.00    -0.273 OA
HETATM    4  C4  UNL     1      -0.630  23.236  15.829  1.00  0.00     0.104 C 
HETATM    5  C5  UNL     1      -1.372  23.404  14.492  1.00  0.00     0.020 C 
HETATM    6  C6  UNL     1      -2.190  24.707  14.573  1.00  0.00     0.041 C 
HETATM    7  C7  UNL     1      -1.149  25.772  14.819  1.00  0.00     0.015 C 
HETATM    8  C8  UNL     1      -1.269  27.018  14.424  1.00  0.00    -0.001 C 
HETATM    9  C9  UNL     1      -2.400  27.679  13.685  1.00  0.00     0.030 C 
HETATM   10  C10 UNL     1      -3.649  26.968  14.121  1.00  0.00     0.018 C 
HETATM   11  C11 UNL     1      -4.043  25.858  13.198  1.00  0.00    -0.011 C 
HETATM   12  C12 UNL     1      -3.918  26.326  11.737  1.00  0.00     0.021 C 
HETATM   13  C13 UNL     1      -5.286  25.170  13.470  1.00  0.00    -0.039 C 
HETATM   14  C14 UNL     1      -6.588  25.442  13.422  1.00  0.00    -0.059 C 
HETATM   15  C21 UNL     1      -7.289  24.337  14.258  1.00  0.00    -0.005 C 
HETATM   16  C22 UNL     1      -8.542  23.835  13.632  1.00  0.00     0.021 C 
HETATM   17  C23 UNL     1      -6.354  23.238  14.432  1.00  0.00     0.032 C 
HETATM   18  C24 UNL     1      -6.152  23.069  15.902  1.00  0.00     0.011 C 
HETATM   19  C25 UNL     1      -7.471  23.565  16.452  1.00  0.00     0.010 C 
HETATM   20  C26 UNL     1      -7.649  24.851  15.614  1.00  0.00    -0.036 C 
HETATM   21  C27 UNL     1      -6.701  25.831  16.226  1.00  0.00     0.016 C 
HETATM   22  C28 UNL     1      -9.037  25.381  15.789  1.00  0.00     0.016 C 
HETATM   23  C29 UNL     1      -5.179  23.695  13.700  1.00  0.00    -0.049 C 
HETATM   24  C30 UNL     1      -4.206  22.946  13.270  1.00  0.00    -0.018 C 
HETATM   25  C31 UNL     1      -3.129  23.611  12.497  1.00  0.00     0.034 C 
HETATM   26  C32 UNL     1      -2.827  24.906  13.259  1.00  0.00     0.011 C 
ENDROOT
BRANCH  14  27
HETATM   27  C15 UNL     1      -7.387  26.581  13.050  1.00  0.00     0.014 C 
HETATM   28  C16 UNL     1      -7.670  26.443  11.489  1.00  0.00     0.015 C 
BRANCH  27  29
HETATM   29  C17 UNL     1      -6.990  27.993  13.259  1.00  0.00     0.035 C 
BRANCH  29  30
HETATM   30  C18 UNL     1      -7.731  28.675  14.386  1.00  0.00     0.168 C 
BRANCH  30  31
HETATM   31  O2  UNL     1      -9.048  28.542  14.534  1.00  0.00    -0.389 OA
BRANCH  31  32
HETATM   32  C19 UNL     1      -9.664  29.318  15.517  1.00  0.00     0.193 C 
BRANCH  32  33
HETATM   33  C20 UNL     1      -9.057  28.995  16.845  1.00  0.00     0.190 C 
BRANCH  33  34
HETATM   34  O3  UNL     1      -9.874  29.377  17.914  1.00  0.00    -0.399 OA
ATOM     35  H3  UNL     1      -9.575  30.175  18.333  1.00  0.00     0.209 HD
ENDBRANCH  33  34
ENDBRANCH  32  33
ENDBRANCH  31  32
ENDBRANCH  30  31
ENDBRANCH  29  30
ENDBRANCH  27  29
ENDBRANCH  14  27
BRANCH   1  36
HETATM   36  C2  UNL     1       0.968  26.643  15.936  1.00  0.00     0.127 C 
HETATM   37  C1  UNL     1       2.395  26.402  15.547  1.00  0.00     0.027 C 
ENDBRANCH   1  36
TORSDOF 8
ENDMDL
MODEL 2
REMARK VINA RESULT: -7.383952948      3.063      5.328
REMARK  8 active torsions:
REMARK  status: ('A' for Active; 'I' for Inactive)
REMARK    1  A    between atoms: C2_2  and  N1_3 
REMARK    2  A    between atoms: C14_16  and  C15_17 
REMARK    3  A    between atoms: C15_17  and  C17_19 
REMARK    4  A    between atoms: C17_19  and  C18_20 
REMARK    5  A    between atoms: C18_20  and  O2_21 
REMARK    6  A    between atoms: O2_21  and  C19_22 
REMARK    7  A    between atoms: C19_22  and  C20_23 
REMARK    8  A    between atoms: C20_23  and  O3_24 
ROOT
HETATM    1  N1  UNL     1      -2.097  25.054  10.304  1.00  0.00    -0.322 N 
HETATM    2  C3  UNL     1      -1.735  26.374   9.810  1.00  0.00     0.224 C 
HETATM    3  O1  UNL     1      -0.706  26.521   9.143  1.00  0.00    -0.273 OA
HETATM    4  C4  UNL     1      -2.684  27.455  10.178  1.00  0.00     0.104 C 
HETATM    5  C5  UNL     1      -2.764  27.376  11.713  1.00  0.00     0.020 C 
HETATM    6  C6  UNL     1      -3.636  26.158  12.073  1.00  0.00     0.041 C 
HETATM    7  C7  UNL     1      -2.907  24.994  11.450  1.00  0.00     0.015 C 
HETATM    8  C8  UNL     1      -2.941  23.770  11.923  1.00  0.00    -0.001 C 
HETATM    9  C9  UNL     1      -3.674  23.232  13.122  1.00  0.00     0.030 C 
HETATM   10  C10 UNL     1      -4.923  24.057  13.246  1.00  0.00     0.018 C 
HETATM   11  C11 UNL     1      -4.770  25.212  14.187  1.00  0.00    -0.011 C 
HETATM   12  C12 UNL     1      -4.046  24.750  15.464  1.00  0.00     0.021 C 
HETATM   13  C13 UNL     1      -5.942  26.015  14.457  1.00  0.00    -0.039 C 
HETATM   14  C14 UNL     1      -7.103  25.873  15.091  1.00  0.00    -0.059 C 
HETATM   15  C21 UNL     1      -8.009  27.032  14.594  1.00  0.00    -0.005 C 
HETATM   16  C22 UNL     1      -8.805  27.662  15.682  1.00  0.00     0.021 C 
HETATM   17  C23 UNL     1      -7.162  28.031  13.965  1.00  0.00     0.032 C 
HETATM   18  C24 UNL     1      -7.624  28.163  12.550  1.00  0.00     0.011 C 
HETATM   19  C25 UNL     1      -9.086  27.793  12.669  1.00  0.00     0.010 C 
HETATM   20  C26 UNL     1      -8.977  26.541  13.567  1.00  0.00    -0.036 C 
HETATM   21  C27 UNL     1      -8.487  25.465  12.653  1.00  0.00     0.016 C 
HETATM   22  C28 UNL     1     -10.337  26.147  14.054  1.00  0.00     0.016 C 
HETATM   23  C29 UNL     1      -5.827  27.469  14.124  1.00  0.00    -0.049 C 
HETATM   24  C30 UNL     1      -4.706  28.124  14.037  1.00  0.00    -0.018 C 
HETATM   25  C31 UNL     1      -3.456  27.365  14.288  1.00  0.00     0.034 C 
HETATM   26  C32 UNL     1      -3.634  26.038  13.542  1.00  0.00     0.011 C 
ENDROOT
BRANCH  14  27
HETATM   27  C15 UNL     1      -7.744  24.822  15.840  1.00  0.00     0.014 C 
HETATM   28  C16 UNL     1      -6.993  24.745  17.242  1.00  0.00     0.015 C 
BRANCH  27  29
HETATM   29  C17 UNL     1      -7.874  23.420  15.380  1.00  0.00     0.035 C 
BRANCH  29  30
HETATM   30  C18 UNL     1      -9.305  22.950  15.254  1.00  0.00     0.168 C 
BRANCH  30  31
HETATM   31  O2  UNL     1      -9.912  22.879  14.071  1.00  0.00    -0.389 OA
BRANCH  31  32
HETATM   32  C19 UNL     1     -11.288  22.643  14.069  1.00  0.00     0.193 C 
BRANCH  32  33
HETATM   33  C20 UNL     1     -11.711  22.223  12.697  1.00  0.00     0.190 C 
BRANCH  33  34
HETATM   34  O3  UNL     1     -13.067  21.887  12.635  1.00  0.00    -0.399 OA
ATOM     35  H3  UNL     1     -13.212  20.951  12.704  1.00  0.00     0.209 HD
ENDBRANCH  33  34
ENDBRANCH  32  33
ENDBRANCH  31  32
ENDBRANCH  30  31
ENDBRANCH  29  30
ENDBRANCH  27  29
ENDBRANCH  14  27
BRANCH   1  36
HETATM   36  C2  UNL     1      -1.591  23.906   9.559  1.00  0.00     0.127 C 
HETATM   37  C1  UNL     1      -1.819  24.029   8.084  1.00  0.00     0.027 C 
ENDBRANCH   1  36
TORSDOF 8
ENDMDL
MODEL 3
REMARK VINA RESULT: -6.572754309      2.819      4.922
REMARK  8 active torsions:
REMARK  status: ('A' for Active; 'I' for Inactive)
REMARK    1  A    between atoms: C2_2  and  N1_3 
REMARK    2  A    between atoms: C14_16  and  C15_17 
REMARK    3  A    between atoms: C15_17  and  C17_19 
REMARK    4  A    between atoms: C17_19  and  C18_20 
REMARK    5  A    between atoms: C18_20  and  O2_21 
REMARK    6  A    between atoms: O2_21  and  C19_22 
REMARK    7  A    between atoms: C19_22  and  C20_23 
REMARK    8  A    between atoms: C20_23  and  O3_24 
ROOT
HETATM    1  N1  UNL     1      -0.711  25.811   9.799  1.00  0.00    -0.322 N 
HETATM    2  C3  UNL     1      -0.155  27.155   9.774  1.00  0.00     0.224 C 
HETATM    3  O1  UNL     1       0.930  27.363   9.220  1.00  0.00    -0.273 OA
HETATM    4  C4  UNL     1      -0.988  28.183  10.448  1.00  0.00     0.104 C 
HETATM    5  C5  UNL     1      -1.186  27.628  11.870  1.00  0.00     0.020 C 
HETATM    6  C6  UNL     1      -2.226  26.494  11.787  1.00  0.00     0.041 C 
HETATM    7  C7  UNL     1      -1.603  25.500  10.838  1.00  0.00     0.015 C 
HETATM    8  C8  UNL     1      -1.821  24.207  10.884  1.00  0.00    -0.001 C 
HETATM    9  C9  UNL     1      -2.699  23.421  11.820  1.00  0.00     0.030 C 
HETATM   10  C10 UNL     1      -3.842  24.329  12.172  1.00  0.00     0.018 C 
HETATM   11  C11 UNL     1      -3.617  25.089  13.443  1.00  0.00    -0.011 C 
HETATM   12  C12 UNL     1      -3.048  24.146  14.518  1.00  0.00     0.021 C 
HETATM   13  C13 UNL     1      -4.696  25.918  13.927  1.00  0.00    -0.039 C 
HETATM   14  C14 UNL     1      -5.909  25.744  14.448  1.00  0.00    -0.059 C 
HETATM   15  C21 UNL     1      -6.627  27.116  14.332  1.00  0.00    -0.005 C 
HETATM   16  C22 UNL     1      -7.415  27.470  15.544  1.00  0.00     0.021 C 
HETATM   17  C23 UNL     1      -5.621  28.136  14.088  1.00  0.00     0.032 C 
HETATM   18  C24 UNL     1      -5.960  28.777  12.783  1.00  0.00     0.011 C 
HETATM   19  C25 UNL     1      -7.461  28.597  12.733  1.00  0.00     0.010 C 
HETATM   20  C26 UNL     1      -7.573  27.120  13.175  1.00  0.00    -0.036 C 
HETATM   21  C27 UNL     1      -7.154  26.337  11.973  1.00  0.00     0.016 C 
HETATM   22  C28 UNL     1      -9.001  26.786  13.468  1.00  0.00     0.016 C 
HETATM   23  C29 UNL     1      -4.380  27.372  14.092  1.00  0.00    -0.049 C 
HETATM   24  C30 UNL     1      -3.184  27.856  14.256  1.00  0.00    -0.018 C 
HETATM   25  C31 UNL     1      -2.058  26.890  14.279  1.00  0.00     0.034 C 
HETATM   26  C32 UNL     1      -2.344  25.910  13.136  1.00  0.00     0.011 C 
ENDROOT
BRANCH  14  27
HETATM   27  C15 UNL     1      -6.726  24.610  14.794  1.00  0.00     0.014 C 
HETATM   28  C16 UNL     1      -5.951  23.829  15.944  1.00  0.00     0.015 C 
BRANCH  27  29
HETATM   29  C17 UNL     1      -7.172  23.571  13.837  1.00  0.00     0.035 C 
BRANCH  29  30
HETATM   30  C18 UNL     1      -8.669  23.364  13.813  1.00  0.00     0.168 C 
BRANCH  30  31
HETATM   31  O2  UNL     1      -9.414  23.549  14.901  1.00  0.00    -0.389 OA
BRANCH  31  32
HETATM   32  C19 UNL     1     -10.794  23.666  14.721  1.00  0.00     0.193 C 
BRANCH  32  33
HETATM   33  C20 UNL     1     -11.288  24.849  15.492  1.00  0.00     0.190 C 
BRANCH  33  34
HETATM   34  O3  UNL     1     -12.286  24.509  16.411  1.00  0.00    -0.399 OA
ATOM     35  H3  UNL     1     -12.965  23.968  16.026  1.00  0.00     0.209 HD
ENDBRANCH  33  34
ENDBRANCH  32  33
ENDBRANCH  31  32
ENDBRANCH  30  31
ENDBRANCH  29  30
ENDBRANCH  27  29
ENDBRANCH  14  27
BRANCH   1  36
HETATM   36  C2  UNL     1      -0.298  24.903   8.733  1.00  0.00     0.127 C 
HETATM   37  C1  UNL     1      -0.933  25.232   7.416  1.00  0.00     0.027 C 
ENDBRANCH   1  36
TORSDOF 8
ENDMDL
MODEL 4
REMARK VINA RESULT: -6.487048599      2.125      8.081
REMARK  8 active torsions:
REMARK  status: ('A' for Active; 'I' for Inactive)
REMARK    1  A    between atoms: C2_2  and  N1_3 
REMARK    2  A    between atoms: C14_16  and  C15_17 
REMARK    3  A    between atoms: C15_17  and  C17_19 
REMARK    4  A    between atoms: C17_19  and  C18_20 
REMARK    5  A    between atoms: C18_20  and  O2_21 
REMARK    6  A    between atoms: O2_21  and  C19_22 
REMARK    7  A    between atoms: C19_22  and  C20_23 
REMARK    8  A    between atoms: C20_23  and  O3_24 
ROOT
HETATM    1  N1  UNL     1      -8.994  27.166  15.206  1.00  0.00    -0.322 N 
HETATM    2  C3  UNL     1      -9.539  27.788  14.009  1.00  0.00     0.224 C 
HETATM    3  O1  UNL     1     -10.725  28.133  13.979  1.00  0.00    -0.273 OA
HETATM    4  C4  UNL     1      -8.568  27.949  12.897  1.00  0.00     0.104 C 
HETATM    5  C5  UNL     1      -8.034  26.526  12.659  1.00  0.00     0.020 C 
HETATM    6  C6  UNL     1      -7.045  26.202  13.795  1.00  0.00     0.041 C 
HETATM    7  C7  UNL     1      -7.879  26.327  15.047  1.00  0.00     0.015 C 
HETATM    8  C8  UNL     1      -7.657  25.646  16.146  1.00  0.00    -0.001 C 
HETATM    9  C9  UNL     1      -6.580  24.637  16.441  1.00  0.00     0.030 C 
HETATM   10  C10 UNL     1      -5.386  25.063  15.637  1.00  0.00     0.018 C 
HETATM   11  C11 UNL     1      -5.298  24.377  14.310  1.00  0.00    -0.011 C 
HETATM   12  C12 UNL     1      -5.592  22.875  14.480  1.00  0.00     0.021 C 
HETATM   13  C13 UNL     1      -4.133  24.639  13.496  1.00  0.00    -0.039 C 
HETATM   14  C14 UNL     1      -2.830  24.365  13.531  1.00  0.00    -0.059 C 
HETATM   15  C21 UNL     1      -2.160  25.336  12.521  1.00  0.00    -0.005 C 
HETATM   16  C22 UNL     1      -1.103  24.688  11.698  1.00  0.00     0.021 C 
HETATM   17  C23 UNL     1      -3.195  25.874  11.654  1.00  0.00     0.032 C 
HETATM   18  C24 UNL     1      -3.179  27.358  11.829  1.00  0.00     0.011 C 
HETATM   19  C25 UNL     1      -1.734  27.608  12.200  1.00  0.00     0.010 C 
HETATM   20  C26 UNL     1      -1.521  26.482  13.236  1.00  0.00    -0.036 C 
HETATM   21  C27 UNL     1      -2.217  26.967  14.467  1.00  0.00     0.016 C 
HETATM   22  C28 UNL     1      -0.064  26.353  13.552  1.00  0.00     0.016 C 
HETATM   23  C29 UNL     1      -4.399  25.213  12.140  1.00  0.00    -0.049 C 
HETATM   24  C30 UNL     1      -5.520  25.092  11.491  1.00  0.00    -0.018 C 
HETATM   25  C31 UNL     1      -6.608  24.330  12.152  1.00  0.00     0.034 C 
HETATM   26  C32 UNL     1      -6.606  24.807  13.609  1.00  0.00     0.011 C 
ENDROOT
BRANCH  14  27
HETATM   27  C15 UNL     1      -1.955  23.644  14.418  1.00  0.00     0.014 C 
HETATM   28  C16 UNL     1      -2.123  24.306  15.856  1.00  0.00     0.015 C 
BRANCH  27  29
HETATM   29  C17 UNL     1      -0.495  23.490  14.218  1.00  0.00     0.035 C 
BRANCH  29  30
HETATM   30  C18 UNL     1       0.234  22.959  15.431  1.00  0.00     0.168 C 
BRANCH  30  31
HETATM   31  O2  UNL     1       1.558  22.815  15.439  1.00  0.00    -0.389 OA
BRANCH  31  32
HETATM   32  C19 UNL     1       2.304  23.697  14.654  1.00  0.00     0.193 C 
BRANCH  32  33
HETATM   33  C20 UNL     1       2.672  24.891  15.476  1.00  0.00     0.190 C 
BRANCH  33  34
HETATM   34  O3  UNL     1       3.388  24.546  16.627  1.00  0.00    -0.399 OA
ATOM     35  H3  UNL     1       2.952  24.826  17.423  1.00  0.00     0.209 HD
ENDBRANCH  33  34
ENDBRANCH  32  33
ENDBRANCH  31  32
ENDBRANCH  30  31
ENDBRANCH  29  30
ENDBRANCH  27  29
ENDBRANCH  14  27
BRANCH   1  36
HETATM   36  C2  UNL     1      -9.652  27.474  16.472  1.00  0.00     0.127 C 
HETATM   37  C1  UNL     1      -9.355  28.862  16.953  1.00  0.00     0.027 C 
ENDBRANCH   1  36
TORSDOF 8
ENDMDL
MODEL 5
REMARK VINA RESULT: -6.011544538      3.333      8.107
REMARK  8 active torsions:
REMARK  status: ('A' for Active; 'I' for Inactive)
REMARK    1  A    between atoms: C2_2  and  N1_3 
REMARK    2  A    between atoms: C14_16  and  C15_17 
REMARK    3  A    between atoms: C15_17  and  C17_19 
REMARK    4  A    between atoms: C17_19  and  C18_20 
REMARK    5  A    between atoms: C18_20  and  O2_21 
REMARK    6  A    between atoms: O2_21  and  C19_22 
REMARK    7  A    between atoms: C19_22  and  C20_23 
REMARK    8  A    between atoms: C20_23  and  O3_24 
ROOT
HETATM    1  N1  UNL     1      -8.866  25.461  14.106  1.00  0.00    -0.322 N 
HETATM    2  C3  UNL     1      -9.045  26.145  15.378  1.00  0.00     0.224 C 
HETATM    3  O1  UNL     1     -10.183  26.350  15.812  1.00  0.00    -0.273 OA
HETATM    4  C4  UNL     1      -7.782  26.545  16.049  1.00  0.00     0.104 C 
HETATM    5  C5  UNL     1      -7.051  27.393  14.994  1.00  0.00     0.020 C 
HETATM    6  C6  UNL     1      -6.468  26.430  13.942  1.00  0.00     0.041 C 
HETATM    7  C7  UNL     1      -7.679  25.712  13.399  1.00  0.00     0.015 C 
HETATM    8  C8  UNL     1      -7.764  25.240  12.177  1.00  0.00    -0.001 C 
HETATM    9  C9  UNL     1      -6.746  25.273  11.070  1.00  0.00     0.030 C 
HETATM   10  C10 UNL     1      -5.405  25.216  11.743  1.00  0.00     0.018 C 
HETATM   11  C11 UNL     1      -4.808  26.569  11.975  1.00  0.00    -0.011 C 
HETATM   12  C12 UNL     1      -4.980  27.437  10.714  1.00  0.00     0.021 C 
HETATM   13  C13 UNL     1      -3.473  26.627  12.526  1.00  0.00    -0.039 C 
HETATM   14  C14 UNL     1      -2.235  26.338  12.131  1.00  0.00    -0.059 C 
HETATM   15  C21 UNL     1      -1.375  26.279  13.422  1.00  0.00    -0.005 C 
HETATM   16  C22 UNL     1      -0.042  26.922  13.269  1.00  0.00     0.021 C 
HETATM   17  C23 UNL     1      -2.113  26.932  14.490  1.00  0.00     0.032 C 
HETATM   18  C24 UNL     1      -2.315  25.914  15.564  1.00  0.00     0.011 C 
HETATM   19  C25 UNL     1      -1.111  25.020  15.369  1.00  0.00     0.010 C 
HETATM   20  C26 UNL     1      -1.136  24.862  13.832  1.00  0.00    -0.036 C 
HETATM   21  C27 UNL     1      -2.249  23.899  13.572  1.00  0.00     0.016 C 
HETATM   22  C28 UNL     1       0.138  24.230  13.367  1.00  0.00     0.016 C 
HETATM   23  C29 UNL     1      -3.333  27.366  13.820  1.00  0.00    -0.049 C 
HETATM   24  C30 UNL     1      -4.155  28.281  14.245  1.00  0.00    -0.018 C 
HETATM   25  C31 UNL     1      -5.314  28.607  13.377  1.00  0.00     0.034 C 
HETATM   26  C32 UNL     1      -5.847  27.255  12.891  1.00  0.00     0.011 C 
ENDROOT
BRANCH  14  27
HETATM   27  C15 UNL     1      -1.633  25.832  10.925  1.00  0.00     0.014 C 
HETATM   28  C16 UNL     1      -1.275  27.101  10.032  1.00  0.00     0.015 C 
BRANCH  27  29
HETATM   29  C17 UNL     1      -2.277  24.866  10.004  1.00  0.00     0.035 C 
BRANCH  29  30
HETATM   30  C18 UNL     1      -1.378  24.402   8.881  1.00  0.00     0.168 C 
BRANCH  30  31
HETATM   31  O2  UNL     1      -1.393  24.997   7.688  1.00  0.00    -0.389 OA
BRANCH  31  32
HETATM   32  C19 UNL     1      -0.165  25.183   7.050  1.00  0.00     0.193 C 
BRANCH  32  33
HETATM   33  C20 UNL     1       0.930  25.104   8.066  1.00  0.00     0.190 C 
BRANCH  33  34
HETATM   34  O3  UNL     1       1.790  24.024   7.842  1.00  0.00    -0.399 OA
ATOM     35  H3  UNL     1       1.996  23.552   8.641  1.00  0.00     0.209 HD
ENDBRANCH  33  34
ENDBRANCH  32  33
ENDBRANCH  31  32
ENDBRANCH  30  31
ENDBRANCH  29  30
ENDBRANCH  27  29
ENDBRANCH  14  27
BRANCH   1  36
HETATM   36  C2  UNL     1      -9.937  24.565  13.680  1.00  0.00     0.127 C 
HETATM   37  C1  UNL     1      -9.940  23.270  14.433  1.00  0.00     0.027 C 
ENDBRANCH   1  36
TORSDOF 8
ENDMDL
