MODEL 1
REMARK VINA RESULT: -11.514992611      0.000      0.000
REMARK  8 active torsions:
REMARK  status: ('A' for Active; 'I' for Inactive)
REMARK    1  A    between atoms: C2_2  and  C3_3 
REMARK    2  A    between atoms: C2_2  and  C20_25 
REMARK    3  A    between atoms: C4_4  and  C5_5 
REMARK    4  A    between atoms: C5_5  and  C6_6 
REMARK    5  A    between atoms: C6_6  and  C8_8 
REMARK    6  A    between atoms: N1_13  and  C13_14 
REMARK    7  A    between atoms: C18_19  and  C19_20 
REMARK    8  A    between atoms: C19_20  and  N2_21 
ROOT
HETATM    1  C5  UNL     1      -7.772  26.986  12.440  1.00  0.00     0.033 C 
ENDROOT
BRANCH   1   2
HETATM    2  C4  UNL     1      -6.330  27.295  12.725  1.00  0.00    -0.030 C 
HETATM    3  C3  UNL     1      -5.368  26.700  12.059  1.00  0.00    -0.026 C 
BRANCH   3   4
HETATM    4  C2  UNL     1      -3.935  26.993  12.328  1.00  0.00     0.008 C 
HETATM    5  C1  UNL     1      -3.376  27.426  10.947  1.00  0.00     0.014 C 
BRANCH   4   6
HETATM    6  C20 UNL     1      -3.256  25.715  12.723  1.00  0.00     0.001 C 
HETATM    7  C21 UNL     1      -2.565  25.026  11.532  1.00  0.00     0.006 C 
HETATM    8  C22 UNL     1      -1.662  23.997  12.305  1.00  0.00     0.006 C 
HETATM    9  C23 UNL     1      -1.058  24.964  13.235  1.00  0.00    -0.002 C 
HETATM   10  C24 UNL     1      -0.163  24.520  14.306  1.00  0.00    -0.005 C 
HETATM   11  C32 UNL     1      -2.264  25.740  13.789  1.00  0.00    -0.036 C 
HETATM   12  C25 UNL     1       1.148  24.084  13.623  1.00  0.00     0.013 C 
HETATM   13  C29 UNL     1       0.074  25.536  15.383  1.00  0.00    -0.003 C 
HETATM   14  C26 UNL     1       2.151  23.617  14.688  1.00  0.00     0.079 C 
HETATM   15  C27 UNL     1       2.415  24.832  15.505  1.00  0.00     0.127 C 
HETATM   16  O1  UNL     1       3.316  24.835  16.317  1.00  0.00    -0.298 OA
HETATM   17  C28 UNL     1       1.525  25.998  15.261  1.00  0.00     0.083 C 
HETATM   18  C30 UNL     1      -0.783  26.722  15.424  1.00  0.00     0.006 C 
HETATM   19  C31 UNL     1      -1.620  27.032  14.200  1.00  0.00     0.010 C 
HETATM   20  C33 UNL     1      -2.871  25.045  15.004  1.00  0.00     0.016 C 
ENDBRANCH   4   6
ENDBRANCH   3   4
ENDBRANCH   1   2
BRANCH   1  21
HETATM   21  C6  UNL     1      -8.376  26.384  13.686  1.00  0.00     0.007 C 
HETATM   22  C7  UNL     1      -9.372  27.380  14.222  1.00  0.00     0.012 C 
BRANCH  21  23
HETATM   23  C8  UNL     1      -9.008  25.014  13.428  1.00  0.00     0.083 C 
HETATM   24  C9  UNL     1      -7.841  24.019  13.312  1.00  0.00     0.025 C 
HETATM   25  C10 UNL     1      -7.061  24.032  14.592  1.00  0.00     0.004 C 
HETATM   26  C11 UNL     1      -7.974  23.730  15.720  1.00  0.00     0.019 C 
HETATM   27  C12 UNL     1      -9.318  24.327  15.712  1.00  0.00     0.117 C 
HETATM   28  N1  UNL     1      -9.908  24.630  14.455  1.00  0.00    -0.403 N 
BRANCH  28  29
HETATM   29  C13 UNL     1     -11.087  23.920  14.112  1.00  0.00     0.085 C 
HETATM   30  C14 UNL     1     -10.899  22.780  13.144  1.00  0.00     0.025 C 
HETATM   31  C15 UNL     1     -12.245  22.063  13.025  1.00  0.00     0.002 C 
HETATM   32  C16 UNL     1     -13.081  23.029  12.172  1.00  0.00     0.001 C 
HETATM   33  C17 UNL     1     -13.356  24.214  13.008  1.00  0.00     0.008 C 
HETATM   34  C18 UNL     1     -12.261  24.795  13.804  1.00  0.00     0.033 C 
BRANCH  34  35
HETATM   35  C19 UNL     1     -12.927  25.294  15.103  1.00  0.00     0.236 C 
BRANCH  35  36
HETATM   36  N2  UNL     1     -13.412  24.143  15.840  1.00  0.00    -0.079 N 
ATOM     37  H23 UNL     1     -13.958  23.507  15.259  1.00  0.00     0.274 HD
ATOM     38  H22 UNL     1     -12.666  23.495  16.091  1.00  0.00     0.274 HD
ATOM     39  H21 UNL     1     -13.932  24.476  16.653  1.00  0.00     0.274 HD
ENDBRANCH  35  36
ENDBRANCH  34  35
ENDBRANCH  28  29
ENDBRANCH  21  23
ENDBRANCH   1  21
TORSDOF 8
ENDMDL
MODEL 2
REMARK VINA RESULT: -11.386419237      0.946      1.485
REMARK  8 active torsions:
REMARK  status: ('A' for Active; 'I' for Inactive)
REMARK    1  A    between atoms: C2_2  and  C3_3 
REMARK    2  A    between atoms: C2_2  and  C20_25 
REMARK    3  A    between atoms: C4_4  and  C5_5 
REMARK    4  A    between atoms: C5_5  and  C6_6 
REMARK    5  A    between atoms: C6_6  and  C8_8 
REMARK    6  A    between atoms: N1_13  and  C13_14 
REMARK    7  A    between atoms: C18_19  and  C19_20 
REMARK    8  A    between atoms: C19_20  and  N2_21 
ROOT
HETATM    1  C5  UNL     1      -7.757  26.959  12.454  1.00  0.00     0.033 C 
ENDROOT
BRANCH   1   2
HETATM    2  C4  UNL     1      -6.322  27.258  12.785  1.00  0.00    -0.030 C 
HETATM    3  C3  UNL     1      -5.345  26.733  12.084  1.00  0.00    -0.026 C 
BRANCH   3   4
HETATM    4  C2  UNL     1      -3.919  27.017  12.397  1.00  0.00     0.008 C 
HETATM    5  C1  UNL     1      -3.321  27.474  11.041  1.00  0.00     0.014 C 
BRANCH   4   6
HETATM    6  C20 UNL     1      -3.254  25.730  12.787  1.00  0.00     0.001 C 
HETATM    7  C21 UNL     1      -2.583  25.030  11.591  1.00  0.00     0.006 C 
HETATM    8  C22 UNL     1      -1.688  23.991  12.357  1.00  0.00     0.006 C 
HETATM    9  C23 UNL     1      -1.061  24.949  13.280  1.00  0.00    -0.002 C 
HETATM   10  C24 UNL     1      -0.162  24.494  14.343  1.00  0.00    -0.005 C 
HETATM   11  C32 UNL     1      -2.251  25.742  13.844  1.00  0.00    -0.036 C 
HETATM   12  C25 UNL     1       1.136  24.040  13.648  1.00  0.00     0.013 C 
HETATM   13  C29 UNL     1       0.099  25.508  15.416  1.00  0.00    -0.003 C 
HETATM   14  C26 UNL     1       2.143  23.560  14.704  1.00  0.00     0.079 C 
HETATM   15  C27 UNL     1       2.431  24.772  15.517  1.00  0.00     0.127 C 
HETATM   16  O1  UNL     1       3.340  24.763  16.320  1.00  0.00    -0.298 OA
HETATM   17  C28 UNL     1       1.555  25.949  15.280  1.00  0.00     0.083 C 
HETATM   18  C30 UNL     1      -0.742  26.706  15.464  1.00  0.00     0.006 C 
HETATM   19  C31 UNL     1      -1.586  27.026  14.248  1.00  0.00     0.010 C 
HETATM   20  C33 UNL     1      -2.856  25.057  15.066  1.00  0.00     0.016 C 
ENDBRANCH   4   6
ENDBRANCH   3   4
ENDBRANCH   1   2
BRANCH   1  21
HETATM   21  C6  UNL     1      -8.427  26.443  13.705  1.00  0.00     0.007 C 
HETATM   22  C7  UNL     1      -9.181  27.598  14.313  1.00  0.00     0.012 C 
BRANCH  21  23
HETATM   23  C8  UNL     1      -9.332  25.239  13.431  1.00  0.00     0.083 C 
HETATM   24  C9  UNL     1      -8.396  24.037  13.229  1.00  0.00     0.025 C 
HETATM   25  C10 UNL     1      -7.582  23.840  14.473  1.00  0.00     0.004 C 
HETATM   26  C11 UNL     1      -8.494  23.681  15.630  1.00  0.00     0.019 C 
HETATM   27  C12 UNL     1      -9.689  24.536  15.702  1.00  0.00     0.117 C 
HETATM   28  N1  UNL     1     -10.252  25.002  14.483  1.00  0.00    -0.403 N 
BRANCH  28  29
HETATM   29  C13 UNL     1     -11.563  24.558  14.171  1.00  0.00     0.085 C 
HETATM   30  C14 UNL     1     -12.682  25.352  14.794  1.00  0.00     0.025 C 
HETATM   31  C15 UNL     1     -13.992  24.811  14.220  1.00  0.00     0.002 C 
HETATM   32  C16 UNL     1     -14.160  23.465  14.942  1.00  0.00     0.001 C 
HETATM   33  C17 UNL     1     -13.116  22.563  14.418  1.00  0.00     0.008 C 
HETATM   34  C18 UNL     1     -11.744  23.075  14.260  1.00  0.00     0.033 C 
BRANCH  34  35
HETATM   35  C19 UNL     1     -11.197  22.380  12.996  1.00  0.00     0.236 C 
BRANCH  35  36
HETATM   36  N2  UNL     1     -12.321  21.904  12.213  1.00  0.00    -0.079 N 
ATOM     37  H23 UNL     1     -13.162  22.462  12.355  1.00  0.00     0.274 HD
ATOM     38  H22 UNL     1     -12.205  22.078  11.215  1.00  0.00     0.274 HD
ATOM     39  H21 UNL     1     -12.466  20.916  12.424  1.00  0.00     0.274 HD
ENDBRANCH  35  36
ENDBRANCH  34  35
ENDBRANCH  28  29
ENDBRANCH  21  23
ENDBRANCH   1  21
TORSDOF 8
ENDMDL
MODEL 3
REMARK VINA RESULT: -11.256248067      4.086     10.508
REMARK  8 active torsions:
REMARK  status: ('A' for Active; 'I' for Inactive)
REMARK    1  A    between atoms: C2_2  and  C3_3 
REMARK    2  A    between atoms: C2_2  and  C20_25 
REMARK    3  A    between atoms: C4_4  and  C5_5 
REMARK    4  A    between atoms: C5_5  and  C6_6 
REMARK    5  A    between atoms: C6_6  and  C8_8 
REMARK    6  A    between atoms: N1_13  and  C13_14 
REMARK    7  A    between atoms: C18_19  and  C19_20 
REMARK    8  A    between atoms: C19_20  and  N2_21 
ROOT
HETATM    1  C5  UNL     1      -4.016  23.843  13.376  1.00  0.00     0.033 C 
ENDROOT
BRANCH   1   2
HETATM    2  C4  UNL     1      -5.269  24.592  13.017  1.00  0.00    -0.030 C 
HETATM    3  C3  UNL     1      -5.551  25.743  13.580  1.00  0.00    -0.026 C 
BRANCH   3   4
HETATM    4  C2  UNL     1      -6.786  26.497  13.238  1.00  0.00     0.008 C 
HETATM    5  C1  UNL     1      -6.311  27.971  13.141  1.00  0.00     0.014 C 
BRANCH   4   6
HETATM    6  C20 UNL     1      -7.740  26.393  14.391  1.00  0.00     0.001 C 
HETATM    7  C21 UNL     1      -8.634  27.639  14.528  1.00  0.00     0.006 C 
HETATM    8  C22 UNL     1      -9.725  27.080  15.511  1.00  0.00     0.006 C 
HETATM    9  C23 UNL     1     -10.030  25.857  14.753  1.00  0.00    -0.002 C 
HETATM   10  C24 UNL     1     -10.956  24.853  15.282  1.00  0.00    -0.005 C 
HETATM   11  C32 UNL     1      -8.645  25.254  14.462  1.00  0.00    -0.036 C 
HETATM   12  C25 UNL     1     -12.364  25.473  15.194  1.00  0.00     0.013 C 
HETATM   13  C29 UNL     1     -10.885  23.519  14.602  1.00  0.00    -0.003 C 
HETATM   14  C26 UNL     1     -13.401  24.470  15.720  1.00  0.00     0.079 C 
HETATM   15  C27 UNL     1     -13.319  23.326  14.771  1.00  0.00     0.127 C 
HETATM   16  O1  UNL     1     -14.154  22.446  14.808  1.00  0.00    -0.298 OA
HETATM   17  C28 UNL     1     -12.182  23.341  13.814  1.00  0.00     0.083 C 
HETATM   18  C30 UNL     1      -9.761  23.252  13.701  1.00  0.00     0.006 C 
HETATM   19  C31 UNL     1      -8.931  24.432  13.239  1.00  0.00     0.010 C 
HETATM   20  C33 UNL     1      -8.173  24.355  15.601  1.00  0.00     0.016 C 
ENDBRANCH   4   6
ENDBRANCH   3   4
ENDBRANCH   1   2
BRANCH   1  21
HETATM   21  C6  UNL     1      -3.228  24.689  14.346  1.00  0.00     0.007 C 
HETATM   22  C7  UNL     1      -3.533  24.177  15.731  1.00  0.00     0.012 C 
BRANCH  21  23
HETATM   23  C8  UNL     1      -1.727  24.684  14.043  1.00  0.00     0.083 C 
HETATM   24  C9  UNL     1      -1.568  25.318  12.652  1.00  0.00     0.025 C 
HETATM   25  C10 UNL     1      -2.116  26.713  12.688  1.00  0.00     0.004 C 
HETATM   26  C11 UNL     1      -1.432  27.477  13.759  1.00  0.00     0.019 C 
HETATM   27  C12 UNL     1      -1.155  26.799  15.034  1.00  0.00     0.117 C 
HETATM   28  N1  UNL     1      -0.975  25.390  15.017  1.00  0.00    -0.403 N 
BRANCH  28  29
HETATM   29  C13 UNL     1       0.303  24.902  15.393  1.00  0.00     0.085 C 
HETATM   30  C14 UNL     1       1.445  25.866  15.203  1.00  0.00     0.025 C 
HETATM   31  C15 UNL     1       2.692  25.210  15.800  1.00  0.00     0.002 C 
HETATM   32  C16 UNL     1       3.049  24.134  14.763  1.00  0.00     0.001 C 
HETATM   33  C17 UNL     1       2.002  23.097  14.842  1.00  0.00     0.008 C 
HETATM   34  C18 UNL     1       0.591  23.512  14.920  1.00  0.00     0.033 C 
BRANCH  34  35
HETATM   35  C19 UNL     1      -0.086  22.471  15.835  1.00  0.00     0.236 C 
BRANCH  35  36
HETATM   36  N2  UNL     1       0.390  21.153  15.458  1.00  0.00    -0.079 N 
ATOM     37  H23 UNL     1       1.030  21.180  14.665  1.00  0.00     0.274 HD
ATOM     38  H22 UNL     1       1.033  20.758  16.144  1.00  0.00     0.274 HD
ATOM     39  H21 UNL     1      -0.419  20.555  15.289  1.00  0.00     0.274 HD
ENDBRANCH  35  36
ENDBRANCH  34  35
ENDBRANCH  28  29
ENDBRANCH  21  23
ENDBRANCH   1  21
TORSDOF 8
ENDMDL
MODEL 4
REMARK VINA RESULT: -11.122073171      4.111     10.075
REMARK  8 active torsions:
REMARK  status: ('A' for Active; 'I' for Inactive)
REMARK    1  A    between atoms: C2_2  and  C3_3 
REMARK    2  A    between atoms: C2_2  and  C20_25 
REMARK    3  A    between atoms: C4_4  and  C5_5 
REMARK    4  A    between atoms: C5_5  and  C6_6 
REMARK    5  A    between atoms: C6_6  and  C8_8 
REMARK    6  A    between atoms: N1_13  and  C13_14 
REMARK    7  A    between atoms: C18_19  and  C19_20 
REMARK    8  A    between atoms: C19_20  and  N2_21 
ROOT
HETATM    1  C5  UNL     1      -4.101  24.815  15.031  1.00  0.00     0.033 C 
ENDROOT
BRANCH   1   2
HETATM    2  C4  UNL     1      -5.274  25.239  14.194  1.00  0.00    -0.030 C 
HETATM    3  C3  UNL     1      -5.783  26.443  14.306  1.00  0.00    -0.026 C 
BRANCH   3   4
HETATM    4  C2  UNL     1      -6.944  26.879  13.486  1.00  0.00     0.008 C 
HETATM    5  C1  UNL     1      -6.688  28.391  13.248  1.00  0.00     0.014 C 
BRANCH   4   6
HETATM    6  C20 UNL     1      -8.187  26.745  14.316  1.00  0.00     0.001 C 
HETATM    7  C21 UNL     1      -9.261  27.781  13.936  1.00  0.00     0.006 C 
HETATM    8  C22 UNL     1     -10.507  27.154  14.658  1.00  0.00     0.006 C 
HETATM    9  C23 UNL     1     -10.360  25.797  14.109  1.00  0.00    -0.002 C 
HETATM   10  C24 UNL     1     -11.238  24.709  14.544  1.00  0.00    -0.005 C 
HETATM   11  C32 UNL     1      -8.879  25.463  14.354  1.00  0.00    -0.036 C 
HETATM   12  C25 UNL     1     -12.623  24.999  13.934  1.00  0.00     0.013 C 
HETATM   13  C29 UNL     1     -10.748  23.335  14.198  1.00  0.00    -0.003 C 
HETATM   14  C26 UNL     1     -13.604  23.887  14.334  1.00  0.00     0.079 C 
HETATM   15  C27 UNL     1     -13.047  22.660  13.701  1.00  0.00     0.127 C 
HETATM   16  O1  UNL     1     -13.702  21.639  13.675  1.00  0.00    -0.298 OA
HETATM   17  C28 UNL     1     -11.681  22.775  13.126  1.00  0.00     0.083 C 
HETATM   18  C30 UNL     1      -9.368  23.183  13.729  1.00  0.00     0.006 C 
HETATM   19  C31 UNL     1      -8.628  24.431  13.294  1.00  0.00     0.010 C 
HETATM   20  C33 UNL     1      -8.660  24.859  15.738  1.00  0.00     0.016 C 
ENDBRANCH   4   6
ENDBRANCH   3   4
ENDBRANCH   1   2
BRANCH   1  21
HETATM   21  C6  UNL     1      -3.018  24.321  14.103  1.00  0.00     0.007 C 
HETATM   22  C7  UNL     1      -3.682  23.442  13.074  1.00  0.00     0.012 C 
BRANCH  21  23
HETATM   23  C8  UNL     1      -2.227  25.466  13.464  1.00  0.00     0.083 C 
HETATM   24  C9  UNL     1      -1.534  26.206  14.619  1.00  0.00     0.025 C 
HETATM   25  C10 UNL     1      -0.630  25.249  15.337  1.00  0.00     0.004 C 
HETATM   26  C11 UNL     1       0.322  24.660  14.366  1.00  0.00     0.019 C 
HETATM   27  C12 UNL     1      -0.176  24.288  13.033  1.00  0.00     0.117 C 
HETATM   28  N1  UNL     1      -1.284  25.007  12.509  1.00  0.00    -0.403 N 
BRANCH  28  29
HETATM   29  C13 UNL     1      -1.055  25.773  11.337  1.00  0.00     0.085 C 
HETATM   30  C14 UNL     1      -0.686  27.216  11.568  1.00  0.00     0.025 C 
HETATM   31  C15 UNL     1      -0.340  27.816  10.204  1.00  0.00     0.002 C 
HETATM   32  C16 UNL     1      -1.714  27.975   9.535  1.00  0.00     0.001 C 
HETATM   33  C17 UNL     1      -2.207  26.617   9.236  1.00  0.00     0.008 C 
HETATM   34  C18 UNL     1      -2.077  25.569  10.264  1.00  0.00     0.033 C 
BRANCH  34  35
HETATM   35  C19 UNL     1      -1.797  24.270   9.481  1.00  0.00     0.236 C 
BRANCH  35  36
HETATM   36  N2  UNL     1      -1.030  24.605   8.296  1.00  0.00    -0.079 N 
ATOM     37  H23 UNL     1      -1.064  25.600   8.076  1.00  0.00     0.274 HD
ATOM     38  H22 UNL     1      -0.024  24.531   8.447  1.00  0.00     0.274 HD
ATOM     39  H21 UNL     1      -1.355  24.021   7.525  1.00  0.00     0.274 HD
ENDBRANCH  35  36
ENDBRANCH  34  35
ENDBRANCH  28  29
ENDBRANCH  21  23
ENDBRANCH   1  21
TORSDOF 8
ENDMDL
MODEL 5
REMARK VINA RESULT: -11.006711170      1.389      2.139
REMARK  8 active torsions:
REMARK  status: ('A' for Active; 'I' for Inactive)
REMARK    1  A    between atoms: C2_2  and  C3_3 
REMARK    2  A    between atoms: C2_2  and  C20_25 
REMARK    3  A    between atoms: C4_4  and  C5_5 
REMARK    4  A    between atoms: C5_5  and  C6_6 
REMARK    5  A    between atoms: C6_6  and  C8_8 
REMARK    6  A    between atoms: N1_13  and  C13_14 
REMARK    7  A    between atoms: C18_19  and  C19_20 
REMARK    8  A    between atoms: C19_20  and  N2_21 
ROOT
HETATM    1  C5  UNL     1      -8.447  27.531  12.978  1.00  0.00     0.033 C 
ENDROOT
BRANCH   1   2
HETATM    2  C4  UNL     1      -7.042  27.148  12.604  1.00  0.00    -0.030 C 
HETATM    3  C3  UNL     1      -6.017  27.590  13.293  1.00  0.00    -0.026 C 
BRANCH   3   4
HETATM    4  C2  UNL     1      -4.621  27.222  12.938  1.00  0.00     0.008 C 
HETATM    5  C1  UNL     1      -4.786  26.118  11.860  1.00  0.00     0.014 C 
BRANCH   4   6
HETATM    6  C20 UNL     1      -3.973  26.602  14.141  1.00  0.00     0.001 C 
HETATM    7  C21 UNL     1      -4.506  25.186  14.429  1.00  0.00     0.006 C 
HETATM    8  C22 UNL     1      -3.408  24.687  15.437  1.00  0.00     0.006 C 
HETATM    9  C23 UNL     1      -2.243  25.038  14.611  1.00  0.00    -0.002 C 
HETATM   10  C24 UNL     1      -0.880  24.877  15.123  1.00  0.00    -0.005 C 
HETATM   11  C32 UNL     1      -2.521  26.489  14.185  1.00  0.00    -0.036 C 
HETATM   12  C25 UNL     1      -0.613  23.360  15.175  1.00  0.00     0.013 C 
HETATM   13  C29 UNL     1       0.170  25.607  14.341  1.00  0.00    -0.003 C 
HETATM   14  C26 UNL     1       0.811  23.107  15.691  1.00  0.00     0.079 C 
HETATM   15  C27 UNL     1       1.691  23.715  14.656  1.00  0.00     0.127 C 
HETATM   16  O1  UNL     1       2.887  23.514  14.682  1.00  0.00    -0.298 OA
HETATM   17  C28 UNL     1       1.021  24.555  13.630  1.00  0.00     0.083 C 
HETATM   18  C30 UNL     1      -0.258  26.597  13.352  1.00  0.00     0.006 C 
HETATM   19  C31 UNL     1      -1.711  26.588  12.925  1.00  0.00     0.010 C 
HETATM   20  C33 UNL     1      -2.009  27.487  15.219  1.00  0.00     0.016 C 
ENDBRANCH   4   6
ENDBRANCH   3   4
ENDBRANCH   1   2
BRANCH   1  21
HETATM   21  C6  UNL     1      -8.886  26.641  14.115  1.00  0.00     0.007 C 
HETATM   22  C7  UNL     1      -9.635  27.509  15.094  1.00  0.00     0.012 C 
BRANCH  21  23
HETATM   23  C8  UNL     1      -9.721  25.449  13.638  1.00  0.00     0.083 C 
HETATM   24  C9  UNL     1      -8.720  24.393  13.145  1.00  0.00     0.025 C 
HETATM   25  C10 UNL     1      -7.817  24.012  14.279  1.00  0.00     0.004 C 
HETATM   26  C11 UNL     1      -8.640  23.546  15.420  1.00  0.00     0.019 C 
HETATM   27  C12 UNL     1      -9.884  24.268  15.726  1.00  0.00     0.117 C 
HETATM   28  N1  UNL     1     -10.555  24.928  14.661  1.00  0.00    -0.403 N 
BRANCH  28  29
HETATM   29  C13 UNL     1     -11.849  24.453  14.325  1.00  0.00     0.085 C 
HETATM   30  C14 UNL     1     -12.992  25.144  15.022  1.00  0.00     0.025 C 
HETATM   31  C15 UNL     1     -14.286  24.594  14.418  1.00  0.00     0.002 C 
HETATM   32  C16 UNL     1     -14.386  23.188  15.029  1.00  0.00     0.001 C 
HETATM   33  C17 UNL     1     -13.311  22.378  14.422  1.00  0.00     0.008 C 
HETATM   34  C18 UNL     1     -11.964  22.962  14.294  1.00  0.00     0.033 C 
BRANCH  34  35
HETATM   35  C19 UNL     1     -11.404  22.397  12.973  1.00  0.00     0.236 C 
BRANCH  35  36
HETATM   36  N2  UNL     1     -12.520  22.024  12.124  1.00  0.00    -0.079 N 
ATOM     37  H23 UNL     1     -13.231  22.754  12.068  1.00  0.00     0.274 HD
ATOM     38  H22 UNL     1     -12.270  21.998  11.136  1.00  0.00     0.274 HD
ATOM     39  H21 UNL     1     -12.896  21.136  12.457  1.00  0.00     0.274 HD
ENDBRANCH  35  36
ENDBRANCH  34  35
ENDBRANCH  28  29
ENDBRANCH  21  23
ENDBRANCH   1  21
TORSDOF 8
ENDMDL
