MODEL 1
REMARK VINA RESULT: -10.036176450      0.000      0.000
REMARK  9 active torsions:
REMARK  status: ('A' for Active; 'I' for Inactive)
REMARK    1  A    between atoms: C2_2  and  C3_3 
REMARK    2  A    between atoms: C3_3  and  C5_5 
REMARK    3  A    between atoms: C5_5  and  C6_6 
REMARK    4  A    between atoms: C5_5  and  C12_12 
REMARK    5  A    between atoms: C7_7  and  C8_8 
REMARK    6  A    between atoms: C12_12  and  C13_13 
REMARK    7  A    between atoms: C13_13  and  C14_14 
REMARK    8  A    between atoms: C14_14  and  N1_15 
REMARK    9  A    between atoms: C19_20  and  C20_21 
ROOT
HETATM    1  N1  UNL     1      -3.415  25.359  14.918  1.00  0.00    -0.346 N 
HETATM    2  C15 UNL     1      -4.493  24.683  15.569  1.00  0.00     0.183 C 
HETATM    3  C16 UNL     1      -5.768  24.808  14.858  1.00  0.00     0.037 A 
HETATM    4  C17 UNL     1      -5.917  25.221  13.563  1.00  0.00    -0.014 A 
HETATM    5  C18 UNL     1      -7.238  25.217  13.251  1.00  0.00     0.041 A 
HETATM    6  C19 UNL     1      -7.946  24.785  14.400  1.00  0.00     0.047 A 
HETATM    7  N3  UNL     1      -7.038  24.545  15.341  1.00  0.00    -0.352 N 
HETATM    8  C29 UNL     1      -7.260  23.992  16.662  1.00  0.00     0.156 C 
HETATM    9  C30 UNL     1      -4.730  25.573  12.771  1.00  0.00     0.063 C 
HETATM   10  C31 UNL     1      -5.023  26.623  11.722  1.00  0.00     0.030 C 
HETATM   11  C32 UNL     1      -4.228  24.326  12.071  1.00  0.00     0.030 C 
HETATM   12  C33 UNL     1      -3.659  26.026  13.687  1.00  0.00     0.232 C 
HETATM   13  O1  UNL     1      -2.961  27.009  13.365  1.00  0.00    -0.272 OA
ENDROOT
BRANCH   1  14
HETATM   14  C14 UNL     1      -2.093  25.373  15.479  1.00  0.00     0.126 C 
BRANCH  14  15
HETATM   15  C13 UNL     1      -1.537  23.988  15.754  1.00  0.00     0.021 C 
BRANCH  15  16
HETATM   16  C12 UNL     1      -1.031  23.304  14.552  1.00  0.00     0.019 C 
BRANCH  16  17
HETATM   17  C5  UNL     1       0.215  23.742  13.908  1.00  0.00     0.069 C 
BRANCH  17  18
HETATM   18  C3  UNL     1       1.273  24.428  14.689  1.00  0.00    -0.003 C 
HETATM   19  C4  UNL     1       2.668  23.856  14.441  1.00  0.00     0.011 C 
BRANCH  18  20
HETATM   20  C2  UNL     1       1.282  25.899  14.804  1.00  0.00     0.001 C 
HETATM   21  C1  UNL     1       2.539  26.282  15.642  1.00  0.00     0.005 C 
ENDBRANCH  18  20
ENDBRANCH  17  18
BRANCH  17  22
HETATM   22  C6  UNL     1      -0.106  24.589  12.702  1.00  0.00    -0.101 C 
HETATM   23  C7  UNL     1      -0.346  25.256  11.728  1.00  0.00    -0.097 C 
BRANCH  23  24
HETATM   24  C8  UNL     1      -0.624  26.049  10.530  1.00  0.00     0.013 C 
HETATM   25  C9  UNL     1      -1.984  25.724   9.937  1.00  0.00     0.028 C 
HETATM   26  C10 UNL     1       0.405  25.784   9.430  1.00  0.00     0.028 C 
HETATM   27  C11 UNL     1      -0.512  27.516  10.891  1.00  0.00     0.028 C 
ENDBRANCH  23  24
ENDBRANCH  17  22
ENDBRANCH  16  17
ENDBRANCH  15  16
ENDBRANCH  14  15
ENDBRANCH   1  14
BRANCH   6  28
HETATM   28  C20 UNL     1      -9.392  24.610  14.282  1.00  0.00     0.015 A 
HETATM   29  C21 UNL     1      -9.861  23.472  13.577  1.00  0.00     0.023 A 
HETATM   30  C22 UNL     1     -11.183  23.246  13.329  1.00  0.00    -0.051 A 
HETATM   31  C23 UNL     1     -12.124  24.137  13.769  1.00  0.00    -0.050 A 
HETATM   32  C28 UNL     1     -11.901  22.135  12.616  1.00  0.00     0.039 C 
HETATM   33  C24 UNL     1     -11.692  25.241  14.449  1.00  0.00     0.035 A 
HETATM   34  C26 UNL     1     -13.496  23.658  13.376  1.00  0.00     0.039 C 
HETATM   35  C25 UNL     1     -10.329  25.499  14.717  1.00  0.00     0.059 A 
HETATM   36  N2  UNL     1     -10.027  26.748  15.346  1.00  0.00    -0.102 NA
HETATM   37  C27 UNL     1     -13.267  22.161  13.215  1.00  0.00     0.009 C 
ENDBRANCH   6  28
TORSDOF 9
ENDMDL
MODEL 2
REMARK VINA RESULT: -10.017463426      1.005      1.475
REMARK  9 active torsions:
REMARK  status: ('A' for Active; 'I' for Inactive)
REMARK    1  A    between atoms: C2_2  and  C3_3 
REMARK    2  A    between atoms: C3_3  and  C5_5 
REMARK    3  A    between atoms: C5_5  and  C6_6 
REMARK    4  A    between atoms: C5_5  and  C12_12 
REMARK    5  A    between atoms: C7_7  and  C8_8 
REMARK    6  A    between atoms: C12_12  and  C13_13 
REMARK    7  A    between atoms: C13_13  and  C14_14 
REMARK    8  A    between atoms: C14_14  and  N1_15 
REMARK    9  A    between atoms: C19_20  and  C20_21 
ROOT
HETATM    1  N1  UNL     1      -3.909  24.692  15.270  1.00  0.00    -0.346 N 
HETATM    2  C15 UNL     1      -4.998  23.940  15.809  1.00  0.00     0.183 C 
HETATM    3  C16 UNL     1      -6.302  24.347  15.278  1.00  0.00     0.037 A 
HETATM    4  C17 UNL     1      -6.500  25.113  14.162  1.00  0.00    -0.014 A 
HETATM    5  C18 UNL     1      -7.834  25.289  13.983  1.00  0.00     0.041 A 
HETATM    6  C19 UNL     1      -8.499  24.606  15.031  1.00  0.00     0.047 A 
HETATM    7  N3  UNL     1      -7.554  24.051  15.786  1.00  0.00    -0.352 N 
HETATM    8  C29 UNL     1      -7.737  23.169  16.922  1.00  0.00     0.156 C 
HETATM    9  C30 UNL     1      -5.343  25.586  13.391  1.00  0.00     0.063 C 
HETATM   10  C31 UNL     1      -5.608  26.904  12.697  1.00  0.00     0.030 C 
HETATM   11  C32 UNL     1      -5.007  24.551  12.336  1.00  0.00     0.030 C 
HETATM   12  C33 UNL     1      -4.174  25.690  14.293  1.00  0.00     0.232 C 
HETATM   13  O1  UNL     1      -3.411  26.673  14.188  1.00  0.00    -0.272 OA
ENDROOT
BRANCH   1  14
HETATM   14  C14 UNL     1      -2.557  24.456  15.690  1.00  0.00     0.126 C 
BRANCH  14  15
HETATM   15  C13 UNL     1      -1.813  23.465  14.815  1.00  0.00     0.021 C 
BRANCH  15  16
HETATM   16  C12 UNL     1      -0.379  23.357  15.130  1.00  0.00     0.019 C 
BRANCH  16  17
HETATM   17  C5  UNL     1       0.627  24.021  14.291  1.00  0.00     0.069 C 
BRANCH  17  18
HETATM   18  C3  UNL     1       1.473  25.110  14.837  1.00  0.00    -0.003 C 
HETATM   19  C4  UNL     1       0.662  26.238  15.472  1.00  0.00     0.011 C 
BRANCH  18  20
HETATM   20  C2  UNL     1       2.694  24.796  15.603  1.00  0.00     0.001 C 
HETATM   21  C1  UNL     1       3.040  23.304  15.314  1.00  0.00     0.005 C 
ENDBRANCH  18  20
ENDBRANCH  17  18
BRANCH  17  22
HETATM   22  C6  UNL     1      -0.018  24.517  13.020  1.00  0.00    -0.101 C 
HETATM   23  C7  UNL     1      -0.513  24.918  11.997  1.00  0.00    -0.097 C 
BRANCH  23  24
HETATM   24  C8  UNL     1      -1.091  25.405  10.745  1.00  0.00     0.013 C 
HETATM   25  C9  UNL     1      -0.024  25.882   9.775  1.00  0.00     0.028 C 
HETATM   26  C10 UNL     1      -2.025  26.592  10.982  1.00  0.00     0.028 C 
HETATM   27  C11 UNL     1      -1.933  24.297  10.145  1.00  0.00     0.028 C 
ENDBRANCH  23  24
ENDBRANCH  17  22
ENDBRANCH  16  17
ENDBRANCH  15  16
ENDBRANCH  14  15
ENDBRANCH   1  14
BRANCH   6  28
HETATM   28  C20 UNL     1      -9.959  24.573  15.003  1.00  0.00     0.015 A 
HETATM   29  C21 UNL     1     -10.583  23.353  14.633  1.00  0.00     0.023 A 
HETATM   30  C22 UNL     1     -11.933  23.224  14.490  1.00  0.00    -0.051 A 
HETATM   31  C23 UNL     1     -12.750  24.299  14.708  1.00  0.00    -0.050 A 
HETATM   32  C28 UNL     1     -12.801  22.057  14.112  1.00  0.00     0.039 C 
HETATM   33  C24 UNL     1     -12.169  25.484  15.062  1.00  0.00     0.035 A 
HETATM   34  C26 UNL     1     -14.185  23.896  14.491  1.00  0.00     0.039 C 
HETATM   35  C25 UNL     1     -10.774  25.645  15.216  1.00  0.00     0.059 A 
HETATM   36  N2  UNL     1     -10.310  26.970  15.488  1.00  0.00    -0.102 NA
HETATM   37  C27 UNL     1     -14.121  22.392  14.721  1.00  0.00     0.009 C 
ENDBRANCH   6  28
TORSDOF 9
ENDMDL
MODEL 3
REMARK VINA RESULT: -9.925206356      0.966      1.015
REMARK  9 active torsions:
REMARK  status: ('A' for Active; 'I' for Inactive)
REMARK    1  A    between atoms: C2_2  and  C3_3 
REMARK    2  A    between atoms: C3_3  and  C5_5 
REMARK    3  A    between atoms: C5_5  and  C6_6 
REMARK    4  A    between atoms: C5_5  and  C12_12 
REMARK    5  A    between atoms: C7_7  and  C8_8 
REMARK    6  A    between atoms: C12_12  and  C13_13 
REMARK    7  A    between atoms: C13_13  and  C14_14 
REMARK    8  A    between atoms: C14_14  and  N1_15 
REMARK    9  A    between atoms: C19_20  and  C20_21 
ROOT
HETATM    1  N1  UNL     1      -3.913  24.653  15.325  1.00  0.00    -0.346 N 
HETATM    2  C15 UNL     1      -5.004  23.916  15.881  1.00  0.00     0.183 C 
HETATM    3  C16 UNL     1      -6.306  24.313  15.339  1.00  0.00     0.037 A 
HETATM    4  C17 UNL     1      -6.501  25.052  14.205  1.00  0.00    -0.014 A 
HETATM    5  C18 UNL     1      -7.835  25.227  14.020  1.00  0.00     0.041 A 
HETATM    6  C19 UNL     1      -8.503  24.571  15.084  1.00  0.00     0.047 A 
HETATM    7  N3  UNL     1      -7.560  24.032  15.852  1.00  0.00    -0.352 N 
HETATM    8  C29 UNL     1      -7.746  23.178  17.009  1.00  0.00     0.156 C 
HETATM    9  C30 UNL     1      -5.342  25.505  13.424  1.00  0.00     0.063 C 
HETATM   10  C31 UNL     1      -5.604  26.806  12.698  1.00  0.00     0.030 C 
HETATM   11  C32 UNL     1      -5.008  24.443  12.395  1.00  0.00     0.030 C 
HETATM   12  C33 UNL     1      -4.174  25.627  14.324  1.00  0.00     0.232 C 
HETATM   13  O1  UNL     1      -3.409  26.605  14.197  1.00  0.00    -0.272 OA
ENDROOT
BRANCH   1  14
HETATM   14  C14 UNL     1      -2.561  24.424  15.753  1.00  0.00     0.126 C 
BRANCH  14  15
HETATM   15  C13 UNL     1      -1.853  23.334  14.970  1.00  0.00     0.021 C 
BRANCH  15  16
HETATM   16  C12 UNL     1      -0.464  23.104  15.399  1.00  0.00     0.019 C 
BRANCH  16  17
HETATM   17  C5  UNL     1       0.661  23.603  14.597  1.00  0.00     0.069 C 
BRANCH  17  18
HETATM   18  C3  UNL     1       1.695  24.479  15.201  1.00  0.00    -0.003 C 
HETATM   19  C4  UNL     1       3.102  24.192  14.681  1.00  0.00     0.011 C 
BRANCH  18  20
HETATM   20  C2  UNL     1       1.443  25.922  15.374  1.00  0.00     0.001 C 
HETATM   21  C1  UNL     1       2.807  26.581  15.740  1.00  0.00     0.005 C 
ENDBRANCH  18  20
ENDBRANCH  17  18
BRANCH  17  22
HETATM   22  C6  UNL     1       0.141  24.276  13.352  1.00  0.00    -0.101 C 
HETATM   23  C7  UNL     1      -0.292  24.799  12.357  1.00  0.00    -0.097 C 
BRANCH  23  24
HETATM   24  C8  UNL     1      -0.840  25.423  11.152  1.00  0.00     0.013 C 
HETATM   25  C9  UNL     1      -2.025  24.650  10.600  1.00  0.00     0.028 C 
HETATM   26  C10 UNL     1       0.199  25.485  10.031  1.00  0.00     0.028 C 
HETATM   27  C11 UNL     1      -1.214  26.854  11.482  1.00  0.00     0.028 C 
ENDBRANCH  23  24
ENDBRANCH  17  22
ENDBRANCH  16  17
ENDBRANCH  15  16
ENDBRANCH  14  15
ENDBRANCH   1  14
BRANCH   6  28
HETATM   28  C20 UNL     1      -9.963  24.541  15.055  1.00  0.00     0.015 A 
HETATM   29  C21 UNL     1     -10.588  23.328  14.666  1.00  0.00     0.023 A 
HETATM   30  C22 UNL     1     -11.938  23.203  14.520  1.00  0.00    -0.051 A 
HETATM   31  C23 UNL     1     -12.754  24.276  14.755  1.00  0.00    -0.050 A 
HETATM   32  C28 UNL     1     -12.808  22.044  14.123  1.00  0.00     0.039 C 
HETATM   33  C24 UNL     1     -12.171  25.454  15.128  1.00  0.00     0.035 A 
HETATM   34  C26 UNL     1     -14.189  23.878  14.531  1.00  0.00     0.039 C 
HETATM   35  C25 UNL     1     -10.776  25.611  15.285  1.00  0.00     0.059 A 
HETATM   36  N2  UNL     1     -10.310  26.931  15.578  1.00  0.00    -0.102 NA
HETATM   37  C27 UNL     1     -14.128  22.371  14.737  1.00  0.00     0.009 C 
ENDBRANCH   6  28
TORSDOF 9
ENDMDL
MODEL 4
REMARK VINA RESULT: -9.837463558      0.937      1.286
REMARK  9 active torsions:
REMARK  status: ('A' for Active; 'I' for Inactive)
REMARK    1  A    between atoms: C2_2  and  C3_3 
REMARK    2  A    between atoms: C3_3  and  C5_5 
REMARK    3  A    between atoms: C5_5  and  C6_6 
REMARK    4  A    between atoms: C5_5  and  C12_12 
REMARK    5  A    between atoms: C7_7  and  C8_8 
REMARK    6  A    between atoms: C12_12  and  C13_13 
REMARK    7  A    between atoms: C13_13  and  C14_14 
REMARK    8  A    between atoms: C14_14  and  N1_15 
REMARK    9  A    between atoms: C19_20  and  C20_21 
ROOT
HETATM    1  N1  UNL     1      -3.746  25.644  14.761  1.00  0.00    -0.346 N 
HETATM    2  C15 UNL     1      -4.754  24.682  15.082  1.00  0.00     0.183 C 
HETATM    3  C16 UNL     1      -6.103  25.108  14.701  1.00  0.00     0.037 A 
HETATM    4  C17 UNL     1      -6.400  26.132  13.845  1.00  0.00    -0.014 A 
HETATM    5  C18 UNL     1      -7.749  26.237  13.737  1.00  0.00     0.041 A 
HETATM    6  C19 UNL     1      -8.321  25.236  14.563  1.00  0.00     0.047 A 
HETATM    7  N3  UNL     1      -7.310  24.577  15.121  1.00  0.00    -0.352 N 
HETATM    8  C29 UNL     1      -7.382  23.403  15.969  1.00  0.00     0.156 C 
HETATM    9  C30 UNL     1      -5.311  26.897  13.222  1.00  0.00     0.063 C 
HETATM   10  C31 UNL     1      -5.703  28.328  12.926  1.00  0.00     0.030 C 
HETATM   11  C32 UNL     1      -4.933  26.226  11.917  1.00  0.00     0.030 C 
HETATM   12  C33 UNL     1      -4.123  26.847  14.104  1.00  0.00     0.232 C 
HETATM   13  O1  UNL     1      -3.444  27.881  14.268  1.00  0.00    -0.272 OA
ENDROOT
BRANCH   1  14
HETATM   14  C14 UNL     1      -2.366  25.417  15.083  1.00  0.00     0.126 C 
BRANCH  14  15
HETATM   15  C13 UNL     1      -1.950  23.962  14.978  1.00  0.00     0.021 C 
BRANCH  15  16
HETATM   16  C12 UNL     1      -0.568  23.709  15.418  1.00  0.00     0.019 C 
BRANCH  16  17
HETATM   17  C5  UNL     1       0.558  23.874  14.490  1.00  0.00     0.069 C 
BRANCH  17  18
HETATM   18  C3  UNL     1       1.760  24.650  14.883  1.00  0.00    -0.003 C 
HETATM   19  C4  UNL     1       1.423  26.010  15.491  1.00  0.00     0.011 C 
BRANCH  18  20
HETATM   20  C2  UNL     1       2.883  23.989  15.574  1.00  0.00     0.001 C 
HETATM   21  C1  UNL     1       2.812  22.475  15.212  1.00  0.00     0.005 C 
ENDBRANCH  18  20
ENDBRANCH  17  18
BRANCH  17  22
HETATM   22  C6  UNL     1       0.057  24.416  13.174  1.00  0.00    -0.101 C 
HETATM   23  C7  UNL     1      -0.362  24.855  12.133  1.00  0.00    -0.097 C 
BRANCH  23  24
HETATM   24  C8  UNL     1      -0.888  25.400  10.882  1.00  0.00     0.013 C 
HETATM   25  C9  UNL     1      -1.970  24.516  10.287  1.00  0.00     0.028 C 
HETATM   26  C10 UNL     1       0.205  25.523   9.819  1.00  0.00     0.028 C 
HETATM   27  C11 UNL     1      -1.399  26.801  11.148  1.00  0.00     0.028 C 
ENDBRANCH  23  24
ENDBRANCH  17  22
ENDBRANCH  16  17
ENDBRANCH  15  16
ENDBRANCH  14  15
ENDBRANCH   1  14
BRANCH   6  28
HETATM   28  C20 UNL     1      -9.774  25.088  14.544  1.00  0.00     0.015 A 
HETATM   29  C21 UNL     1     -10.312  23.964  13.865  1.00  0.00     0.023 A 
HETATM   30  C22 UNL     1     -11.652  23.764  13.708  1.00  0.00    -0.051 A 
HETATM   31  C23 UNL     1     -12.543  24.668  14.218  1.00  0.00    -0.050 A 
HETATM   32  C28 UNL     1     -12.438  22.672  13.038  1.00  0.00     0.039 C 
HETATM   33  C24 UNL     1     -12.045  25.758  14.873  1.00  0.00     0.035 A 
HETATM   34  C26 UNL     1     -13.948  24.217  13.917  1.00  0.00     0.039 C 
HETATM   35  C25 UNL     1     -10.663  25.991  15.048  1.00  0.00     0.059 A 
HETATM   36  N2  UNL     1     -10.295  27.228  15.663  1.00  0.00    -0.102 NA
HETATM   37  C27 UNL     1     -13.759  22.717  13.730  1.00  0.00     0.009 C 
ENDBRANCH   6  28
TORSDOF 9
ENDMDL
MODEL 5
REMARK VINA RESULT: -9.341687881      2.265      9.867
REMARK  9 active torsions:
REMARK  status: ('A' for Active; 'I' for Inactive)
REMARK    1  A    between atoms: C2_2  and  C3_3 
REMARK    2  A    between atoms: C3_3  and  C5_5 
REMARK    3  A    between atoms: C5_5  and  C6_6 
REMARK    4  A    between atoms: C5_5  and  C12_12 
REMARK    5  A    between atoms: C7_7  and  C8_8 
REMARK    6  A    between atoms: C12_12  and  C13_13 
REMARK    7  A    between atoms: C13_13  and  C14_14 
REMARK    8  A    between atoms: C14_14  and  N1_15 
REMARK    9  A    between atoms: C19_20  and  C20_21 
ROOT
HETATM    1  N1  UNL     1      -6.182  24.472  14.503  1.00  0.00    -0.346 N 
HETATM    2  C15 UNL     1      -4.766  24.666  14.516  1.00  0.00     0.183 C 
HETATM    3  C16 UNL     1      -4.252  25.263  13.281  1.00  0.00     0.037 A 
HETATM    4  C17 UNL     1      -5.008  25.887  12.327  1.00  0.00    -0.014 A 
HETATM    5  C18 UNL     1      -4.192  26.307  11.327  1.00  0.00     0.041 A 
HETATM    6  C19 UNL     1      -2.870  25.928  11.668  1.00  0.00     0.047 A 
HETATM    7  N3  UNL     1      -2.941  25.310  12.843  1.00  0.00    -0.352 N 
HETATM    8  C29 UNL     1      -1.840  24.825  13.654  1.00  0.00     0.156 C 
HETATM    9  C30 UNL     1      -6.461  26.002  12.511  1.00  0.00     0.063 C 
HETATM   10  C31 UNL     1      -7.213  26.027  11.199  1.00  0.00     0.030 C 
HETATM   11  C32 UNL     1      -6.754  27.291  13.253  1.00  0.00     0.030 C 
HETATM   12  C33 UNL     1      -6.927  24.886  13.366  1.00  0.00     0.232 C 
HETATM   13  O1  UNL     1      -7.993  24.305  13.077  1.00  0.00    -0.272 OA
ENDROOT
BRANCH   1  14
HETATM   14  C14 UNL     1      -6.865  23.874  15.615  1.00  0.00     0.126 C 
BRANCH  14  15
HETATM   15  C13 UNL     1      -7.534  24.882  16.531  1.00  0.00     0.021 C 
BRANCH  15  16
HETATM   16  C12 UNL     1      -8.994  24.964  16.354  1.00  0.00     0.019 C 
BRANCH  16  17
HETATM   17  C5  UNL     1      -9.571  25.612  15.169  1.00  0.00     0.069 C 
BRANCH  17  18
HETATM   18  C3  UNL     1      -9.681  27.089  15.089  1.00  0.00    -0.003 C 
HETATM   19  C4  UNL     1     -10.686  27.560  14.038  1.00  0.00     0.011 C 
BRANCH  18  20
HETATM   20  C2  UNL     1      -9.732  27.903  16.318  1.00  0.00     0.001 C 
HETATM   21  C1  UNL     1      -9.213  29.324  15.944  1.00  0.00     0.005 C 
ENDBRANCH  18  20
ENDBRANCH  17  18
BRANCH  17  22
HETATM   22  C6  UNL     1     -10.927  25.022  14.876  1.00  0.00    -0.101 C 
HETATM   23  C7  UNL     1     -12.003  24.542  14.622  1.00  0.00    -0.097 C 
BRANCH  23  24
HETATM   24  C8  UNL     1     -13.298  23.943  14.298  1.00  0.00     0.013 C 
HETATM   25  C9  UNL     1     -13.193  22.444  14.082  1.00  0.00     0.028 C 
HETATM   26  C10 UNL     1     -13.880  24.528  13.011  1.00  0.00     0.028 C 
HETATM   27  C11 UNL     1     -14.272  24.277  15.410  1.00  0.00     0.028 C 
ENDBRANCH  23  24
ENDBRANCH  17  22
ENDBRANCH  16  17
ENDBRANCH  15  16
ENDBRANCH  14  15
ENDBRANCH   1  14
BRANCH   6  28
HETATM   28  C20 UNL     1      -1.790  26.354  10.781  1.00  0.00     0.015 A 
HETATM   29  C21 UNL     1      -1.745  25.787   9.481  1.00  0.00     0.023 A 
HETATM   30  C22 UNL     1      -0.740  26.042   8.595  1.00  0.00    -0.051 A 
HETATM   31  C23 UNL     1       0.284  26.879   8.944  1.00  0.00    -0.050 A 
HETATM   32  C28 UNL     1      -0.485  25.564   7.193  1.00  0.00     0.039 C 
HETATM   33  C24 UNL     1       0.260  27.433  10.193  1.00  0.00     0.035 A 
HETATM   34  C26 UNL     1       1.253  26.997   7.798  1.00  0.00     0.039 C 
HETATM   35  C25 UNL     1      -0.767  27.184  11.129  1.00  0.00     0.059 A 
HETATM   36  N2  UNL     1      -0.597  27.754  12.431  1.00  0.00    -0.102 NA
HETATM   37  C27 UNL     1       0.372  26.636   6.609  1.00  0.00     0.009 C 
ENDBRANCH   6  28
TORSDOF 9
ENDMDL
