MODEL 1
REMARK VINA RESULT: -10.699054651      0.000      0.000
REMARK  7 active torsions:
REMARK  status: ('A' for Active; 'I' for Inactive)
REMARK    1  A    between atoms: C2_2  and  C3_3 
REMARK    2  A    between atoms: N1_8  and  C8_9 
REMARK    3  A    between atoms: C8_9  and  C9_10 
REMARK    4  A    between atoms: C9_10  and  C10_11 
REMARK    5  A    between atoms: C10_11  and  O1_12 
REMARK    6  A    between atoms: C10_11  and  C31_33 
REMARK    7  A    between atoms: O1_12  and  C11_13 
ROOT
HETATM    1  C11 UNL     1      -7.607  25.959  13.109  1.00  0.00     0.123 C 
HETATM    2  C12 UNL     1      -7.455  25.243  14.450  1.00  0.00     0.037 C 
HETATM    3  C13 UNL     1      -5.996  25.308  14.803  1.00  0.00    -0.008 C 
HETATM    4  C14 UNL     1      -5.443  24.071  15.417  1.00  0.00     0.005 C 
HETATM    5  C15 UNL     1      -3.952  24.256  15.592  1.00  0.00     0.006 C 
HETATM    6  C16 UNL     1      -3.313  24.473  14.248  1.00  0.00    -0.001 C 
HETATM    7  C17 UNL     1      -3.920  25.630  13.483  1.00  0.00    -0.005 C 
HETATM    8  C18 UNL     1      -3.489  26.958  13.996  1.00  0.00     0.006 C 
HETATM    9  C19 UNL     1      -2.263  26.965  14.817  1.00  0.00     0.010 C 
HETATM   10  C20 UNL     1      -1.238  25.898  14.415  1.00  0.00    -0.036 C 
HETATM   11  C21 UNL     1      -0.647  26.414  13.093  1.00  0.00     0.016 C 
HETATM   12  C22 UNL     1      -0.160  26.003  15.440  1.00  0.00     0.014 C 
HETATM   13  C23 UNL     1       0.767  24.864  15.563  1.00  0.00    -0.018 C 
HETATM   14  C24 UNL     1       1.988  24.964  14.647  1.00  0.00     0.010 C 
HETATM   15  C25 UNL     1       0.154  23.508  15.420  1.00  0.00     0.005 C 
HETATM   16  C26 UNL     1      -1.329  23.631  15.357  1.00  0.00     0.010 C 
HETATM   17  C27 UNL     1      -1.830  24.537  14.266  1.00  0.00    -0.033 C 
HETATM   18  C28 UNL     1      -1.363  24.002  12.902  1.00  0.00     0.016 C 
HETATM   19  C29 UNL     1      -5.374  25.405  13.403  1.00  0.00    -0.004 C 
HETATM   20  C30 UNL     1      -6.199  26.514  12.822  1.00  0.00     0.037 C 
ENDROOT
BRANCH   1  21
HETATM   21  O1  UNL     1      -8.565  26.920  13.146  1.00  0.00    -0.371 OA
BRANCH  21  22
HETATM   22  C10 UNL     1      -9.242  27.017  14.366  1.00  0.00     0.212 C 
BRANCH  22  23
HETATM   23  C9  UNL     1     -10.690  27.150  14.027  1.00  0.00     0.071 C 
BRANCH  23  24
HETATM   24  C8  UNL     1     -11.484  25.900  13.935  1.00  0.00     0.276 C 
BRANCH  24  25
HETATM   25  N1  UNL     1     -11.107  24.850  14.819  1.00  0.00     0.097 N 
HETATM   26  C6  UNL     1     -12.076  24.620  15.831  1.00  0.00     0.223 C 
HETATM   27  C5  UNL     1     -13.348  23.992  15.342  1.00  0.00     0.062 C 
HETATM   28  C7  UNL     1     -12.457  25.813  16.657  1.00  0.00     0.043 C 
HETATM   29  C4  UNL     1     -13.112  23.109  14.189  1.00  0.00    -0.020 C 
HETATM   30  C3  UNL     1     -11.928  22.903  13.628  1.00  0.00    -0.056 C 
HETATM   31  C32 UNL     1     -10.753  23.611  14.204  1.00  0.00     0.306 C 
BRANCH  30  32
HETATM   32  C2  UNL     1     -11.783  21.983  12.452  1.00  0.00     0.031 C 
HETATM   33  C1  UNL     1     -12.947  22.128  11.508  1.00  0.00     0.010 C 
ENDBRANCH  30  32
ENDBRANCH  24  25
ENDBRANCH  23  24
ENDBRANCH  22  23
BRANCH  22  34
HETATM   34  C31 UNL     1      -8.707  28.108  15.196  1.00  0.00     0.260 C 
HETATM   35  N2  UNL     1      -9.083  28.349  16.536  1.00  0.00    -0.060 NA
HETATM   36  O2  UNL     1      -7.840  28.923  14.729  1.00  0.00    -0.274 OA
ENDBRANCH  22  34
ENDBRANCH  21  22
ENDBRANCH   1  21
TORSDOF 7
ENDMDL
MODEL 2
REMARK VINA RESULT: -10.640089144      1.146      1.296
REMARK  7 active torsions:
REMARK  status: ('A' for Active; 'I' for Inactive)
REMARK    1  A    between atoms: C2_2  and  C3_3 
REMARK    2  A    between atoms: N1_8  and  C8_9 
REMARK    3  A    between atoms: C8_9  and  C9_10 
REMARK    4  A    between atoms: C9_10  and  C10_11 
REMARK    5  A    between atoms: C10_11  and  O1_12 
REMARK    6  A    between atoms: C10_11  and  C31_33 
REMARK    7  A    between atoms: O1_12  and  C11_13 
ROOT
HETATM    1  C11 UNL     1      -6.908  25.157  12.076  1.00  0.00     0.123 C 
HETATM    2  C12 UNL     1      -6.637  24.014  13.053  1.00  0.00     0.037 C 
HETATM    3  C13 UNL     1      -5.288  24.283  13.659  1.00  0.00    -0.008 C 
HETATM    4  C14 UNL     1      -4.435  23.080  13.850  1.00  0.00     0.005 C 
HETATM    5  C15 UNL     1      -3.080  23.536  14.344  1.00  0.00     0.006 C 
HETATM    6  C16 UNL     1      -2.449  24.435  13.318  1.00  0.00    -0.001 C 
HETATM    7  C17 UNL     1      -3.320  25.617  12.949  1.00  0.00    -0.005 C 
HETATM    8  C18 UNL     1      -3.335  26.678  13.992  1.00  0.00     0.006 C 
HETATM    9  C19 UNL     1      -2.222  26.646  14.959  1.00  0.00     0.010 C 
HETATM   10  C20 UNL     1      -0.903  26.126  14.375  1.00  0.00    -0.036 C 
HETATM   11  C21 UNL     1      -0.408  27.267  13.472  1.00  0.00     0.016 C 
HETATM   12  C22 UNL     1       0.028  26.060  15.538  1.00  0.00     0.014 C 
HETATM   13  C23 UNL     1       1.240  25.236  15.387  1.00  0.00    -0.018 C 
HETATM   14  C24 UNL     1       2.433  26.001  14.808  1.00  0.00     0.010 C 
HETATM   15  C25 UNL     1       1.066  23.955  14.637  1.00  0.00     0.005 C 
HETATM   16  C26 UNL     1      -0.380  23.725  14.363  1.00  0.00     0.010 C 
HETATM   17  C27 UNL     1      -1.056  24.848  13.622  1.00  0.00    -0.033 C 
HETATM   18  C28 UNL     1      -0.364  25.052  12.264  1.00  0.00     0.016 C 
HETATM   19  C29 UNL     1      -4.635  25.097  12.532  1.00  0.00    -0.004 C 
HETATM   20  C30 UNL     1      -5.712  26.108  12.275  1.00  0.00     0.037 C 
ENDROOT
BRANCH   1  21
HETATM   21  O1  UNL     1      -8.108  25.752  12.301  1.00  0.00    -0.371 OA
BRANCH  21  22
HETATM   22  C10 UNL     1      -8.603  25.584  13.598  1.00  0.00     0.212 C 
BRANCH  22  23
HETATM   23  C9  UNL     1      -9.879  24.822  13.459  1.00  0.00     0.071 C 
BRANCH  23  24
HETATM   24  C8  UNL     1     -10.986  25.178  14.380  1.00  0.00     0.276 C 
BRANCH  24  25
HETATM   25  N1  UNL     1     -11.589  24.098  15.085  1.00  0.00     0.097 N 
HETATM   26  C6  UNL     1     -12.880  24.427  15.578  1.00  0.00     0.223 C 
HETATM   27  C5  UNL     1     -13.934  24.558  14.519  1.00  0.00     0.062 C 
HETATM   28  C7  UNL     1     -12.960  25.652  16.440  1.00  0.00     0.043 C 
HETATM   29  C4  UNL     1     -13.673  23.669  13.376  1.00  0.00    -0.020 C 
HETATM   30  C3  UNL     1     -12.626  22.862  13.273  1.00  0.00    -0.056 C 
HETATM   31  C32 UNL     1     -11.645  22.851  14.392  1.00  0.00     0.306 C 
BRANCH  30  32
HETATM   32  C2  UNL     1     -12.441  21.989  12.067  1.00  0.00     0.031 C 
HETATM   33  C1  UNL     1     -13.471  22.301  11.014  1.00  0.00     0.010 C 
ENDBRANCH  30  32
ENDBRANCH  24  25
ENDBRANCH  23  24
ENDBRANCH  22  23
BRANCH  22  34
HETATM   34  C31 UNL     1      -8.736  26.873  14.297  1.00  0.00     0.260 C 
HETATM   35  N2  UNL     1      -8.426  27.077  15.659  1.00  0.00    -0.060 NA
HETATM   36  O2  UNL     1      -9.154  27.913  13.681  1.00  0.00    -0.274 OA
ENDBRANCH  22  34
ENDBRANCH  21  22
ENDBRANCH   1  21
TORSDOF 7
ENDMDL
MODEL 3
REMARK VINA RESULT: -10.546472854      1.088      1.968
REMARK  7 active torsions:
REMARK  status: ('A' for Active; 'I' for Inactive)
REMARK    1  A    between atoms: C2_2  and  C3_3 
REMARK    2  A    between atoms: N1_8  and  C8_9 
REMARK    3  A    between atoms: C8_9  and  C9_10 
REMARK    4  A    between atoms: C9_10  and  C10_11 
REMARK    5  A    between atoms: C10_11  and  O1_12 
REMARK    6  A    between atoms: C10_11  and  C31_33 
REMARK    7  A    between atoms: O1_12  and  C11_13 
ROOT
HETATM    1  C11 UNL     1      -7.143  26.761  12.868  1.00  0.00     0.123 C 
HETATM    2  C12 UNL     1      -7.105  25.804  14.058  1.00  0.00     0.037 C 
HETATM    3  C13 UNL     1      -5.669  25.729  14.497  1.00  0.00    -0.008 C 
HETATM    4  C14 UNL     1      -5.207  24.373  14.899  1.00  0.00     0.005 C 
HETATM    5  C15 UNL     1      -3.724  24.448  15.187  1.00  0.00     0.006 C 
HETATM    6  C16 UNL     1      -2.992  24.875  13.945  1.00  0.00    -0.001 C 
HETATM    7  C17 UNL     1      -3.503  26.182  13.377  1.00  0.00    -0.005 C 
HETATM    8  C18 UNL     1      -3.053  27.370  14.151  1.00  0.00     0.006 C 
HETATM    9  C19 UNL     1      -1.883  27.163  15.025  1.00  0.00     0.010 C 
HETATM   10  C20 UNL     1      -0.877  26.137  14.489  1.00  0.00    -0.036 C 
HETATM   11  C21 UNL     1      -0.183  26.857  13.321  1.00  0.00     0.016 C 
HETATM   12  C22 UNL     1       0.138  25.997  15.573  1.00  0.00     0.014 C 
HETATM   13  C23 UNL     1       1.008  24.809  15.533  1.00  0.00    -0.018 C 
HETATM   14  C24 UNL     1       2.289  25.015  14.720  1.00  0.00     0.010 C 
HETATM   15  C25 UNL     1       0.353  23.536  15.105  1.00  0.00     0.005 C 
HETATM   16  C26 UNL     1      -1.118  23.744  14.985  1.00  0.00     0.010 C 
HETATM   17  C27 UNL     1      -1.512  24.860  14.056  1.00  0.00    -0.033 C 
HETATM   18  C28 UNL     1      -0.980  24.561  12.645  1.00  0.00     0.016 C 
HETATM   19  C29 UNL     1      -4.957  26.050  13.176  1.00  0.00    -0.004 C 
HETATM   20  C30 UNL     1      -5.698  27.288  12.767  1.00  0.00     0.037 C 
ENDROOT
BRANCH   1  21
HETATM   21  O1  UNL     1      -8.062  27.747  13.030  1.00  0.00    -0.371 OA
BRANCH  21  22
HETATM   22  C10 UNL     1      -8.740  27.710  14.253  1.00  0.00     0.212 C 
BRANCH  22  23
HETATM   23  C9  UNL     1     -10.177  27.476  13.923  1.00  0.00     0.071 C 
BRANCH  23  24
HETATM   24  C8  UNL     1     -10.595  26.076  13.666  1.00  0.00     0.276 C 
BRANCH  24  25
HETATM   25  N1  UNL     1     -11.290  25.423  14.723  1.00  0.00     0.097 N 
HETATM   26  C6  UNL     1     -12.213  24.454  14.248  1.00  0.00     0.223 C 
HETATM   27  C5  UNL     1     -11.579  23.225  13.667  1.00  0.00     0.062 C 
HETATM   28  C7  UNL     1     -13.225  24.945  13.256  1.00  0.00     0.043 C 
HETATM   29  C4  UNL     1     -10.295  22.914  14.315  1.00  0.00    -0.020 C 
HETATM   30  C3  UNL     1      -9.744  23.638  15.281  1.00  0.00    -0.056 C 
HETATM   31  C32 UNL     1     -10.475  24.848  15.745  1.00  0.00     0.306 C 
BRANCH  30  32
HETATM   32  C2  UNL     1      -8.428  23.244  15.885  1.00  0.00     0.031 C 
HETATM   33  C1  UNL     1      -8.114  24.093  17.088  1.00  0.00     0.010 C 
ENDBRANCH  30  32
ENDBRANCH  24  25
ENDBRANCH  23  24
ENDBRANCH  22  23
BRANCH  22  34
HETATM   34  C31 UNL     1      -8.488  28.922  15.049  1.00  0.00     0.260 C 
HETATM   35  N2  UNL     1      -9.457  29.571  15.845  1.00  0.00    -0.060 NA
HETATM   36  O2  UNL     1      -7.331  29.469  15.062  1.00  0.00    -0.274 OA
ENDBRANCH  22  34
ENDBRANCH  21  22
ENDBRANCH   1  21
TORSDOF 7
ENDMDL
MODEL 4
REMARK VINA RESULT: -10.464557988      3.128      9.513
REMARK  7 active torsions:
REMARK  status: ('A' for Active; 'I' for Inactive)
REMARK    1  A    between atoms: C2_2  and  C3_3 
REMARK    2  A    between atoms: N1_8  and  C8_9 
REMARK    3  A    between atoms: C8_9  and  C9_10 
REMARK    4  A    between atoms: C9_10  and  C10_11 
REMARK    5  A    between atoms: C10_11  and  O1_12 
REMARK    6  A    between atoms: C10_11  and  C31_33 
REMARK    7  A    between atoms: O1_12  and  C11_13 
ROOT
HETATM    1  C11 UNL     1      -3.680  26.611  12.805  1.00  0.00     0.123 C 
HETATM    2  C12 UNL     1      -4.318  25.479  12.002  1.00  0.00     0.037 C 
HETATM    3  C13 UNL     1      -5.784  25.498  12.332  1.00  0.00    -0.008 C 
HETATM    4  C14 UNL     1      -6.410  24.158  12.486  1.00  0.00     0.005 C 
HETATM    5  C15 UNL     1      -7.840  24.354  12.938  1.00  0.00     0.006 C 
HETATM    6  C16 UNL     1      -7.855  25.065  14.262  1.00  0.00    -0.001 C 
HETATM    7  C17 UNL     1      -7.106  26.381  14.237  1.00  0.00    -0.005 C 
HETATM    8  C18 UNL     1      -7.858  27.466  13.551  1.00  0.00     0.006 C 
HETATM    9  C19 UNL     1      -9.311  27.252  13.409  1.00  0.00     0.010 C 
HETATM   10  C20 UNL     1      -9.939  26.455  14.558  1.00  0.00    -0.036 C 
HETATM   11  C21 UNL     1      -9.953  27.436  15.742  1.00  0.00     0.016 C 
HETATM   12  C22 UNL     1     -11.359  26.254  14.149  1.00  0.00     0.014 C 
HETATM   13  C23 UNL     1     -12.118  25.198  14.842  1.00  0.00    -0.018 C 
HETATM   14  C24 UNL     1     -12.826  25.684  16.109  1.00  0.00     0.010 C 
HETATM   15  C25 UNL     1     -11.360  23.948  15.151  1.00  0.00     0.005 C 
HETATM   16  C26 UNL     1     -10.019  24.000  14.505  1.00  0.00     0.010 C 
HETATM   17  C27 UNL     1      -9.196  25.203  14.882  1.00  0.00    -0.033 C 
HETATM   18  C28 UNL     1      -8.968  25.209  16.402  1.00  0.00     0.016 C 
HETATM   19  C29 UNL     1      -5.745  26.117  13.736  1.00  0.00    -0.004 C 
HETATM   20  C30 UNL     1      -4.877  27.311  13.477  1.00  0.00     0.037 C 
ENDROOT
BRANCH   1  21
HETATM   21  O1  UNL     1      -2.943  27.442  12.024  1.00  0.00    -0.371 OA
BRANCH  21  22
HETATM   22  C10 UNL     1      -1.778  26.867  11.505  1.00  0.00     0.212 C 
BRANCH  22  23
HETATM   23  C9  UNL     1      -0.827  26.751  12.650  1.00  0.00     0.071 C 
BRANCH  23  24
HETATM   24  C8  UNL     1      -0.894  25.513  13.465  1.00  0.00     0.276 C 
BRANCH  24  25
HETATM   25  N1  UNL     1      -0.886  25.689  14.877  1.00  0.00     0.097 N 
HETATM   26  C6  UNL     1      -1.509  24.611  15.560  1.00  0.00     0.223 C 
HETATM   27  C5  UNL     1      -0.732  23.329  15.537  1.00  0.00     0.062 C 
HETATM   28  C7  UNL     1      -2.912  24.290  15.136  1.00  0.00     0.043 C 
HETATM   29  C4  UNL     1       0.720  23.571  15.497  1.00  0.00    -0.020 C 
HETATM   30  C3  UNL     1       1.282  24.772  15.463  1.00  0.00    -0.056 C 
HETATM   31  C32 UNL     1       0.385  25.959  15.467  1.00  0.00     0.306 C 
BRANCH  30  32
HETATM   32  C2  UNL     1       2.774  24.923  15.423  1.00  0.00     0.031 C 
HETATM   33  C1  UNL     1       3.402  23.840  14.586  1.00  0.00     0.010 C 
ENDBRANCH  30  32
ENDBRANCH  24  25
ENDBRANCH  23  24
ENDBRANCH  22  23
BRANCH  22  34
HETATM   34  C31 UNL     1      -1.262  27.633  10.358  1.00  0.00     0.260 C 
HETATM   35  N2  UNL     1      -2.072  28.234   9.371  1.00  0.00    -0.060 NA
HETATM   36  O2  UNL     1      -0.004  27.800  10.195  1.00  0.00    -0.274 OA
ENDBRANCH  22  34
ENDBRANCH  21  22
ENDBRANCH   1  21
TORSDOF 7
ENDMDL
MODEL 5
REMARK VINA RESULT: -10.425528406      3.201      8.982
REMARK  7 active torsions:
REMARK  status: ('A' for Active; 'I' for Inactive)
REMARK    1  A    between atoms: C2_2  and  C3_3 
REMARK    2  A    between atoms: N1_8  and  C8_9 
REMARK    3  A    between atoms: C8_9  and  C9_10 
REMARK    4  A    between atoms: C9_10  and  C10_11 
REMARK    5  A    between atoms: C10_11  and  O1_12 
REMARK    6  A    between atoms: C10_11  and  C31_33 
REMARK    7  A    between atoms: O1_12  and  C11_13 
ROOT
HETATM    1  C11 UNL     1      -3.825  26.862  12.609  1.00  0.00     0.123 C 
HETATM    2  C12 UNL     1      -4.516  25.837  11.711  1.00  0.00     0.037 C 
HETATM    3  C13 UNL     1      -5.964  25.828  12.113  1.00  0.00    -0.008 C 
HETATM    4  C14 UNL     1      -6.599  24.484  12.139  1.00  0.00     0.005 C 
HETATM    5  C15 UNL     1      -8.003  24.636  12.680  1.00  0.00     0.006 C 
HETATM    6  C16 UNL     1      -7.945  25.185  14.079  1.00  0.00    -0.001 C 
HETATM    7  C17 UNL     1      -7.181  26.490  14.171  1.00  0.00    -0.005 C 
HETATM    8  C18 UNL     1      -7.951  27.654  13.656  1.00  0.00     0.006 C 
HETATM    9  C19 UNL     1      -9.411  27.469  13.562  1.00  0.00     0.010 C 
HETATM   10  C20 UNL     1      -9.994  26.546  14.639  1.00  0.00    -0.036 C 
HETATM   11  C21 UNL     1      -9.937  27.380  15.929  1.00  0.00     0.016 C 
HETATM   12  C22 UNL     1     -11.434  26.405  14.279  1.00  0.00     0.014 C 
HETATM   13  C23 UNL     1     -12.173  25.281  14.881  1.00  0.00    -0.018 C 
HETATM   14  C24 UNL     1     -12.812  25.619  16.229  1.00  0.00     0.010 C 
HETATM   15  C25 UNL     1     -11.418  23.997  15.002  1.00  0.00     0.005 C 
HETATM   16  C26 UNL     1     -10.108  24.116  14.301  1.00  0.00     0.010 C 
HETATM   17  C27 UNL     1      -9.253  25.259  14.776  1.00  0.00    -0.033 C 
HETATM   18  C28 UNL     1      -8.951  25.084  16.273  1.00  0.00     0.016 C 
HETATM   19  C29 UNL     1      -5.849  26.276  13.577  1.00  0.00    -0.004 C 
HETATM   20  C30 UNL     1      -4.978  27.487  13.418  1.00  0.00     0.037 C 
ENDROOT
BRANCH   1  21
HETATM   21  O1  UNL     1      -3.115  27.774  11.896  1.00  0.00    -0.371 OA
BRANCH  21  22
HETATM   22  C10 UNL     1      -2.128  27.224  11.073  1.00  0.00     0.212 C 
BRANCH  22  23
HETATM   23  C9  UNL     1      -0.853  27.304  11.845  1.00  0.00     0.071 C 
BRANCH  23  24
HETATM   24  C8  UNL     1      -0.824  26.652  13.178  1.00  0.00     0.276 C 
BRANCH  24  25
HETATM   25  N1  UNL     1      -0.259  25.347  13.227  1.00  0.00     0.097 N 
HETATM   26  C6  UNL     1       0.454  25.111  14.433  1.00  0.00     0.223 C 
HETATM   27  C5  UNL     1      -0.413  24.974  15.650  1.00  0.00     0.062 C 
HETATM   28  C7  UNL     1       1.531  26.101  14.762  1.00  0.00     0.043 C 
HETATM   29  C4  UNL     1      -1.726  24.395  15.322  1.00  0.00    -0.020 C 
HETATM   30  C3  UNL     1      -2.115  24.052  14.101  1.00  0.00    -0.056 C 
HETATM   31  C32 UNL     1      -1.158  24.265  12.982  1.00  0.00     0.306 C 
BRANCH  30  32
HETATM   32  C2  UNL     1      -3.475  23.468  13.861  1.00  0.00     0.031 C 
HETATM   33  C1  UNL     1      -4.394  23.749  15.021  1.00  0.00     0.010 C 
ENDBRANCH  30  32
ENDBRANCH  24  25
ENDBRANCH  23  24
ENDBRANCH  22  23
BRANCH  22  34
HETATM   34  C31 UNL     1      -2.087  27.887   9.759  1.00  0.00     0.260 C 
HETATM   35  N2  UNL     1      -3.045  27.698   8.740  1.00  0.00    -0.060 NA
HETATM   36  O2  UNL     1      -1.145  28.702   9.465  1.00  0.00    -0.274 OA
ENDBRANCH  22  34
ENDBRANCH  21  22
ENDBRANCH   1  21
TORSDOF 7
ENDMDL
