MODEL 1
REMARK VINA RESULT: -9.477515166      0.000      0.000
REMARK  10 active torsions:
REMARK  status: ('A' for Active; 'I' for Inactive)
REMARK    1  A    between atoms: C2_2  and  C4_4 
REMARK    2  A    between atoms: C4_4  and  C5_5 
REMARK    3  A    between atoms: C4_4  and  C7_7 
REMARK    4  A    between atoms: C7_7  and  C8_8 
REMARK    5  A    between atoms: C7_7  and  C28_31 
REMARK    6  A    between atoms: C8_8  and  C9_9 
REMARK    7  A    between atoms: C13_13  and  C14_14 
REMARK    8  A    between atoms: C21_22  and  C23_24 
REMARK    9  A    between atoms: C24_26  and  C26_28 
REMARK   10  A    between atoms: C28_31  and  C30_33 
ROOT
HETATM    1  C9  UNL     1      -8.737  25.499  15.342  1.00  0.00    -0.053 C 
HETATM    2  C10 UNL     1      -9.130  26.882  15.564  1.00  0.00     0.012 C 
HETATM    3  C11 UNL     1      -9.480  27.809  14.464  1.00  0.00     0.015 C 
HETATM    4  C12 UNL     1      -7.721  27.444  16.057  1.00  0.00     0.016 C 
HETATM    5  C13 UNL     1      -6.860  26.993  14.914  1.00  0.00     0.022 C 
HETATM    6  C26 UNL     1      -7.356  25.575  14.633  1.00  0.00     0.110 C 
HETATM    7  C27 UNL     1      -7.753  25.375  13.231  1.00  0.00     0.077 C 
HETATM    8  N1  UNL     1      -8.067  25.189  12.103  1.00  0.00    -0.196 NA
ENDROOT
BRANCH   6   9
HETATM    9  C24 UNL     1      -6.363  24.557  14.995  1.00  0.00     0.110 A 
HETATM   10  C23 UNL     1      -5.080  24.618  14.296  1.00  0.00     0.171 A 
HETATM   11  O2  UNL     1      -5.990  23.720  13.814  1.00  0.00    -0.366 OA
HETATM   12  C25 UNL     1      -6.379  23.668  16.188  1.00  0.00     0.051 C 
BRANCH  10  13
HETATM   13  C21 UNL     1      -4.769  25.803  13.460  1.00  0.00     0.008 C 
HETATM   14  C14 UNL     1      -4.256  26.915  14.311  1.00  0.00     0.022 C 
HETATM   15  C15 UNL     1      -2.769  26.921  14.536  1.00  0.00     0.022 C 
HETATM   16  C16 UNL     1      -2.225  25.758  15.292  1.00  0.00     0.024 C 
HETATM   17  C17 UNL     1      -2.229  28.259  14.987  1.00  0.00     0.024 C 
HETATM   18  C18 UNL     1      -2.115  26.717  13.186  1.00  0.00     0.157 C 
HETATM   19  O1  UNL     1      -1.162  27.469  12.868  1.00  0.00    -0.292 OA
HETATM   20  C19 UNL     1      -2.576  25.686  12.291  1.00  0.00     0.048 C 
HETATM   21  C20 UNL     1      -3.786  25.286  12.436  1.00  0.00    -0.011 C 
HETATM   22  C22 UNL     1      -5.916  26.267  12.563  1.00  0.00     0.023 C 
ENDBRANCH  10  13
ENDBRANCH   6   9
BRANCH   1  23
HETATM   23  C8  UNL     1      -9.578  24.433  14.830  1.00  0.00    -0.016 C 
BRANCH  23  24
HETATM   24  C7  UNL     1     -11.006  24.223  15.288  1.00  0.00     0.020 C 
BRANCH  24  25
HETATM   25  C4  UNL     1     -12.025  24.214  14.201  1.00  0.00     0.021 C 
BRANCH  25  26
HETATM   26  C2  UNL     1     -13.223  25.033  14.323  1.00  0.00    -0.088 C 
HETATM   27  C1  UNL     1     -14.263  25.016  13.583  1.00  0.00     0.014 C 
HETATM   28  C3  UNL     1     -13.298  26.072  15.440  1.00  0.00     0.043 C 
ENDBRANCH  25  26
BRANCH  25  29
HETATM   29  C5  UNL     1     -12.407  22.764  13.863  1.00  0.00     0.005 C 
HETATM   30  C6  UNL     1     -11.586  22.005  12.932  1.00  0.00     0.006 C 
ENDBRANCH  25  29
ENDBRANCH  24  25
BRANCH  24  31
HETATM   31  C28 UNL     1     -11.026  23.153  16.330  1.00  0.00    -0.011 C 
HETATM   32  C29 UNL     1      -9.647  22.487  16.489  1.00  0.00     0.010 C 
BRANCH  31  33
HETATM   33  C30 UNL     1     -11.428  23.512  17.722  1.00  0.00     0.000 C 
HETATM   34  C31 UNL     1     -10.646  22.657  18.743  1.00  0.00     0.005 C 
ENDBRANCH  31  33
ENDBRANCH  24  31
ENDBRANCH  23  24
ENDBRANCH   1  23
TORSDOF 10
ENDMDL
MODEL 2
REMARK VINA RESULT: -9.247128983      2.246      4.621
REMARK  10 active torsions:
REMARK  status: ('A' for Active; 'I' for Inactive)
REMARK    1  A    between atoms: C2_2  and  C4_4 
REMARK    2  A    between atoms: C4_4  and  C5_5 
REMARK    3  A    between atoms: C4_4  and  C7_7 
REMARK    4  A    between atoms: C7_7  and  C8_8 
REMARK    5  A    between atoms: C7_7  and  C28_31 
REMARK    6  A    between atoms: C8_8  and  C9_9 
REMARK    7  A    between atoms: C13_13  and  C14_14 
REMARK    8  A    between atoms: C21_22  and  C23_24 
REMARK    9  A    between atoms: C24_26  and  C26_28 
REMARK   10  A    between atoms: C28_31  and  C30_33 
ROOT
HETATM    1  C9  UNL     1      -6.161  26.852  13.838  1.00  0.00    -0.053 C 
HETATM    2  C10 UNL     1      -6.876  26.459  12.633  1.00  0.00     0.012 C 
HETATM    3  C11 UNL     1      -7.291  25.065  12.359  1.00  0.00     0.015 C 
HETATM    4  C12 UNL     1      -5.695  26.682  11.584  1.00  0.00     0.016 C 
HETATM    5  C13 UNL     1      -4.626  25.851  12.231  1.00  0.00     0.022 C 
HETATM    6  C26 UNL     1      -4.758  26.195  13.715  1.00  0.00     0.110 C 
HETATM    7  C27 UNL     1      -4.933  25.007  14.565  1.00  0.00     0.077 C 
HETATM    8  N1  UNL     1      -5.062  24.063  15.269  1.00  0.00    -0.196 NA
ENDROOT
BRANCH   6   9
HETATM    9  C24 UNL     1      -3.614  26.969  14.209  1.00  0.00     0.110 A 
HETATM   10  C23 UNL     1      -2.285  26.450  13.886  1.00  0.00     0.171 A 
HETATM   11  O2  UNL     1      -2.765  26.152  15.131  1.00  0.00    -0.366 OA
HETATM   12  C25 UNL     1      -3.626  28.363  14.729  1.00  0.00     0.051 C 
BRANCH  10  13
HETATM   13  C21 UNL     1      -2.161  25.340  12.910  1.00  0.00     0.008 C 
HETATM   14  C14 UNL     1      -2.567  25.801  11.550  1.00  0.00     0.022 C 
HETATM   15  C15 UNL     1      -1.468  26.401  10.719  1.00  0.00     0.022 C 
HETATM   16  C16 UNL     1      -0.876  27.664  11.244  1.00  0.00     0.024 C 
HETATM   17  C17 UNL     1      -1.773  26.429   9.239  1.00  0.00     0.024 C 
HETATM   18  C18 UNL     1      -0.280  25.467  10.813  1.00  0.00     0.157 C 
HETATM   19  O1  UNL     1       0.317  25.156   9.754  1.00  0.00    -0.292 OA
HETATM   20  C19 UNL     1       0.153  24.951  12.087  1.00  0.00     0.048 C 
HETATM   21  C20 UNL     1      -0.720  24.903  13.025  1.00  0.00    -0.011 C 
HETATM   22  C22 UNL     1      -2.893  24.059  13.309  1.00  0.00     0.023 C 
ENDBRANCH  10  13
ENDBRANCH   6   9
BRANCH   1  23
HETATM   23  C8  UNL     1      -6.678  26.833  15.194  1.00  0.00    -0.016 C 
BRANCH  23  24
HETATM   24  C7  UNL     1      -8.085  27.274  15.542  1.00  0.00     0.020 C 
BRANCH  24  25
HETATM   25  C4  UNL     1      -9.059  26.167  15.760  1.00  0.00     0.021 C 
BRANCH  25  26
HETATM   26  C2  UNL     1      -8.579  24.833  16.088  1.00  0.00    -0.088 C 
HETATM   27  C1  UNL     1      -7.971  24.456  17.145  1.00  0.00     0.014 C 
HETATM   28  C3  UNL     1      -8.780  23.705  15.078  1.00  0.00     0.043 C 
ENDBRANCH  25  26
BRANCH  25  29
HETATM   29  C5  UNL     1     -10.038  26.101  14.576  1.00  0.00     0.005 C 
HETATM   30  C6  UNL     1     -11.445  26.405  14.792  1.00  0.00     0.006 C 
ENDBRANCH  25  29
ENDBRANCH  24  25
BRANCH  24  31
HETATM   31  C28 UNL     1      -8.011  28.397  16.522  1.00  0.00    -0.011 C 
HETATM   32  C29 UNL     1      -7.175  29.573  15.980  1.00  0.00     0.010 C 
BRANCH  31  33
HETATM   33  C30 UNL     1      -9.279  29.029  16.991  1.00  0.00     0.000 C 
HETATM   34  C31 UNL     1      -9.975  29.763  15.823  1.00  0.00     0.005 C 
ENDBRANCH  31  33
ENDBRANCH  24  31
ENDBRANCH  23  24
ENDBRANCH   1  23
TORSDOF 10
ENDMDL
MODEL 3
REMARK VINA RESULT: -8.953755666      1.704      3.420
REMARK  10 active torsions:
REMARK  status: ('A' for Active; 'I' for Inactive)
REMARK    1  A    between atoms: C2_2  and  C4_4 
REMARK    2  A    between atoms: C4_4  and  C5_5 
REMARK    3  A    between atoms: C4_4  and  C7_7 
REMARK    4  A    between atoms: C7_7  and  C8_8 
REMARK    5  A    between atoms: C7_7  and  C28_31 
REMARK    6  A    between atoms: C8_8  and  C9_9 
REMARK    7  A    between atoms: C13_13  and  C14_14 
REMARK    8  A    between atoms: C21_22  and  C23_24 
REMARK    9  A    between atoms: C24_26  and  C26_28 
REMARK   10  A    between atoms: C28_31  and  C30_33 
ROOT
HETATM    1  C9  UNL     1      -8.717  24.335  14.381  1.00  0.00    -0.053 C 
HETATM    2  C10 UNL     1      -8.079  23.479  15.369  1.00  0.00     0.012 C 
HETATM    3  C11 UNL     1      -8.097  23.768  16.820  1.00  0.00     0.015 C 
HETATM    4  C12 UNL     1      -6.560  23.768  14.976  1.00  0.00     0.016 C 
HETATM    5  C13 UNL     1      -6.565  25.266  15.047  1.00  0.00     0.022 C 
HETATM    6  C26 UNL     1      -7.887  25.650  14.382  1.00  0.00     0.110 C 
HETATM    7  C27 UNL     1      -8.729  26.507  15.231  1.00  0.00     0.077 C 
HETATM    8  N1  UNL     1      -9.416  27.209  15.893  1.00  0.00    -0.196 NA
ENDROOT
BRANCH   6   9
HETATM    9  C24 UNL     1      -7.686  26.312  13.089  1.00  0.00     0.110 A 
HETATM   10  C23 UNL     1      -6.884  27.535  13.098  1.00  0.00     0.171 A 
HETATM   11  O2  UNL     1      -8.240  27.701  13.099  1.00  0.00    -0.366 OA
HETATM   12  C25 UNL     1      -7.932  25.742  11.736  1.00  0.00     0.051 C 
BRANCH  10  13
HETATM   13  C21 UNL     1      -6.142  27.902  14.329  1.00  0.00     0.008 C 
HETATM   14  C14 UNL     1      -5.251  26.781  14.748  1.00  0.00     0.022 C 
HETATM   15  C15 UNL     1      -3.874  26.792  14.144  1.00  0.00     0.022 C 
HETATM   16  C16 UNL     1      -3.816  26.617  12.666  1.00  0.00     0.024 C 
HETATM   17  C17 UNL     1      -2.871  25.958  14.906  1.00  0.00     0.024 C 
HETATM   18  C18 UNL     1      -3.338  28.201  14.288  1.00  0.00     0.157 C 
HETATM   19  O1  UNL     1      -2.170  28.351  14.719  1.00  0.00    -0.292 OA
HETATM   20  C19 UNL     1      -4.150  29.338  13.937  1.00  0.00     0.048 C 
HETATM   21  C20 UNL     1      -5.422  29.178  13.962  1.00  0.00    -0.011 C 
HETATM   22  C22 UNL     1      -7.023  28.379  15.483  1.00  0.00     0.023 C 
ENDBRANCH  10  13
ENDBRANCH   6   9
BRANCH   1  23
HETATM   23  C8  UNL     1     -10.141  24.565  14.227  1.00  0.00    -0.016 C 
BRANCH  23  24
HETATM   24  C7  UNL     1     -11.183  23.522  14.578  1.00  0.00     0.020 C 
BRANCH  24  25
HETATM   25  C4  UNL     1     -12.246  23.981  15.517  1.00  0.00     0.021 C 
BRANCH  25  26
HETATM   26  C2  UNL     1     -13.019  25.175  15.209  1.00  0.00    -0.088 C 
HETATM   27  C1  UNL     1     -12.801  26.372  15.597  1.00  0.00     0.014 C 
HETATM   28  C3  UNL     1     -14.266  25.045  14.337  1.00  0.00     0.043 C 
ENDBRANCH  25  26
BRANCH  25  29
HETATM   29  C5  UNL     1     -11.672  24.073  16.940  1.00  0.00     0.005 C 
HETATM   30  C6  UNL     1     -11.179  22.870  17.594  1.00  0.00     0.006 C 
ENDBRANCH  25  29
ENDBRANCH  24  25
BRANCH  24  31
HETATM   31  C28 UNL     1     -11.560  22.780  13.339  1.00  0.00    -0.011 C 
HETATM   32  C29 UNL     1     -10.768  21.466  13.198  1.00  0.00     0.010 C 
BRANCH  31  33
HETATM   33  C30 UNL     1     -12.984  22.378  13.147  1.00  0.00     0.000 C 
HETATM   34  C31 UNL     1     -13.374  22.485  11.656  1.00  0.00     0.005 C 
ENDBRANCH  31  33
ENDBRANCH  24  31
ENDBRANCH  23  24
ENDBRANCH   1  23
TORSDOF 10
ENDMDL
MODEL 4
REMARK VINA RESULT: -8.802850064      2.240      4.068
REMARK  10 active torsions:
REMARK  status: ('A' for Active; 'I' for Inactive)
REMARK    1  A    between atoms: C2_2  and  C4_4 
REMARK    2  A    between atoms: C4_4  and  C5_5 
REMARK    3  A    between atoms: C4_4  and  C7_7 
REMARK    4  A    between atoms: C7_7  and  C8_8 
REMARK    5  A    between atoms: C7_7  and  C28_31 
REMARK    6  A    between atoms: C8_8  and  C9_9 
REMARK    7  A    between atoms: C13_13  and  C14_14 
REMARK    8  A    between atoms: C21_22  and  C23_24 
REMARK    9  A    between atoms: C24_26  and  C26_28 
REMARK   10  A    between atoms: C28_31  and  C30_33 
ROOT
HETATM    1  C9  UNL     1      -5.687  27.451  14.183  1.00  0.00    -0.053 C 
HETATM    2  C10 UNL     1      -5.187  28.781  14.495  1.00  0.00     0.012 C 
HETATM    3  C11 UNL     1      -4.683  29.717  13.464  1.00  0.00     0.015 C 
HETATM    4  C12 UNL     1      -3.853  28.352  15.257  1.00  0.00     0.016 C 
HETATM    5  C13 UNL     1      -3.250  27.455  14.217  1.00  0.00     0.022 C 
HETATM    6  C26 UNL     1      -4.444  26.648  13.707  1.00  0.00     0.110 C 
HETATM    7  C27 UNL     1      -4.607  26.727  12.247  1.00  0.00     0.077 C 
HETATM    8  N1  UNL     1      -4.748  26.766  11.071  1.00  0.00    -0.196 NA
ENDROOT
BRANCH   6   9
HETATM    9  C24 UNL     1      -4.371  25.237  14.101  1.00  0.00     0.110 A 
HETATM   10  C23 UNL     1      -3.121  24.539  13.801  1.00  0.00     0.171 A 
HETATM   11  O2  UNL     1      -4.146  24.354  12.916  1.00  0.00    -0.366 OA
HETATM   12  C25 UNL     1      -5.277  24.514  15.034  1.00  0.00     0.051 C 
BRANCH  10  13
HETATM   13  C21 UNL     1      -1.947  25.323  13.345  1.00  0.00     0.008 C 
HETATM   14  C14 UNL     1      -1.414  26.152  14.465  1.00  0.00     0.022 C 
HETATM   15  C15 UNL     1      -0.387  25.479  15.333  1.00  0.00     0.022 C 
HETATM   16  C16 UNL     1      -0.868  24.298  16.104  1.00  0.00     0.024 C 
HETATM   17  C17 UNL     1       0.453  26.444  16.137  1.00  0.00     0.024 C 
HETATM   18  C18 UNL     1       0.618  24.828  14.407  1.00  0.00     0.157 C 
HETATM   19  O1  UNL     1       1.839  24.992  14.645  1.00  0.00    -0.292 OA
HETATM   20  C19 UNL     1       0.182  24.039  13.282  1.00  0.00     0.048 C 
HETATM   21  C20 UNL     1      -0.988  24.283  12.818  1.00  0.00    -0.011 C 
HETATM   22  C22 UNL     1      -2.193  26.164  12.093  1.00  0.00     0.023 C 
ENDBRANCH  10  13
ENDBRANCH   6   9
BRANCH   1  23
HETATM   23  C8  UNL     1      -6.888  27.133  13.433  1.00  0.00    -0.016 C 
BRANCH  23  24
HETATM   24  C7  UNL     1      -8.172  26.678  14.096  1.00  0.00     0.020 C 
BRANCH  24  25
HETATM   25  C4  UNL     1      -9.152  27.762  14.387  1.00  0.00     0.021 C 
BRANCH  25  26
HETATM   26  C2  UNL     1      -9.020  28.553  15.601  1.00  0.00    -0.088 C 
HETATM   27  C1  UNL     1      -9.574  29.670  15.874  1.00  0.00     0.014 C 
HETATM   28  C3  UNL     1      -8.104  28.050  16.715  1.00  0.00     0.043 C 
ENDBRANCH  25  26
BRANCH  25  29
HETATM   29  C5  UNL     1     -10.582  27.210  14.268  1.00  0.00     0.005 C 
HETATM   30  C6  UNL     1     -11.190  26.543  15.410  1.00  0.00     0.006 C 
ENDBRANCH  25  29
ENDBRANCH  24  25
BRANCH  24  31
HETATM   31  C28 UNL     1      -8.634  25.419  13.439  1.00  0.00    -0.011 C 
HETATM   32  C29 UNL     1      -7.742  25.040  12.242  1.00  0.00     0.010 C 
BRANCH  31  33
HETATM   33  C30 UNL     1      -8.713  24.171  14.253  1.00  0.00     0.000 C 
HETATM   34  C31 UNL     1      -9.943  23.336  13.836  1.00  0.00     0.005 C 
ENDBRANCH  31  33
ENDBRANCH  24  31
ENDBRANCH  23  24
ENDBRANCH   1  23
TORSDOF 10
ENDMDL
MODEL 5
REMARK VINA RESULT: -8.748974735      2.345      4.520
REMARK  10 active torsions:
REMARK  status: ('A' for Active; 'I' for Inactive)
REMARK    1  A    between atoms: C2_2  and  C4_4 
REMARK    2  A    between atoms: C4_4  and  C5_5 
REMARK    3  A    between atoms: C4_4  and  C7_7 
REMARK    4  A    between atoms: C7_7  and  C8_8 
REMARK    5  A    between atoms: C7_7  and  C28_31 
REMARK    6  A    between atoms: C8_8  and  C9_9 
REMARK    7  A    between atoms: C13_13  and  C14_14 
REMARK    8  A    between atoms: C21_22  and  C23_24 
REMARK    9  A    between atoms: C24_26  and  C26_28 
REMARK   10  A    between atoms: C28_31  and  C30_33 
ROOT
HETATM    1  C9  UNL     1      -5.974  27.065  13.689  1.00  0.00    -0.053 C 
HETATM    2  C10 UNL     1      -6.645  26.576  12.495  1.00  0.00     0.012 C 
HETATM    3  C11 UNL     1      -7.152  25.191  12.364  1.00  0.00     0.015 C 
HETATM    4  C12 UNL     1      -5.392  26.582  11.508  1.00  0.00     0.016 C 
HETATM    5  C13 UNL     1      -4.431  25.766  12.321  1.00  0.00     0.022 C 
HETATM    6  C26 UNL     1      -4.621  26.301  13.740  1.00  0.00     0.110 C 
HETATM    7  C27 UNL     1      -4.938  25.244  14.713  1.00  0.00     0.077 C 
HETATM    8  N1  UNL     1      -5.181  24.407  15.516  1.00  0.00    -0.196 NA
ENDROOT
BRANCH   6   9
HETATM    9  C24 UNL     1      -3.451  27.047  14.214  1.00  0.00     0.110 A 
HETATM   10  C23 UNL     1      -2.141  26.483  13.891  1.00  0.00     0.171 A 
HETATM   11  O2  UNL     1      -2.621  26.222  15.144  1.00  0.00    -0.366 OA
HETATM   12  C25 UNL     1      -3.417  28.451  14.708  1.00  0.00     0.051 C 
BRANCH  10  13
HETATM   13  C21 UNL     1      -2.058  25.353  12.934  1.00  0.00     0.008 C 
HETATM   14  C14 UNL     1      -2.489  25.794  11.576  1.00  0.00     0.022 C 
HETATM   15  C15 UNL     1      -1.400  26.361  10.707  1.00  0.00     0.022 C 
HETATM   16  C16 UNL     1      -0.777  27.624  11.194  1.00  0.00     0.024 C 
HETATM   17  C17 UNL     1      -1.740  26.366   9.234  1.00  0.00     0.024 C 
HETATM   18  C18 UNL     1      -0.225  25.410  10.791  1.00  0.00     0.157 C 
HETATM   19  O1  UNL     1       0.341  25.069   9.725  1.00  0.00    -0.292 OA
HETATM   20  C19 UNL     1       0.230  24.911  12.064  1.00  0.00     0.048 C 
HETATM   21  C20 UNL     1      -0.621  24.895  13.023  1.00  0.00    -0.011 C 
HETATM   22  C22 UNL     1      -2.799  24.091  13.375  1.00  0.00     0.023 C 
ENDBRANCH  10  13
ENDBRANCH   6   9
BRANCH   1  23
HETATM   23  C8  UNL     1      -6.568  27.253  14.999  1.00  0.00    -0.016 C 
BRANCH  23  24
HETATM   24  C7  UNL     1      -8.028  27.605  15.196  1.00  0.00     0.020 C 
BRANCH  24  25
HETATM   25  C4  UNL     1      -8.966  26.447  15.173  1.00  0.00     0.021 C 
BRANCH  25  26
HETATM   26  C2  UNL     1     -10.396  26.675  15.020  1.00  0.00    -0.088 C 
HETATM   27  C1  UNL     1     -11.352  26.114  15.653  1.00  0.00     0.014 C 
HETATM   28  C3  UNL     1     -10.877  27.682  13.977  1.00  0.00     0.043 C 
ENDBRANCH  25  26
BRANCH  25  29
HETATM   29  C5  UNL     1      -8.701  25.544  16.388  1.00  0.00     0.005 C 
HETATM   30  C6  UNL     1      -8.497  24.117  16.190  1.00  0.00     0.006 C 
ENDBRANCH  25  29
ENDBRANCH  24  25
BRANCH  24  31
HETATM   31  C28 UNL     1      -8.137  28.625  16.280  1.00  0.00    -0.011 C 
HETATM   32  C29 UNL     1      -6.871  29.498  16.371  1.00  0.00     0.010 C 
BRANCH  31  33
HETATM   33  C30 UNL     1      -9.262  29.605  16.235  1.00  0.00     0.000 C 
HETATM   34  C31 UNL     1     -10.084  29.537  17.541  1.00  0.00     0.005 C 
ENDBRANCH  31  33
ENDBRANCH  24  31
ENDBRANCH  23  24
ENDBRANCH   1  23
TORSDOF 10
ENDMDL
