MODEL 1
REMARK VINA RESULT: -10.329739824      0.000      0.000
REMARK  10 active torsions:
REMARK  status: ('A' for Active; 'I' for Inactive)
REMARK    1  A    between atoms: C2_2  and  C3_3 
REMARK    2  A    between atoms: C4_4  and  C5_5 
REMARK    3  A    between atoms: C14_14  and  C15_15 
REMARK    4  A    between atoms: C15_15  and  C16_17 
REMARK    5  A    between atoms: C16_17  and  C18_19 
REMARK    6  A    between atoms: C18_19  and  C19_20 
REMARK    7  A    between atoms: C18_19  and  N1_26 
REMARK    8  A    between atoms: C20_21  and  C22_23 
REMARK    9  A    between atoms: N1_26  and  S1_27 
REMARK   10  A    between atoms: S1_27  and  C25_30 
ROOT
HETATM    1  C16 UNL     1      -4.219  25.021  13.898  1.00  0.00     0.121 C 
HETATM    2  C17 UNL     1      -4.761  26.200  13.084  1.00  0.00     0.026 C 
ENDROOT
BRANCH   1   3
HETATM    3  C15 UNL     1      -5.140  23.847  13.679  1.00  0.00     0.160 C 
HETATM    4  O1  UNL     1      -4.630  22.726  13.619  1.00  0.00    -0.292 OA
BRANCH   3   5
HETATM    5  C14 UNL     1      -6.559  24.059  13.549  1.00  0.00     0.057 C 
HETATM    6  C2  UNL     1      -7.509  23.939  14.429  1.00  0.00    -0.059 C 
HETATM    7  C1  UNL     1      -7.340  23.543  15.813  1.00  0.00     0.048 C 
BRANCH   6   8
HETATM    8  C3  UNL     1      -8.907  24.235  13.978  1.00  0.00     0.007 C 
HETATM    9  C4  UNL     1      -9.900  23.773  14.693  1.00  0.00     0.009 C 
BRANCH   9  10
HETATM   10  C5  UNL     1     -11.324  23.984  14.375  1.00  0.00    -0.048 C 
HETATM   11  C6  UNL     1     -11.907  23.037  13.635  1.00  0.00    -0.077 C 
HETATM   12  C7  UNL     1     -11.083  21.840  13.186  1.00  0.00     0.044 C 
HETATM   13  C8  UNL     1     -13.317  23.133  13.252  1.00  0.00     0.034 C 
HETATM   14  C9  UNL     1     -13.860  24.527  13.243  1.00  0.00     0.005 C 
HETATM   15  C10 UNL     1     -13.500  25.255  14.511  1.00  0.00     0.014 C 
HETATM   16  C11 UNL     1     -12.035  25.157  14.843  1.00  0.00    -0.020 C 
HETATM   17  C12 UNL     1     -11.337  26.432  14.343  1.00  0.00     0.020 C 
HETATM   18  C13 UNL     1     -11.981  25.202  16.378  1.00  0.00     0.020 C 
ENDBRANCH   9  10
ENDBRANCH   6   8
ENDBRANCH   3   5
ENDBRANCH   1   3
BRANCH   1  19
HETATM   19  C18 UNL     1      -2.885  24.671  13.297  1.00  0.00     0.110 C 
BRANCH  19  20
HETATM   20  C19 UNL     1      -1.916  24.110  14.263  1.00  0.00     0.044 C 
HETATM   21  C20 UNL     1      -1.098  24.809  14.999  1.00  0.00    -0.077 C 
HETATM   22  C21 UNL     1      -1.018  26.298  14.974  1.00  0.00     0.044 C 
BRANCH  21  23
HETATM   23  C22 UNL     1      -0.162  24.136  15.944  1.00  0.00     0.006 C 
HETATM   24  C23 UNL     1      -0.220  22.648  15.832  1.00  0.00     0.014 C 
HETATM   25  C24 UNL     1       1.207  24.715  15.727  1.00  0.00     0.014 C 
ENDBRANCH  21  23
ENDBRANCH  19  20
BRANCH  19  26
HETATM   26  N1  UNL     1      -2.623  24.830  12.144  1.00  0.00    -0.326 NA
BRANCH  26  27
HETATM   27  S1  UNL     1      -1.802  25.173  10.799  1.00  0.00     0.299 S 
HETATM   28  O2  UNL     1      -2.322  24.431   9.562  1.00  0.00    -0.191 OA
HETATM   29  O3  UNL     1      -0.330  24.762  10.934  1.00  0.00    -0.191 OA
BRANCH  27  30
HETATM   30  C25 UNL     1      -1.727  26.885  10.270  1.00  0.00     0.084 C 
HETATM   31  C26 UNL     1      -0.731  27.046   9.163  1.00  0.00     0.034 C 
HETATM   32  C27 UNL     1      -1.220  27.733  11.447  1.00  0.00     0.034 C 
HETATM   33  C28 UNL     1      -3.099  27.401   9.927  1.00  0.00     0.034 C 
ENDBRANCH  27  30
ENDBRANCH  26  27
ENDBRANCH  19  26
ENDBRANCH   1  19
TORSDOF 10
ENDMDL
MODEL 2
REMARK VINA RESULT: -10.289084011      2.189      4.145
REMARK  10 active torsions:
REMARK  status: ('A' for Active; 'I' for Inactive)
REMARK    1  A    between atoms: C2_2  and  C3_3 
REMARK    2  A    between atoms: C4_4  and  C5_5 
REMARK    3  A    between atoms: C14_14  and  C15_15 
REMARK    4  A    between atoms: C15_15  and  C16_17 
REMARK    5  A    between atoms: C16_17  and  C18_19 
REMARK    6  A    between atoms: C18_19  and  C19_20 
REMARK    7  A    between atoms: C18_19  and  N1_26 
REMARK    8  A    between atoms: C20_21  and  C22_23 
REMARK    9  A    between atoms: N1_26  and  S1_27 
REMARK   10  A    between atoms: S1_27  and  C25_30 
ROOT
HETATM    1  C16 UNL     1      -5.123  24.969  13.061  1.00  0.00     0.121 C 
HETATM    2  C17 UNL     1      -3.804  24.567  12.393  1.00  0.00     0.026 C 
ENDROOT
BRANCH   1   3
HETATM    3  C15 UNL     1      -5.661  23.760  13.783  1.00  0.00     0.160 C 
HETATM    4  O1  UNL     1      -4.869  22.850  14.039  1.00  0.00    -0.292 OA
BRANCH   3   5
HETATM    5  C14 UNL     1      -7.053  23.699  14.150  1.00  0.00     0.057 C 
HETATM    6  C2  UNL     1      -7.608  23.614  15.323  1.00  0.00    -0.059 C 
HETATM    7  C1  UNL     1      -6.909  23.558  16.591  1.00  0.00     0.048 C 
BRANCH   6   8
HETATM    8  C3  UNL     1      -9.105  23.570  15.375  1.00  0.00     0.007 C 
HETATM    9  C4  UNL     1      -9.776  24.194  14.442  1.00  0.00     0.009 C 
BRANCH   9  10
HETATM   10  C5  UNL     1     -11.248  24.237  14.363  1.00  0.00    -0.048 C 
HETATM   11  C6  UNL     1     -11.834  23.199  13.761  1.00  0.00    -0.077 C 
HETATM   12  C7  UNL     1     -10.965  22.076  13.216  1.00  0.00     0.044 C 
HETATM   13  C8  UNL     1     -13.289  23.126  13.618  1.00  0.00     0.034 C 
HETATM   14  C9  UNL     1     -13.980  24.452  13.659  1.00  0.00     0.005 C 
HETATM   15  C10 UNL     1     -13.501  25.276  14.825  1.00  0.00     0.014 C 
HETATM   16  C11 UNL     1     -12.000  25.350  14.908  1.00  0.00    -0.020 C 
HETATM   17  C12 UNL     1     -11.541  26.666  14.259  1.00  0.00     0.020 C 
HETATM   18  C13 UNL     1     -11.700  25.474  16.411  1.00  0.00     0.020 C 
ENDBRANCH   9  10
ENDBRANCH   6   8
ENDBRANCH   3   5
ENDBRANCH   1   3
BRANCH   1  19
HETATM   19  C18 UNL     1      -4.775  26.002  14.098  1.00  0.00     0.110 C 
BRANCH  19  20
HETATM   20  C19 UNL     1      -5.938  26.749  14.620  1.00  0.00     0.044 C 
HETATM   21  C20 UNL     1      -6.126  28.033  14.492  1.00  0.00    -0.077 C 
HETATM   22  C21 UNL     1      -5.182  28.949  13.790  1.00  0.00     0.044 C 
BRANCH  21  23
HETATM   23  C22 UNL     1      -7.341  28.683  15.059  1.00  0.00     0.006 C 
HETATM   24  C23 UNL     1      -8.301  27.689  15.627  1.00  0.00     0.014 C 
HETATM   25  C24 UNL     1      -6.890  29.728  16.038  1.00  0.00     0.014 C 
ENDBRANCH  21  23
ENDBRANCH  19  20
BRANCH  19  26
HETATM   26  N1  UNL     1      -3.659  26.206  14.470  1.00  0.00    -0.326 NA
BRANCH  26  27
HETATM   27  S1  UNL     1      -2.119  26.684  14.484  1.00  0.00     0.299 S 
HETATM   28  O2  UNL     1      -1.848  27.835  15.461  1.00  0.00    -0.191 OA
HETATM   29  O3  UNL     1      -1.694  27.208  13.107  1.00  0.00    -0.191 OA
BRANCH  27  30
HETATM   30  C25 UNL     1      -0.863  25.472  14.894  1.00  0.00     0.084 C 
HETATM   31  C26 UNL     1       0.311  26.136  15.544  1.00  0.00     0.034 C 
HETATM   32  C27 UNL     1      -0.349  24.848  13.586  1.00  0.00     0.034 C 
HETATM   33  C28 UNL     1      -1.448  24.348  15.706  1.00  0.00     0.034 C 
ENDBRANCH  27  30
ENDBRANCH  26  27
ENDBRANCH  19  26
ENDBRANCH   1  19
TORSDOF 10
ENDMDL
MODEL 3
REMARK VINA RESULT: -10.192102568      2.694      4.023
REMARK  10 active torsions:
REMARK  status: ('A' for Active; 'I' for Inactive)
REMARK    1  A    between atoms: C2_2  and  C3_3 
REMARK    2  A    between atoms: C4_4  and  C5_5 
REMARK    3  A    between atoms: C14_14  and  C15_15 
REMARK    4  A    between atoms: C15_15  and  C16_17 
REMARK    5  A    between atoms: C16_17  and  C18_19 
REMARK    6  A    between atoms: C18_19  and  C19_20 
REMARK    7  A    between atoms: C18_19  and  N1_26 
REMARK    8  A    between atoms: C20_21  and  C22_23 
REMARK    9  A    between atoms: N1_26  and  S1_27 
REMARK   10  A    between atoms: S1_27  and  C25_30 
ROOT
HETATM    1  C16 UNL     1      -5.153  25.127  12.901  1.00  0.00     0.121 C 
HETATM    2  C17 UNL     1      -3.829  24.752  12.227  1.00  0.00     0.026 C 
ENDROOT
BRANCH   1   3
HETATM    3  C15 UNL     1      -5.728  23.876  13.516  1.00  0.00     0.160 C 
HETATM    4  O1  UNL     1      -4.991  22.891  13.599  1.00  0.00    -0.292 OA
BRANCH   3   5
HETATM    5  C14 UNL     1      -7.092  23.862  13.979  1.00  0.00     0.057 C 
HETATM    6  C2  UNL     1      -7.567  23.718  15.182  1.00  0.00    -0.059 C 
HETATM    7  C1  UNL     1      -6.786  23.528  16.387  1.00  0.00     0.048 C 
BRANCH   6   8
HETATM    8  C3  UNL     1      -9.057  23.750  15.342  1.00  0.00     0.007 C 
HETATM    9  C4  UNL     1      -9.782  24.125  14.320  1.00  0.00     0.009 C 
BRANCH   9  10
HETATM   10  C5  UNL     1     -11.254  24.204  14.328  1.00  0.00    -0.048 C 
HETATM   11  C6  UNL     1     -11.901  23.172  13.780  1.00  0.00    -0.077 C 
HETATM   12  C7  UNL     1     -11.094  22.018  13.204  1.00  0.00     0.044 C 
HETATM   13  C8  UNL     1     -13.364  23.134  13.726  1.00  0.00     0.034 C 
HETATM   14  C9  UNL     1     -14.018  24.478  13.785  1.00  0.00     0.005 C 
HETATM   15  C10 UNL     1     -13.449  25.308  14.906  1.00  0.00     0.014 C 
HETATM   16  C11 UNL     1     -11.944  25.345  14.897  1.00  0.00    -0.020 C 
HETATM   17  C12 UNL     1     -11.494  26.638  14.199  1.00  0.00     0.020 C 
HETATM   18  C13 UNL     1     -11.551  25.486  16.377  1.00  0.00     0.020 C 
ENDBRANCH   9  10
ENDBRANCH   6   8
ENDBRANCH   3   5
ENDBRANCH   1   3
BRANCH   1  19
HETATM   19  C18 UNL     1      -4.804  26.066  14.024  1.00  0.00     0.110 C 
BRANCH  19  20
HETATM   20  C19 UNL     1      -3.569  25.704  14.752  1.00  0.00     0.044 C 
HETATM   21  C20 UNL     1      -2.445  26.361  14.698  1.00  0.00    -0.077 C 
HETATM   22  C21 UNL     1      -2.236  27.594  13.884  1.00  0.00     0.044 C 
BRANCH  21  23
HETATM   23  C22 UNL     1      -1.259  25.905  15.479  1.00  0.00     0.006 C 
HETATM   24  C23 UNL     1      -1.327  24.449  15.807  1.00  0.00     0.014 C 
HETATM   25  C24 UNL     1      -0.027  26.307  14.722  1.00  0.00     0.014 C 
ENDBRANCH  21  23
ENDBRANCH  19  20
BRANCH  19  26
HETATM   26  N1  UNL     1      -5.461  27.020  14.309  1.00  0.00    -0.326 NA
BRANCH  26  27
HETATM   27  S1  UNL     1      -6.592  28.168  14.244  1.00  0.00     0.299 S 
HETATM   28  O2  UNL     1      -7.606  27.960  13.113  1.00  0.00    -0.191 OA
HETATM   29  O3  UNL     1      -5.965  29.544  13.984  1.00  0.00    -0.191 OA
BRANCH  27  30
HETATM   30  C25 UNL     1      -7.616  28.427  15.694  1.00  0.00     0.084 C 
HETATM   31  C26 UNL     1      -7.841  27.132  16.411  1.00  0.00     0.034 C 
HETATM   32  C27 UNL     1      -8.995  28.922  15.231  1.00  0.00     0.034 C 
HETATM   33  C28 UNL     1      -7.042  29.509  16.569  1.00  0.00     0.034 C 
ENDBRANCH  27  30
ENDBRANCH  26  27
ENDBRANCH  19  26
ENDBRANCH   1  19
TORSDOF 10
ENDMDL
MODEL 4
REMARK VINA RESULT: -10.156313303      0.748      1.295
REMARK  10 active torsions:
REMARK  status: ('A' for Active; 'I' for Inactive)
REMARK    1  A    between atoms: C2_2  and  C3_3 
REMARK    2  A    between atoms: C4_4  and  C5_5 
REMARK    3  A    between atoms: C14_14  and  C15_15 
REMARK    4  A    between atoms: C15_15  and  C16_17 
REMARK    5  A    between atoms: C16_17  and  C18_19 
REMARK    6  A    between atoms: C18_19  and  C19_20 
REMARK    7  A    between atoms: C18_19  and  N1_26 
REMARK    8  A    between atoms: C20_21  and  C22_23 
REMARK    9  A    between atoms: N1_26  and  S1_27 
REMARK   10  A    between atoms: S1_27  and  C25_30 
ROOT
HETATM    1  C16 UNL     1      -4.222  25.156  14.117  1.00  0.00     0.121 C 
HETATM    2  C17 UNL     1      -5.015  26.425  13.789  1.00  0.00     0.026 C 
ENDROOT
BRANCH   1   3
HETATM    3  C15 UNL     1      -5.088  23.971  13.774  1.00  0.00     0.160 C 
HETATM    4  O1  UNL     1      -4.532  22.878  13.641  1.00  0.00    -0.292 OA
BRANCH   3   5
HETATM    5  C14 UNL     1      -6.510  24.139  13.614  1.00  0.00     0.057 C 
HETATM    6  C2  UNL     1      -7.478  23.940  14.461  1.00  0.00    -0.059 C 
HETATM    7  C1  UNL     1      -7.331  23.479  15.826  1.00  0.00     0.048 C 
BRANCH   6   8
HETATM    8  C3  UNL     1      -8.873  24.210  13.986  1.00  0.00     0.007 C 
HETATM    9  C4  UNL     1      -9.870  23.807  14.730  1.00  0.00     0.009 C 
BRANCH   9  10
HETATM   10  C5  UNL     1     -11.293  24.002  14.394  1.00  0.00    -0.048 C 
HETATM   11  C6  UNL     1     -11.857  23.045  13.651  1.00  0.00    -0.077 C 
HETATM   12  C7  UNL     1     -11.015  21.855  13.218  1.00  0.00     0.044 C 
HETATM   13  C8  UNL     1     -13.263  23.125  13.251  1.00  0.00     0.034 C 
HETATM   14  C9  UNL     1     -13.821  24.513  13.230  1.00  0.00     0.005 C 
HETATM   15  C10 UNL     1     -13.483  25.251  14.499  1.00  0.00     0.014 C 
HETATM   16  C11 UNL     1     -12.021  25.170  14.849  1.00  0.00    -0.020 C 
HETATM   17  C12 UNL     1     -11.330  26.450  14.352  1.00  0.00     0.020 C 
HETATM   18  C13 UNL     1     -11.986  25.221  16.385  1.00  0.00     0.020 C 
ENDBRANCH   9  10
ENDBRANCH   6   8
ENDBRANCH   3   5
ENDBRANCH   1   3
BRANCH   1  19
HETATM   19  C18 UNL     1      -3.042  25.142  13.184  1.00  0.00     0.110 C 
BRANCH  19  20
HETATM   20  C19 UNL     1      -1.865  24.418  13.710  1.00  0.00     0.044 C 
HETATM   21  C20 UNL     1      -0.994  24.907  14.548  1.00  0.00    -0.077 C 
HETATM   22  C21 UNL     1      -1.058  26.288  15.107  1.00  0.00     0.044 C 
BRANCH  21  23
HETATM   23  C22 UNL     1       0.157  24.083  15.014  1.00  0.00     0.006 C 
HETATM   24  C23 UNL     1       1.209  24.909  15.680  1.00  0.00     0.014 C 
HETATM   25  C24 UNL     1      -0.385  22.975  15.870  1.00  0.00     0.014 C 
ENDBRANCH  21  23
ENDBRANCH  19  20
BRANCH  19  26
HETATM   26  N1  UNL     1      -3.046  25.668  12.113  1.00  0.00    -0.326 NA
BRANCH  26  27
HETATM   27  S1  UNL     1      -2.590  26.123  10.634  1.00  0.00     0.299 S 
HETATM   28  O2  UNL     1      -3.617  27.015   9.928  1.00  0.00    -0.191 OA
HETATM   29  O3  UNL     1      -2.406  24.906   9.718  1.00  0.00    -0.191 OA
BRANCH  27  30
HETATM   30  C25 UNL     1      -1.050  27.027  10.467  1.00  0.00     0.084 C 
HETATM   31  C26 UNL     1      -0.681  27.673  11.766  1.00  0.00     0.034 C 
HETATM   32  C27 UNL     1      -1.264  28.163   9.454  1.00  0.00     0.034 C 
HETATM   33  C28 UNL     1       0.030  26.145   9.902  1.00  0.00     0.034 C 
ENDBRANCH  27  30
ENDBRANCH  26  27
ENDBRANCH  19  26
ENDBRANCH   1  19
TORSDOF 10
ENDMDL
MODEL 5
REMARK VINA RESULT: -9.810882483      1.815      3.356
REMARK  10 active torsions:
REMARK  status: ('A' for Active; 'I' for Inactive)
REMARK    1  A    between atoms: C2_2  and  C3_3 
REMARK    2  A    between atoms: C4_4  and  C5_5 
REMARK    3  A    between atoms: C14_14  and  C15_15 
REMARK    4  A    between atoms: C15_15  and  C16_17 
REMARK    5  A    between atoms: C16_17  and  C18_19 
REMARK    6  A    between atoms: C18_19  and  C19_20 
REMARK    7  A    between atoms: C18_19  and  N1_26 
REMARK    8  A    between atoms: C20_21  and  C22_23 
REMARK    9  A    between atoms: N1_26  and  S1_27 
REMARK   10  A    between atoms: S1_27  and  C25_30 
ROOT
HETATM    1  C16 UNL     1      -4.080  24.838  13.759  1.00  0.00     0.121 C 
HETATM    2  C17 UNL     1      -4.251  25.531  15.114  1.00  0.00     0.026 C 
ENDROOT
BRANCH   1   3
HETATM    3  C15 UNL     1      -5.055  23.690  13.702  1.00  0.00     0.160 C 
HETATM    4  O1  UNL     1      -4.593  22.547  13.757  1.00  0.00    -0.292 OA
BRANCH   3   5
HETATM    5  C14 UNL     1      -6.468  23.947  13.589  1.00  0.00     0.057 C 
HETATM    6  C2  UNL     1      -7.407  23.877  14.486  1.00  0.00    -0.059 C 
HETATM    7  C1  UNL     1      -7.231  23.501  15.873  1.00  0.00     0.048 C 
BRANCH   6   8
HETATM    8  C3  UNL     1      -8.801  24.212  14.050  1.00  0.00     0.007 C 
HETATM    9  C4  UNL     1      -9.801  23.681  14.705  1.00  0.00     0.009 C 
BRANCH   9  10
HETATM   10  C5  UNL     1     -11.222  23.920  14.393  1.00  0.00    -0.048 C 
HETATM   11  C6  UNL     1     -11.818  22.999  13.631  1.00  0.00    -0.077 C 
HETATM   12  C7  UNL     1     -11.010  21.802  13.153  1.00  0.00     0.044 C 
HETATM   13  C8  UNL     1     -13.226  23.123  13.251  1.00  0.00     0.034 C 
HETATM   14  C9  UNL     1     -13.751  24.524  13.277  1.00  0.00     0.005 C 
HETATM   15  C10 UNL     1     -13.380  25.217  14.562  1.00  0.00     0.014 C 
HETATM   16  C11 UNL     1     -11.917  25.091  14.890  1.00  0.00    -0.020 C 
HETATM   17  C12 UNL     1     -11.201  26.368  14.421  1.00  0.00     0.020 C 
HETATM   18  C13 UNL     1     -11.862  25.097  16.427  1.00  0.00     0.020 C 
ENDBRANCH   9  10
ENDBRANCH   6   8
ENDBRANCH   3   5
ENDBRANCH   1   3
BRANCH   1  19
HETATM   19  C18 UNL     1      -4.498  25.840  12.716  1.00  0.00     0.110 C 
BRANCH  19  20
HETATM   20  C19 UNL     1      -5.698  26.623  13.078  1.00  0.00     0.044 C 
HETATM   21  C20 UNL     1      -5.697  27.869  13.462  1.00  0.00    -0.077 C 
HETATM   22  C21 UNL     1      -4.465  28.700  13.593  1.00  0.00     0.044 C 
BRANCH  21  23
HETATM   23  C22 UNL     1      -6.972  28.562  13.801  1.00  0.00     0.006 C 
HETATM   24  C23 UNL     1      -8.169  27.812  13.313  1.00  0.00     0.014 C 
HETATM   25  C24 UNL     1      -6.974  28.825  15.279  1.00  0.00     0.014 C 
ENDBRANCH  21  23
ENDBRANCH  19  20
BRANCH  19  26
HETATM   26  N1  UNL     1      -3.917  25.994  11.685  1.00  0.00    -0.326 NA
BRANCH  26  27
HETATM   27  S1  UNL     1      -2.725  26.059  10.600  1.00  0.00     0.299 S 
HETATM   28  O2  UNL     1      -2.990  27.055   9.465  1.00  0.00    -0.191 OA
HETATM   29  O3  UNL     1      -2.532  24.700   9.916  1.00  0.00    -0.191 OA
BRANCH  27  30
HETATM   30  C25 UNL     1      -1.083  26.492  11.175  1.00  0.00     0.084 C 
HETATM   31  C26 UNL     1      -0.233  26.950  10.031  1.00  0.00     0.034 C 
HETATM   32  C27 UNL     1      -0.418  25.227  11.740  1.00  0.00     0.034 C 
HETATM   33  C28 UNL     1      -1.155  27.482  12.307  1.00  0.00     0.034 C 
ENDBRANCH  27  30
ENDBRANCH  26  27
ENDBRANCH  19  26
ENDBRANCH   1  19
TORSDOF 10
ENDMDL
