MODEL 1
REMARK VINA RESULT: -9.431986460      0.000      0.000
REMARK  7 active torsions:
REMARK  status: ('A' for Active; 'I' for Inactive)
REMARK    1  A    between atoms: C2_2  and  O1_3 
REMARK    2  A    between atoms: O1_3  and  C3_4 
REMARK    3  A    between atoms: C3_4  and  C4_6 
REMARK    4  A    between atoms: C11_13  and  C12_14 
REMARK    5  A    between atoms: C12_14  and  C13_15 
REMARK    6  A    between atoms: C13_15  and  C14_16 
REMARK    7  A    between atoms: C14_16  and  C15_17 
ROOT
HETATM    1  C4  UNL     1      -8.813  27.444  15.092  1.00  0.00     0.072 C 
HETATM    2  C5  UNL     1      -8.516  28.305  16.255  1.00  0.00     0.024 C 
HETATM    3  C6  UNL     1      -8.016  29.724  15.901  1.00  0.00     0.002 C 
HETATM    4  C7  UNL     1      -6.734  29.705  15.014  1.00  0.00     0.005 C 
HETATM    5  C8  UNL     1      -6.723  28.341  14.563  1.00  0.00    -0.009 C 
HETATM    6  C9  UNL     1      -5.835  27.506  13.797  1.00  0.00     0.043 C 
HETATM    7  C10 UNL     1      -5.666  26.211  14.617  1.00  0.00    -0.054 C 
HETATM    8  C11 UNL     1      -4.520  25.432  14.253  1.00  0.00    -0.019 C 
HETATM    9  C20 UNL     1      -6.899  25.737  15.277  1.00  0.00    -0.042 C 
HETATM   10  C21 UNL     1      -6.814  24.250  15.572  1.00  0.00     0.038 C 
HETATM   11  C22 UNL     1      -7.591  23.864  16.844  1.00  0.00     0.016 C 
HETATM   12  C23 UNL     1      -8.463  22.671  16.664  1.00  0.00     0.045 C 
HETATM   13  C24 UNL     1      -9.479  22.899  15.565  1.00  0.00     0.063 C 
HETATM   14  N1  UNL     1      -8.788  23.336  14.432  1.00  0.00    -0.373 N 
HETATM   15  C25 UNL     1      -9.378  24.226  13.523  1.00  0.00     0.067 C 
HETATM   16  C26 UNL     1      -8.744  25.598  13.538  1.00  0.00     0.081 C 
HETATM   17  C27 UNL     1      -8.275  26.079  14.892  1.00  0.00    -0.050 C 
HETATM   18  C28 UNL     1      -7.359  23.370  14.495  1.00  0.00     0.136 C 
HETATM   19  C29 UNL     1      -8.095  28.184  13.953  1.00  0.00     0.029 C 
ENDROOT
BRANCH   8  20
HETATM   20  C12 UNL     1      -4.194  24.809  12.952  1.00  0.00     0.028 C 
BRANCH  20  21
HETATM   21  C13 UNL     1      -2.849  24.204  12.746  1.00  0.00     0.005 C 
BRANCH  21  22
HETATM   22  C14 UNL     1      -1.660  25.020  13.048  1.00  0.00     0.020 C 
BRANCH  22  23
HETATM   23  C15 UNL     1      -0.991  25.012  14.349  1.00  0.00     0.004 C 
HETATM   24  C16 UNL     1      -1.028  26.237  15.193  1.00  0.00     0.027 C 
HETATM   25  C17 UNL     1      -1.487  23.838  15.209  1.00  0.00     0.021 C 
HETATM   26  C18 UNL     1      -0.436  23.550  16.229  1.00  0.00     0.012 C 
HETATM   27  C19 UNL     1       0.839  23.226  15.459  1.00  0.00     0.075 C 
HETATM   28  S1  UNL     1       0.782  24.528  14.199  1.00  0.00    -0.159 SA
ENDBRANCH  22  23
ENDBRANCH  21  22
ENDBRANCH  20  21
ENDBRANCH   8  20
BRANCH   1  29
HETATM   29  C3  UNL     1     -10.278  27.474  14.895  1.00  0.00     0.272 C 
HETATM   30  O2  UNL     1     -10.760  28.265  14.061  1.00  0.00    -0.264 OA
BRANCH  29  31
HETATM   31  O1  UNL     1     -11.146  26.656  15.600  1.00  0.00    -0.321 OA
BRANCH  31  32
HETATM   32  C2  UNL     1     -12.250  26.008  15.042  1.00  0.00     0.174 C 
HETATM   33  C1  UNL     1     -12.390  24.654  15.741  1.00  0.00     0.034 C 
ENDBRANCH  31  32
ENDBRANCH  29  31
ENDBRANCH   1  29
TORSDOF 7
ENDMDL
MODEL 2
REMARK VINA RESULT: -9.425513606      0.724      1.012
REMARK  7 active torsions:
REMARK  status: ('A' for Active; 'I' for Inactive)
REMARK    1  A    between atoms: C2_2  and  O1_3 
REMARK    2  A    between atoms: O1_3  and  C3_4 
REMARK    3  A    between atoms: C3_4  and  C4_6 
REMARK    4  A    between atoms: C11_13  and  C12_14 
REMARK    5  A    between atoms: C12_14  and  C13_15 
REMARK    6  A    between atoms: C13_15  and  C14_16 
REMARK    7  A    between atoms: C14_16  and  C15_17 
ROOT
HETATM    1  C4  UNL     1      -8.709  27.458  15.098  1.00  0.00     0.072 C 
HETATM    2  C5  UNL     1      -8.411  28.311  16.267  1.00  0.00     0.024 C 
HETATM    3  C6  UNL     1      -7.918  29.735  15.922  1.00  0.00     0.002 C 
HETATM    4  C7  UNL     1      -6.638  29.727  15.031  1.00  0.00     0.005 C 
HETATM    5  C8  UNL     1      -6.624  28.367  14.569  1.00  0.00    -0.009 C 
HETATM    6  C9  UNL     1      -5.736  27.541  13.793  1.00  0.00     0.043 C 
HETATM    7  C10 UNL     1      -5.560  26.240  14.603  1.00  0.00    -0.054 C 
HETATM    8  C11 UNL     1      -4.412  25.468  14.229  1.00  0.00    -0.019 C 
HETATM    9  C20 UNL     1      -6.788  25.757  15.263  1.00  0.00    -0.042 C 
HETATM   10  C21 UNL     1      -6.697  24.268  15.546  1.00  0.00     0.038 C 
HETATM   11  C22 UNL     1      -7.468  23.869  16.819  1.00  0.00     0.016 C 
HETATM   12  C23 UNL     1      -8.337  22.675  16.632  1.00  0.00     0.045 C 
HETATM   13  C24 UNL     1      -9.358  22.907  15.538  1.00  0.00     0.063 C 
HETATM   14  N1  UNL     1      -8.672  23.356  14.406  1.00  0.00    -0.373 N 
HETATM   15  C25 UNL     1      -9.268  24.251  13.506  1.00  0.00     0.067 C 
HETATM   16  C26 UNL     1      -8.639  25.624  13.530  1.00  0.00     0.081 C 
HETATM   17  C27 UNL     1      -8.167  26.097  14.886  1.00  0.00    -0.050 C 
HETATM   18  C28 UNL     1      -7.243  23.394  14.465  1.00  0.00     0.136 C 
HETATM   19  C29 UNL     1      -7.998  28.210  13.962  1.00  0.00     0.029 C 
ENDROOT
BRANCH   8  20
HETATM   20  C12 UNL     1      -4.089  24.856  12.921  1.00  0.00     0.028 C 
BRANCH  20  21
HETATM   21  C13 UNL     1      -2.789  24.151  12.744  1.00  0.00     0.005 C 
BRANCH  21  22
HETATM   22  C14 UNL     1      -1.550  24.868  13.093  1.00  0.00     0.020 C 
BRANCH  22  23
HETATM   23  C15 UNL     1      -0.837  24.670  14.355  1.00  0.00     0.004 C 
HETATM   24  C16 UNL     1      -1.350  23.671  15.331  1.00  0.00     0.027 C 
HETATM   25  C17 UNL     1       0.646  24.354  14.099  1.00  0.00     0.021 C 
HETATM   26  C18 UNL     1       1.402  24.705  15.337  1.00  0.00     0.012 C 
HETATM   27  C19 UNL     1       1.146  26.185  15.597  1.00  0.00     0.075 C 
HETATM   28  S1  UNL     1      -0.636  26.254  15.278  1.00  0.00    -0.159 SA
ENDBRANCH  22  23
ENDBRANCH  21  22
ENDBRANCH  20  21
ENDBRANCH   8  20
BRANCH   1  29
HETATM   29  C3  UNL     1     -10.174  27.485  14.907  1.00  0.00     0.272 C 
HETATM   30  O2  UNL     1     -10.663  28.285  14.086  1.00  0.00    -0.264 OA
BRANCH  29  31
HETATM   31  O1  UNL     1     -11.037  26.653  15.603  1.00  0.00    -0.321 OA
BRANCH  31  32
HETATM   32  C2  UNL     1     -12.133  25.999  15.038  1.00  0.00     0.174 C 
HETATM   33  C1  UNL     1     -12.313  24.675  15.783  1.00  0.00     0.034 C 
ENDBRANCH  31  32
ENDBRANCH  29  31
ENDBRANCH   1  29
TORSDOF 7
ENDMDL
MODEL 3
REMARK VINA RESULT: -9.316323295      0.903      1.103
REMARK  7 active torsions:
REMARK  status: ('A' for Active; 'I' for Inactive)
REMARK    1  A    between atoms: C2_2  and  O1_3 
REMARK    2  A    between atoms: O1_3  and  C3_4 
REMARK    3  A    between atoms: C3_4  and  C4_6 
REMARK    4  A    between atoms: C11_13  and  C12_14 
REMARK    5  A    between atoms: C12_14  and  C13_15 
REMARK    6  A    between atoms: C13_15  and  C14_16 
REMARK    7  A    between atoms: C14_16  and  C15_17 
ROOT
HETATM    1  C4  UNL     1      -8.949  27.278  15.081  1.00  0.00     0.072 C 
HETATM    2  C5  UNL     1      -8.644  28.212  16.185  1.00  0.00     0.024 C 
HETATM    3  C6  UNL     1      -7.953  29.525  15.751  1.00  0.00     0.002 C 
HETATM    4  C7  UNL     1      -6.617  29.276  14.987  1.00  0.00     0.005 C 
HETATM    5  C8  UNL     1      -6.732  27.881  14.662  1.00  0.00    -0.009 C 
HETATM    6  C9  UNL     1      -5.893  26.881  14.056  1.00  0.00     0.043 C 
HETATM    7  C10 UNL     1      -5.944  25.663  15.000  1.00  0.00    -0.054 C 
HETATM    8  C11 UNL     1      -4.874  24.730  14.810  1.00  0.00    -0.019 C 
HETATM    9  C20 UNL     1      -7.272  25.396  15.588  1.00  0.00    -0.042 C 
HETATM   10  C21 UNL     1      -7.388  23.946  16.020  1.00  0.00     0.038 C 
HETATM   11  C22 UNL     1      -8.302  23.776  17.248  1.00  0.00     0.016 C 
HETATM   12  C23 UNL     1      -9.293  22.675  17.099  1.00  0.00     0.045 C 
HETATM   13  C24 UNL     1     -10.187  22.905  15.897  1.00  0.00     0.063 C 
HETATM   14  N1  UNL     1      -9.362  23.149  14.796  1.00  0.00    -0.373 N 
HETATM   15  C25 UNL     1      -9.769  24.004  13.762  1.00  0.00     0.067 C 
HETATM   16  C26 UNL     1      -8.980  25.291  13.712  1.00  0.00     0.081 C 
HETATM   17  C27 UNL     1      -8.564  25.850  15.053  1.00  0.00    -0.050 C 
HETATM   18  C28 UNL     1      -7.949  23.030  14.983  1.00  0.00     0.136 C 
HETATM   19  C29 UNL     1      -8.062  27.818  13.949  1.00  0.00     0.029 C 
ENDROOT
BRANCH   8  20
HETATM   20  C12 UNL     1      -4.524  23.948  13.604  1.00  0.00     0.028 C 
BRANCH  20  21
HETATM   21  C13 UNL     1      -3.215  24.183  12.933  1.00  0.00     0.005 C 
BRANCH  21  22
HETATM   22  C14 UNL     1      -2.747  25.571  12.777  1.00  0.00     0.020 C 
BRANCH  22  23
HETATM   23  C15 UNL     1      -1.473  26.052  13.310  1.00  0.00     0.004 C 
HETATM   24  C16 UNL     1      -0.842  27.258  12.709  1.00  0.00     0.027 C 
HETATM   25  C17 UNL     1      -1.569  26.282  14.827  1.00  0.00     0.021 C 
HETATM   26  C18 UNL     1      -0.185  26.224  15.382  1.00  0.00     0.012 C 
HETATM   27  C19 UNL     1       0.368  24.849  15.024  1.00  0.00     0.075 C 
HETATM   28  S1  UNL     1      -0.190  24.727  13.304  1.00  0.00    -0.159 SA
ENDBRANCH  22  23
ENDBRANCH  21  22
ENDBRANCH  20  21
ENDBRANCH   8  20
BRANCH   1  29
HETATM   29  C3  UNL     1     -10.380  27.452  14.754  1.00  0.00     0.272 C 
HETATM   30  O2  UNL     1     -10.712  28.339  13.944  1.00  0.00    -0.264 OA
BRANCH  29  31
HETATM   31  O1  UNL     1     -11.377  26.665  15.309  1.00  0.00    -0.321 OA
BRANCH  31  32
HETATM   32  C2  UNL     1     -12.465  26.151  14.600  1.00  0.00     0.174 C 
HETATM   33  C1  UNL     1     -13.004  24.956  15.389  1.00  0.00     0.034 C 
ENDBRANCH  31  32
ENDBRANCH  29  31
ENDBRANCH   1  29
TORSDOF 7
ENDMDL
MODEL 4
REMARK VINA RESULT: -9.307596103      1.619      2.617
REMARK  7 active torsions:
REMARK  status: ('A' for Active; 'I' for Inactive)
REMARK    1  A    between atoms: C2_2  and  O1_3 
REMARK    2  A    between atoms: O1_3  and  C3_4 
REMARK    3  A    between atoms: C3_4  and  C4_6 
REMARK    4  A    between atoms: C11_13  and  C12_14 
REMARK    5  A    between atoms: C12_14  and  C13_15 
REMARK    6  A    between atoms: C13_15  and  C14_16 
REMARK    7  A    between atoms: C14_16  and  C15_17 
ROOT
HETATM    1  C4  UNL     1      -8.993  27.309  15.086  1.00  0.00     0.072 C 
HETATM    2  C5  UNL     1      -8.745  28.219  16.223  1.00  0.00     0.024 C 
HETATM    3  C6  UNL     1      -8.085  29.564  15.845  1.00  0.00     0.002 C 
HETATM    4  C7  UNL     1      -6.723  29.379  15.110  1.00  0.00     0.005 C 
HETATM    5  C8  UNL     1      -6.786  27.992  14.742  1.00  0.00    -0.009 C 
HETATM    6  C9  UNL     1      -5.901  27.036  14.130  1.00  0.00     0.043 C 
HETATM    7  C10 UNL     1      -5.937  25.790  15.037  1.00  0.00    -0.054 C 
HETATM    8  C11 UNL     1      -4.833  24.896  14.849  1.00  0.00    -0.019 C 
HETATM    9  C20 UNL     1      -7.271  25.465  15.582  1.00  0.00    -0.042 C 
HETATM   10  C21 UNL     1      -7.352  23.999  15.970  1.00  0.00     0.038 C 
HETATM   11  C22 UNL     1      -8.290  23.766  17.168  1.00  0.00     0.016 C 
HETATM   12  C23 UNL     1      -9.242  22.640  16.961  1.00  0.00     0.045 C 
HETATM   13  C24 UNL     1     -10.112  22.877  15.744  1.00  0.00     0.063 C 
HETATM   14  N1  UNL     1      -9.268  23.178  14.671  1.00  0.00    -0.373 N 
HETATM   15  C25 UNL     1      -9.675  24.051  13.652  1.00  0.00     0.067 C 
HETATM   16  C26 UNL     1      -8.926  25.363  13.659  1.00  0.00     0.081 C 
HETATM   17  C27 UNL     1      -8.562  25.894  15.026  1.00  0.00    -0.050 C 
HETATM   18  C28 UNL     1      -7.857  23.098  14.892  1.00  0.00     0.136 C 
HETATM   19  C29 UNL     1      -8.095  27.908  13.993  1.00  0.00     0.029 C 
ENDROOT
BRANCH   8  20
HETATM   20  C12 UNL     1      -4.429  24.161  13.630  1.00  0.00     0.028 C 
BRANCH  20  21
HETATM   21  C13 UNL     1      -3.006  24.199  13.190  1.00  0.00     0.005 C 
BRANCH  21  22
HETATM   22  C14 UNL     1      -2.450  25.482  12.727  1.00  0.00     0.020 C 
BRANCH  22  23
HETATM   23  C15 UNL     1      -2.346  25.847  11.314  1.00  0.00     0.004 C 
HETATM   24  C16 UNL     1      -2.238  24.771  10.291  1.00  0.00     0.027 C 
HETATM   25  C17 UNL     1      -3.506  26.768  10.902  1.00  0.00     0.021 C 
HETATM   26  C18 UNL     1      -3.073  27.526   9.691  1.00  0.00     0.012 C 
HETATM   27  C19 UNL     1      -1.816  28.293  10.086  1.00  0.00     0.075 C 
HETATM   28  S1  UNL     1      -0.942  27.003  11.012  1.00  0.00    -0.159 SA
ENDBRANCH  22  23
ENDBRANCH  21  22
ENDBRANCH  20  21
ENDBRANCH   8  20
BRANCH   1  29
HETATM   29  C3  UNL     1     -10.420  27.448  14.726  1.00  0.00     0.272 C 
HETATM   30  O2  UNL     1     -10.757  28.335  13.919  1.00  0.00    -0.264 OA
BRANCH  29  31
HETATM   31  O1  UNL     1     -11.408  26.628  15.247  1.00  0.00    -0.321 OA
BRANCH  31  32
HETATM   32  C2  UNL     1     -12.401  26.006  14.487  1.00  0.00     0.174 C 
HETATM   33  C1  UNL     1     -13.058  24.943  15.371  1.00  0.00     0.034 C 
ENDBRANCH  31  32
ENDBRANCH  29  31
ENDBRANCH   1  29
TORSDOF 7
ENDMDL
MODEL 5
REMARK VINA RESULT: -9.214897564      1.907      2.632
REMARK  7 active torsions:
REMARK  status: ('A' for Active; 'I' for Inactive)
REMARK    1  A    between atoms: C2_2  and  O1_3 
REMARK    2  A    between atoms: O1_3  and  C3_4 
REMARK    3  A    between atoms: C3_4  and  C4_6 
REMARK    4  A    between atoms: C11_13  and  C12_14 
REMARK    5  A    between atoms: C12_14  and  C13_15 
REMARK    6  A    between atoms: C13_15  and  C14_16 
REMARK    7  A    between atoms: C14_16  and  C15_17 
ROOT
HETATM    1  C4  UNL     1      -8.765  27.427  15.090  1.00  0.00     0.072 C 
HETATM    2  C5  UNL     1      -8.447  28.303  16.237  1.00  0.00     0.024 C 
HETATM    3  C6  UNL     1      -7.913  29.703  15.855  1.00  0.00     0.002 C 
HETATM    4  C7  UNL     1      -6.632  29.635  14.969  1.00  0.00     0.005 C 
HETATM    5  C8  UNL     1      -6.653  28.263  14.544  1.00  0.00    -0.009 C 
HETATM    6  C9  UNL     1      -5.787  27.392  13.795  1.00  0.00     0.043 C 
HETATM    7  C10 UNL     1      -5.649  26.110  14.639  1.00  0.00    -0.054 C 
HETATM    8  C11 UNL     1      -4.522  25.297  14.291  1.00  0.00    -0.019 C 
HETATM    9  C20 UNL     1      -6.893  25.678  15.308  1.00  0.00    -0.042 C 
HETATM   10  C21 UNL     1      -6.844  24.196  15.631  1.00  0.00     0.038 C 
HETATM   11  C22 UNL     1      -7.629  23.854  16.911  1.00  0.00     0.016 C 
HETATM   12  C23 UNL     1      -8.530  22.679  16.754  1.00  0.00     0.045 C 
HETATM   13  C24 UNL     1      -9.541  22.910  15.650  1.00  0.00     0.063 C 
HETATM   14  N1  UNL     1      -8.840  23.309  14.509  1.00  0.00    -0.373 N 
HETATM   15  C25 UNL     1      -9.408  24.195  13.583  1.00  0.00     0.067 C 
HETATM   16  C26 UNL     1      -8.741  25.551  13.572  1.00  0.00     0.081 C 
HETATM   17  C27 UNL     1      -8.261  26.047  14.916  1.00  0.00    -0.050 C 
HETATM   18  C28 UNL     1      -7.411  23.309  14.572  1.00  0.00     0.136 C 
HETATM   19  C29 UNL     1      -8.030  28.128  13.937  1.00  0.00     0.029 C 
ENDROOT
BRANCH   8  20
HETATM   20  C12 UNL     1      -4.212  24.640  13.001  1.00  0.00     0.028 C 
BRANCH  20  21
HETATM   21  C13 UNL     1      -3.054  25.118  12.196  1.00  0.00     0.005 C 
BRANCH  21  22
HETATM   22  C14 UNL     1      -3.159  26.425  11.525  1.00  0.00     0.020 C 
BRANCH  22  23
HETATM   23  C15 UNL     1      -2.330  26.808  10.382  1.00  0.00     0.004 C 
HETATM   24  C16 UNL     1      -2.914  27.663   9.314  1.00  0.00     0.027 C 
HETATM   25  C17 UNL     1      -1.027  27.476  10.854  1.00  0.00     0.021 C 
HETATM   26  C18 UNL     1      -0.026  27.339   9.756  1.00  0.00     0.012 C 
HETATM   27  C19 UNL     1       0.132  25.844   9.498  1.00  0.00     0.075 C 
HETATM   28  S1  UNL     1      -1.607  25.335   9.542  1.00  0.00    -0.159 SA
ENDBRANCH  22  23
ENDBRANCH  21  22
ENDBRANCH  20  21
ENDBRANCH   8  20
BRANCH   1  29
HETATM   29  C3  UNL     1     -10.228  27.490  14.893  1.00  0.00     0.272 C 
HETATM   30  O2  UNL     1     -10.693  28.297  14.066  1.00  0.00    -0.264 OA
BRANCH  29  31
HETATM   31  O1  UNL     1     -11.114  26.683  15.589  1.00  0.00    -0.321 OA
BRANCH  31  32
HETATM   32  C2  UNL     1     -12.219  26.048  15.021  1.00  0.00     0.174 C 
HETATM   33  C1  UNL     1     -12.423  24.726  15.765  1.00  0.00     0.034 C 
ENDBRANCH  31  32
ENDBRANCH  29  31
ENDBRANCH   1  29
TORSDOF 7
ENDMDL
