MODEL 1
REMARK VINA RESULT: -10.305727858      0.000      0.000
REMARK  7 active torsions:
REMARK  status: ('A' for Active; 'I' for Inactive)
REMARK    1  A    between atoms: C2_2  and  C4_4 
REMARK    2  A    between atoms: C4_4  and  C5_5 
REMARK    3  A    between atoms: C5_5  and  C6_6 
REMARK    4  A    between atoms: C6_6  and  C7_7 
REMARK    5  A    between atoms: C7_7  and  C9_9 
REMARK    6  A    between atoms: C25_27  and  C26_28 
REMARK    7  A    between atoms: C26_28  and  N1_29 
ROOT
HETATM    1  C9  UNL     1      -3.834  27.949  13.308  1.00  0.00     0.023 C 
HETATM    2  C10 UNL     1      -2.764  27.944  14.386  1.00  0.00     0.009 C 
HETATM    3  C11 UNL     1      -2.610  26.704  15.161  1.00  0.00     0.011 C 
HETATM    4  C12 UNL     1      -1.525  25.774  14.663  1.00  0.00    -0.025 C 
HETATM    5  C13 UNL     1      -0.247  26.543  14.635  1.00  0.00     0.016 C 
HETATM    6  C14 UNL     1      -1.375  24.534  15.490  1.00  0.00     0.027 C 
HETATM    7  C15 UNL     1      -0.096  24.258  16.186  1.00  0.00     0.045 C 
HETATM    8  C16 UNL     1       0.642  23.279  15.298  1.00  0.00     0.054 C 
HETATM    9  C17 UNL     1       0.185  21.869  15.593  1.00  0.00     0.045 C 
HETATM   10  C18 UNL     1       2.133  23.313  15.471  1.00  0.00     0.045 C 
HETATM   11  O1  UNL     1       0.227  23.695  14.013  1.00  0.00    -0.374 OA
HETATM   12  C19 UNL     1      -1.130  23.794  14.158  1.00  0.00     0.139 C 
HETATM   13  C20 UNL     1      -1.895  24.900  13.547  1.00  0.00     0.022 C 
HETATM   14  C21 UNL     1      -1.303  25.579  12.307  1.00  0.00     0.018 C 
HETATM   15  C22 UNL     1      -2.129  26.746  11.914  1.00  0.00     0.039 C 
HETATM   16  C23 UNL     1      -3.564  26.775  12.349  1.00  0.00     0.062 C 
HETATM   17  C24 UNL     1      -4.365  26.872  11.076  1.00  0.00     0.046 C 
HETATM   18  O2  UNL     1      -4.037  25.694  13.017  1.00  0.00    -0.372 OA
HETATM   19  C25 UNL     1      -3.269  24.602  13.187  1.00  0.00     0.152 C 
ENDROOT
BRANCH   1  20
HETATM   20  C7  UNL     1      -5.188  27.949  13.914  1.00  0.00    -0.012 C 
HETATM   21  C8  UNL     1      -5.565  29.301  14.538  1.00  0.00     0.010 C 
BRANCH  20  22
HETATM   22  C6  UNL     1      -6.367  27.492  13.179  1.00  0.00     0.005 C 
BRANCH  22  23
HETATM   23  C5  UNL     1      -7.631  28.289  13.435  1.00  0.00     0.001 C 
BRANCH  23  24
HETATM   24  C4  UNL     1      -8.667  27.337  13.937  1.00  0.00     0.004 C 
BRANCH  24  25
HETATM   25  C2  UNL     1      -9.152  27.644  15.328  1.00  0.00    -0.023 C 
HETATM   26  C1  UNL     1      -8.102  27.106  16.290  1.00  0.00     0.009 C 
HETATM   27  C3  UNL     1      -9.231  29.139  15.579  1.00  0.00     0.009 C 
ENDBRANCH  24  25
ENDBRANCH  23  24
ENDBRANCH  22  23
ENDBRANCH  20  22
ENDBRANCH   1  20
BRANCH  19  28
HETATM   28  C26 UNL     1      -4.056  23.596  13.975  1.00  0.00     0.154 C 
BRANCH  28  29
HETATM   29  N1  UNL     1      -5.348  24.128  14.311  1.00  0.00    -0.391 N 
HETATM   30  C27 UNL     1      -6.432  23.729  13.542  1.00  0.00     0.122 C 
HETATM   31  C28 UNL     1      -7.735  24.007  14.295  1.00  0.00     0.020 C 
HETATM   32  C29 UNL     1      -7.708  23.227  15.593  1.00  0.00     0.007 C 
HETATM   33  C30 UNL     1      -6.429  23.474  16.361  1.00  0.00     0.044 C 
HETATM   34  C31 UNL     1      -5.540  24.494  15.656  1.00  0.00     0.058 C 
ENDBRANCH  28  29
ENDBRANCH  19  28
TORSDOF 7
ENDMDL
MODEL 2
REMARK VINA RESULT: -9.635723304      1.043      1.521
REMARK  7 active torsions:
REMARK  status: ('A' for Active; 'I' for Inactive)
REMARK    1  A    between atoms: C2_2  and  C4_4 
REMARK    2  A    between atoms: C4_4  and  C5_5 
REMARK    3  A    between atoms: C5_5  and  C6_6 
REMARK    4  A    between atoms: C6_6  and  C7_7 
REMARK    5  A    between atoms: C7_7  and  C9_9 
REMARK    6  A    between atoms: C25_27  and  C26_28 
REMARK    7  A    between atoms: C26_28  and  N1_29 
ROOT
HETATM    1  C9  UNL     1      -4.390  28.003  12.895  1.00  0.00     0.023 C 
HETATM    2  C10 UNL     1      -2.994  28.200  13.461  1.00  0.00     0.009 C 
HETATM    3  C11 UNL     1      -2.626  27.373  14.619  1.00  0.00     0.011 C 
HETATM    4  C12 UNL     1      -1.862  26.110  14.283  1.00  0.00    -0.025 C 
HETATM    5  C13 UNL     1      -0.650  26.507  13.510  1.00  0.00     0.016 C 
HETATM    6  C14 UNL     1      -1.479  25.306  15.487  1.00  0.00     0.027 C 
HETATM    7  C15 UNL     1      -0.048  25.062  15.790  1.00  0.00     0.045 C 
HETATM    8  C16 UNL     1       0.244  23.675  15.260  1.00  0.00     0.054 C 
HETATM    9  C17 UNL     1      -0.143  22.636  16.287  1.00  0.00     0.045 C 
HETATM   10  C18 UNL     1       1.690  23.451  14.919  1.00  0.00     0.045 C 
HETATM   11  O1  UNL     1      -0.602  23.620  14.130  1.00  0.00    -0.374 OA
HETATM   12  C19 UNL     1      -1.795  24.060  14.633  1.00  0.00     0.139 C 
HETATM   13  C20 UNL     1      -2.674  24.965  13.863  1.00  0.00     0.022 C 
HETATM   14  C21 UNL     1      -2.558  24.945  12.336  1.00  0.00     0.018 C 
HETATM   15  C22 UNL     1      -3.407  26.004  11.740  1.00  0.00     0.039 C 
HETATM   16  C23 UNL     1      -4.567  26.515  12.541  1.00  0.00     0.062 C 
HETATM   17  C24 UNL     1      -5.783  26.265  11.687  1.00  0.00     0.046 C 
HETATM   18  O2  UNL     1      -4.810  25.924  13.737  1.00  0.00    -0.372 OA
HETATM   19  C25 UNL     1      -4.096  24.853  14.131  1.00  0.00     0.152 C 
ENDROOT
BRANCH   1  20
HETATM   20  C7  UNL     1      -5.411  28.540  13.827  1.00  0.00    -0.012 C 
HETATM   21  C8  UNL     1      -5.336  30.065  13.987  1.00  0.00     0.010 C 
BRANCH  20  22
HETATM   22  C6  UNL     1      -6.831  28.210  13.696  1.00  0.00     0.005 C 
BRANCH  22  23
HETATM   23  C5  UNL     1      -7.509  27.773  14.980  1.00  0.00     0.001 C 
BRANCH  23  24
HETATM   24  C4  UNL     1      -8.778  28.550  15.103  1.00  0.00     0.004 C 
BRANCH  24  25
HETATM   25  C2  UNL     1      -8.705  29.682  16.093  1.00  0.00    -0.023 C 
HETATM   26  C1  UNL     1      -9.765  29.411  17.151  1.00  0.00     0.009 C 
HETATM   27  C3  UNL     1      -7.374  29.706  16.823  1.00  0.00     0.009 C 
ENDBRANCH  24  25
ENDBRANCH  23  24
ENDBRANCH  22  23
ENDBRANCH  20  22
ENDBRANCH   1  20
BRANCH  19  28
HETATM   28  C26 UNL     1      -4.580  24.443  15.491  1.00  0.00     0.154 C 
BRANCH  28  29
HETATM   29  N1  UNL     1      -5.773  23.649  15.376  1.00  0.00    -0.391 N 
HETATM   30  C27 UNL     1      -6.675  23.682  16.429  1.00  0.00     0.122 C 
HETATM   31  C28 UNL     1      -8.041  23.176  15.960  1.00  0.00     0.020 C 
HETATM   32  C29 UNL     1      -8.522  24.077  14.841  1.00  0.00     0.007 C 
HETATM   33  C30 UNL     1      -7.467  24.239  13.769  1.00  0.00     0.044 C 
HETATM   34  C31 UNL     1      -6.229  23.398  14.068  1.00  0.00     0.058 C 
ENDBRANCH  28  29
ENDBRANCH  19  28
TORSDOF 7
ENDMDL
MODEL 3
REMARK VINA RESULT: -9.358034334      2.051      4.408
REMARK  7 active torsions:
REMARK  status: ('A' for Active; 'I' for Inactive)
REMARK    1  A    between atoms: C2_2  and  C4_4 
REMARK    2  A    between atoms: C4_4  and  C5_5 
REMARK    3  A    between atoms: C5_5  and  C6_6 
REMARK    4  A    between atoms: C6_6  and  C7_7 
REMARK    5  A    between atoms: C7_7  and  C9_9 
REMARK    6  A    between atoms: C25_27  and  C26_28 
REMARK    7  A    between atoms: C26_28  and  N1_29 
ROOT
HETATM    1  C9  UNL     1      -4.835  25.953  14.114  1.00  0.00     0.023 C 
HETATM    2  C10 UNL     1      -4.201  24.854  14.949  1.00  0.00     0.009 C 
HETATM    3  C11 UNL     1      -3.066  24.137  14.350  1.00  0.00     0.011 C 
HETATM    4  C12 UNL     1      -1.702  24.656  14.750  1.00  0.00    -0.025 C 
HETATM    5  C13 UNL     1      -1.624  24.620  16.239  1.00  0.00     0.016 C 
HETATM    6  C14 UNL     1      -0.569  23.886  14.144  1.00  0.00     0.027 C 
HETATM    7  C15 UNL     1       0.396  23.177  15.019  1.00  0.00     0.045 C 
HETATM    8  C16 UNL     1       1.595  24.096  15.121  1.00  0.00     0.054 C 
HETATM    9  C17 UNL     1       2.514  23.879  13.942  1.00  0.00     0.045 C 
HETATM   10  C18 UNL     1       2.407  23.891  16.368  1.00  0.00     0.045 C 
HETATM   11  O1  UNL     1       0.982  25.368  15.067  1.00  0.00    -0.374 OA
HETATM   12  C19 UNL     1       0.144  25.247  13.993  1.00  0.00     0.139 C 
HETATM   13  C20 UNL     1      -1.218  25.820  14.004  1.00  0.00     0.022 C 
HETATM   14  C21 UNL     1      -1.483  27.013  14.929  1.00  0.00     0.018 C 
HETATM   15  C22 UNL     1      -2.922  27.367  14.915  1.00  0.00     0.039 C 
HETATM   16  C23 UNL     1      -3.738  26.962  13.724  1.00  0.00     0.062 C 
HETATM   17  C24 UNL     1      -4.304  28.245  13.171  1.00  0.00     0.046 C 
HETATM   18  O2  UNL     1      -3.090  26.355  12.698  1.00  0.00    -0.372 OA
HETATM   19  C25 UNL     1      -1.751  26.223  12.716  1.00  0.00     0.152 C 
ENDROOT
BRANCH   1  20
HETATM   20  C7  UNL     1      -5.576  25.376  12.967  1.00  0.00    -0.012 C 
HETATM   21  C8  UNL     1      -6.273  24.051  13.308  1.00  0.00     0.010 C 
BRANCH  20  22
HETATM   22  C6  UNL     1      -6.540  26.159  12.192  1.00  0.00     0.005 C 
BRANCH  22  23
HETATM   23  C5  UNL     1      -7.901  26.321  12.839  1.00  0.00     0.001 C 
BRANCH  23  24
HETATM   24  C4  UNL     1      -8.023  27.745  13.274  1.00  0.00     0.004 C 
BRANCH  24  25
HETATM   25  C2  UNL     1      -8.208  27.913  14.758  1.00  0.00    -0.023 C 
HETATM   26  C1  UNL     1      -7.198  28.956  15.213  1.00  0.00     0.009 C 
HETATM   27  C3  UNL     1      -9.578  28.474  15.094  1.00  0.00     0.009 C 
ENDBRANCH  24  25
ENDBRANCH  23  24
ENDBRANCH  22  23
ENDBRANCH  20  22
ENDBRANCH   1  20
BRANCH  19  28
HETATM   28  C26 UNL     1      -1.336  25.500  11.467  1.00  0.00     0.154 C 
BRANCH  28  29
HETATM   29  N1  UNL     1      -0.464  26.329  10.680  1.00  0.00    -0.391 N 
HETATM   30  C27 UNL     1       0.031  25.804   9.496  1.00  0.00     0.122 C 
HETATM   31  C28 UNL     1       0.536  26.934   8.596  1.00  0.00     0.020 C 
HETATM   32  C29 UNL     1      -0.625  27.862   8.303  1.00  0.00     0.007 C 
HETATM   33  C30 UNL     1      -1.330  28.284   9.573  1.00  0.00     0.044 C 
HETATM   34  C31 UNL     1      -0.641  27.719  10.811  1.00  0.00     0.058 C 
ENDBRANCH  28  29
ENDBRANCH  19  28
TORSDOF 7
ENDMDL
MODEL 4
REMARK VINA RESULT: -9.094442720      2.041      4.386
REMARK  7 active torsions:
REMARK  status: ('A' for Active; 'I' for Inactive)
REMARK    1  A    between atoms: C2_2  and  C4_4 
REMARK    2  A    between atoms: C4_4  and  C5_5 
REMARK    3  A    between atoms: C5_5  and  C6_6 
REMARK    4  A    between atoms: C6_6  and  C7_7 
REMARK    5  A    between atoms: C7_7  and  C9_9 
REMARK    6  A    between atoms: C25_27  and  C26_28 
REMARK    7  A    between atoms: C26_28  and  N1_29 
ROOT
HETATM    1  C9  UNL     1      -4.888  25.934  14.095  1.00  0.00     0.023 C 
HETATM    2  C10 UNL     1      -4.234  24.921  15.018  1.00  0.00     0.009 C 
HETATM    3  C11 UNL     1      -3.116  24.144  14.462  1.00  0.00     0.011 C 
HETATM    4  C12 UNL     1      -1.741  24.695  14.773  1.00  0.00    -0.025 C 
HETATM    5  C13 UNL     1      -1.623  24.806  16.256  1.00  0.00     0.016 C 
HETATM    6  C14 UNL     1      -0.626  23.864  14.217  1.00  0.00     0.027 C 
HETATM    7  C15 UNL     1       0.361  23.241  15.132  1.00  0.00     0.045 C 
HETATM    8  C16 UNL     1       1.564  24.161  15.111  1.00  0.00     0.054 C 
HETATM    9  C17 UNL     1       2.451  23.825  13.935  1.00  0.00     0.045 C 
HETATM   10  C18 UNL     1       2.409  24.077  16.350  1.00  0.00     0.045 C 
HETATM   11  O1  UNL     1       0.952  25.424  14.947  1.00  0.00    -0.374 OA
HETATM   12  C19 UNL     1       0.085  25.200  13.913  1.00  0.00     0.139 C 
HETATM   13  C20 UNL     1      -1.275  25.777  13.903  1.00  0.00     0.022 C 
HETATM   14  C21 UNL     1      -1.514  27.057  14.711  1.00  0.00     0.018 C 
HETATM   15  C22 UNL     1      -2.953  27.413  14.700  1.00  0.00     0.039 C 
HETATM   16  C23 UNL     1      -3.801  26.895  13.577  1.00  0.00     0.062 C 
HETATM   17  C24 UNL     1      -4.379  28.119  12.915  1.00  0.00     0.046 C 
HETATM   18  O2  UNL     1      -3.181  26.188  12.600  1.00  0.00    -0.372 OA
HETATM   19  C25 UNL     1      -1.842  26.052  12.595  1.00  0.00     0.152 C 
ENDROOT
BRANCH   1  20
HETATM   20  C7  UNL     1      -5.661  25.249  13.030  1.00  0.00    -0.012 C 
HETATM   21  C8  UNL     1      -6.318  23.947  13.510  1.00  0.00     0.010 C 
BRANCH  20  22
HETATM   22  C6  UNL     1      -6.667  25.947  12.230  1.00  0.00     0.005 C 
BRANCH  22  23
HETATM   23  C5  UNL     1      -7.972  26.231  12.947  1.00  0.00     0.001 C 
BRANCH  23  24
HETATM   24  C4  UNL     1      -8.036  27.702  13.196  1.00  0.00     0.004 C 
BRANCH  24  25
HETATM   25  C2  UNL     1      -8.273  28.065  14.637  1.00  0.00    -0.023 C 
HETATM   26  C1  UNL     1      -8.302  26.760  15.421  1.00  0.00     0.009 C 
HETATM   27  C3  UNL     1      -7.127  28.878  15.209  1.00  0.00     0.009 C 
ENDBRANCH  24  25
ENDBRANCH  23  24
ENDBRANCH  22  23
ENDBRANCH  20  22
ENDBRANCH   1  20
BRANCH  19  28
HETATM   28  C26 UNL     1      -1.462  25.208  11.414  1.00  0.00     0.154 C 
BRANCH  28  29
HETATM   29  N1  UNL     1      -1.380  26.018  10.230  1.00  0.00    -0.391 N 
HETATM   30  C27 UNL     1      -1.051  27.357  10.383  1.00  0.00     0.122 C 
HETATM   31  C28 UNL     1      -0.569  27.931   9.049  1.00  0.00     0.020 C 
HETATM   32  C29 UNL     1       0.650  27.147   8.608  1.00  0.00     0.007 C 
HETATM   33  C30 UNL     1       0.390  25.657   8.638  1.00  0.00     0.044 C 
HETATM   34  C31 UNL     1      -1.049  25.347   9.038  1.00  0.00     0.058 C 
ENDBRANCH  28  29
ENDBRANCH  19  28
TORSDOF 7
ENDMDL
MODEL 5
REMARK VINA RESULT: -9.068926975      2.584      5.422
REMARK  7 active torsions:
REMARK  status: ('A' for Active; 'I' for Inactive)
REMARK    1  A    between atoms: C2_2  and  C4_4 
REMARK    2  A    between atoms: C4_4  and  C5_5 
REMARK    3  A    between atoms: C5_5  and  C6_6 
REMARK    4  A    between atoms: C6_6  and  C7_7 
REMARK    5  A    between atoms: C7_7  and  C9_9 
REMARK    6  A    between atoms: C25_27  and  C26_28 
REMARK    7  A    between atoms: C26_28  and  N1_29 
ROOT
HETATM    1  C9  UNL     1      -8.287  23.932  14.988  1.00  0.00     0.023 C 
HETATM    2  C10 UNL     1      -7.402  23.282  13.939  1.00  0.00     0.009 C 
HETATM    3  C11 UNL     1      -6.709  24.183  13.006  1.00  0.00     0.011 C 
HETATM    4  C12 UNL     1      -5.287  24.529  13.393  1.00  0.00    -0.025 C 
HETATM    5  C13 UNL     1      -4.537  23.249  13.549  1.00  0.00     0.016 C 
HETATM    6  C14 UNL     1      -4.602  25.425  12.407  1.00  0.00     0.027 C 
HETATM    7  C15 UNL     1      -3.384  24.957  11.704  1.00  0.00     0.045 C 
HETATM    8  C16 UNL     1      -2.223  25.564  12.464  1.00  0.00     0.054 C 
HETATM    9  C17 UNL     1      -1.960  26.968  11.971  1.00  0.00     0.045 C 
HETATM   10  C18 UNL     1      -0.942  24.792  12.325  1.00  0.00     0.045 C 
HETATM   11  O1  UNL     1      -2.723  25.568  13.786  1.00  0.00    -0.374 OA
HETATM   12  C19 UNL     1      -3.965  26.118  13.631  1.00  0.00     0.139 C 
HETATM   13  C20 UNL     1      -5.136  25.608  14.372  1.00  0.00     0.022 C 
HETATM   14  C21 UNL     1      -4.883  24.893  15.704  1.00  0.00     0.018 C 
HETATM   15  C22 UNL     1      -6.146  24.331  16.237  1.00  0.00     0.039 C 
HETATM   16  C23 UNL     1      -7.438  24.942  15.784  1.00  0.00     0.062 C 
HETATM   17  C24 UNL     1      -8.124  25.408  17.043  1.00  0.00     0.046 C 
HETATM   18  O2  UNL     1      -7.367  26.021  14.965  1.00  0.00    -0.372 OA
HETATM   19  C25 UNL     1      -6.178  26.576  14.663  1.00  0.00     0.152 C 
ENDROOT
BRANCH   1  20
HETATM   20  C7  UNL     1      -9.502  24.508  14.363  1.00  0.00    -0.012 C 
HETATM   21  C8  UNL     1     -10.315  23.474  13.569  1.00  0.00     0.010 C 
BRANCH  20  22
HETATM   22  C6  UNL     1     -10.472  25.293  15.128  1.00  0.00     0.005 C 
BRANCH  22  23
HETATM   23  C5  UNL     1     -11.640  25.827  14.324  1.00  0.00     0.001 C 
BRANCH  23  24
HETATM   24  C4  UNL     1     -12.850  25.764  15.198  1.00  0.00     0.004 C 
BRANCH  24  25
HETATM   25  C2  UNL     1     -13.958  24.911  14.640  1.00  0.00    -0.023 C 
HETATM   26  C1  UNL     1     -13.823  24.948  13.125  1.00  0.00     0.009 C 
HETATM   27  C3  UNL     1     -13.806  23.457  15.045  1.00  0.00     0.009 C 
ENDBRANCH  24  25
ENDBRANCH  23  24
ENDBRANCH  22  23
ENDBRANCH  20  22
ENDBRANCH   1  20
BRANCH  19  28
HETATM   28  C26 UNL     1      -6.423  27.726  13.731  1.00  0.00     0.154 C 
BRANCH  28  29
HETATM   29  N1  UNL     1      -7.382  28.632  14.300  1.00  0.00    -0.391 N 
HETATM   30  C27 UNL     1      -8.704  28.217  14.367  1.00  0.00     0.122 C 
HETATM   31  C28 UNL     1      -9.468  29.072  15.381  1.00  0.00     0.020 C 
HETATM   32  C29 UNL     1      -8.807  28.906  16.734  1.00  0.00     0.007 C 
HETATM   33  C30 UNL     1      -7.315  29.141  16.653  1.00  0.00     0.044 C 
HETATM   34  C31 UNL     1      -6.886  29.549  15.246  1.00  0.00     0.058 C 
ENDBRANCH  28  29
ENDBRANCH  19  28
TORSDOF 7
ENDMDL
