MODEL 1
REMARK VINA RESULT: -10.215718606      0.000      0.000
REMARK  6 active torsions:
REMARK  status: ('A' for Active; 'I' for Inactive)
REMARK    1  A    between atoms: C2_2  and  C4_4 
REMARK    2  A    between atoms: C4_4  and  C5_5 
REMARK    3  A    between atoms: C6_6  and  C7_7 
REMARK    4  A    between atoms: C20_20  and  C21_21 
REMARK    5  A    between atoms: C21_21  and  C22_22 
REMARK    6  A    between atoms: C22_22  and  N1_23 
ROOT
HETATM    1  C7  UNL     1      -9.295  24.728  15.491  1.00  0.00     0.035 C 
HETATM    2  C8  UNL     1      -9.716  26.213  15.786  1.00  0.00     0.027 C 
HETATM    3  C9  UNL     1      -9.178  24.545  14.051  1.00  0.00     0.022 C 
HETATM    4  C10 UNL     1      -7.900  23.874  13.593  1.00  0.00     0.014 C 
HETATM    5  C11 UNL     1      -6.637  24.552  13.914  1.00  0.00    -0.002 C 
HETATM    6  C12 UNL     1      -5.578  23.428  13.943  1.00  0.00     0.019 C 
HETATM    7  C13 UNL     1      -6.698  25.098  15.323  1.00  0.00     0.068 C 
HETATM    8  C14 UNL     1      -6.496  26.588  15.234  1.00  0.00     0.020 C 
HETATM    9  C15 UNL     1      -6.494  26.894  13.765  1.00  0.00     0.022 C 
HETATM   10  C16 UNL     1      -5.733  28.110  13.367  1.00  0.00     0.015 C 
HETATM   11  C17 UNL     1      -4.326  27.830  12.981  1.00  0.00     0.028 A 
HETATM   12  C18 UNL     1      -3.965  27.398  11.631  1.00  0.00     0.024 A 
HETATM   13  C19 UNL     1      -2.618  27.849  11.111  1.00  0.00     0.013 C 
HETATM   14  C20 UNL     1      -3.940  26.436  12.857  1.00  0.00     0.071 A 
HETATM   15  O1  UNL     1      -4.822  25.451  12.777  1.00  0.00    -0.367 OA
HETATM   16  C29 UNL     1      -6.154  25.644  13.018  1.00  0.00     0.070 C 
HETATM   17  C30 UNL     1      -6.834  25.709  11.681  1.00  0.00     0.047 C 
HETATM   18  C31 UNL     1      -7.885  24.675  16.068  1.00  0.00     0.143 C 
HETATM   19  O2  UNL     1      -7.824  24.250  17.206  1.00  0.00    -0.296 OA
ENDROOT
BRANCH  14  20
HETATM   20  C21 UNL     1      -2.521  25.999  13.258  1.00  0.00     0.058 C 
BRANCH  20  21
HETATM   21  C22 UNL     1      -2.148  26.551  14.614  1.00  0.00     0.119 C 
BRANCH  21  22
HETATM   22  N1  UNL     1      -1.245  25.658  15.249  1.00  0.00    -0.412 N 
HETATM   23  C23 UNL     1      -1.785  24.475  15.815  1.00  0.00     0.117 C 
HETATM   24  C24 UNL     1      -0.985  23.289  15.257  1.00  0.00     0.019 C 
HETATM   25  C25 UNL     1       0.465  23.547  15.679  1.00  0.00     0.002 C 
HETATM   26  C26 UNL     1       1.179  24.443  14.725  1.00  0.00     0.002 C 
HETATM   27  C27 UNL     1       1.121  25.900  15.109  1.00  0.00     0.019 C 
HETATM   28  C28 UNL     1      -0.124  26.234  15.899  1.00  0.00     0.117 C 
ENDBRANCH  21  22
ENDBRANCH  20  21
ENDBRANCH  14  20
BRANCH   1  29
HETATM   29  C6  UNL     1     -10.238  23.951  16.307  1.00  0.00    -0.010 C 
HETATM   30  C5  UNL     1     -11.454  23.358  15.800  1.00  0.00    -0.007 C 
BRANCH  30  31
HETATM   31  C4  UNL     1     -12.648  24.065  15.364  1.00  0.00    -0.023 C 
BRANCH  31  32
HETATM   32  C2  UNL     1     -13.377  23.688  14.150  1.00  0.00    -0.000 C 
HETATM   33  C1  UNL     1     -14.087  24.834  13.457  1.00  0.00     0.013 C 
HETATM   34  C3  UNL     1     -12.740  22.840  13.111  1.00  0.00     0.013 C 
ENDBRANCH  31  32
ENDBRANCH  30  31
ENDBRANCH   1  29
TORSDOF 6
ENDMDL
MODEL 2
REMARK VINA RESULT: -10.190883924      2.894      5.525
REMARK  6 active torsions:
REMARK  status: ('A' for Active; 'I' for Inactive)
REMARK    1  A    between atoms: C2_2  and  C4_4 
REMARK    2  A    between atoms: C4_4  and  C5_5 
REMARK    3  A    between atoms: C6_6  and  C7_7 
REMARK    4  A    between atoms: C20_20  and  C21_21 
REMARK    5  A    between atoms: C21_21  and  C22_22 
REMARK    6  A    between atoms: C22_22  and  N1_23 
ROOT
HETATM    1  C7  UNL     1      -7.221  26.535  13.757  1.00  0.00     0.035 C 
HETATM    2  C8  UNL     1      -7.460  25.342  14.752  1.00  0.00     0.027 C 
HETATM    3  C9  UNL     1      -6.255  27.454  14.343  1.00  0.00     0.022 C 
HETATM    4  C10 UNL     1      -5.121  27.861  13.425  1.00  0.00     0.014 C 
HETATM    5  C11 UNL     1      -4.251  26.789  12.922  1.00  0.00    -0.002 C 
HETATM    6  C12 UNL     1      -3.671  27.336  11.598  1.00  0.00     0.019 C 
HETATM    7  C13 UNL     1      -5.091  25.591  12.540  1.00  0.00     0.068 C 
HETATM    8  C14 UNL     1      -4.617  24.430  13.374  1.00  0.00     0.020 C 
HETATM    9  C15 UNL     1      -3.631  25.020  14.340  1.00  0.00     0.022 C 
HETATM   10  C16 UNL     1      -2.590  24.083  14.842  1.00  0.00     0.015 C 
HETATM   11  C17 UNL     1      -1.334  24.109  14.048  1.00  0.00     0.028 A 
HETATM   12  C18 UNL     1      -0.285  25.099  14.290  1.00  0.00     0.024 A 
HETATM   13  C19 UNL     1       1.139  24.653  14.046  1.00  0.00     0.013 C 
HETATM   14  C20 UNL     1      -1.214  25.146  13.039  1.00  0.00     0.071 A 
HETATM   15  O1  UNL     1      -2.004  26.208  13.002  1.00  0.00    -0.367 OA
HETATM   16  C29 UNL     1      -3.126  26.309  13.777  1.00  0.00     0.070 C 
HETATM   17  C30 UNL     1      -2.781  27.209  14.928  1.00  0.00     0.047 C 
HETATM   18  C31 UNL     1      -6.532  25.843  12.587  1.00  0.00     0.143 C 
HETATM   19  O2  UNL     1      -7.282  25.512  11.687  1.00  0.00    -0.296 OA
ENDROOT
BRANCH  14  20
HETATM   20  C21 UNL     1      -0.476  24.847  11.722  1.00  0.00     0.058 C 
BRANCH  20  21
HETATM   21  C22 UNL     1      -1.431  24.860  10.552  1.00  0.00     0.119 C 
BRANCH  21  22
HETATM   22  N1  UNL     1      -0.841  25.575   9.476  1.00  0.00    -0.412 N 
HETATM   23  C23 UNL     1      -0.336  24.817   8.388  1.00  0.00     0.117 C 
HETATM   24  C24 UNL     1      -0.953  25.385   7.102  1.00  0.00     0.019 C 
HETATM   25  C25 UNL     1      -0.518  26.854   7.063  1.00  0.00     0.002 C 
HETATM   26  C26 UNL     1      -1.425  27.733   7.855  1.00  0.00     0.002 C 
HETATM   27  C27 UNL     1      -0.969  27.945   9.276  1.00  0.00     0.019 C 
HETATM   28  C28 UNL     1      -0.163  26.777   9.798  1.00  0.00     0.117 C 
ENDBRANCH  21  22
ENDBRANCH  20  21
ENDBRANCH  14  20
BRANCH   1  29
HETATM   29  C6  UNL     1      -8.586  26.950  13.407  1.00  0.00    -0.010 C 
HETATM   30  C5  UNL     1      -9.233  28.135  13.923  1.00  0.00    -0.007 C 
BRANCH  30  31
HETATM   31  C4  UNL     1      -9.678  28.355  15.291  1.00  0.00    -0.023 C 
BRANCH  31  32
HETATM   32  C2  UNL     1      -9.206  29.489  16.089  1.00  0.00    -0.000 C 
HETATM   33  C1  UNL     1      -9.835  29.599  17.464  1.00  0.00     0.013 C 
HETATM   34  C3  UNL     1      -7.756  29.780  16.218  1.00  0.00     0.013 C 
ENDBRANCH  31  32
ENDBRANCH  30  31
ENDBRANCH   1  29
TORSDOF 6
ENDMDL
MODEL 3
REMARK VINA RESULT: -10.141725921      2.246      8.761
REMARK  6 active torsions:
REMARK  status: ('A' for Active; 'I' for Inactive)
REMARK    1  A    between atoms: C2_2  and  C4_4 
REMARK    2  A    between atoms: C4_4  and  C5_5 
REMARK    3  A    between atoms: C6_6  and  C7_7 
REMARK    4  A    between atoms: C20_20  and  C21_21 
REMARK    5  A    between atoms: C21_21  and  C22_22 
REMARK    6  A    between atoms: C22_22  and  N1_23 
ROOT
HETATM    1  C7  UNL     1      -2.516  26.468  12.222  1.00  0.00     0.035 C 
HETATM    2  C8  UNL     1      -2.979  27.307  10.976  1.00  0.00     0.027 C 
HETATM    3  C9  UNL     1      -2.695  27.269  13.426  1.00  0.00     0.022 C 
HETATM    4  C10 UNL     1      -3.413  26.568  14.560  1.00  0.00     0.014 C 
HETATM    5  C11 UNL     1      -4.782  26.105  14.300  1.00  0.00    -0.002 C 
HETATM    6  C12 UNL     1      -5.001  24.935  15.286  1.00  0.00     0.019 C 
HETATM    7  C13 UNL     1      -4.859  25.499  12.917  1.00  0.00     0.068 C 
HETATM    8  C14 UNL     1      -5.881  26.287  12.140  1.00  0.00     0.020 C 
HETATM    9  C15 UNL     1      -6.248  27.436  13.033  1.00  0.00     0.022 C 
HETATM   10  C16 UNL     1      -7.608  28.001  12.820  1.00  0.00     0.015 C 
HETATM   11  C17 UNL     1      -8.644  27.405  13.703  1.00  0.00     0.028 A 
HETATM   12  C18 UNL     1      -8.868  27.886  15.066  1.00  0.00     0.024 A 
HETATM   13  C19 UNL     1     -10.287  27.816  15.587  1.00  0.00     0.013 C 
HETATM   14  C20 UNL     1      -8.182  26.521  14.758  1.00  0.00     0.071 A 
HETATM   15  O1  UNL     1      -6.916  26.464  15.144  1.00  0.00    -0.367 OA
HETATM   16  C29 UNL     1      -5.911  27.071  14.443  1.00  0.00     0.070 C 
HETATM   17  C30 UNL     1      -5.571  28.335  15.176  1.00  0.00     0.047 C 
HETATM   18  C31 UNL     1      -3.557  25.355  12.264  1.00  0.00     0.143 C 
HETATM   19  O2  UNL     1      -3.216  24.329  11.705  1.00  0.00    -0.296 OA
ENDROOT
BRANCH  14  20
HETATM   20  C21 UNL     1      -9.035  25.307  15.164  1.00  0.00     0.058 C 
BRANCH  20  21
HETATM   21  C22 UNL     1      -9.420  24.489  13.954  1.00  0.00     0.119 C 
BRANCH  21  22
HETATM   22  N1  UNL     1     -10.708  23.927  14.161  1.00  0.00    -0.412 N 
HETATM   23  C23 UNL     1     -11.672  24.731  14.822  1.00  0.00     0.117 C 
HETATM   24  C24 UNL     1     -12.933  24.755  13.945  1.00  0.00     0.019 C 
HETATM   25  C25 UNL     1     -13.360  23.289  13.815  1.00  0.00     0.002 C 
HETATM   26  C26 UNL     1     -12.640  22.586  12.715  1.00  0.00     0.002 C 
HETATM   27  C27 UNL     1     -11.394  21.871  13.171  1.00  0.00     0.019 C 
HETATM   28  C28 UNL     1     -10.770  22.528  14.382  1.00  0.00     0.117 C 
ENDBRANCH  21  22
ENDBRANCH  20  21
ENDBRANCH  14  20
BRANCH   1  29
HETATM   29  C6  UNL     1      -1.202  25.959  11.807  1.00  0.00    -0.010 C 
HETATM   30  C5  UNL     1      -0.517  24.858  12.446  1.00  0.00    -0.007 C 
BRANCH  30  31
HETATM   31  C4  UNL     1       0.069  24.856  13.777  1.00  0.00    -0.023 C 
BRANCH  31  32
HETATM   32  C2  UNL     1      -0.270  23.839  14.775  1.00  0.00    -0.000 C 
HETATM   33  C1  UNL     1       0.925  23.172  15.429  1.00  0.00     0.013 C 
HETATM   34  C3  UNL     1      -1.282  24.109  15.826  1.00  0.00     0.013 C 
ENDBRANCH  31  32
ENDBRANCH  30  31
ENDBRANCH   1  29
TORSDOF 6
ENDMDL
MODEL 4
REMARK VINA RESULT: -10.098624915      2.879      5.477
REMARK  6 active torsions:
REMARK  status: ('A' for Active; 'I' for Inactive)
REMARK    1  A    between atoms: C2_2  and  C4_4 
REMARK    2  A    between atoms: C4_4  and  C5_5 
REMARK    3  A    between atoms: C6_6  and  C7_7 
REMARK    4  A    between atoms: C20_20  and  C21_21 
REMARK    5  A    between atoms: C21_21  and  C22_22 
REMARK    6  A    between atoms: C22_22  and  N1_23 
ROOT
HETATM    1  C7  UNL     1      -7.388  26.428  13.754  1.00  0.00     0.035 C 
HETATM    2  C8  UNL     1      -7.604  25.120  14.599  1.00  0.00     0.027 C 
HETATM    3  C9  UNL     1      -6.432  27.285  14.443  1.00  0.00     0.022 C 
HETATM    4  C10 UNL     1      -5.309  27.816  13.578  1.00  0.00     0.014 C 
HETATM    5  C11 UNL     1      -4.426  26.827  12.946  1.00  0.00    -0.002 C 
HETATM    6  C12 UNL     1      -3.861  27.539  11.695  1.00  0.00     0.019 C 
HETATM    7  C13 UNL     1      -5.250  25.671  12.425  1.00  0.00     0.068 C 
HETATM    8  C14 UNL     1      -4.755  24.425  13.111  1.00  0.00     0.020 C 
HETATM    9  C15 UNL     1      -3.773  24.909  14.138  1.00  0.00     0.022 C 
HETATM   10  C16 UNL     1      -2.715  23.935  14.520  1.00  0.00     0.015 C 
HETATM   11  C17 UNL     1      -1.464  24.076  13.730  1.00  0.00     0.028 A 
HETATM   12  C18 UNL     1      -0.429  25.045  14.086  1.00  0.00     0.024 A 
HETATM   13  C19 UNL     1       1.001  24.654  13.786  1.00  0.00     0.013 C 
HETATM   14  C20 UNL     1      -1.365  25.228  12.853  1.00  0.00     0.071 A 
HETATM   15  O1  UNL     1      -2.171  26.275  12.948  1.00  0.00    -0.367 OA
HETATM   16  C29 UNL     1      -3.290  26.265  13.733  1.00  0.00     0.070 C 
HETATM   17  C30 UNL     1      -2.952  27.024  14.983  1.00  0.00     0.047 C 
HETATM   18  C31 UNL     1      -6.695  25.893  12.507  1.00  0.00     0.143 C 
HETATM   19  O2  UNL     1      -7.444  25.662  11.576  1.00  0.00    -0.296 OA
ENDROOT
BRANCH  14  20
HETATM   20  C21 UNL     1      -0.629  25.102  11.508  1.00  0.00     0.058 C 
BRANCH  20  21
HETATM   21  C22 UNL     1      -1.605  24.877  10.377  1.00  0.00     0.119 C 
BRANCH  21  22
HETATM   22  N1  UNL     1      -1.220  25.669   9.263  1.00  0.00    -0.412 N 
HETATM   23  C23 UNL     1      -1.970  26.847   9.010  1.00  0.00     0.117 C 
HETATM   24  C24 UNL     1      -0.976  28.012   8.902  1.00  0.00     0.019 C 
HETATM   25  C25 UNL     1      -0.040  27.637   7.747  1.00  0.00     0.002 C 
HETATM   26  C26 UNL     1       1.080  26.758   8.191  1.00  0.00     0.002 C 
HETATM   27  C27 UNL     1       0.788  25.287   8.039  1.00  0.00     0.019 C 
HETATM   28  C28 UNL     1      -0.691  24.984   8.140  1.00  0.00     0.117 C 
ENDBRANCH  21  22
ENDBRANCH  20  21
ENDBRANCH  14  20
BRANCH   1  29
HETATM   29  C6  UNL     1      -8.760  26.861  13.461  1.00  0.00    -0.010 C 
HETATM   30  C5  UNL     1      -9.365  28.062  13.992  1.00  0.00    -0.007 C 
BRANCH  30  31
HETATM   31  C4  UNL     1      -9.743  28.305  15.376  1.00  0.00    -0.023 C 
BRANCH  31  32
HETATM   32  C2  UNL     1      -9.272  29.477  16.117  1.00  0.00    -0.000 C 
HETATM   33  C1  UNL     1      -9.855  29.621  17.509  1.00  0.00     0.013 C 
HETATM   34  C3  UNL     1      -7.826  29.807  16.183  1.00  0.00     0.013 C 
ENDBRANCH  31  32
ENDBRANCH  30  31
ENDBRANCH   1  29
TORSDOF 6
ENDMDL
MODEL 5
REMARK VINA RESULT: -10.040611559      1.357      2.149
REMARK  6 active torsions:
REMARK  status: ('A' for Active; 'I' for Inactive)
REMARK    1  A    between atoms: C2_2  and  C4_4 
REMARK    2  A    between atoms: C4_4  and  C5_5 
REMARK    3  A    between atoms: C6_6  and  C7_7 
REMARK    4  A    between atoms: C20_20  and  C21_21 
REMARK    5  A    between atoms: C21_21  and  C22_22 
REMARK    6  A    between atoms: C22_22  and  N1_23 
ROOT
HETATM    1  C7  UNL     1      -8.228  24.714  14.403  1.00  0.00     0.035 C 
HETATM    2  C8  UNL     1      -8.850  25.868  13.536  1.00  0.00     0.027 C 
HETATM    3  C9  UNL     1      -7.339  23.919  13.567  1.00  0.00     0.022 C 
HETATM    4  C10 UNL     1      -5.970  23.655  14.158  1.00  0.00     0.014 C 
HETATM    5  C11 UNL     1      -5.135  24.825  14.460  1.00  0.00    -0.002 C 
HETATM    6  C12 UNL     1      -4.179  24.354  15.579  1.00  0.00     0.019 C 
HETATM    7  C13 UNL     1      -5.987  25.912  15.075  1.00  0.00     0.068 C 
HETATM    8  C14 UNL     1      -5.879  27.121  14.184  1.00  0.00     0.020 C 
HETATM    9  C15 UNL     1      -5.107  26.655  12.985  1.00  0.00     0.022 C 
HETATM   10  C16 UNL     1      -4.344  27.712  12.266  1.00  0.00     0.015 C 
HETATM   11  C17 UNL     1      -2.935  27.840  12.719  1.00  0.00     0.028 A 
HETATM   12  C18 UNL     1      -1.872  26.985  12.192  1.00  0.00     0.024 A 
HETATM   13  C19 UNL     1      -0.495  27.601  12.084  1.00  0.00     0.013 C 
HETATM   14  C20 UNL     1      -2.442  26.826  13.634  1.00  0.00     0.071 A 
HETATM   15  O1  UNL     1      -3.066  25.676  13.836  1.00  0.00    -0.367 OA
HETATM   16  C29 UNL     1      -4.327  25.438  13.364  1.00  0.00     0.070 C 
HETATM   17  C30 UNL     1      -4.180  24.586  12.137  1.00  0.00     0.047 C 
HETATM   18  C31 UNL     1      -7.353  25.486  15.383  1.00  0.00     0.143 C 
HETATM   19  O2  UNL     1      -7.885  25.724  16.452  1.00  0.00    -0.296 OA
ENDROOT
BRANCH  14  20
HETATM   20  C21 UNL     1      -1.436  27.214  14.732  1.00  0.00     0.058 C 
BRANCH  20  21
HETATM   21  C22 UNL     1      -1.053  26.012  15.563  1.00  0.00     0.119 C 
BRANCH  21  22
HETATM   22  N1  UNL     1       0.217  25.537  15.140  1.00  0.00    -0.412 N 
HETATM   23  C23 UNL     1       1.267  26.486  15.039  1.00  0.00     0.117 C 
HETATM   24  C24 UNL     1       2.457  25.946  15.845  1.00  0.00     0.019 C 
HETATM   25  C25 UNL     1       2.801  24.598  15.201  1.00  0.00     0.002 C 
HETATM   26  C26 UNL     1       1.966  23.486  15.739  1.00  0.00     0.002 C 
HETATM   27  C27 UNL     1       0.724  23.219  14.927  1.00  0.00     0.019 C 
HETATM   28  C28 UNL     1       0.226  24.460  14.219  1.00  0.00     0.117 C 
ENDBRANCH  21  22
ENDBRANCH  20  21
ENDBRANCH  14  20
BRANCH   1  29
HETATM   29  C6  UNL     1      -9.401  24.136  15.072  1.00  0.00    -0.010 C 
HETATM   30  C5  UNL     1     -10.018  22.885  14.695  1.00  0.00    -0.007 C 
BRANCH  30  31
HETATM   31  C4  UNL     1     -10.768  22.619  13.477  1.00  0.00    -0.023 C 
BRANCH  31  32
HETATM   32  C2  UNL     1     -12.232  22.560  13.462  1.00  0.00    -0.000 C 
HETATM   33  C1  UNL     1     -12.917  23.687  14.209  1.00  0.00     0.013 C 
HETATM   34  C3  UNL     1     -12.973  22.324  12.197  1.00  0.00     0.013 C 
ENDBRANCH  31  32
ENDBRANCH  30  31
ENDBRANCH   1  29
TORSDOF 6
ENDMDL
