MODEL 1
REMARK VINA RESULT: -9.342157749      0.000      0.000
REMARK  11 active torsions:
REMARK  status: ('A' for Active; 'I' for Inactive)
REMARK    1  A    between atoms: C2_2  and  C3_3 
REMARK    2  A    between atoms: C3_3  and  C4_4 
REMARK    3  A    between atoms: C4_4  and  C5_5 
REMARK    4  A    between atoms: C5_5  and  N1_6 
REMARK    5  A    between atoms: C5_5  and  C8_11 
REMARK       I    between atoms: N1_6  and  C6_8 
REMARK       I    between atoms: C8_11  and  N2_13 
REMARK    6  A    between atoms: N2_13  and  C9_15 
REMARK    7  A    between atoms: N3_17  and  C11_18 
REMARK    8  A    between atoms: C11_18  and  O3_19 
REMARK    9  A    between atoms: C11_18  and  C12_21 
REMARK   10  A    between atoms: C23_32  and  C24_33 
REMARK   11  A    between atoms: C24_33  and  S1_36 
ROOT
HETATM    1  C9  UNL     1       1.970   0.766   7.765  1.00  0.00     0.115 C 
HETATM    2  C10 UNL     1       1.653   1.734   8.879  1.00  0.00     0.150 C 
HETATM    3  N3  UNL     1       0.335   2.159   8.528  1.00  0.00    -0.362 N 
HETATM    4  C22 UNL     1       0.190   2.097   7.051  1.00  0.00     0.138 C 
HETATM    5  C23 UNL     1       1.419   1.404   6.530  1.00  0.00     0.119 C 
ENDROOT
BRANCH   1   6
HETATM    6  N2  UNL     1       3.313   0.322   7.719  1.00  0.00    -0.352 N 
HETATM    7  C8  UNL     1       3.627  -1.081   7.709  1.00  0.00     0.240 C 
HETATM    8  O2  UNL     1       2.716  -1.945   7.739  1.00  0.00    -0.271 OA
ATOM      9  H2  UNL     1       4.068   1.007   7.694  1.00  0.00     0.163 HD
BRANCH   7  10
HETATM   10  C5  UNL     1       5.029  -1.560   7.662  1.00  0.00     0.176 C 
BRANCH  10  11
HETATM   11  C4  UNL     1       5.947  -0.473   7.155  1.00  0.00     0.035 C 
BRANCH  11  12
HETATM   12  C3  UNL     1       7.367  -0.968   7.082  1.00  0.00     0.002 C 
BRANCH  12  13
HETATM   13  C2  UNL     1       8.257   0.253   6.866  1.00  0.00    -0.004 C 
HETATM   14  C1  UNL     1       7.462   1.465   7.309  1.00  0.00     0.005 C 
ENDBRANCH  12  13
ENDBRANCH  11  12
ENDBRANCH  10  11
BRANCH  10  15
HETATM   15  N1  UNL     1       5.140  -2.767   6.882  1.00  0.00    -0.348 N 
HETATM   16  C6  UNL     1       5.494  -4.023   7.447  1.00  0.00     0.214 C 
HETATM   17  C7  UNL     1       5.585  -5.212   6.566  1.00  0.00     0.117 C 
HETATM   18  O1  UNL     1       5.733  -4.156   8.671  1.00  0.00    -0.274 OA
ATOM     19  H1  UNL     1       4.956  -2.719   5.880  1.00  0.00     0.163 HD
ENDBRANCH  10  15
ENDBRANCH   7  10
ENDBRANCH   1   6
BRANCH   5  20
HETATM   20  C24 UNL     1       2.283   2.393   5.845  1.00  0.00     0.368 C 
HETATM   21  F1  UNL     1       2.367   3.615   6.458  1.00  0.00    -0.185 F 
HETATM   22  F2  UNL     1       3.615   1.931   5.754  1.00  0.00    -0.185 F 
BRANCH  20  23
HETATM   23  S1  UNL     1       1.764   2.613   4.171  1.00  0.00     0.176 S 
HETATM   24  O4  UNL     1       0.860   1.458   3.748  1.00  0.00    -0.591 OA
HETATM   25  O5  UNL     1       2.860   2.655   3.169  1.00  0.00    -0.591 OA
HETATM   26  O6  UNL     1       0.757   3.985   4.042  1.00  0.00    -0.591 OA
ENDBRANCH  20  23
ENDBRANCH   5  20
BRANCH   3  27
HETATM   27  C11 UNL     1      -0.732   2.608   9.327  1.00  0.00     0.122 C 
BRANCH  27  28
HETATM   28  O3  UNL     1      -1.207   3.798   9.090  1.00  0.00    -0.349 OA
ATOM     29  H3  UNL     1      -1.735   4.205   9.766  1.00  0.00     0.219 HD
ENDBRANCH  27  28
BRANCH  27  30
HETATM   30  C12 UNL     1      -1.408   1.905  10.424  1.00  0.00     0.026 C 
HETATM   31  C13 UNL     1      -1.672   0.458  10.157  1.00  0.00     0.022 C 
HETATM   32  C14 UNL     1      -2.363  -0.162  11.356  1.00  0.00    -0.013 C 
HETATM   33  C15 UNL     1      -1.524  -0.076  12.600  1.00  0.00     0.009 C 
HETATM   34  C19 UNL     1      -3.670   0.549  11.615  1.00  0.00     0.009 C 
HETATM   35  C16 UNL     1      -1.222   1.388  12.845  1.00  0.00    -0.013 C 
HETATM   36  C17 UNL     1      -2.480   2.137  13.136  1.00  0.00     0.009 C 
HETATM   37  C21 UNL     1      -0.494   1.918  11.667  1.00  0.00     0.022 C 
HETATM   38  C18 UNL     1      -3.407   1.981  11.950  1.00  0.00    -0.013 C 
HETATM   39  C20 UNL     1      -2.686   2.615  10.769  1.00  0.00     0.022 C 
ENDBRANCH  27  30
ENDBRANCH   3  27
TORSDOF 11
ENDMDL
MODEL 2
REMARK VINA RESULT: -9.148333278      1.593      2.194
REMARK  11 active torsions:
REMARK  status: ('A' for Active; 'I' for Inactive)
REMARK    1  A    between atoms: C2_2  and  C3_3 
REMARK    2  A    between atoms: C3_3  and  C4_4 
REMARK    3  A    between atoms: C4_4  and  C5_5 
REMARK    4  A    between atoms: C5_5  and  N1_6 
REMARK    5  A    between atoms: C5_5  and  C8_11 
REMARK       I    between atoms: N1_6  and  C6_8 
REMARK       I    between atoms: C8_11  and  N2_13 
REMARK    6  A    between atoms: N2_13  and  C9_15 
REMARK    7  A    between atoms: N3_17  and  C11_18 
REMARK    8  A    between atoms: C11_18  and  O3_19 
REMARK    9  A    between atoms: C11_18  and  C12_21 
REMARK   10  A    between atoms: C23_32  and  C24_33 
REMARK   11  A    between atoms: C24_33  and  S1_36 
ROOT
HETATM    1  C9  UNL     1       2.278   0.280   8.042  1.00  0.00     0.115 C 
HETATM    2  C10 UNL     1       1.623   0.879   9.262  1.00  0.00     0.150 C 
HETATM    3  N3  UNL     1       0.699   1.797   8.674  1.00  0.00    -0.362 N 
HETATM    4  C22 UNL     1       1.253   2.269   7.380  1.00  0.00     0.138 C 
HETATM    5  C23 UNL     1       2.467   1.427   7.102  1.00  0.00     0.119 C 
ENDROOT
BRANCH   1   6
HETATM    6  N2  UNL     1       3.406  -0.534   8.305  1.00  0.00    -0.352 N 
HETATM    7  C8  UNL     1       3.449  -1.902   7.865  1.00  0.00     0.240 C 
HETATM    8  O2  UNL     1       2.486  -2.406   7.236  1.00  0.00    -0.271 OA
ATOM      9  H2  UNL     1       4.199  -0.144   8.813  1.00  0.00     0.163 HD
BRANCH   7  10
HETATM   10  C5  UNL     1       4.624  -2.766   8.133  1.00  0.00     0.176 C 
BRANCH  10  11
HETATM   11  C4  UNL     1       5.753  -2.437   7.185  1.00  0.00     0.035 C 
BRANCH  11  12
HETATM   12  C3  UNL     1       6.813  -1.626   7.883  1.00  0.00     0.002 C 
BRANCH  12  13
HETATM   13  C2  UNL     1       7.700  -1.021   6.799  1.00  0.00    -0.004 C 
HETATM   14  C1  UNL     1       7.917   0.433   7.165  1.00  0.00     0.005 C 
ENDBRANCH  12  13
ENDBRANCH  11  12
ENDBRANCH  10  11
BRANCH  10  15
HETATM   15  N1  UNL     1       4.265  -4.161   8.084  1.00  0.00    -0.348 N 
HETATM   16  C6  UNL     1       4.146  -4.970   9.247  1.00  0.00     0.214 C 
HETATM   17  C7  UNL     1       3.774  -6.398   9.099  1.00  0.00     0.117 C 
HETATM   18  O1  UNL     1       4.347  -4.512  10.397  1.00  0.00    -0.274 OA
ATOM     19  H1  UNL     1       4.089  -4.587   7.174  1.00  0.00     0.163 HD
ENDBRANCH  10  15
ENDBRANCH   7  10
ENDBRANCH   1   6
BRANCH   5  20
HETATM   20  C24 UNL     1       3.685   2.250   7.286  1.00  0.00     0.368 C 
HETATM   21  F1  UNL     1       3.871   2.738   8.552  1.00  0.00    -0.185 F 
HETATM   22  F2  UNL     1       4.851   1.507   6.999  1.00  0.00    -0.185 F 
BRANCH  20  23
HETATM   23  S1  UNL     1       3.706   3.589   6.134  1.00  0.00     0.176 S 
HETATM   24  O4  UNL     1       5.132   3.838   5.649  1.00  0.00    -0.591 OA
HETATM   25  O5  UNL     1       3.229   4.890   6.669  1.00  0.00    -0.591 OA
HETATM   26  O6  UNL     1       2.863   3.159   4.714  1.00  0.00    -0.591 OA
ENDBRANCH  20  23
ENDBRANCH   5  20
BRANCH   3  27
HETATM   27  C11 UNL     1      -0.539   2.280   9.135  1.00  0.00     0.122 C 
BRANCH  27  28
HETATM   28  O3  UNL     1      -1.094   3.254   8.470  1.00  0.00    -0.349 OA
ATOM     29  H3  UNL     1      -1.318   4.043   8.949  1.00  0.00     0.219 HD
ENDBRANCH  27  28
BRANCH  27  30
HETATM   30  C12 UNL     1      -1.319   1.829  10.293  1.00  0.00     0.026 C 
HETATM   31  C13 UNL     1      -2.573   2.606  10.532  1.00  0.00     0.022 C 
HETATM   32  C14 UNL     1      -3.294   2.049  11.743  1.00  0.00    -0.013 C 
HETATM   33  C15 UNL     1      -3.682   0.608  11.558  1.00  0.00     0.009 C 
HETATM   34  C19 UNL     1      -2.403   2.147  12.958  1.00  0.00     0.009 C 
HETATM   35  C16 UNL     1      -2.415  -0.171  11.274  1.00  0.00    -0.013 C 
HETATM   36  C17 UNL     1      -1.505  -0.132  12.457  1.00  0.00     0.009 C 
HETATM   37  C21 UNL     1      -1.791   0.380  10.047  1.00  0.00     0.022 C 
HETATM   38  C18 UNL     1      -1.178   1.316  12.752  1.00  0.00    -0.013 C 
HETATM   39  C20 UNL     1      -0.454   1.842  11.522  1.00  0.00     0.022 C 
ENDBRANCH  27  30
ENDBRANCH   3  27
TORSDOF 11
ENDMDL
MODEL 3
REMARK VINA RESULT: -9.045983841      1.006      2.626
REMARK  11 active torsions:
REMARK  status: ('A' for Active; 'I' for Inactive)
REMARK    1  A    between atoms: C2_2  and  C3_3 
REMARK    2  A    between atoms: C3_3  and  C4_4 
REMARK    3  A    between atoms: C4_4  and  C5_5 
REMARK    4  A    between atoms: C5_5  and  N1_6 
REMARK    5  A    between atoms: C5_5  and  C8_11 
REMARK       I    between atoms: N1_6  and  C6_8 
REMARK       I    between atoms: C8_11  and  N2_13 
REMARK    6  A    between atoms: N2_13  and  C9_15 
REMARK    7  A    between atoms: N3_17  and  C11_18 
REMARK    8  A    between atoms: C11_18  and  O3_19 
REMARK    9  A    between atoms: C11_18  and  C12_21 
REMARK   10  A    between atoms: C23_32  and  C24_33 
REMARK   11  A    between atoms: C24_33  and  S1_36 
ROOT
HETATM    1  C9  UNL     1       2.012   0.843   7.692  1.00  0.00     0.115 C 
HETATM    2  C10 UNL     1       1.744   1.799   8.829  1.00  0.00     0.150 C 
HETATM    3  N3  UNL     1       0.419   2.242   8.530  1.00  0.00    -0.362 N 
HETATM    4  C22 UNL     1       0.223   2.202   7.058  1.00  0.00     0.138 C 
HETATM    5  C23 UNL     1       1.426   1.504   6.486  1.00  0.00     0.119 C 
ENDROOT
BRANCH   1   6
HETATM    6  N2  UNL     1       3.348   0.387   7.595  1.00  0.00    -0.352 N 
HETATM    7  C8  UNL     1       3.648  -1.019   7.568  1.00  0.00     0.240 C 
HETATM    8  O2  UNL     1       2.731  -1.874   7.630  1.00  0.00    -0.271 OA
ATOM      9  H2  UNL     1       4.108   1.065   7.542  1.00  0.00     0.163 HD
BRANCH   7  10
HETATM   10  C5  UNL     1       5.043  -1.512   7.467  1.00  0.00     0.176 C 
BRANCH  10  11
HETATM   11  C4  UNL     1       5.299  -2.599   8.483  1.00  0.00     0.035 C 
BRANCH  11  12
HETATM   12  C3  UNL     1       5.600  -3.906   7.797  1.00  0.00     0.002 C 
BRANCH  12  13
HETATM   13  C2  UNL     1       4.844  -4.994   8.555  1.00  0.00    -0.004 C 
HETATM   14  C1  UNL     1       4.273  -4.350   9.802  1.00  0.00     0.005 C 
ENDBRANCH  12  13
ENDBRANCH  11  12
ENDBRANCH  10  11
BRANCH  10  15
HETATM   15  N1  UNL     1       5.987  -0.429   7.585  1.00  0.00    -0.348 N 
HETATM   16  C6  UNL     1       7.313  -0.500   7.077  1.00  0.00     0.214 C 
HETATM   17  C7  UNL     1       8.215   0.664   7.246  1.00  0.00     0.117 C 
HETATM   18  O1  UNL     1       7.743  -1.519   6.487  1.00  0.00    -0.274 OA
ATOM     19  H1  UNL     1       5.691   0.427   8.054  1.00  0.00     0.163 HD
ENDBRANCH  10  15
ENDBRANCH   7  10
ENDBRANCH   1   6
BRANCH   5  20
HETATM   20  C24 UNL     1       2.276   2.494   5.785  1.00  0.00     0.368 C 
HETATM   21  F1  UNL     1       2.326   3.733   6.366  1.00  0.00    -0.185 F 
HETATM   22  F2  UNL     1       3.619   2.060   5.722  1.00  0.00    -0.185 F 
BRANCH  20  23
HETATM   23  S1  UNL     1       1.773   2.658   4.100  1.00  0.00     0.176 S 
HETATM   24  O4  UNL     1       0.877   1.487   3.705  1.00  0.00    -0.591 OA
HETATM   25  O5  UNL     1       2.879   2.671   3.108  1.00  0.00    -0.591 OA
HETATM   26  O6  UNL     1       0.764   4.022   3.916  1.00  0.00    -0.591 OA
ENDBRANCH  20  23
ENDBRANCH   5  20
BRANCH   3  27
HETATM   27  C11 UNL     1      -0.616   2.690   9.371  1.00  0.00     0.122 C 
BRANCH  27  28
HETATM   28  O3  UNL     1      -1.015   3.923   9.234  1.00  0.00    -0.349 OA
ATOM     29  H3  UNL     1      -1.933   4.070   9.041  1.00  0.00     0.219 HD
ENDBRANCH  27  28
BRANCH  27  30
HETATM   30  C12 UNL     1      -1.331   1.944  10.413  1.00  0.00     0.026 C 
HETATM   31  C13 UNL     1      -2.655   2.526  10.788  1.00  0.00     0.022 C 
HETATM   32  C14 UNL     1      -3.300   1.671  11.861  1.00  0.00    -0.013 C 
HETATM   33  C15 UNL     1      -3.540   0.262  11.395  1.00  0.00     0.009 C 
HETATM   34  C19 UNL     1      -2.409   1.623  13.079  1.00  0.00     0.009 C 
HETATM   35  C16 UNL     1      -2.202  -0.311  10.976  1.00  0.00    -0.013 C 
HETATM   36  C17 UNL     1      -1.287  -0.409  12.151  1.00  0.00     0.009 C 
HETATM   37  C21 UNL     1      -1.654   0.530   9.885  1.00  0.00     0.022 C 
HETATM   38  C18 UNL     1      -1.108   0.979  12.726  1.00  0.00    -0.013 C 
HETATM   39  C20 UNL     1      -0.457   1.806  11.627  1.00  0.00     0.022 C 
ENDBRANCH  27  30
ENDBRANCH   3  27
TORSDOF 11
ENDMDL
MODEL 4
REMARK VINA RESULT: -9.045505054      2.829      8.190
REMARK  11 active torsions:
REMARK  status: ('A' for Active; 'I' for Inactive)
REMARK    1  A    between atoms: C2_2  and  C3_3 
REMARK    2  A    between atoms: C3_3  and  C4_4 
REMARK    3  A    between atoms: C4_4  and  C5_5 
REMARK    4  A    between atoms: C5_5  and  N1_6 
REMARK    5  A    between atoms: C5_5  and  C8_11 
REMARK       I    between atoms: N1_6  and  C6_8 
REMARK       I    between atoms: C8_11  and  N2_13 
REMARK    6  A    between atoms: N2_13  and  C9_15 
REMARK    7  A    between atoms: N3_17  and  C11_18 
REMARK    8  A    between atoms: C11_18  and  O3_19 
REMARK    9  A    between atoms: C11_18  and  C12_21 
REMARK   10  A    between atoms: C23_32  and  C24_33 
REMARK   11  A    between atoms: C24_33  and  S1_36 
ROOT
HETATM    1  C9  UNL     1       1.291   0.375  10.349  1.00  0.00     0.115 C 
HETATM    2  C10 UNL     1       1.710  -0.841   9.560  1.00  0.00     0.150 C 
HETATM    3  N3  UNL     1       2.618  -0.275   8.614  1.00  0.00    -0.362 N 
HETATM    4  C22 UNL     1       2.210   1.126   8.340  1.00  0.00     0.138 C 
HETATM    5  C23 UNL     1       1.131   1.459   9.332  1.00  0.00     0.119 C 
ENDROOT
BRANCH   1   6
HETATM    6  N2  UNL     1       0.217   0.167  11.248  1.00  0.00    -0.352 N 
HETATM    7  C8  UNL     1       0.132   0.904  12.479  1.00  0.00     0.240 C 
HETATM    8  O2  UNL     1       1.007   1.751  12.785  1.00  0.00    -0.271 OA
ATOM      9  H2  UNL     1      -0.505  -0.515  11.018  1.00  0.00     0.163 HD
BRANCH   7  10
HETATM   10  C5  UNL     1      -0.987   0.697  13.430  1.00  0.00     0.176 C 
BRANCH  10  11
HETATM   11  C4  UNL     1      -1.870   1.921  13.488  1.00  0.00     0.035 C 
BRANCH  11  12
HETATM   12  C3  UNL     1      -2.698   2.039  12.235  1.00  0.00     0.002 C 
BRANCH  12  13
HETATM   13  C2  UNL     1      -3.796   3.060  12.518  1.00  0.00    -0.004 C 
HETATM   14  C1  UNL     1      -3.729   3.385  13.996  1.00  0.00     0.005 C 
ENDBRANCH  12  13
ENDBRANCH  11  12
ENDBRANCH  10  11
BRANCH  10  15
HETATM   15  N1  UNL     1      -0.499   0.321  14.733  1.00  0.00    -0.348 N 
HETATM   16  C6  UNL     1       0.299  -0.835  14.956  1.00  0.00     0.214 C 
HETATM   17  C7  UNL     1       0.755  -1.145  16.332  1.00  0.00     0.117 C 
HETATM   18  O1  UNL     1       0.630  -1.603  14.021  1.00  0.00    -0.274 OA
ATOM     19  H1  UNL     1      -0.736   0.909  15.531  1.00  0.00     0.163 HD
ENDBRANCH  10  15
ENDBRANCH   7  10
ENDBRANCH   1   6
BRANCH   5  20
HETATM   20  C24 UNL     1      -0.172   1.532   8.631  1.00  0.00     0.368 C 
HETATM   21  F1  UNL     1      -0.210   0.911   7.410  1.00  0.00    -0.185 F 
HETATM   22  F2  UNL     1      -1.195   0.922   9.389  1.00  0.00    -0.185 F 
BRANCH  20  23
HETATM   23  S1  UNL     1      -0.683   3.212   8.448  1.00  0.00     0.176 S 
HETATM   24  O4  UNL     1       0.450   4.151   8.856  1.00  0.00    -0.591 OA
HETATM   25  O5  UNL     1      -1.853   3.611   9.273  1.00  0.00    -0.591 OA
HETATM   26  O6  UNL     1      -0.938   3.575   6.800  1.00  0.00    -0.591 OA
ENDBRANCH  20  23
ENDBRANCH   5  20
BRANCH   3  27
HETATM   27  C11 UNL     1       3.729  -0.833   7.955  1.00  0.00     0.122 C 
BRANCH  27  28
HETATM   28  O3  UNL     1       4.589  -0.012   7.420  1.00  0.00    -0.349 OA
ATOM     29  H3  UNL     1       5.500  -0.102   7.674  1.00  0.00     0.219 HD
ENDBRANCH  27  28
BRANCH  27  30
HETATM   30  C12 UNL     1       4.068  -2.250   7.781  1.00  0.00     0.026 C 
HETATM   31  C13 UNL     1       4.001  -3.058   9.035  1.00  0.00     0.022 C 
HETATM   32  C14 UNL     1       4.362  -4.499   8.732  1.00  0.00    -0.013 C 
HETATM   33  C15 UNL     1       3.420  -5.122   7.740  1.00  0.00     0.009 C 
HETATM   34  C19 UNL     1       5.760  -4.566   8.165  1.00  0.00     0.009 C 
HETATM   35  C16 UNL     1       3.458  -4.277   6.484  1.00  0.00    -0.013 C 
HETATM   36  C17 UNL     1       4.814  -4.330   5.863  1.00  0.00     0.009 C 
HETATM   37  C21 UNL     1       3.036  -2.899   6.834  1.00  0.00     0.022 C 
HETATM   38  C18 UNL     1       5.816  -3.816   6.874  1.00  0.00    -0.013 C 
HETATM   39  C20 UNL     1       5.427  -2.371   7.152  1.00  0.00     0.022 C 
ENDBRANCH  27  30
ENDBRANCH   3  27
TORSDOF 11
ENDMDL
MODEL 5
REMARK VINA RESULT: -8.986623942      2.344      8.199
REMARK  11 active torsions:
REMARK  status: ('A' for Active; 'I' for Inactive)
REMARK    1  A    between atoms: C2_2  and  C3_3 
REMARK    2  A    between atoms: C3_3  and  C4_4 
REMARK    3  A    between atoms: C4_4  and  C5_5 
REMARK    4  A    between atoms: C5_5  and  N1_6 
REMARK    5  A    between atoms: C5_5  and  C8_11 
REMARK       I    between atoms: N1_6  and  C6_8 
REMARK       I    between atoms: C8_11  and  N2_13 
REMARK    6  A    between atoms: N2_13  and  C9_15 
REMARK    7  A    between atoms: N3_17  and  C11_18 
REMARK    8  A    between atoms: C11_18  and  O3_19 
REMARK    9  A    between atoms: C11_18  and  C12_21 
REMARK   10  A    between atoms: C23_32  and  C24_33 
REMARK   11  A    between atoms: C24_33  and  S1_36 
ROOT
HETATM    1  C9  UNL     1       1.997  -0.025   9.545  1.00  0.00     0.115 C 
HETATM    2  C10 UNL     1       2.278  -1.458   9.165  1.00  0.00     0.150 C 
HETATM    3  N3  UNL     1       3.405  -1.313   8.298  1.00  0.00    -0.362 N 
HETATM    4  C22 UNL     1       3.321   0.007   7.623  1.00  0.00     0.138 C 
HETATM    5  C23 UNL     1       2.197   0.755   8.285  1.00  0.00     0.119 C 
ENDROOT
BRANCH   1   6
HETATM    6  N2  UNL     1       0.787   0.183  10.249  1.00  0.00    -0.352 N 
HETATM    7  C8  UNL     1       0.716   1.125  11.333  1.00  0.00     0.240 C 
HETATM    8  O2  UNL     1       1.726   1.786  11.679  1.00  0.00    -0.271 OA
ATOM      9  H2  UNL     1      -0.046  -0.343   9.984  1.00  0.00     0.163 HD
BRANCH   7  10
HETATM   10  C5  UNL     1      -0.545   1.353  12.080  1.00  0.00     0.176 C 
BRANCH  10  11
HETATM   11  C4  UNL     1      -0.301   1.286  13.569  1.00  0.00     0.035 C 
BRANCH  11  12
HETATM   12  C3  UNL     1      -0.897   0.030  14.148  1.00  0.00     0.002 C 
BRANCH  12  13
HETATM   13  C2  UNL     1       0.264  -0.898  14.496  1.00  0.00    -0.004 C 
HETATM   14  C1  UNL     1       0.299  -1.018  16.006  1.00  0.00     0.005 C 
ENDBRANCH  12  13
ENDBRANCH  11  12
ENDBRANCH  10  11
BRANCH  10  15
HETATM   15  N1  UNL     1      -1.572   0.433  11.659  1.00  0.00    -0.348 N 
HETATM   16  C6  UNL     1      -2.870   0.854  11.260  1.00  0.00     0.214 C 
HETATM   17  C7  UNL     1      -3.864  -0.164  10.844  1.00  0.00     0.117 C 
HETATM   18  O1  UNL     1      -3.201   2.064  11.250  1.00  0.00    -0.274 OA
ATOM     19  H1  UNL     1      -1.358  -0.564  11.646  1.00  0.00     0.163 HD
ENDBRANCH  10  15
ENDBRANCH   7  10
ENDBRANCH   1   6
BRANCH   5  20
HETATM   20  C24 UNL     1       1.047   0.832   7.355  1.00  0.00     0.368 C 
HETATM   21  F1  UNL     1       0.957  -0.197   6.455  1.00  0.00    -0.185 F 
HETATM   22  F2  UNL     1      -0.179   0.818   8.057  1.00  0.00    -0.185 F 
BRANCH  20  23
HETATM   23  S1  UNL     1       1.055   2.370   6.487  1.00  0.00     0.176 S 
HETATM   24  O4  UNL     1      -0.258   3.111   6.724  1.00  0.00    -0.591 OA
HETATM   25  O5  UNL     1       1.197   2.263   5.012  1.00  0.00    -0.591 OA
HETATM   26  O6  UNL     1       2.234   3.412   7.146  1.00  0.00    -0.591 OA
ENDBRANCH  20  23
ENDBRANCH   5  20
BRANCH   3  27
HETATM   27  C11 UNL     1       4.468  -2.190   8.014  1.00  0.00     0.122 C 
BRANCH  27  28
HETATM   28  O3  UNL     1       5.661  -1.840   8.406  1.00  0.00    -0.349 OA
ATOM     29  H3  UNL     1       5.726  -1.153   9.057  1.00  0.00     0.219 HD
ENDBRANCH  27  28
BRANCH  27  30
HETATM   30  C12 UNL     1       4.423  -3.481   7.318  1.00  0.00     0.026 C 
HETATM   31  C13 UNL     1       4.284  -4.663   8.222  1.00  0.00     0.022 C 
HETATM   32  C14 UNL     1       4.241  -5.933   7.395  1.00  0.00    -0.013 C 
HETATM   33  C15 UNL     1       3.078  -5.951   6.444  1.00  0.00     0.009 C 
HETATM   34  C19 UNL     1       5.513  -6.061   6.592  1.00  0.00     0.009 C 
HETATM   35  C16 UNL     1       3.198  -4.729   5.556  1.00  0.00    -0.013 C 
HETATM   36  C17 UNL     1       4.428  -4.817   4.715  1.00  0.00     0.009 C 
HETATM   37  C21 UNL     1       3.171  -3.522   6.416  1.00  0.00     0.022 C 
HETATM   38  C18 UNL     1       5.624  -4.917   5.637  1.00  0.00    -0.013 C 
HETATM   39  C20 UNL     1       5.638  -3.629   6.447  1.00  0.00     0.022 C 
ENDBRANCH  27  30
ENDBRANCH   3  27
TORSDOF 11
ENDMDL
