MODEL 1
REMARK VINA RESULT: -8.585270544      0.000      0.000
REMARK  12 active torsions:
REMARK  status: ('A' for Active; 'I' for Inactive)
REMARK    1  A    between atoms: N1_2  and  C2_3 
REMARK    2  A    between atoms: N1_2  and  C3_5 
REMARK    3  A    between atoms: C3_5  and  C4_6 
REMARK    4  A    between atoms: C3_5  and  C21_33 
REMARK       I    between atoms: C4_6  and  N2_8 
REMARK    5  A    between atoms: N2_8  and  C5_10 
REMARK    6  A    between atoms: C5_10  and  C6_11 
REMARK    7  A    between atoms: C5_10  and  C13_18 
REMARK    8  A    between atoms: C6_11  and  C7_12 
REMARK    9  A    between atoms: C13_18  and  O3_19 
REMARK   10  A    between atoms: C13_18  and  C14_21 
REMARK       I    between atoms: C14_21  and  N3_23 
REMARK   11  A    between atoms: C19_29  and  C20_30 
REMARK   12  A    between atoms: C21_33  and  C24_36 
ROOT
HETATM    1  C5  UNL     1       1.342   0.944   7.988  1.00  0.00     0.126 C 
ENDROOT
BRANCH   1   2
HETATM    2  N2  UNL     1       0.427   0.612   9.103  1.00  0.00    -0.351 N 
HETATM    3  C4  UNL     1       0.658   1.177  10.366  1.00  0.00     0.242 C 
HETATM    4  O2  UNL     1       1.682   1.961  10.408  1.00  0.00    -0.271 OA
ATOM      5  H2  UNL     1      -0.360  -0.018   8.955  1.00  0.00     0.163 HD
BRANCH   3   6
HETATM    6  C3  UNL     1      -0.146   0.958  11.594  1.00  0.00     0.194 C 
BRANCH   6   7
HETATM    7  N1  UNL     1       0.215  -0.250  12.247  1.00  0.00    -0.349 N 
HETATM    8  C1  UNL     1       1.058  -1.236  11.494  1.00  0.00     0.153 C 
BRANCH   7   9
HETATM    9  C2  UNL     1      -0.098  -0.637  13.537  1.00  0.00     0.351 C 
HETATM   10  O1  UNL     1       0.215  -0.167  14.646  1.00  0.00    -0.284 OA
ENDBRANCH   7   9
ENDBRANCH   6   7
BRANCH   6  11
HETATM   11  C21 UNL     1      -1.567   1.247  11.386  1.00  0.00     0.079 C 
HETATM   12  C22 UNL     1      -1.750   2.346  10.327  1.00  0.00     0.027 C 
HETATM   13  C23 UNL     1      -2.412   0.107  10.884  1.00  0.00     0.027 C 
BRANCH  11  14
HETATM   14  C24 UNL     1      -2.301   1.777  12.600  1.00  0.00     0.397 C 
HETATM   15  F1  UNL     1      -3.134   0.810  13.147  1.00  0.00    -0.170 F 
HETATM   16  F2  UNL     1      -3.136   2.816  12.220  1.00  0.00    -0.170 F 
HETATM   17  F3  UNL     1      -1.492   2.242  13.578  1.00  0.00    -0.170 F 
ENDBRANCH  11  14
ENDBRANCH   6  11
ENDBRANCH   3   6
ENDBRANCH   1   2
BRANCH   1  18
HETATM   18  C6  UNL     1       2.085  -0.349   7.749  1.00  0.00     0.066 C 
BRANCH  18  19
HETATM   19  C7  UNL     1       3.522  -0.274   7.580  1.00  0.00    -0.056 A 
HETATM   20  C8  UNL     1       4.191   0.909   7.405  1.00  0.00     0.007 A 
HETATM   21  C9  UNL     1       5.566   0.967   7.242  1.00  0.00     0.001 A 
HETATM   22  C10 UNL     1       6.296  -0.218   7.255  1.00  0.00     0.000 A 
HETATM   23  C11 UNL     1       5.624  -1.410   7.432  1.00  0.00     0.001 A 
HETATM   24  C12 UNL     1       4.275  -1.436   7.589  1.00  0.00     0.007 A 
ENDBRANCH  18  19
ENDBRANCH   1  18
BRANCH   1  25
HETATM   25  C13 UNL     1       0.530   1.368   6.788  1.00  0.00     0.233 C 
BRANCH  25  26
HETATM   26  O3  UNL     1       0.470   0.312   5.898  1.00  0.00    -0.384 OA
ATOM     27  H3  UNL     1      -0.425  -0.004   5.859  1.00  0.00     0.210 HD
ENDBRANCH  25  26
BRANCH  25  28
HETATM   28  C14 UNL     1       0.912   2.656   6.245  1.00  0.00     0.252 C 
HETATM   29  O4  UNL     1       2.006   2.762   5.626  1.00  0.00    -0.270 OA
HETATM   30  N3  UNL     1       0.080   3.823   6.391  1.00  0.00    -0.325 N 
HETATM   31  C15 UNL     1      -1.142   3.819   7.126  1.00  0.00     0.202 C 
HETATM   32  C19 UNL     1       0.426   5.081   5.760  1.00  0.00     0.207 C 
HETATM   33  S1  UNL     1      -1.546   5.608   7.269  1.00  0.00    -0.137 SA
HETATM   34  C16 UNL     1       0.084   6.214   6.663  1.00  0.00     0.033 C 
HETATM   35  C17 UNL     1       1.072   6.323   7.781  1.00  0.00     0.029 C 
HETATM   36  C18 UNL     1      -0.174   7.522   5.985  1.00  0.00     0.029 C 
BRANCH  32  37
HETATM   37  C20 UNL     1      -0.159   5.182   4.397  1.00  0.00     0.198 C 
HETATM   38  O5  UNL     1       0.576   5.343   3.365  1.00  0.00    -0.646 OA
HETATM   39  O6  UNL     1      -1.520   5.112   4.153  1.00  0.00    -0.646 OA
ENDBRANCH  32  37
ENDBRANCH  25  28
ENDBRANCH   1  25
TORSDOF 12
ENDMDL
MODEL 2
REMARK VINA RESULT: -8.520176178      1.175      1.377
REMARK  12 active torsions:
REMARK  status: ('A' for Active; 'I' for Inactive)
REMARK    1  A    between atoms: N1_2  and  C2_3 
REMARK    2  A    between atoms: N1_2  and  C3_5 
REMARK    3  A    between atoms: C3_5  and  C4_6 
REMARK    4  A    between atoms: C3_5  and  C21_33 
REMARK       I    between atoms: C4_6  and  N2_8 
REMARK    5  A    between atoms: N2_8  and  C5_10 
REMARK    6  A    between atoms: C5_10  and  C6_11 
REMARK    7  A    between atoms: C5_10  and  C13_18 
REMARK    8  A    between atoms: C6_11  and  C7_12 
REMARK    9  A    between atoms: C13_18  and  O3_19 
REMARK   10  A    between atoms: C13_18  and  C14_21 
REMARK       I    between atoms: C14_21  and  N3_23 
REMARK   11  A    between atoms: C19_29  and  C20_30 
REMARK   12  A    between atoms: C21_33  and  C24_36 
ROOT
HETATM    1  C5  UNL     1       1.481   0.789   8.662  1.00  0.00     0.126 C 
ENDROOT
BRANCH   1   2
HETATM    2  N2  UNL     1       0.450   0.493   9.682  1.00  0.00    -0.351 N 
HETATM    3  C4  UNL     1       0.447   1.223  10.879  1.00  0.00     0.242 C 
HETATM    4  O2  UNL     1       1.379   2.111  10.952  1.00  0.00    -0.271 OA
ATOM      5  H2  UNL     1      -0.249  -0.231   9.515  1.00  0.00     0.163 HD
BRANCH   3   6
HETATM    6  C3  UNL     1      -0.501   1.064  12.010  1.00  0.00     0.194 C 
BRANCH   6   7
HETATM    7  N1  UNL     1      -0.257  -0.134  12.733  1.00  0.00    -0.349 N 
HETATM    8  C1  UNL     1      -0.422  -0.107  14.223  1.00  0.00     0.153 C 
BRANCH   7   9
HETATM    9  C2  UNL     1       0.102  -1.367  12.222  1.00  0.00     0.351 C 
HETATM   10  O1  UNL     1      -0.566  -2.380  11.947  1.00  0.00    -0.284 OA
ENDBRANCH   7   9
ENDBRANCH   6   7
BRANCH   6  11
HETATM   11  C21 UNL     1      -1.878   1.387  11.630  1.00  0.00     0.079 C 
HETATM   12  C22 UNL     1      -1.901   2.371  10.449  1.00  0.00     0.027 C 
HETATM   13  C23 UNL     1      -2.729   0.235  11.166  1.00  0.00     0.027 C 
BRANCH  11  14
HETATM   14  C24 UNL     1      -2.698   2.076  12.701  1.00  0.00     0.397 C 
HETATM   15  F1  UNL     1      -3.602   1.199  13.285  1.00  0.00    -0.170 F 
HETATM   16  F2  UNL     1      -3.467   3.075  12.125  1.00  0.00    -0.170 F 
HETATM   17  F3  UNL     1      -1.962   2.642  13.683  1.00  0.00    -0.170 F 
ENDBRANCH  11  14
ENDBRANCH   6  11
ENDBRANCH   3   6
ENDBRANCH   1   2
BRANCH   1  18
HETATM   18  C6  UNL     1       1.941  -0.582   8.223  1.00  0.00     0.066 C 
BRANCH  18  19
HETATM   19  C7  UNL     1       3.345  -0.748   7.910  1.00  0.00    -0.056 A 
HETATM   20  C8  UNL     1       4.163   0.299   7.573  1.00  0.00     0.007 A 
HETATM   21  C9  UNL     1       5.505   0.125   7.274  1.00  0.00     0.001 A 
HETATM   22  C10 UNL     1       6.045  -1.157   7.317  1.00  0.00     0.000 A 
HETATM   23  C11 UNL     1       5.223  -2.212   7.657  1.00  0.00     0.001 A 
HETATM   24  C12 UNL     1       3.910  -2.012   7.945  1.00  0.00     0.007 A 
ENDBRANCH  18  19
ENDBRANCH   1  18
BRANCH   1  25
HETATM   25  C13 UNL     1       0.853   1.571   7.533  1.00  0.00     0.233 C 
BRANCH  25  26
HETATM   26  O3  UNL     1       1.030   0.869   6.355  1.00  0.00    -0.384 OA
ATOM     27  H3  UNL     1       0.878   1.457   5.625  1.00  0.00     0.210 HD
ENDBRANCH  25  26
BRANCH  25  28
HETATM   28  C14 UNL     1       1.218   2.973   7.516  1.00  0.00     0.252 C 
HETATM   29  O4  UNL     1       2.343   3.321   7.970  1.00  0.00    -0.270 OA
HETATM   30  N3  UNL     1       0.335   3.985   6.996  1.00  0.00    -0.325 N 
HETATM   31  C15 UNL     1      -0.979   3.700   6.519  1.00  0.00     0.202 C 
HETATM   32  C19 UNL     1       0.750   5.370   6.895  1.00  0.00     0.207 C 
HETATM   33  S1  UNL     1      -1.729   5.371   6.344  1.00  0.00    -0.137 SA
HETATM   34  C16 UNL     1      -0.388   6.268   7.233  1.00  0.00     0.033 C 
HETATM   35  C17 UNL     1      -0.634   6.287   8.709  1.00  0.00     0.029 C 
HETATM   36  C18 UNL     1      -0.326   7.639   6.636  1.00  0.00     0.029 C 
BRANCH  32  37
HETATM   37  C20 UNL     1       1.384   5.650   5.580  1.00  0.00     0.198 C 
HETATM   38  O5  UNL     1       2.501   6.263   5.495  1.00  0.00    -0.646 OA
HETATM   39  O6  UNL     1       0.820   5.274   4.374  1.00  0.00    -0.646 OA
ENDBRANCH  32  37
ENDBRANCH  25  28
ENDBRANCH   1  25
TORSDOF 12
ENDMDL
MODEL 3
REMARK VINA RESULT: -8.453106338      3.028      5.182
REMARK  12 active torsions:
REMARK  status: ('A' for Active; 'I' for Inactive)
REMARK    1  A    between atoms: N1_2  and  C2_3 
REMARK    2  A    between atoms: N1_2  and  C3_5 
REMARK    3  A    between atoms: C3_5  and  C4_6 
REMARK    4  A    between atoms: C3_5  and  C21_33 
REMARK       I    between atoms: C4_6  and  N2_8 
REMARK    5  A    between atoms: N2_8  and  C5_10 
REMARK    6  A    between atoms: C5_10  and  C6_11 
REMARK    7  A    between atoms: C5_10  and  C13_18 
REMARK    8  A    between atoms: C6_11  and  C7_12 
REMARK    9  A    between atoms: C13_18  and  O3_19 
REMARK   10  A    between atoms: C13_18  and  C14_21 
REMARK       I    between atoms: C14_21  and  N3_23 
REMARK   11  A    between atoms: C19_29  and  C20_30 
REMARK   12  A    between atoms: C21_33  and  C24_36 
ROOT
HETATM    1  C5  UNL     1      -0.650   3.210   7.718  1.00  0.00     0.126 C 
ENDROOT
BRANCH   1   2
HETATM    2  N2  UNL     1      -0.674   3.198   9.197  1.00  0.00    -0.351 N 
HETATM    3  C4  UNL     1      -1.193   2.078   9.862  1.00  0.00     0.242 C 
HETATM    4  O2  UNL     1      -1.601   1.143   9.072  1.00  0.00    -0.271 OA
ATOM      5  H2  UNL     1      -0.317   3.994   9.726  1.00  0.00     0.163 HD
BRANCH   3   6
HETATM    6  C3  UNL     1      -1.301   1.891  11.331  1.00  0.00     0.194 C 
BRANCH   6   7
HETATM    7  N1  UNL     1      -0.505   0.805  11.780  1.00  0.00    -0.349 N 
HETATM    8  C1  UNL     1       0.984   0.985  11.814  1.00  0.00     0.153 C 
BRANCH   7   9
HETATM    9  C2  UNL     1      -0.939  -0.430  12.226  1.00  0.00     0.351 C 
HETATM   10  O1  UNL     1      -0.940  -1.554  11.692  1.00  0.00    -0.284 OA
ENDBRANCH   7   9
ENDBRANCH   6   7
BRANCH   6  11
HETATM   11  C21 UNL     1      -2.684   1.993  11.803  1.00  0.00     0.079 C 
HETATM   12  C22 UNL     1      -3.429   3.119  11.070  1.00  0.00     0.027 C 
HETATM   13  C23 UNL     1      -3.550   0.780  11.592  1.00  0.00     0.027 C 
BRANCH  11  14
HETATM   14  C24 UNL     1      -2.840   2.338  13.270  1.00  0.00     0.397 C 
HETATM   15  F1  UNL     1      -3.616   1.394  13.929  1.00  0.00    -0.170 F 
HETATM   16  F2  UNL     1      -3.526   3.536  13.393  1.00  0.00    -0.170 F 
HETATM   17  F3  UNL     1      -1.671   2.466  13.936  1.00  0.00    -0.170 F 
ENDBRANCH  11  14
ENDBRANCH   6  11
ENDBRANCH   3   6
ENDBRANCH   1   2
BRANCH   1  18
HETATM   18  C6  UNL     1      -0.922   4.655   7.375  1.00  0.00     0.066 C 
BRANCH  18  19
HETATM   19  C7  UNL     1      -2.111   5.264   7.934  1.00  0.00    -0.056 A 
HETATM   20  C8  UNL     1      -3.376   4.806   7.673  1.00  0.00     0.007 A 
HETATM   21  C9  UNL     1      -4.506   5.399   8.213  1.00  0.00     0.001 A 
HETATM   22  C10 UNL     1      -4.355   6.499   9.052  1.00  0.00     0.000 A 
HETATM   23  C11 UNL     1      -3.081   6.961   9.317  1.00  0.00     0.001 A 
HETATM   24  C12 UNL     1      -1.991   6.359   8.772  1.00  0.00     0.007 A 
ENDBRANCH  18  19
ENDBRANCH   1  18
BRANCH   1  25
HETATM   25  C13 UNL     1       0.707   2.753   7.239  1.00  0.00     0.233 C 
BRANCH  25  26
HETATM   26  O3  UNL     1       1.001   1.539   7.831  1.00  0.00    -0.384 OA
ATOM     27  H3  UNL     1       1.931   1.372   7.740  1.00  0.00     0.210 HD
ENDBRANCH  25  26
BRANCH  25  28
HETATM   28  C14 UNL     1       1.731   3.777   7.313  1.00  0.00     0.252 C 
HETATM   29  O4  UNL     1       2.219   4.078   8.437  1.00  0.00    -0.270 OA
HETATM   30  N3  UNL     1       2.209   4.463   6.140  1.00  0.00    -0.325 N 
HETATM   31  C15 UNL     1       1.677   4.239   4.837  1.00  0.00     0.202 C 
HETATM   32  C19 UNL     1       3.300   5.414   6.215  1.00  0.00     0.207 C 
HETATM   33  S1  UNL     1       2.394   5.617   3.852  1.00  0.00    -0.137 SA
HETATM   34  C16 UNL     1       3.043   6.557   5.296  1.00  0.00     0.033 C 
HETATM   35  C17 UNL     1       2.001   7.471   5.861  1.00  0.00     0.029 C 
HETATM   36  C18 UNL     1       4.259   7.286   4.818  1.00  0.00     0.029 C 
BRANCH  32  37
HETATM   37  C20 UNL     1       4.613   4.748   6.013  1.00  0.00     0.198 C 
HETATM   38  O5  UNL     1       5.541   4.820   6.888  1.00  0.00    -0.646 OA
HETATM   39  O6  UNL     1       4.922   4.013   4.881  1.00  0.00    -0.646 OA
ENDBRANCH  32  37
ENDBRANCH  25  28
ENDBRANCH   1  25
TORSDOF 12
ENDMDL
MODEL 4
REMARK VINA RESULT: -8.258155975      1.852      2.593
REMARK  12 active torsions:
REMARK  status: ('A' for Active; 'I' for Inactive)
REMARK    1  A    between atoms: N1_2  and  C2_3 
REMARK    2  A    between atoms: N1_2  and  C3_5 
REMARK    3  A    between atoms: C3_5  and  C4_6 
REMARK    4  A    between atoms: C3_5  and  C21_33 
REMARK       I    between atoms: C4_6  and  N2_8 
REMARK    5  A    between atoms: N2_8  and  C5_10 
REMARK    6  A    between atoms: C5_10  and  C6_11 
REMARK    7  A    between atoms: C5_10  and  C13_18 
REMARK    8  A    between atoms: C6_11  and  C7_12 
REMARK    9  A    between atoms: C13_18  and  O3_19 
REMARK   10  A    between atoms: C13_18  and  C14_21 
REMARK       I    between atoms: C14_21  and  N3_23 
REMARK   11  A    between atoms: C19_29  and  C20_30 
REMARK   12  A    between atoms: C21_33  and  C24_36 
ROOT
HETATM    1  C5  UNL     1       2.125   1.449   9.265  1.00  0.00     0.126 C 
ENDROOT
BRANCH   1   2
HETATM    2  N2  UNL     1       0.793   1.245   9.878  1.00  0.00    -0.351 N 
HETATM    3  C4  UNL     1       0.651   1.391  11.265  1.00  0.00     0.242 C 
HETATM    4  O2  UNL     1       1.745   1.708  11.872  1.00  0.00    -0.271 OA
ATOM      5  H2  UNL     1      -0.010   1.002   9.298  1.00  0.00     0.163 HD
BRANCH   3   6
HETATM    6  C3  UNL     1      -0.597   1.223  12.050  1.00  0.00     0.194 C 
BRANCH   6   7
HETATM    7  N1  UNL     1      -0.508   0.123  12.944  1.00  0.00    -0.349 N 
HETATM    8  C1  UNL     1      -0.170  -1.224  12.377  1.00  0.00     0.153 C 
BRANCH   7   9
HETATM    9  C2  UNL     1      -0.675   0.137  14.316  1.00  0.00     0.351 C 
HETATM   10  O1  UNL     1       0.069  -0.216  15.249  1.00  0.00    -0.284 OA
ENDBRANCH   7   9
ENDBRANCH   6   7
BRANCH   6  11
HETATM   11  C21 UNL     1      -1.797   1.360  11.221  1.00  0.00     0.079 C 
HETATM   12  C22 UNL     1      -1.660   2.551  10.259  1.00  0.00     0.027 C 
HETATM   13  C23 UNL     1      -2.123   0.197  10.323  1.00  0.00     0.027 C 
BRANCH  11  14
HETATM   14  C24 UNL     1      -3.077   1.642  11.981  1.00  0.00     0.397 C 
HETATM   15  F1  UNL     1      -3.975   2.361  11.204  1.00  0.00    -0.170 F 
HETATM   16  F2  UNL     1      -2.798   2.450  13.072  1.00  0.00    -0.170 F 
HETATM   17  F3  UNL     1      -3.703   0.536  12.440  1.00  0.00    -0.170 F 
ENDBRANCH  11  14
ENDBRANCH   6  11
ENDBRANCH   3   6
ENDBRANCH   1   2
BRANCH   1  18
HETATM   18  C6  UNL     1       2.101   0.532   8.065  1.00  0.00     0.066 C 
BRANCH  18  19
HETATM   19  C7  UNL     1       3.172  -0.436   7.942  1.00  0.00    -0.056 A 
HETATM   20  C8  UNL     1       4.409  -0.120   7.444  1.00  0.00     0.007 A 
HETATM   21  C9  UNL     1       5.424  -1.057   7.329  1.00  0.00     0.001 A 
HETATM   22  C10 UNL     1       5.181  -2.366   7.733  1.00  0.00     0.000 A 
HETATM   23  C11 UNL     1       3.936  -2.686   8.235  1.00  0.00     0.001 A 
HETATM   24  C12 UNL     1       2.960  -1.746   8.336  1.00  0.00     0.007 A 
ENDBRANCH  18  19
ENDBRANCH   1  18
BRANCH   1  25
HETATM   25  C13 UNL     1       2.274   2.900   8.874  1.00  0.00     0.233 C 
BRANCH  25  26
HETATM   26  O3  UNL     1       2.108   3.682  10.001  1.00  0.00    -0.384 OA
ATOM     27  H3  UNL     1       1.363   4.256   9.867  1.00  0.00     0.210 HD
ENDBRANCH  25  26
BRANCH  25  28
HETATM   28  C14 UNL     1       1.507   3.275   7.703  1.00  0.00     0.252 C 
HETATM   29  O4  UNL     1       0.284   2.971   7.647  1.00  0.00    -0.270 OA
HETATM   30  N3  UNL     1       2.099   3.986   6.598  1.00  0.00    -0.325 N 
HETATM   31  C15 UNL     1       3.484   4.319   6.541  1.00  0.00     0.202 C 
HETATM   32  C19 UNL     1       1.299   4.441   5.478  1.00  0.00     0.207 C 
HETATM   33  S1  UNL     1       3.709   4.863   4.798  1.00  0.00    -0.137 SA
HETATM   34  C16 UNL     1       2.063   4.281   4.211  1.00  0.00     0.033 C 
HETATM   35  C17 UNL     1       2.112   2.845   3.794  1.00  0.00     0.029 C 
HETATM   36  C18 UNL     1       1.662   5.196   3.097  1.00  0.00     0.029 C 
BRANCH  32  37
HETATM   37  C20 UNL     1       0.772   5.811   5.710  1.00  0.00     0.198 C 
HETATM   38  O5  UNL     1      -0.439   6.115   5.444  1.00  0.00    -0.646 OA
HETATM   39  O6  UNL     1       1.544   6.840   6.222  1.00  0.00    -0.646 OA
ENDBRANCH  32  37
ENDBRANCH  25  28
ENDBRANCH   1  25
TORSDOF 12
ENDMDL
MODEL 5
REMARK VINA RESULT: -8.227928782      3.130      6.922
REMARK  12 active torsions:
REMARK  status: ('A' for Active; 'I' for Inactive)
REMARK    1  A    between atoms: N1_2  and  C2_3 
REMARK    2  A    between atoms: N1_2  and  C3_5 
REMARK    3  A    between atoms: C3_5  and  C4_6 
REMARK    4  A    between atoms: C3_5  and  C21_33 
REMARK       I    between atoms: C4_6  and  N2_8 
REMARK    5  A    between atoms: N2_8  and  C5_10 
REMARK    6  A    between atoms: C5_10  and  C6_11 
REMARK    7  A    between atoms: C5_10  and  C13_18 
REMARK    8  A    between atoms: C6_11  and  C7_12 
REMARK    9  A    between atoms: C13_18  and  O3_19 
REMARK   10  A    between atoms: C13_18  and  C14_21 
REMARK       I    between atoms: C14_21  and  N3_23 
REMARK   11  A    between atoms: C19_29  and  C20_30 
REMARK   12  A    between atoms: C21_33  and  C24_36 
ROOT
HETATM    1  C5  UNL     1      -1.264   2.704   9.771  1.00  0.00     0.126 C 
ENDROOT
BRANCH   1   2
HETATM    2  N2  UNL     1      -2.059   3.433   8.758  1.00  0.00    -0.351 N 
HETATM    3  C4  UNL     1      -1.683   4.738   8.405  1.00  0.00     0.242 C 
HETATM    4  O2  UNL     1      -0.637   5.166   9.027  1.00  0.00    -0.271 OA
ATOM      5  H2  UNL     1      -2.869   2.993   8.323  1.00  0.00     0.163 HD
BRANCH   3   6
HETATM    6  C3  UNL     1      -2.359   5.617   7.419  1.00  0.00     0.194 C 
BRANCH   6   7
HETATM    7  N1  UNL     1      -1.432   6.187   6.506  1.00  0.00    -0.349 N 
HETATM    8  C1  UNL     1      -1.085   5.409   5.272  1.00  0.00     0.153 C 
BRANCH   7   9
HETATM    9  C2  UNL     1      -0.807   7.417   6.598  1.00  0.00     0.351 C 
HETATM   10  O1  UNL     1      -0.021   7.890   7.439  1.00  0.00    -0.284 OA
ENDBRANCH   7   9
ENDBRANCH   6   7
BRANCH   6  11
HETATM   11  C21 UNL     1      -3.357   6.488   8.044  1.00  0.00     0.079 C 
HETATM   12  C22 UNL     1      -2.802   7.115   9.333  1.00  0.00     0.027 C 
HETATM   13  C23 UNL     1      -3.816   7.667   7.229  1.00  0.00     0.027 C 
BRANCH  11  14
HETATM   14  C24 UNL     1      -4.630   5.796   8.487  1.00  0.00     0.397 C 
HETATM   15  F1  UNL     1      -4.992   4.793   7.598  1.00  0.00    -0.170 F 
HETATM   16  F2  UNL     1      -5.678   6.702   8.473  1.00  0.00    -0.170 F 
HETATM   17  F3  UNL     1      -4.567   5.261   9.726  1.00  0.00    -0.170 F 
ENDBRANCH  11  14
ENDBRANCH   6  11
ENDBRANCH   3   6
ENDBRANCH   1   2
BRANCH   1  18
HETATM   18  C6  UNL     1      -2.301   1.898  10.516  1.00  0.00     0.066 C 
BRANCH  18  19
HETATM   19  C7  UNL     1      -2.723   2.385  11.814  1.00  0.00    -0.056 A 
HETATM   20  C8  UNL     1      -3.819   3.188  11.987  1.00  0.00     0.007 A 
HETATM   21  C9  UNL     1      -4.211   3.649  13.235  1.00  0.00     0.001 A 
HETATM   22  C10 UNL     1      -3.466   3.285  14.352  1.00  0.00     0.000 A 
HETATM   23  C11 UNL     1      -2.362   2.475  14.179  1.00  0.00     0.001 A 
HETATM   24  C12 UNL     1      -2.002   2.039  12.943  1.00  0.00     0.007 A 
ENDBRANCH  18  19
ENDBRANCH   1  18
BRANCH   1  25
HETATM   25  C13 UNL     1      -0.252   1.829   9.072  1.00  0.00     0.233 C 
BRANCH  25  26
HETATM   26  O3  UNL     1      -0.259   0.581   9.666  1.00  0.00    -0.384 OA
ATOM     27  H3  UNL     1       0.546   0.473  10.159  1.00  0.00     0.210 HD
ENDBRANCH  25  26
BRANCH  25  28
HETATM   28  C14 UNL     1       1.042   2.455   8.891  1.00  0.00     0.252 C 
HETATM   29  O4  UNL     1       1.681   2.849   9.905  1.00  0.00    -0.270 OA
HETATM   30  N3  UNL     1       1.623   2.644   7.586  1.00  0.00    -0.325 N 
HETATM   31  C15 UNL     1       0.953   2.290   6.378  1.00  0.00     0.202 C 
HETATM   32  C19 UNL     1       2.959   3.182   7.425  1.00  0.00     0.207 C 
HETATM   33  S1  UNL     1       1.990   3.080   5.080  1.00  0.00    -0.137 SA
HETATM   34  C16 UNL     1       3.004   4.086   6.243  1.00  0.00     0.033 C 
HETATM   35  C17 UNL     1       2.344   5.395   6.546  1.00  0.00     0.029 C 
HETATM   36  C18 UNL     1       4.348   4.247   5.606  1.00  0.00     0.029 C 
BRANCH  32  37
HETATM   37  C20 UNL     1       3.981   2.103   7.412  1.00  0.00     0.198 C 
HETATM   38  O5  UNL     1       5.220   2.354   7.591  1.00  0.00    -0.646 OA
HETATM   39  O6  UNL     1       3.667   0.770   7.209  1.00  0.00    -0.646 OA
ENDBRANCH  32  37
ENDBRANCH  25  28
ENDBRANCH   1  25
TORSDOF 12
ENDMDL
