MODEL 1
REMARK VINA RESULT: -8.842902723      0.000      0.000
REMARK  11 active torsions:
REMARK  status: ('A' for Active; 'I' for Inactive)
REMARK    1  A    between atoms: C2_2  and  C4_4 
REMARK    2  A    between atoms: C4_4  and  C5_5 
REMARK    3  A    between atoms: C5_5  and  N1_6 
REMARK    4  A    between atoms: C5_5  and  C24_33 
REMARK       I    between atoms: N1_6  and  C6_8 
REMARK    5  A    between atoms: C6_8  and  C7_10 
REMARK    6  A    between atoms: C7_10  and  C8_11 
REMARK    7  A    between atoms: C7_10  and  C12_15 
REMARK    8  A    between atoms: C8_11  and  C9_12 
REMARK       I    between atoms: C12_15  and  N2_17 
REMARK    9  A    between atoms: C24_33  and  C25_35 
REMARK   10  A    between atoms: C25_35  and  N3_36 
REMARK   11  A    between atoms: C25_35  and  O5_40 
ROOT
HETATM    1  C7  UNL     1       0.738   1.628   9.654  1.00  0.00     0.078 C 
ENDROOT
BRANCH   1   2
HETATM    2  C6  UNL     1       0.587   1.488  11.117  1.00  0.00     0.254 C 
HETATM    3  N1  UNL     1      -0.626   1.117  11.719  1.00  0.00    -0.342 N 
ATOM      4  H1  UNL     1      -1.438   0.939  11.128  1.00  0.00     0.163 HD
HETATM    5  O1  UNL     1       1.553   1.699  11.871  1.00  0.00    -0.268 OA
BRANCH   3   6
HETATM    6  C5  UNL     1      -0.764   0.973  13.214  1.00  0.00     0.182 C 
BRANCH   6   7
HETATM    7  C4  UNL     1      -2.185   1.280  13.430  1.00  0.00     0.008 C 
BRANCH   7   8
HETATM    8  C2  UNL     1      -2.785   2.585  13.232  1.00  0.00    -0.089 C 
HETATM    9  C1  UNL     1      -3.358   3.271  14.443  1.00  0.00     0.042 C 
HETATM   10  C3  UNL     1      -3.671   2.768  12.027  1.00  0.00     0.042 C 
ENDBRANCH   7   8
ENDBRANCH   6   7
BRANCH   6  11
HETATM   11  C24 UNL     1      -0.243  -0.342  13.577  1.00  0.00     0.208 C 
HETATM   12  O4  UNL     1       0.102  -0.469  14.772  1.00  0.00    -0.291 OA
BRANCH  11  13
HETATM   13  C25 UNL     1      -0.058  -1.553  12.783  1.00  0.00     0.389 C 
BRANCH  13  14
HETATM   14  N3  UNL     1       1.309  -1.644  12.312  1.00  0.00    -0.046 N 
ATOM     15  H33 UNL     1       1.435  -1.174  11.415  1.00  0.00     0.277 HD
ATOM     16  H32 UNL     1       1.943  -1.073  12.872  1.00  0.00     0.277 HD
ATOM     17  H31 UNL     1       1.608  -2.618  12.275  1.00  0.00     0.277 HD
ENDBRANCH  13  14
BRANCH  13  18
HETATM   18  O5  UNL     1      -0.922  -1.777  11.751  1.00  0.00    -0.364 OA
ATOM     19  H5  UNL     1      -0.554  -2.013  10.907  1.00  0.00     0.212 HD
ENDBRANCH  13  18
ENDBRANCH  11  13
ENDBRANCH   6  11
ENDBRANCH   3   6
ENDBRANCH   1   2
BRANCH   1  20
HETATM   20  C8  UNL     1       1.664   0.654   9.041  1.00  0.00     0.054 C 
BRANCH  20  21
HETATM   21  C9  UNL     1       2.110   0.819   7.654  1.00  0.00    -0.018 C 
HETATM   22  C10 UNL     1       3.353  -0.092   7.483  1.00  0.00     0.010 C 
HETATM   23  C11 UNL     1       1.114   0.291   6.661  1.00  0.00     0.010 C 
ENDBRANCH  20  21
ENDBRANCH   1  20
BRANCH   1  24
HETATM   24  C12 UNL     1       0.817   3.032   9.184  1.00  0.00     0.257 C 
HETATM   25  O2  UNL     1       1.746   3.839   9.545  1.00  0.00    -0.267 OA
HETATM   26  N2  UNL     1      -0.114   3.601   8.309  1.00  0.00    -0.328 N 
HETATM   27  C13 UNL     1      -0.020   4.180   7.206  1.00  0.00     0.018 C 
ATOM     28  H2  UNL     1      -1.075   3.527   8.643  1.00  0.00     0.168 HD
HETATM   29  C14 UNL     1       1.173   4.478   6.407  1.00  0.00     0.130 C 
HETATM   30  C22 UNL     1      -1.216   4.735   6.458  1.00  0.00     0.012 C 
HETATM   31 CL1  UNL     1       1.393   3.349   5.049  1.00  0.00    -0.119 Cl
HETATM   32  C15 UNL     1       0.870   5.877   5.912  1.00  0.00     0.044 C 
HETATM   33  C16 UNL     1      -0.608   5.867   5.703  1.00  0.00     0.031 C 
HETATM   34  C17 UNL     1      -0.844   5.734   4.191  1.00  0.00     0.025 C 
HETATM   35  C18 UNL     1      -1.195   7.182   6.064  1.00  0.00     0.137 C 
HETATM   36  O3  UNL     1      -0.517   8.118   6.317  1.00  0.00    -0.297 OA
HETATM   37  C19 UNL     1      -2.675   7.195   6.073  1.00  0.00     0.099 C 
HETATM   38  C20 UNL     1      -3.113   6.274   7.183  1.00  0.00     0.090 C 
HETATM   39 CL2  UNL     1      -3.242   7.324   8.647  1.00  0.00    -0.125 Cl
HETATM   40  C21 UNL     1      -2.280   5.097   7.431  1.00  0.00     0.037 C 
HETATM   41  C23 UNL     1      -1.708   3.599   5.594  1.00  0.00     0.023 C 
ENDBRANCH   1  24
TORSDOF 11
ENDMDL
MODEL 2
REMARK VINA RESULT: -8.829535849      1.633      2.905
REMARK  11 active torsions:
REMARK  status: ('A' for Active; 'I' for Inactive)
REMARK    1  A    between atoms: C2_2  and  C4_4 
REMARK    2  A    between atoms: C4_4  and  C5_5 
REMARK    3  A    between atoms: C5_5  and  N1_6 
REMARK    4  A    between atoms: C5_5  and  C24_33 
REMARK       I    between atoms: N1_6  and  C6_8 
REMARK    5  A    between atoms: C6_8  and  C7_10 
REMARK    6  A    between atoms: C7_10  and  C8_11 
REMARK    7  A    between atoms: C7_10  and  C12_15 
REMARK    8  A    between atoms: C8_11  and  C9_12 
REMARK       I    between atoms: C12_15  and  N2_17 
REMARK    9  A    between atoms: C24_33  and  C25_35 
REMARK   10  A    between atoms: C25_35  and  N3_36 
REMARK   11  A    between atoms: C25_35  and  O5_40 
ROOT
HETATM    1  C7  UNL     1       0.721   0.695   8.872  1.00  0.00     0.078 C 
ENDROOT
BRANCH   1   2
HETATM    2  C6  UNL     1       0.240   1.188  10.180  1.00  0.00     0.254 C 
HETATM    3  N1  UNL     1      -0.410   0.360  11.108  1.00  0.00    -0.342 N 
ATOM      4  H1  UNL     1      -0.562  -0.621  10.873  1.00  0.00     0.163 HD
HETATM    5  O1  UNL     1       0.406   2.379  10.500  1.00  0.00    -0.268 OA
BRANCH   3   6
HETATM    6  C5  UNL     1      -0.890   0.876  12.440  1.00  0.00     0.182 C 
BRANCH   6   7
HETATM    7  C4  UNL     1      -2.349   0.899  12.261  1.00  0.00     0.008 C 
BRANCH   7   8
HETATM    8  C2  UNL     1      -3.213   1.987  12.676  1.00  0.00    -0.089 C 
HETATM    9  C1  UNL     1      -3.697   2.930  11.607  1.00  0.00     0.042 C 
HETATM   10  C3  UNL     1      -2.844   2.727  13.935  1.00  0.00     0.042 C 
ENDBRANCH   7   8
ENDBRANCH   6   7
BRANCH   6  11
HETATM   11  C24 UNL     1      -0.300   0.032  13.475  1.00  0.00     0.208 C 
HETATM   12  O4  UNL     1      -0.137   0.584  14.586  1.00  0.00    -0.291 OA
BRANCH  11  13
HETATM   13  C25 UNL     1       0.132  -1.362  13.445  1.00  0.00     0.389 C 
BRANCH  13  14
HETATM   14  N3  UNL     1       0.517  -1.800  14.771  1.00  0.00    -0.046 N 
ATOM     15  H33 UNL     1      -0.051  -1.361  15.497  1.00  0.00     0.277 HD
ATOM     16  H32 UNL     1       0.256  -2.771  14.941  1.00  0.00     0.277 HD
ATOM     17  H31 UNL     1       1.513  -1.643  14.922  1.00  0.00     0.277 HD
ENDBRANCH  13  14
BRANCH  13  18
HETATM   18  O5  UNL     1       1.093  -1.712  12.542  1.00  0.00    -0.364 OA
ATOM     19  H5  UNL     1       0.845  -2.295  11.834  1.00  0.00     0.212 HD
ENDBRANCH  13  18
ENDBRANCH  11  13
ENDBRANCH   6  11
ENDBRANCH   3   6
ENDBRANCH   1   2
BRANCH   1  20
HETATM   20  C8  UNL     1       2.134   0.264   8.865  1.00  0.00     0.054 C 
BRANCH  20  21
HETATM   21  C9  UNL     1       2.797  -0.100   7.609  1.00  0.00    -0.018 C 
HETATM   22  C10 UNL     1       3.774   1.058   7.278  1.00  0.00     0.010 C 
HETATM   23  C11 UNL     1       3.678  -1.309   7.752  1.00  0.00     0.010 C 
ENDBRANCH  20  21
ENDBRANCH   1  20
BRANCH   1  24
HETATM   24  C12 UNL     1       0.244   1.487   7.713  1.00  0.00     0.257 C 
HETATM   25  O2  UNL     1      -0.479   0.990   6.778  1.00  0.00    -0.267 OA
HETATM   26  N2  UNL     1       0.542   2.842   7.535  1.00  0.00    -0.328 N 
HETATM   27  C13 UNL     1      -0.156   3.863   7.366  1.00  0.00     0.018 C 
ATOM     28  H2  UNL     1       1.543   3.037   7.547  1.00  0.00     0.168 HD
HETATM   29  C14 UNL     1      -1.614   3.996   7.292  1.00  0.00     0.130 C 
HETATM   30  C22 UNL     1       0.435   5.247   7.174  1.00  0.00     0.012 C 
HETATM   31 CL1  UNL     1      -2.330   4.603   8.804  1.00  0.00    -0.119 Cl
HETATM   32  C15 UNL     1      -1.775   5.000   6.168  1.00  0.00     0.044 C 
HETATM   33  C16 UNL     1      -0.604   5.910   6.337  1.00  0.00     0.031 C 
HETATM   34  C17 UNL     1      -1.129   7.195   6.994  1.00  0.00     0.025 C 
HETATM   35  C18 UNL     1      -0.088   6.346   5.014  1.00  0.00     0.137 C 
HETATM   36  O3  UNL     1      -0.666   6.105   4.010  1.00  0.00    -0.297 OA
HETATM   37  C19 UNL     1       1.189   7.091   5.087  1.00  0.00     0.099 C 
HETATM   38  C20 UNL     1       2.230   6.126   5.593  1.00  0.00     0.090 C 
HETATM   39 CL2  UNL     1       2.929   5.363   4.114  1.00  0.00    -0.125 Cl
HETATM   40  C21 UNL     1       1.784   5.124   6.562  1.00  0.00     0.037 C 
HETATM   41  C23 UNL     1       0.576   5.817   8.564  1.00  0.00     0.023 C 
ENDBRANCH   1  24
TORSDOF 11
ENDMDL
MODEL 3
REMARK VINA RESULT: -8.724298222      2.992      5.678
REMARK  11 active torsions:
REMARK  status: ('A' for Active; 'I' for Inactive)
REMARK    1  A    between atoms: C2_2  and  C4_4 
REMARK    2  A    between atoms: C4_4  and  C5_5 
REMARK    3  A    between atoms: C5_5  and  N1_6 
REMARK    4  A    between atoms: C5_5  and  C24_33 
REMARK       I    between atoms: N1_6  and  C6_8 
REMARK    5  A    between atoms: C6_8  and  C7_10 
REMARK    6  A    between atoms: C7_10  and  C8_11 
REMARK    7  A    between atoms: C7_10  and  C12_15 
REMARK    8  A    between atoms: C8_11  and  C9_12 
REMARK       I    between atoms: C12_15  and  N2_17 
REMARK    9  A    between atoms: C24_33  and  C25_35 
REMARK   10  A    between atoms: C25_35  and  N3_36 
REMARK   11  A    between atoms: C25_35  and  O5_40 
ROOT
HETATM    1  C7  UNL     1       1.641   0.217   9.959  1.00  0.00     0.078 C 
ENDROOT
BRANCH   1   2
HETATM    2  C6  UNL     1       2.221  -0.592   8.866  1.00  0.00     0.254 C 
HETATM    3  N1  UNL     1       3.175  -1.597   9.094  1.00  0.00    -0.342 N 
ATOM      4  H1  UNL     1       3.485  -1.777  10.048  1.00  0.00     0.163 HD
HETATM    5  O1  UNL     1       1.869  -0.399   7.689  1.00  0.00    -0.268 OA
BRANCH   3   6
HETATM    6  C5  UNL     1       3.753  -2.417   7.969  1.00  0.00     0.182 C 
BRANCH   6   7
HETATM    7  C4  UNL     1       5.124  -1.895   7.872  1.00  0.00     0.008 C 
BRANCH   7   8
HETATM    8  C2  UNL     1       6.313  -2.718   7.771  1.00  0.00    -0.089 C 
HETATM    9  C1  UNL     1       6.991  -3.112   9.056  1.00  0.00     0.042 C 
HETATM   10  C3  UNL     1       7.318  -2.360   6.707  1.00  0.00     0.042 C 
ENDBRANCH   7   8
ENDBRANCH   6   7
BRANCH   6  11
HETATM   11  C24 UNL     1       3.534  -3.824   8.295  1.00  0.00     0.208 C 
HETATM   12  O4  UNL     1       3.149  -4.539   7.345  1.00  0.00    -0.291 OA
BRANCH  11  13
HETATM   13  C25 UNL     1       3.694  -4.553   9.550  1.00  0.00     0.389 C 
BRANCH  13  14
HETATM   14  N3  UNL     1       2.912  -5.772   9.528  1.00  0.00    -0.046 N 
ATOM     15  H33 UNL     1       1.926  -5.596   9.722  1.00  0.00     0.277 HD
ATOM     16  H32 UNL     1       2.816  -6.145   8.583  1.00  0.00     0.277 HD
ATOM     17  H31 UNL     1       3.308  -6.460  10.169  1.00  0.00     0.277 HD
ENDBRANCH  13  14
BRANCH  13  18
HETATM   18  O5  UNL     1       3.471  -3.877  10.714  1.00  0.00    -0.364 OA
ATOM     19  H5  UNL     1       2.973  -4.316  11.393  1.00  0.00     0.212 HD
ENDBRANCH  13  18
ENDBRANCH  11  13
ENDBRANCH   6  11
ENDBRANCH   3   6
ENDBRANCH   1   2
BRANCH   1  20
HETATM   20  C8  UNL     1       0.499  -0.418  10.648  1.00  0.00     0.054 C 
BRANCH  20  21
HETATM   21  C9  UNL     1      -0.571   0.399  11.227  1.00  0.00    -0.018 C 
HETATM   22  C10 UNL     1      -1.885  -0.042  10.531  1.00  0.00     0.010 C 
HETATM   23  C11 UNL     1      -0.797   0.105  12.683  1.00  0.00     0.010 C 
ENDBRANCH  20  21
ENDBRANCH   1  20
BRANCH   1  24
HETATM   24  C12 UNL     1       1.533   1.664   9.651  1.00  0.00     0.257 C 
HETATM   25  O2  UNL     1       1.891   2.581  10.472  1.00  0.00    -0.267 OA
HETATM   26  N2  UNL     1       1.029   2.154   8.442  1.00  0.00    -0.328 N 
HETATM   27  C13 UNL     1       1.480   2.928   7.571  1.00  0.00     0.018 C 
ATOM     28  H2  UNL     1       0.096   1.806   8.226  1.00  0.00     0.168 HD
HETATM   29  C14 UNL     1       2.767   3.626   7.518  1.00  0.00     0.130 C 
HETATM   30  C22 UNL     1       0.699   3.322   6.332  1.00  0.00     0.012 C 
HETATM   31 CL1  UNL     1       3.935   2.839   6.430  1.00  0.00    -0.119 Cl
HETATM   32  C15 UNL     1       2.359   4.986   6.989  1.00  0.00     0.044 C 
HETATM   33  C16 UNL     1       1.245   4.678   6.045  1.00  0.00     0.031 C 
HETATM   34  C17 UNL     1       1.826   4.770   4.625  1.00  0.00     0.025 C 
HETATM   35  C18 UNL     1       0.208   5.740   6.098  1.00  0.00     0.137 C 
HETATM   36  O3  UNL     1       0.376   6.745   6.701  1.00  0.00    -0.297 OA
HETATM   37  C19 UNL     1      -1.020   5.415   5.338  1.00  0.00     0.099 C 
HETATM   38  C20 UNL     1      -1.660   4.236   6.025  1.00  0.00     0.090 C 
HETATM   39 CL2  UNL     1      -2.781   4.950   7.247  1.00  0.00    -0.125 Cl
HETATM   40  C21 UNL     1      -0.757   3.253   6.625  1.00  0.00     0.037 C 
HETATM   41  C23 UNL     1       1.041   2.278   5.296  1.00  0.00     0.023 C 
ENDBRANCH   1  24
TORSDOF 11
ENDMDL
MODEL 4
REMARK VINA RESULT: -8.664342951      2.389      4.187
REMARK  11 active torsions:
REMARK  status: ('A' for Active; 'I' for Inactive)
REMARK    1  A    between atoms: C2_2  and  C4_4 
REMARK    2  A    between atoms: C4_4  and  C5_5 
REMARK    3  A    between atoms: C5_5  and  N1_6 
REMARK    4  A    between atoms: C5_5  and  C24_33 
REMARK       I    between atoms: N1_6  and  C6_8 
REMARK    5  A    between atoms: C6_8  and  C7_10 
REMARK    6  A    between atoms: C7_10  and  C8_11 
REMARK    7  A    between atoms: C7_10  and  C12_15 
REMARK    8  A    between atoms: C8_11  and  C9_12 
REMARK       I    between atoms: C12_15  and  N2_17 
REMARK    9  A    between atoms: C24_33  and  C25_35 
REMARK   10  A    between atoms: C25_35  and  N3_36 
REMARK   11  A    between atoms: C25_35  and  O5_40 
ROOT
HETATM    1  C7  UNL     1      -0.312   3.032   9.368  1.00  0.00     0.078 C 
ENDROOT
BRANCH   1   2
HETATM    2  C6  UNL     1       0.078   2.176  10.508  1.00  0.00     0.254 C 
HETATM    3  N1  UNL     1      -0.861   1.610  11.384  1.00  0.00    -0.342 N 
ATOM      4  H1  UNL     1      -1.852   1.797  11.234  1.00  0.00     0.163 HD
HETATM    5  O1  UNL     1       1.278   1.928  10.723  1.00  0.00    -0.268 OA
BRANCH   3   6
HETATM    6  C5  UNL     1      -0.448   0.734  12.539  1.00  0.00     0.182 C 
BRANCH   6   7
HETATM    7  C4  UNL     1      -1.257   1.268  13.644  1.00  0.00     0.008 C 
BRANCH   7   8
HETATM    8  C2  UNL     1      -2.442   2.087  13.476  1.00  0.00    -0.089 C 
HETATM    9  C1  UNL     1      -2.770   3.059  14.577  1.00  0.00     0.042 C 
HETATM   10  C3  UNL     1      -3.683   1.416  12.947  1.00  0.00     0.042 C 
ENDBRANCH   7   8
ENDBRANCH   6   7
BRANCH   6  11
HETATM   11  C24 UNL     1      -0.620  -0.655  12.120  1.00  0.00     0.208 C 
HETATM   12  O4  UNL     1      -1.589  -0.866  11.358  1.00  0.00    -0.291 OA
BRANCH  11  13
HETATM   13  C25 UNL     1       0.153  -1.853  12.430  1.00  0.00     0.389 C 
BRANCH  13  14
HETATM   14  N3  UNL     1       1.371  -1.886  11.646  1.00  0.00    -0.046 N 
ATOM     15  H33 UNL     1       1.182  -1.806  10.647  1.00  0.00     0.277 HD
ATOM     16  H32 UNL     1       1.922  -1.036  11.765  1.00  0.00     0.277 HD
ATOM     17  H31 UNL     1       1.911  -2.723  11.865  1.00  0.00     0.277 HD
ENDBRANCH  13  14
BRANCH  13  18
HETATM   18  O5  UNL     1      -0.482  -3.059  12.355  1.00  0.00    -0.364 OA
ATOM     19  H5  UNL     1      -0.032  -3.771  11.917  1.00  0.00     0.212 HD
ENDBRANCH  13  18
ENDBRANCH  11  13
ENDBRANCH   6  11
ENDBRANCH   3   6
ENDBRANCH   1   2
BRANCH   1  20
HETATM   20  C8  UNL     1      -1.746   3.384   9.332  1.00  0.00     0.054 C 
BRANCH  20  21
HETATM   21  C9  UNL     1      -2.226   4.478   8.482  1.00  0.00    -0.018 C 
HETATM   22  C10 UNL     1      -3.648   4.834   8.988  1.00  0.00     0.010 C 
HETATM   23  C11 UNL     1      -1.432   5.740   8.665  1.00  0.00     0.010 C 
ENDBRANCH  20  21
ENDBRANCH   1  20
BRANCH   1  24
HETATM   24  C12 UNL     1       0.331   2.663   8.084  1.00  0.00     0.257 C 
HETATM   25  O2  UNL     1       0.323   1.469   7.616  1.00  0.00    -0.267 OA
HETATM   26  N2  UNL     1       1.004   3.581   7.271  1.00  0.00    -0.328 N 
HETATM   27  C13 UNL     1       0.891   3.919   6.074  1.00  0.00     0.018 C 
ATOM     28  H2  UNL     1       1.746   4.080   7.761  1.00  0.00     0.168 HD
HETATM   29  C14 UNL     1      -0.045   3.438   5.053  1.00  0.00     0.130 C 
HETATM   30  C22 UNL     1       1.785   4.953   5.418  1.00  0.00     0.012 C 
HETATM   31 CL1  UNL     1      -1.400   4.558   4.776  1.00  0.00    -0.119 Cl
HETATM   32  C15 UNL     1       0.849   3.350   3.833  1.00  0.00     0.044 C 
HETATM   33  C16 UNL     1       1.788   4.499   3.999  1.00  0.00     0.031 C 
HETATM   34  C17 UNL     1       1.310   5.606   3.047  1.00  0.00     0.025 C 
HETATM   35  C18 UNL     1       3.144   4.139   3.510  1.00  0.00     0.137 C 
HETATM   36  O3  UNL     1       3.349   3.127   2.932  1.00  0.00    -0.297 OA
HETATM   37  C19 UNL     1       4.178   5.152   3.817  1.00  0.00     0.099 C 
HETATM   38  C20 UNL     1       4.321   5.190   5.317  1.00  0.00     0.090 C 
HETATM   39 CL2  UNL     1       5.603   3.979   5.703  1.00  0.00    -0.125 Cl
HETATM   40  C21 UNL     1       3.106   4.964   6.101  1.00  0.00     0.037 C 
HETATM   41  C23 UNL     1       1.101   6.278   5.650  1.00  0.00     0.023 C 
ENDBRANCH   1  24
TORSDOF 11
ENDMDL
MODEL 5
REMARK VINA RESULT: -8.519008122      1.826      3.164
REMARK  11 active torsions:
REMARK  status: ('A' for Active; 'I' for Inactive)
REMARK    1  A    between atoms: C2_2  and  C4_4 
REMARK    2  A    between atoms: C4_4  and  C5_5 
REMARK    3  A    between atoms: C5_5  and  N1_6 
REMARK    4  A    between atoms: C5_5  and  C24_33 
REMARK       I    between atoms: N1_6  and  C6_8 
REMARK    5  A    between atoms: C6_8  and  C7_10 
REMARK    6  A    between atoms: C7_10  and  C8_11 
REMARK    7  A    between atoms: C7_10  and  C12_15 
REMARK    8  A    between atoms: C8_11  and  C9_12 
REMARK       I    between atoms: C12_15  and  N2_17 
REMARK    9  A    between atoms: C24_33  and  C25_35 
REMARK   10  A    between atoms: C25_35  and  N3_36 
REMARK   11  A    between atoms: C25_35  and  O5_40 
ROOT
HETATM    1  C7  UNL     1       0.412   0.823   8.755  1.00  0.00     0.078 C 
ENDROOT
BRANCH   1   2
HETATM    2  C6  UNL     1      -0.182   1.370   9.992  1.00  0.00     0.254 C 
HETATM    3  N1  UNL     1      -1.569   1.438  10.198  1.00  0.00    -0.342 N 
ATOM      4  H1  UNL     1      -2.195   1.101   9.466  1.00  0.00     0.163 HD
HETATM    5  O1  UNL     1       0.548   1.793  10.906  1.00  0.00    -0.268 OA
BRANCH   3   6
HETATM    6  C5  UNL     1      -2.161   1.994  11.469  1.00  0.00     0.182 C 
BRANCH   6   7
HETATM    7  C4  UNL     1      -3.335   2.728  10.974  1.00  0.00     0.008 C 
BRANCH   7   8
HETATM    8  C2  UNL     1      -3.959   3.843  11.659  1.00  0.00    -0.089 C 
HETATM    9  C1  UNL     1      -4.282   3.663  13.118  1.00  0.00     0.042 C 
HETATM   10  C3  UNL     1      -5.062   4.573  10.938  1.00  0.00     0.042 C 
ENDBRANCH   7   8
ENDBRANCH   6   7
BRANCH   6  11
HETATM   11  C24 UNL     1      -2.341   0.877  12.393  1.00  0.00     0.208 C 
HETATM   12  O4  UNL     1      -3.450   0.303  12.326  1.00  0.00    -0.291 OA
BRANCH  11  13
HETATM   13  C25 UNL     1      -1.442   0.302  13.388  1.00  0.00     0.389 C 
BRANCH  13  14
HETATM   14  N3  UNL     1      -0.471   1.286  13.820  1.00  0.00    -0.046 N 
ATOM     15  H33 UNL     1      -0.315   2.003  13.111  1.00  0.00     0.277 HD
ATOM     16  H32 UNL     1      -0.838   1.883  14.561  1.00  0.00     0.277 HD
ATOM     17  H31 UNL     1       0.399   0.830  14.096  1.00  0.00     0.277 HD
ENDBRANCH  13  14
BRANCH  13  18
HETATM   18  O5  UNL     1      -0.813  -0.869  13.078  1.00  0.00    -0.364 OA
ATOM     19  H5  UNL     1       0.013  -0.819  12.612  1.00  0.00     0.212 HD
ENDBRANCH  13  18
ENDBRANCH  11  13
ENDBRANCH   6  11
ENDBRANCH   3   6
ENDBRANCH   1   2
BRANCH   1  20
HETATM   20  C8  UNL     1       1.788   0.309   8.915  1.00  0.00     0.054 C 
BRANCH  20  21
HETATM   21  C9  UNL     1       2.513  -0.251   7.770  1.00  0.00    -0.018 C 
HETATM   22  C10 UNL     1       3.580   0.801   7.371  1.00  0.00     0.010 C 
HETATM   23  C11 UNL     1       3.305  -1.475   8.134  1.00  0.00     0.010 C 
ENDBRANCH  20  21
ENDBRANCH   1  20
BRANCH   1  24
HETATM   24  C12 UNL     1       0.120   1.619   7.538  1.00  0.00     0.257 C 
HETATM   25  O2  UNL     1      -0.468   1.132   6.509  1.00  0.00    -0.267 OA
HETATM   26  N2  UNL     1       0.460   2.969   7.406  1.00  0.00    -0.328 N 
HETATM   27  C13 UNL     1      -0.191   4.001   7.137  1.00  0.00     0.018 C 
ATOM     28  H2  UNL     1       1.451   3.150   7.561  1.00  0.00     0.168 HD
HETATM   29  C14 UNL     1      -1.621   4.154   6.852  1.00  0.00     0.130 C 
HETATM   30  C22 UNL     1       0.441   5.375   7.032  1.00  0.00     0.012 C 
HETATM   31 CL1  UNL     1      -2.539   4.776   8.245  1.00  0.00    -0.119 Cl
HETATM   32  C15 UNL     1      -1.603   5.158   5.717  1.00  0.00     0.044 C 
HETATM   33  C16 UNL     1      -0.456   6.051   6.053  1.00  0.00     0.031 C 
HETATM   34  C17 UNL     1      -1.051   7.346   6.628  1.00  0.00     0.025 C 
HETATM   35  C18 UNL     1       0.253   6.477   4.819  1.00  0.00     0.137 C 
HETATM   36  O3  UNL     1      -0.177   6.242   3.742  1.00  0.00    -0.297 OA
HETATM   37  C19 UNL     1       1.517   7.203   5.075  1.00  0.00     0.099 C 
HETATM   38  C20 UNL     1       2.459   6.224   5.727  1.00  0.00     0.090 C 
HETATM   39 CL2  UNL     1       3.354   5.448   4.365  1.00  0.00    -0.125 Cl
HETATM   40  C21 UNL     1       1.863   5.231   6.622  1.00  0.00     0.037 C 
HETATM   41  C23 UNL     1       0.389   5.946   8.428  1.00  0.00     0.023 C 
ENDBRANCH   1  24
TORSDOF 11
ENDMDL
