MODEL 1
REMARK VINA RESULT: -8.892285939      0.000      0.000
REMARK  10 active torsions:
REMARK  status: ('A' for Active; 'I' for Inactive)
REMARK       I    between atoms: C1_2  and  N1_3 
REMARK    1  A    between atoms: C1_2  and  C9_16 
REMARK    2  A    between atoms: N1_3  and  C2_5 
REMARK    3  A    between atoms: C2_5  and  C3_6 
REMARK    4  A    between atoms: C3_6  and  O2_7 
REMARK    5  A    between atoms: C3_6  and  C4_9 
REMARK    6  A    between atoms: C4_9  and  N2_10 
REMARK    7  A    between atoms: C9_16  and  C10_19 
REMARK    8  A    between atoms: C10_19  and  N3_20 
REMARK    9  A    between atoms: N3_20  and  C11_22 
REMARK   10  A    between atoms: C11_22  and  C12_23 
ROOT
HETATM    1  N3  UNL     1      -1.008   4.581   8.139  1.00  0.00    -0.402 N 
ATOM      2  H3  UNL     1      -0.807   4.217   7.208  1.00  0.00     0.154 HD
ENDROOT
BRANCH   1   3
HETATM    3  C10 UNL     1      -1.157   3.726   9.261  1.00  0.00     0.204 C 
BRANCH   3   4
HETATM    4  C9  UNL     1      -0.459   2.385   9.142  1.00  0.00     0.337 C 
HETATM    5  F1  UNL     1      -1.202   1.369   8.666  1.00  0.00    -0.194 F 
HETATM    6  F2  UNL     1       0.724   2.534   8.379  1.00  0.00    -0.194 F 
BRANCH   4   7
HETATM    7  C1  UNL     1       0.080   1.983  10.492  1.00  0.00     0.292 C 
HETATM    8  O1  UNL     1       1.055   2.614  10.999  1.00  0.00    -0.267 OA
HETATM    9  N1  UNL     1      -0.463   0.912  11.248  1.00  0.00    -0.353 N 
ATOM     10  H1  UNL     1      -1.247   0.386  10.862  1.00  0.00     0.162 HD
BRANCH   9  11
HETATM   11  C2  UNL     1       0.053   0.540  12.544  1.00  0.00     0.156 C 
BRANCH  11  12
HETATM   12  C3  UNL     1      -0.693   1.324  13.619  1.00  0.00     0.164 C 
BRANCH  12  13
HETATM   13  O2  UNL     1      -0.357   0.755  14.865  1.00  0.00    -0.392 OA
ATOM     14  H2  UNL     1      -0.201   1.470  15.470  1.00  0.00     0.210 HD
ENDBRANCH  12  13
BRANCH  12  15
HETATM   15  C4  UNL     1      -2.173   1.157  13.447  1.00  0.00     0.305 C 
BRANCH  15  16
HETATM   16  N2  UNL     1      -2.846   2.422  13.439  1.00  0.00     0.095 N 
HETATM   17  C5  UNL     1      -3.904   2.448  12.459  1.00  0.00     0.298 C 
HETATM   18  C6  UNL     1      -4.546   3.829  12.396  1.00  0.00     0.198 C 
HETATM   19  O3  UNL     1      -4.429   4.527  13.578  1.00  0.00    -0.388 OA
HETATM   20  C7  UNL     1      -4.510   3.711  14.700  1.00  0.00     0.198 C 
HETATM   21  C8  UNL     1      -3.335   2.767  14.774  1.00  0.00     0.298 C 
ENDBRANCH  15  16
ENDBRANCH  12  15
ENDBRANCH  11  12
ENDBRANCH   9  11
ENDBRANCH   4   7
ENDBRANCH   3   4
ENDBRANCH   1   3
BRANCH   1  22
HETATM   22  C11 UNL     1      -1.158   5.989   8.387  1.00  0.00     0.061 C 
HETATM   23  C18 UNL     1      -0.935   6.899   7.239  1.00  0.00     0.024 C 
HETATM   24  C19 UNL     1      -1.820   6.872   6.076  1.00  0.00     0.018 C 
HETATM   25  C26 UNL     1       0.494   6.545   6.837  1.00  0.00    -0.001 C 
HETATM   26  C20 UNL     1      -1.233   7.826   5.019  1.00  0.00     0.037 C 
HETATM   27  C21 UNL     1      -2.160   7.932   3.860  1.00  0.00    -0.021 C 
HETATM   28  C24 UNL     1       0.106   7.340   4.577  1.00  0.00     0.129 C 
HETATM   29  C22 UNL     1      -1.608   8.354   2.731  1.00  0.00    -0.004 C 
HETATM   30  C23 UNL     1      -0.187   8.679   2.684  1.00  0.00     0.195 C 
HETATM   31  O4  UNL     1       0.645   8.049   3.553  1.00  0.00    -0.382 OA
HETATM   32  C25 UNL     1       1.031   7.487   5.792  1.00  0.00     0.038 C 
HETATM   33  C27 UNL     1       1.160   6.744   8.182  1.00  0.00    -0.003 A 
HETATM   34  C28 UNL     1       1.324   5.510   8.977  1.00  0.00     0.013 A 
HETATM   35  C29 UNL     1       0.093   6.322   9.220  1.00  0.00     0.023 A 
BRANCH  22  36
HETATM   36  C12 UNL     1      -2.406   6.308   9.080  1.00  0.00    -0.030 A 
HETATM   37  C13 UNL     1      -2.342   7.308  10.064  1.00  0.00     0.010 A 
HETATM   38  C14 UNL     1      -3.437   7.701  10.799  1.00  0.00     0.001 A 
HETATM   39  C15 UNL     1      -4.661   7.095  10.570  1.00  0.00     0.000 A 
HETATM   40  C16 UNL     1      -4.728   6.113   9.606  1.00  0.00     0.001 A 
HETATM   41  C17 UNL     1      -3.634   5.717   8.869  1.00  0.00     0.010 A 
ENDBRANCH  22  36
ENDBRANCH   1  22
TORSDOF 10
ENDMDL
MODEL 2
REMARK VINA RESULT: -8.839245267      1.033      1.437
REMARK  10 active torsions:
REMARK  status: ('A' for Active; 'I' for Inactive)
REMARK       I    between atoms: C1_2  and  N1_3 
REMARK    1  A    between atoms: C1_2  and  C9_16 
REMARK    2  A    between atoms: N1_3  and  C2_5 
REMARK    3  A    between atoms: C2_5  and  C3_6 
REMARK    4  A    between atoms: C3_6  and  O2_7 
REMARK    5  A    between atoms: C3_6  and  C4_9 
REMARK    6  A    between atoms: C4_9  and  N2_10 
REMARK    7  A    between atoms: C9_16  and  C10_19 
REMARK    8  A    between atoms: C10_19  and  N3_20 
REMARK    9  A    between atoms: N3_20  and  C11_22 
REMARK   10  A    between atoms: C11_22  and  C12_23 
ROOT
HETATM    1  N3  UNL     1      -1.055   4.273   8.412  1.00  0.00    -0.402 N 
ATOM      2  H3  UNL     1      -1.075   3.938   7.449  1.00  0.00     0.154 HD
ENDROOT
BRANCH   1   3
HETATM    3  C10 UNL     1      -0.881   3.390   9.509  1.00  0.00     0.204 C 
BRANCH   3   4
HETATM    4  C9  UNL     1      -0.320   2.028   9.153  1.00  0.00     0.337 C 
HETATM    5  F1  UNL     1      -1.191   1.145   8.629  1.00  0.00    -0.194 F 
HETATM    6  F2  UNL     1       0.798   2.186   8.298  1.00  0.00    -0.194 F 
BRANCH   4   7
HETATM    7  C1  UNL     1       0.300   1.408  10.380  1.00  0.00     0.292 C 
HETATM    8  O1  UNL     1       0.872   2.142  11.240  1.00  0.00    -0.267 OA
HETATM    9  N1  UNL     1       0.273   0.012  10.633  1.00  0.00    -0.353 N 
ATOM     10  H1  UNL     1      -0.179  -0.601   9.954  1.00  0.00     0.162 HD
BRANCH   9  11
HETATM   11  C2  UNL     1       0.860  -0.571  11.815  1.00  0.00     0.156 C 
BRANCH  11  12
HETATM   12  C3  UNL     1      -0.207  -0.674  12.901  1.00  0.00     0.164 C 
BRANCH  12  13
HETATM   13  O2  UNL     1      -0.036  -1.918  13.543  1.00  0.00    -0.392 OA
ATOM     14  H2  UNL     1      -0.901  -2.255  13.742  1.00  0.00     0.210 HD
ENDBRANCH  12  13
BRANCH  12  15
HETATM   15  C4  UNL     1      -1.573  -0.686  12.283  1.00  0.00     0.305 C 
BRANCH  15  16
HETATM   16  N2  UNL     1      -2.400   0.354  12.819  1.00  0.00     0.095 N 
HETATM   17  C5  UNL     1      -1.640   1.252  13.653  1.00  0.00     0.298 C 
HETATM   18  C6  UNL     1      -2.550   2.295  14.291  1.00  0.00     0.198 C 
HETATM   19  O3  UNL     1      -3.686   2.539  13.550  1.00  0.00    -0.388 OA
HETATM   20  C7  UNL     1      -3.464   2.471  12.179  1.00  0.00     0.198 C 
HETATM   21  C8  UNL     1      -3.103   1.070  11.753  1.00  0.00     0.298 C 
ENDBRANCH  15  16
ENDBRANCH  12  15
ENDBRANCH  11  12
ENDBRANCH   9  11
ENDBRANCH   4   7
ENDBRANCH   3   4
ENDBRANCH   1   3
BRANCH   1  22
HETATM   22  C11 UNL     1      -1.202   5.667   8.733  1.00  0.00     0.061 C 
HETATM   23  C18 UNL     1      -1.022   6.632   7.623  1.00  0.00     0.024 C 
HETATM   24  C19 UNL     1      -1.944   6.656   6.490  1.00  0.00     0.018 C 
HETATM   25  C26 UNL     1       0.396   6.306   7.158  1.00  0.00    -0.001 C 
HETATM   26  C20 UNL     1      -1.396   7.663   5.461  1.00  0.00     0.037 C 
HETATM   27  C21 UNL     1      -2.361   7.819   4.340  1.00  0.00    -0.021 C 
HETATM   28  C24 UNL     1      -0.070   7.207   4.953  1.00  0.00     0.129 C 
HETATM   29  C22 UNL     1      -1.849   8.299   3.215  1.00  0.00    -0.004 C 
HETATM   30  C23 UNL     1      -0.432   8.634   3.138  1.00  0.00     0.195 C 
HETATM   31  O4  UNL     1       0.431   7.968   3.948  1.00  0.00    -0.382 OA
HETATM   32  C25 UNL     1       0.894   7.301   6.143  1.00  0.00     0.038 C 
HETATM   33  C27 UNL     1       1.104   6.445   8.489  1.00  0.00    -0.003 A 
HETATM   34  C28 UNL     1       1.300   5.174   9.217  1.00  0.00     0.013 A 
HETATM   35  C29 UNL     1       0.074   5.966   9.539  1.00  0.00     0.023 A 
BRANCH  22  36
HETATM   36  C12 UNL     1      -2.428   5.945   9.481  1.00  0.00    -0.030 A 
HETATM   37  C13 UNL     1      -2.488   7.173  10.157  1.00  0.00     0.010 A 
HETATM   38  C14 UNL     1      -3.576   7.559  10.907  1.00  0.00     0.001 A 
HETATM   39  C15 UNL     1      -4.667   6.711  11.006  1.00  0.00     0.000 A 
HETATM   40  C16 UNL     1      -4.612   5.504  10.343  1.00  0.00     0.001 A 
HETATM   41  C17 UNL     1      -3.524   5.114   9.593  1.00  0.00     0.010 A 
ENDBRANCH  22  36
ENDBRANCH   1  22
TORSDOF 10
ENDMDL
MODEL 3
REMARK VINA RESULT: -8.767456152      3.920      7.188
REMARK  10 active torsions:
REMARK  status: ('A' for Active; 'I' for Inactive)
REMARK       I    between atoms: C1_2  and  N1_3 
REMARK    1  A    between atoms: C1_2  and  C9_16 
REMARK    2  A    between atoms: N1_3  and  C2_5 
REMARK    3  A    between atoms: C2_5  and  C3_6 
REMARK    4  A    between atoms: C3_6  and  O2_7 
REMARK    5  A    between atoms: C3_6  and  C4_9 
REMARK    6  A    between atoms: C4_9  and  N2_10 
REMARK    7  A    between atoms: C9_16  and  C10_19 
REMARK    8  A    between atoms: C10_19  and  N3_20 
REMARK    9  A    between atoms: N3_20  and  C11_22 
REMARK   10  A    between atoms: C11_22  and  C12_23 
ROOT
HETATM    1  N3  UNL     1      -1.700   0.565  10.918  1.00  0.00    -0.402 N 
ATOM      2  H3  UNL     1      -1.448   0.290   9.968  1.00  0.00     0.154 HD
ENDROOT
BRANCH   1   3
HETATM    3  C10 UNL     1      -2.594  -0.204  11.708  1.00  0.00     0.204 C 
BRANCH   3   4
HETATM    4  C9  UNL     1      -2.169  -1.640  11.942  1.00  0.00     0.337 C 
HETATM    5  F1  UNL     1      -2.833  -2.306  12.905  1.00  0.00    -0.194 F 
HETATM    6  F2  UNL     1      -2.223  -2.354  10.720  1.00  0.00    -0.194 F 
BRANCH   4   7
HETATM    7  C1  UNL     1      -0.698  -1.677  12.270  1.00  0.00     0.292 C 
HETATM    8  O1  UNL     1      -0.295  -1.309  13.414  1.00  0.00    -0.267 OA
HETATM    9  N1  UNL     1       0.284  -2.116  11.347  1.00  0.00    -0.353 N 
ATOM     10  H1  UNL     1      -0.013  -2.415  10.418  1.00  0.00     0.162 HD
BRANCH   9  11
HETATM   11  C2  UNL     1       1.690  -2.156  11.673  1.00  0.00     0.156 C 
BRANCH  11  12
HETATM   12  C3  UNL     1       2.420  -2.988  10.622  1.00  0.00     0.164 C 
BRANCH  12  13
HETATM   13  O2  UNL     1       3.692  -3.303  11.144  1.00  0.00    -0.392 OA
ATOM     14  H2  UNL     1       4.307  -3.288  10.420  1.00  0.00     0.210 HD
ENDBRANCH  12  13
BRANCH  12  15
HETATM   15  C4  UNL     1       2.645  -2.174   9.383  1.00  0.00     0.305 C 
BRANCH  15  16
HETATM   16  N2  UNL     1       3.733  -2.692   8.607  1.00  0.00     0.095 N 
HETATM   17  C5  UNL     1       3.317  -3.815   7.804  1.00  0.00     0.298 C 
HETATM   18  C6  UNL     1       4.504  -4.414   7.058  1.00  0.00     0.198 C 
HETATM   19  O3  UNL     1       5.509  -3.499   6.831  1.00  0.00    -0.388 OA
HETATM   20  C7  UNL     1       5.030  -2.219   6.579  1.00  0.00     0.198 C 
HETATM   21  C8  UNL     1       4.347  -1.642   7.794  1.00  0.00     0.298 C 
ENDBRANCH  15  16
ENDBRANCH  12  15
ENDBRANCH  11  12
ENDBRANCH   9  11
ENDBRANCH   4   7
ENDBRANCH   3   4
ENDBRANCH   1   3
BRANCH   1  22
HETATM   22  C11 UNL     1      -1.170   1.753  11.529  1.00  0.00     0.061 C 
HETATM   23  C18 UNL     1      -1.407   3.033  10.823  1.00  0.00     0.024 C 
HETATM   24  C19 UNL     1      -2.759   3.561  10.655  1.00  0.00     0.018 C 
HETATM   25  C26 UNL     1      -0.762   2.760   9.466  1.00  0.00    -0.001 C 
HETATM   26  C20 UNL     1      -2.666   4.814   9.764  1.00  0.00     0.037 C 
HETATM   27  C21 UNL     1      -4.001   5.463   9.661  1.00  0.00    -0.021 C 
HETATM   28  C24 UNL     1      -2.156   4.445   8.412  1.00  0.00     0.129 C 
HETATM   29  C22 UNL     1      -4.160   6.267   8.618  1.00  0.00    -0.004 C 
HETATM   30  C23 UNL     1      -3.069   6.465   7.671  1.00  0.00     0.195 C 
HETATM   31  O4  UNL     1      -2.161   5.467   7.519  1.00  0.00    -0.382 OA
HETATM   32  C25 UNL     1      -0.701   4.002   8.616  1.00  0.00     0.038 C 
HETATM   33  C27 UNL     1       0.606   2.333   9.951  1.00  0.00    -0.003 A 
HETATM   34  C28 UNL     1       0.788   0.872  10.071  1.00  0.00     0.013 A 
HETATM   35  C29 UNL     1       0.344   1.609  11.293  1.00  0.00     0.023 A 
BRANCH  22  36
HETATM   36  C12 UNL     1      -1.518   1.859  12.946  1.00  0.00    -0.030 A 
HETATM   37  C13 UNL     1      -2.792   2.369  13.245  1.00  0.00     0.010 A 
HETATM   38  C14 UNL     1      -3.246   2.531  14.534  1.00  0.00     0.001 A 
HETATM   39  C15 UNL     1      -2.425   2.179  15.592  1.00  0.00     0.000 A 
HETATM   40  C16 UNL     1      -1.174   1.678  15.303  1.00  0.00     0.001 A 
HETATM   41  C17 UNL     1      -0.716   1.516  14.015  1.00  0.00     0.010 A 
ENDBRANCH  22  36
ENDBRANCH   1  22
TORSDOF 10
ENDMDL
MODEL 4
REMARK VINA RESULT: -8.572122565      1.100      1.426
REMARK  10 active torsions:
REMARK  status: ('A' for Active; 'I' for Inactive)
REMARK       I    between atoms: C1_2  and  N1_3 
REMARK    1  A    between atoms: C1_2  and  C9_16 
REMARK    2  A    between atoms: N1_3  and  C2_5 
REMARK    3  A    between atoms: C2_5  and  C3_6 
REMARK    4  A    between atoms: C3_6  and  O2_7 
REMARK    5  A    between atoms: C3_6  and  C4_9 
REMARK    6  A    between atoms: C4_9  and  N2_10 
REMARK    7  A    between atoms: C9_16  and  C10_19 
REMARK    8  A    between atoms: C10_19  and  N3_20 
REMARK    9  A    between atoms: N3_20  and  C11_22 
REMARK   10  A    between atoms: C11_22  and  C12_23 
ROOT
HETATM    1  N3  UNL     1      -1.028   4.420   8.439  1.00  0.00    -0.402 N 
ATOM      2  H3  UNL     1      -0.842   4.059   7.503  1.00  0.00     0.154 HD
ENDROOT
BRANCH   1   3
HETATM    3  C10 UNL     1      -1.149   3.562   9.562  1.00  0.00     0.204 C 
BRANCH   3   4
HETATM    4  C9  UNL     1      -0.497   2.202   9.403  1.00  0.00     0.337 C 
HETATM    5  F1  UNL     1      -0.943   1.446   8.382  1.00  0.00    -0.194 F 
HETATM    6  F2  UNL     1       0.907   2.357   9.328  1.00  0.00    -0.194 F 
BRANCH   4   7
HETATM    7  C1  UNL     1      -0.666   1.417  10.680  1.00  0.00     0.292 C 
HETATM    8  O1  UNL     1       0.264   1.399  11.540  1.00  0.00    -0.267 OA
HETATM    9  N1  UNL     1      -1.842   0.682  10.980  1.00  0.00    -0.353 N 
ATOM     10  H1  UNL     1      -2.605   0.677  10.303  1.00  0.00     0.162 HD
BRANCH   9  11
HETATM   11  C2  UNL     1      -1.998  -0.060  12.208  1.00  0.00     0.156 C 
BRANCH  11  12
HETATM   12  C3  UNL     1      -3.237   0.448  12.940  1.00  0.00     0.164 C 
BRANCH  12  13
HETATM   13  O2  UNL     1      -4.311  -0.394  12.584  1.00  0.00    -0.392 OA
ATOM     14  H2  UNL     1      -4.919   0.124  12.070  1.00  0.00     0.210 HD
ENDBRANCH  12  13
BRANCH  12  15
HETATM   15  C4  UNL     1      -3.588   1.827  12.466  1.00  0.00     0.305 C 
BRANCH  15  16
HETATM   16  N2  UNL     1      -4.157   2.614  13.520  1.00  0.00     0.095 N 
HETATM   17  C5  UNL     1      -3.180   2.919  14.535  1.00  0.00     0.298 C 
HETATM   18  C6  UNL     1      -3.823   3.673  15.693  1.00  0.00     0.198 C 
HETATM   19  O3  UNL     1      -4.942   4.382  15.313  1.00  0.00    -0.388 OA
HETATM   20  C7  UNL     1      -4.839   4.914  14.034  1.00  0.00     0.198 C 
HETATM   21  C8  UNL     1      -4.786   3.825  12.992  1.00  0.00     0.298 C 
ENDBRANCH  15  16
ENDBRANCH  12  15
ENDBRANCH  11  12
ENDBRANCH   9  11
ENDBRANCH   4   7
ENDBRANCH   3   4
ENDBRANCH   1   3
BRANCH   1  22
HETATM   22  C11 UNL     1      -1.181   5.827   8.692  1.00  0.00     0.061 C 
HETATM   23  C18 UNL     1      -0.968   6.741   7.546  1.00  0.00     0.024 C 
HETATM   24  C19 UNL     1      -1.860   6.715   6.388  1.00  0.00     0.018 C 
HETATM   25  C26 UNL     1       0.460   6.394   7.135  1.00  0.00    -0.001 C 
HETATM   26  C20 UNL     1      -1.282   7.674   5.331  1.00  0.00     0.037 C 
HETATM   27  C21 UNL     1      -2.216   7.780   4.177  1.00  0.00    -0.021 C 
HETATM   28  C24 UNL     1       0.056   7.195   4.880  1.00  0.00     0.129 C 
HETATM   29  C22 UNL     1      -1.673   8.209   3.047  1.00  0.00    -0.004 C 
HETATM   30  C23 UNL     1      -0.253   8.539   2.993  1.00  0.00     0.195 C 
HETATM   31  O4  UNL     1       0.586   7.909   3.855  1.00  0.00    -0.382 OA
HETATM   32  C25 UNL     1       0.988   7.342   6.090  1.00  0.00     0.038 C 
HETATM   33  C27 UNL     1       1.132   6.592   8.477  1.00  0.00    -0.003 A 
HETATM   34  C28 UNL     1       1.306   5.355   9.267  1.00  0.00     0.013 A 
HETATM   35  C29 UNL     1       0.074   6.162   9.519  1.00  0.00     0.023 A 
BRANCH  22  36
HETATM   36  C12 UNL     1      -2.426   6.139   9.394  1.00  0.00    -0.030 A 
HETATM   37  C13 UNL     1      -2.433   7.304  10.177  1.00  0.00     0.010 A 
HETATM   38  C14 UNL     1      -3.533   7.712  10.897  1.00  0.00     0.001 A 
HETATM   39  C15 UNL     1      -4.690   6.952  10.857  1.00  0.00     0.000 A 
HETATM   40  C16 UNL     1      -4.687   5.807  10.089  1.00  0.00     0.001 A 
HETATM   41  C17 UNL     1      -3.588   5.396   9.368  1.00  0.00     0.010 A 
ENDBRANCH  22  36
ENDBRANCH   1  22
TORSDOF 10
ENDMDL
MODEL 5
REMARK VINA RESULT: -8.525493656      1.177      1.524
REMARK  10 active torsions:
REMARK  status: ('A' for Active; 'I' for Inactive)
REMARK       I    between atoms: C1_2  and  N1_3 
REMARK    1  A    between atoms: C1_2  and  C9_16 
REMARK    2  A    between atoms: N1_3  and  C2_5 
REMARK    3  A    between atoms: C2_5  and  C3_6 
REMARK    4  A    between atoms: C3_6  and  O2_7 
REMARK    5  A    between atoms: C3_6  and  C4_9 
REMARK    6  A    between atoms: C4_9  and  N2_10 
REMARK    7  A    between atoms: C9_16  and  C10_19 
REMARK    8  A    between atoms: C10_19  and  N3_20 
REMARK    9  A    between atoms: N3_20  and  C11_22 
REMARK   10  A    between atoms: C11_22  and  C12_23 
ROOT
HETATM    1  N3  UNL     1      -0.652   5.191   7.986  1.00  0.00    -0.402 N 
ATOM      2  H3  UNL     1      -0.257   4.942   7.079  1.00  0.00     0.154 HD
ENDROOT
BRANCH   1   3
HETATM    3  C10 UNL     1      -0.681   4.272   9.067  1.00  0.00     0.204 C 
BRANCH   3   4
HETATM    4  C9  UNL     1       0.581   3.451   9.246  1.00  0.00     0.337 C 
HETATM    5  F1  UNL     1       1.344   3.290   8.148  1.00  0.00    -0.194 F 
HETATM    6  F2  UNL     1       1.348   3.988  10.307  1.00  0.00    -0.194 F 
BRANCH   4   7
HETATM    7  C1  UNL     1       0.216   2.086   9.772  1.00  0.00     0.292 C 
HETATM    8  O1  UNL     1      -0.608   1.361   9.136  1.00  0.00    -0.267 OA
HETATM    9  N1  UNL     1       0.761   1.552  10.967  1.00  0.00    -0.353 N 
ATOM     10  H1  UNL     1       1.424   2.116  11.500  1.00  0.00     0.162 HD
BRANCH   9  11
HETATM   11  C2  UNL     1       0.412   0.241  11.459  1.00  0.00     0.156 C 
BRANCH  11  12
HETATM   12  C3  UNL     1      -0.416   0.392  12.732  1.00  0.00     0.164 C 
BRANCH  12  13
HETATM   13  O2  UNL     1       0.078  -0.540  13.669  1.00  0.00    -0.392 OA
ATOM     14  H2  UNL     1       0.863  -0.167  14.052  1.00  0.00     0.210 HD
ENDBRANCH  12  13
BRANCH  12  15
HETATM   15  C4  UNL     1      -1.845   0.026  12.464  1.00  0.00     0.305 C 
BRANCH  15  16
HETATM   16  N2  UNL     1      -2.735   1.087  12.831  1.00  0.00     0.095 N 
HETATM   17  C5  UNL     1      -2.200   1.870  13.917  1.00  0.00     0.298 C 
HETATM   18  C6  UNL     1      -3.198   2.934  14.358  1.00  0.00     0.198 C 
HETATM   19  O3  UNL     1      -4.061   3.308  13.350  1.00  0.00    -0.388 OA
HETATM   20  C7  UNL     1      -3.460   3.314  12.097  1.00  0.00     0.198 C 
HETATM   21  C8  UNL     1      -3.066   1.920  11.674  1.00  0.00     0.298 C 
ENDBRANCH  15  16
ENDBRANCH  12  15
ENDBRANCH  11  12
ENDBRANCH   9  11
ENDBRANCH   4   7
ENDBRANCH   3   4
ENDBRANCH   1   3
BRANCH   1  22
HETATM   22  C11 UNL     1      -1.208   6.492   8.239  1.00  0.00     0.061 C 
HETATM   23  C18 UNL     1      -1.304   7.416   7.085  1.00  0.00     0.024 C 
HETATM   24  C19 UNL     1      -2.176   7.115   5.951  1.00  0.00     0.018 C 
HETATM   25  C26 UNL     1       0.153   7.502   6.638  1.00  0.00    -0.001 C 
HETATM   26  C20 UNL     1      -1.933   8.191   4.876  1.00  0.00     0.037 C 
HETATM   27  C21 UNL     1      -2.885   8.004   3.747  1.00  0.00    -0.021 C 
HETATM   28  C24 UNL     1      -0.524   8.124   4.392  1.00  0.00     0.129 C 
HETATM   29  C22 UNL     1      -2.520   8.562   2.601  1.00  0.00    -0.004 C 
HETATM   30  C23 UNL     1      -1.264   9.297   2.510  1.00  0.00     0.195 C 
HETATM   31  O4  UNL     1      -0.255   8.953   3.351  1.00  0.00    -0.382 OA
HETATM   32  C25 UNL     1       0.351   8.553   5.577  1.00  0.00     0.038 C 
HETATM   33  C27 UNL     1       0.769   7.904   7.961  1.00  0.00    -0.003 A 
HETATM   34  C28 UNL     1       1.320   6.783   8.749  1.00  0.00     0.013 A 
HETATM   35  C29 UNL     1      -0.090   7.191   9.032  1.00  0.00     0.023 A 
BRANCH  22  36
HETATM   36  C12 UNL     1      -2.473   6.428   8.972  1.00  0.00    -0.030 A 
HETATM   37  C13 UNL     1      -2.609   7.295  10.068  1.00  0.00     0.010 A 
HETATM   38  C14 UNL     1      -3.740   7.333  10.851  1.00  0.00     0.001 A 
HETATM   39  C15 UNL     1      -4.799   6.490  10.558  1.00  0.00     0.000 A 
HETATM   40  C16 UNL     1      -4.669   5.637   9.482  1.00  0.00     0.001 A 
HETATM   41  C17 UNL     1      -3.538   5.595   8.697  1.00  0.00     0.010 A 
ENDBRANCH  22  36
ENDBRANCH   1  22
TORSDOF 10
ENDMDL
