MODEL 1
REMARK VINA RESULT: -7.700445405      0.000      0.000
REMARK  11 active torsions:
REMARK  status: ('A' for Active; 'I' for Inactive)
REMARK    1  A    between atoms: C2_2  and  C4_4 
REMARK    2  A    between atoms: C4_4  and  N1_5 
REMARK    3  A    between atoms: C4_4  and  C5_9 
REMARK       I    between atoms: C5_9  and  N2_11 
REMARK    4  A    between atoms: C6_12  and  C7_13 
REMARK       I    between atoms: C7_13  and  N3_15 
REMARK    5  A    between atoms: N3_15  and  C8_17 
REMARK    6  A    between atoms: C8_17  and  C9_18 
REMARK    7  A    between atoms: C8_17  and  C16_29 
REMARK       I    between atoms: C9_18  and  N4_20 
REMARK    8  A    between atoms: N4_20  and  C10_22 
REMARK    9  A    between atoms: C10_22  and  C11_23 
REMARK   10  A    between atoms: C11_23  and  C12_25 
REMARK   11  A    between atoms: C20_35  and  C21_36 
ROOT
HETATM    1  C5  UNL     1      -2.167   8.280   5.899  1.00  0.00     0.254 C 
HETATM    2  O1  UNL     1      -1.330   9.024   5.265  1.00  0.00    -0.271 OA
HETATM    3  N2  UNL     1      -1.698   7.280   6.791  1.00  0.00    -0.296 N 
HETATM    4  C6  UNL     1      -2.427   6.390   7.617  1.00  0.00     0.282 C 
HETATM    5  C19 UNL     1      -1.378   5.435   8.119  1.00  0.00     0.293 C 
HETATM    6  O5  UNL     1      -1.635   4.249   8.424  1.00  0.00    -0.262 OA
HETATM    7  O6  UNL     1      -0.212   6.174   8.134  1.00  0.00    -0.289 OA
HETATM    8  C20 UNL     1      -0.291   6.990   6.969  1.00  0.00     0.274 C 
ENDROOT
BRANCH   4   9
HETATM    9  C7  UNL     1      -3.070   6.972   8.812  1.00  0.00     0.251 C 
HETATM   10  O2  UNL     1      -2.375   7.849   9.443  1.00  0.00    -0.271 OA
HETATM   11  N3  UNL     1      -4.335   6.678   9.323  1.00  0.00    -0.345 N 
ATOM     12  H3  UNL     1      -4.923   5.985   8.859  1.00  0.00     0.163 HD
BRANCH  11  13
HETATM   13  C8  UNL     1      -4.827   7.369  10.540  1.00  0.00     0.180 C 
BRANCH  13  14
HETATM   14  C9  UNL     1      -4.772   6.415  11.683  1.00  0.00     0.241 C 
HETATM   15  O3  UNL     1      -4.714   6.875  12.879  1.00  0.00    -0.271 OA
HETATM   16  N4  UNL     1      -4.780   5.024  11.529  1.00  0.00    -0.352 N 
ATOM     17  H4  UNL     1      -4.831   4.616  10.596  1.00  0.00     0.162 HD
BRANCH  16  18
HETATM   18  C10 UNL     1      -4.717   4.153  12.710  1.00  0.00     0.201 C 
BRANCH  18  19
HETATM   19  C11 UNL     1      -3.626   3.177  12.584  1.00  0.00     0.151 C 
HETATM   20  O4  UNL     1      -3.081   3.026  11.498  1.00  0.00    -0.295 OA
BRANCH  19  21
HETATM   21  C12 UNL     1      -3.146   2.358  13.706  1.00  0.00     0.011 C 
HETATM   22  C13 UNL     1      -4.010   1.109  13.797  1.00  0.00     0.022 C 
HETATM   23  C14 UNL     1      -1.719   1.867  13.483  1.00  0.00     0.022 C 
HETATM   24  C15 UNL     1      -3.198   3.053  15.025  1.00  0.00     0.022 C 
ENDBRANCH  19  21
ENDBRANCH  18  19
ENDBRANCH  16  18
ENDBRANCH  13  14
BRANCH  13  25
HETATM   25  C16 UNL     1      -6.229   7.877  10.264  1.00  0.00     0.009 C 
HETATM   26  C17 UNL     1      -6.093   9.230   9.549  1.00  0.00     0.012 C 
HETATM   27  C18 UNL     1      -7.031   8.162  11.505  1.00  0.00     0.012 C 
ENDBRANCH  13  25
ENDBRANCH  11  13
ENDBRANCH   4   9
BRANCH   1  28
HETATM   28  C4  UNL     1      -3.586   8.580   5.600  1.00  0.00     0.278 C 
BRANCH  28  29
HETATM   29  C2  UNL     1      -3.723   9.294   4.258  1.00  0.00     0.017 C 
HETATM   30  C1  UNL     1      -4.332   8.463   3.180  1.00  0.00     0.012 C 
HETATM   31  C3  UNL     1      -4.471  10.583   4.380  1.00  0.00     0.012 C 
ENDBRANCH  28  29
BRANCH  28  32
HETATM   32  N1  UNL     1      -3.981   9.647   6.564  1.00  0.00    -0.066 N 
ATOM     33  H13 UNL     1      -3.251   9.929   7.218  1.00  0.00     0.275 HD
ATOM     34  H12 UNL     1      -4.106  10.574   6.155  1.00  0.00     0.275 HD
ATOM     35  H11 UNL     1      -4.815   9.249   6.993  1.00  0.00     0.275 HD
ENDBRANCH  28  32
ENDBRANCH   1  28
BRANCH   8  36
HETATM   36  C21 UNL     1       0.621   8.115   6.995  1.00  0.00     0.029 A 
HETATM   37  C22 UNL     1       0.551   9.201   7.831  1.00  0.00     0.018 A 
HETATM   38  C23 UNL     1       1.490  10.243   7.803  1.00  0.00     0.043 A 
HETATM   39  C24 UNL     1       2.526  10.210   6.923  1.00  0.00     0.119 A 
HETATM   40  F1  UNL     1       3.431  11.216   6.897  1.00  0.00    -0.206 F 
HETATM   41  C25 UNL     1       2.630   9.136   6.067  1.00  0.00     0.085 A 
HETATM   42  C26 UNL     1       1.704   8.118   6.102  1.00  0.00     0.130 A 
HETATM   43  F2  UNL     1       1.834   7.093   5.260  1.00  0.00    -0.205 F 
ENDBRANCH   8  36
TORSDOF 11
ENDMDL
MODEL 2
REMARK VINA RESULT: -7.534118876      5.354      8.261
REMARK  11 active torsions:
REMARK  status: ('A' for Active; 'I' for Inactive)
REMARK    1  A    between atoms: C2_2  and  C4_4 
REMARK    2  A    between atoms: C4_4  and  N1_5 
REMARK    3  A    between atoms: C4_4  and  C5_9 
REMARK       I    between atoms: C5_9  and  N2_11 
REMARK    4  A    between atoms: C6_12  and  C7_13 
REMARK       I    between atoms: C7_13  and  N3_15 
REMARK    5  A    between atoms: N3_15  and  C8_17 
REMARK    6  A    between atoms: C8_17  and  C9_18 
REMARK    7  A    between atoms: C8_17  and  C16_29 
REMARK       I    between atoms: C9_18  and  N4_20 
REMARK    8  A    between atoms: N4_20  and  C10_22 
REMARK    9  A    between atoms: C10_22  and  C11_23 
REMARK   10  A    between atoms: C11_23  and  C12_25 
REMARK   11  A    between atoms: C20_35  and  C21_36 
ROOT
HETATM    1  C5  UNL     1      -8.561  12.637  11.377  1.00  0.00     0.254 C 
HETATM    2  O1  UNL     1      -8.766  13.744  11.998  1.00  0.00    -0.271 OA
HETATM    3  N2  UNL     1      -7.632  12.584  10.304  1.00  0.00    -0.296 N 
HETATM    4  C6  UNL     1      -7.219  11.480   9.518  1.00  0.00     0.282 C 
HETATM    5  C19 UNL     1      -6.423  12.114   8.410  1.00  0.00     0.293 C 
HETATM    6  O5  UNL     1      -6.328  11.606   7.271  1.00  0.00    -0.262 OA
HETATM    7  O6  UNL     1      -5.904  13.265   8.968  1.00  0.00    -0.289 OA
HETATM    8  C20 UNL     1      -6.947  13.757   9.806  1.00  0.00     0.274 C 
ENDROOT
BRANCH   4   9
HETATM    9  C7  UNL     1      -6.327  10.501  10.170  1.00  0.00     0.251 C 
HETATM   10  O2  UNL     1      -5.330  11.000  10.809  1.00  0.00    -0.271 OA
HETATM   11  N3  UNL     1      -6.447   9.110  10.167  1.00  0.00    -0.345 N 
ATOM     12  H3  UNL     1      -7.220   8.667   9.670  1.00  0.00     0.163 HD
BRANCH  11  13
HETATM   13  C8  UNL     1      -5.454   8.275  10.885  1.00  0.00     0.180 C 
BRANCH  13  14
HETATM   14  C9  UNL     1      -4.512   7.694   9.888  1.00  0.00     0.241 C 
HETATM   15  O3  UNL     1      -4.888   6.691   9.183  1.00  0.00    -0.271 OA
HETATM   16  N4  UNL     1      -3.220   8.186   9.669  1.00  0.00    -0.352 N 
ATOM     17  H4  UNL     1      -2.882   8.985  10.204  1.00  0.00     0.162 HD
BRANCH  16  18
HETATM   18  C10 UNL     1      -2.351   7.550   8.670  1.00  0.00     0.201 C 
BRANCH  18  19
HETATM   19  C11 UNL     1      -1.470   6.555   9.297  1.00  0.00     0.151 C 
HETATM   20  O4  UNL     1      -0.578   6.933  10.046  1.00  0.00    -0.295 OA
BRANCH  19  21
HETATM   21  C12 UNL     1      -1.602   5.109   9.071  1.00  0.00     0.011 C 
HETATM   22  C13 UNL     1      -2.268   4.890   7.721  1.00  0.00     0.022 C 
HETATM   23  C14 UNL     1      -0.244   4.419   8.987  1.00  0.00     0.022 C 
HETATM   24  C15 UNL     1      -2.417   4.409  10.107  1.00  0.00     0.022 C 
ENDBRANCH  19  21
ENDBRANCH  18  19
ENDBRANCH  16  18
ENDBRANCH  13  14
BRANCH  13  25
HETATM   25  C16 UNL     1      -6.203   7.218  11.674  1.00  0.00     0.009 C 
HETATM   26  C17 UNL     1      -7.450   7.888  12.270  1.00  0.00     0.012 C 
HETATM   27  C18 UNL     1      -5.439   6.679  12.853  1.00  0.00     0.012 C 
ENDBRANCH  13  25
ENDBRANCH  11  13
ENDBRANCH   4   9
BRANCH   1  28
HETATM   28  C4  UNL     1      -9.362  11.502  11.888  1.00  0.00     0.278 C 
BRANCH  28  29
HETATM   29  C2  UNL     1     -10.460  11.118  10.901  1.00  0.00     0.017 C 
HETATM   30  C1  UNL     1     -10.353   9.727  10.374  1.00  0.00     0.012 C 
HETATM   31  C3  UNL     1     -11.827  11.336  11.465  1.00  0.00     0.012 C 
ENDBRANCH  28  29
BRANCH  28  32
HETATM   32  N1  UNL     1     -10.147  12.049  13.031  1.00  0.00    -0.066 N 
ATOM     33  H13 UNL     1     -11.156  12.082  12.885  1.00  0.00     0.275 HD
ATOM     34  H12 UNL     1     -10.188  11.448  13.854  1.00  0.00     0.275 HD
ATOM     35  H11 UNL     1      -9.703  12.955  13.180  1.00  0.00     0.275 HD
ENDBRANCH  28  32
ENDBRANCH   1  28
BRANCH   8  36
HETATM   36  C21 UNL     1      -6.489  14.723  10.782  1.00  0.00     0.029 A 
HETATM   37  C22 UNL     1      -5.510  14.527  11.725  1.00  0.00     0.018 A 
HETATM   38  C23 UNL     1      -5.112  15.527  12.625  1.00  0.00     0.043 A 
HETATM   39  C24 UNL     1      -5.698  16.753  12.593  1.00  0.00     0.119 A 
HETATM   40  F1  UNL     1      -5.312  17.717  13.462  1.00  0.00    -0.206 F 
HETATM   41  C25 UNL     1      -6.684  16.988  11.661  1.00  0.00     0.085 A 
HETATM   42  C26 UNL     1      -7.069  16.002  10.781  1.00  0.00     0.130 A 
HETATM   43  F2  UNL     1      -8.026  16.262   9.891  1.00  0.00    -0.205 F 
ENDBRANCH   8  36
TORSDOF 11
ENDMDL
MODEL 3
REMARK VINA RESULT: -7.521774623      4.496      7.803
REMARK  11 active torsions:
REMARK  status: ('A' for Active; 'I' for Inactive)
REMARK    1  A    between atoms: C2_2  and  C4_4 
REMARK    2  A    between atoms: C4_4  and  N1_5 
REMARK    3  A    between atoms: C4_4  and  C5_9 
REMARK       I    between atoms: C5_9  and  N2_11 
REMARK    4  A    between atoms: C6_12  and  C7_13 
REMARK       I    between atoms: C7_13  and  N3_15 
REMARK    5  A    between atoms: N3_15  and  C8_17 
REMARK    6  A    between atoms: C8_17  and  C9_18 
REMARK    7  A    between atoms: C8_17  and  C16_29 
REMARK       I    between atoms: C9_18  and  N4_20 
REMARK    8  A    between atoms: N4_20  and  C10_22 
REMARK    9  A    between atoms: C10_22  and  C11_23 
REMARK   10  A    between atoms: C11_23  and  C12_25 
REMARK   11  A    between atoms: C20_35  and  C21_36 
ROOT
HETATM    1  C5  UNL     1      -8.699  10.283   7.274  1.00  0.00     0.254 C 
HETATM    2  O1  UNL     1      -9.423   9.763   8.201  1.00  0.00    -0.271 OA
HETATM    3  N2  UNL     1      -7.586  11.097   7.611  1.00  0.00    -0.296 N 
HETATM    4  C6  UNL     1      -6.637  11.727   6.769  1.00  0.00     0.282 C 
HETATM    5  C19 UNL     1      -5.878  12.628   7.705  1.00  0.00     0.293 C 
HETATM    6  O5  UNL     1      -5.343  13.695   7.329  1.00  0.00    -0.262 OA
HETATM    7  O6  UNL     1      -5.947  11.995   8.930  1.00  0.00    -0.289 OA
HETATM    8  C20 UNL     1      -7.263  11.450   8.977  1.00  0.00     0.274 C 
ENDROOT
BRANCH   4   9
HETATM    9  C7  UNL     1      -5.638  10.850   6.127  1.00  0.00     0.251 C 
HETATM   10  O2  UNL     1      -5.872  10.547   4.901  1.00  0.00    -0.271 OA
HETATM   11  N3  UNL     1      -4.480  10.320   6.701  1.00  0.00    -0.345 N 
ATOM     12  H3  UNL     1      -4.253  10.528   7.673  1.00  0.00     0.163 HD
BRANCH  11  13
HETATM   13  C8  UNL     1      -3.580   9.455   5.900  1.00  0.00     0.180 C 
BRANCH  13  14
HETATM   14  C9  UNL     1      -2.950   8.457   6.808  1.00  0.00     0.241 C 
HETATM   15  O3  UNL     1      -2.497   7.363   6.316  1.00  0.00    -0.271 OA
HETATM   16  N4  UNL     1      -2.817   8.644   8.188  1.00  0.00    -0.352 N 
ATOM     17  H4  UNL     1      -3.158   9.502   8.621  1.00  0.00     0.162 HD
BRANCH  16  18
HETATM   18  C10 UNL     1      -2.187   7.606   9.015  1.00  0.00     0.201 C 
BRANCH  18  19
HETATM   19  C11 UNL     1      -3.068   7.210  10.122  1.00  0.00     0.151 C 
HETATM   20  O4  UNL     1      -3.284   8.005  11.028  1.00  0.00    -0.295 OA
BRANCH  19  21
HETATM   21  C12 UNL     1      -3.713   5.892  10.204  1.00  0.00     0.011 C 
HETATM   22  C13 UNL     1      -4.641   5.734   9.009  1.00  0.00     0.022 C 
HETATM   23  C14 UNL     1      -2.702   4.755  10.106  1.00  0.00     0.022 C 
HETATM   24  C15 UNL     1      -4.520   5.692  11.444  1.00  0.00     0.022 C 
ENDBRANCH  19  21
ENDBRANCH  18  19
ENDBRANCH  16  18
ENDBRANCH  13  14
BRANCH  13  25
HETATM   25  C16 UNL     1      -2.566  10.341   5.203  1.00  0.00     0.009 C 
HETATM   26  C17 UNL     1      -2.598   9.987   3.709  1.00  0.00     0.012 C 
HETATM   27  C18 UNL     1      -1.145  10.103   5.638  1.00  0.00     0.012 C 
ENDBRANCH  13  25
ENDBRANCH  11  13
ENDBRANCH   4   9
BRANCH   1  28
HETATM   28  C4  UNL     1      -9.145   9.946   5.902  1.00  0.00     0.278 C 
BRANCH  28  29
HETATM   29  C2  UNL     1      -9.603  11.195   5.153  1.00  0.00     0.017 C 
HETATM   30  C1  UNL     1      -9.160  11.255   3.730  1.00  0.00     0.012 C 
HETATM   31  C3  UNL     1     -11.084  11.384   5.225  1.00  0.00     0.012 C 
ENDBRANCH  28  29
BRANCH  28  32
HETATM   32  N1  UNL     1     -10.422   9.196   6.069  1.00  0.00    -0.066 N 
ATOM     33  H13 UNL     1     -11.248   9.777   6.210  1.00  0.00     0.275 HD
ATOM     34  H12 UNL     1     -10.769   8.740   5.225  1.00  0.00     0.275 HD
ATOM     35  H11 UNL     1     -10.201   8.567   6.840  1.00  0.00     0.275 HD
ENDBRANCH  28  32
ENDBRANCH   1  28
BRANCH   8  36
HETATM   36  C21 UNL     1      -7.420  10.420   9.983  1.00  0.00     0.029 A 
HETATM   37  C22 UNL     1      -6.745   9.226  10.039  1.00  0.00     0.018 A 
HETATM   38  C23 UNL     1      -6.945   8.289  11.064  1.00  0.00     0.043 A 
HETATM   39  C24 UNL     1      -7.837   8.539  12.059  1.00  0.00     0.119 A 
HETATM   40  F1  UNL     1      -8.028   7.633  13.047  1.00  0.00    -0.206 F 
HETATM   41  C25 UNL     1      -8.533   9.727  12.037  1.00  0.00     0.085 A 
HETATM   42  C26 UNL     1      -8.331  10.641  11.028  1.00  0.00     0.130 A 
HETATM   43  F2  UNL     1      -9.021  11.782  11.037  1.00  0.00    -0.205 F 
ENDBRANCH   8  36
TORSDOF 11
ENDMDL
MODEL 4
REMARK VINA RESULT: -7.426689679      2.612      5.380
REMARK  11 active torsions:
REMARK  status: ('A' for Active; 'I' for Inactive)
REMARK    1  A    between atoms: C2_2  and  C4_4 
REMARK    2  A    between atoms: C4_4  and  N1_5 
REMARK    3  A    between atoms: C4_4  and  C5_9 
REMARK       I    between atoms: C5_9  and  N2_11 
REMARK    4  A    between atoms: C6_12  and  C7_13 
REMARK       I    between atoms: C7_13  and  N3_15 
REMARK    5  A    between atoms: N3_15  and  C8_17 
REMARK    6  A    between atoms: C8_17  and  C9_18 
REMARK    7  A    between atoms: C8_17  and  C16_29 
REMARK       I    between atoms: C9_18  and  N4_20 
REMARK    8  A    between atoms: N4_20  and  C10_22 
REMARK    9  A    between atoms: C10_22  and  C11_23 
REMARK   10  A    between atoms: C11_23  and  C12_25 
REMARK   11  A    between atoms: C20_35  and  C21_36 
ROOT
HETATM    1  C5  UNL     1       0.123   8.709   6.736  1.00  0.00     0.254 C 
HETATM    2  O1  UNL     1      -0.048   9.441   5.692  1.00  0.00    -0.271 OA
HETATM    3  N2  UNL     1      -0.995   8.283   7.499  1.00  0.00    -0.296 N 
HETATM    4  C6  UNL     1      -1.045   7.448   8.642  1.00  0.00     0.282 C 
HETATM    5  C19 UNL     1      -2.468   7.582   9.115  1.00  0.00     0.293 C 
HETATM    6  O5  UNL     1      -2.795   7.455  10.316  1.00  0.00    -0.262 OA
HETATM    7  O6  UNL     1      -3.191   7.850   7.970  1.00  0.00    -0.289 OA
HETATM    8  C20 UNL     1      -2.347   8.707   7.206  1.00  0.00     0.274 C 
ENDROOT
BRANCH   4   9
HETATM    9  C7  UNL     1      -0.811   6.008   8.420  1.00  0.00     0.251 C 
HETATM   10  O2  UNL     1      -0.880   5.617   7.198  1.00  0.00    -0.271 OA
HETATM   11  N3  UNL     1      -0.527   5.035   9.381  1.00  0.00    -0.345 N 
ATOM     12  H3  UNL     1      -0.466   5.296  10.365  1.00  0.00     0.163 HD
BRANCH  11  13
HETATM   13  C8  UNL     1      -0.313   3.626   8.974  1.00  0.00     0.180 C 
BRANCH  13  14
HETATM   14  C9  UNL     1      -1.149   2.749   9.841  1.00  0.00     0.241 C 
HETATM   15  O3  UNL     1      -0.979   1.479   9.796  1.00  0.00    -0.271 OA
HETATM   16  N4  UNL     1      -2.125   3.236  10.718  1.00  0.00    -0.352 N 
ATOM     17  H4  UNL     1      -2.290   4.240  10.790  1.00  0.00     0.162 HD
BRANCH  16  18
HETATM   18  C10 UNL     1      -2.912   2.302  11.535  1.00  0.00     0.201 C 
BRANCH  18  19
HETATM   19  C11 UNL     1      -3.403   2.958  12.755  1.00  0.00     0.151 C 
HETATM   20  O4  UNL     1      -4.046   3.995  12.659  1.00  0.00    -0.295 OA
BRANCH  19  21
HETATM   21  C12 UNL     1      -3.161   2.429  14.105  1.00  0.00     0.011 C 
HETATM   22  C13 UNL     1      -4.052   1.214  14.315  1.00  0.00     0.022 C 
HETATM   23  C14 UNL     1      -1.728   1.934  14.274  1.00  0.00     0.022 C 
HETATM   24  C15 UNL     1      -3.448   3.407  15.195  1.00  0.00     0.022 C 
ENDBRANCH  19  21
ENDBRANCH  18  19
ENDBRANCH  16  18
ENDBRANCH  13  14
BRANCH  13  25
HETATM   25  C16 UNL     1       1.169   3.319   9.081  1.00  0.00     0.009 C 
HETATM   26  C17 UNL     1       1.711   4.096  10.291  1.00  0.00     0.012 C 
HETATM   27  C18 UNL     1       1.978   3.797   7.906  1.00  0.00     0.012 C 
ENDBRANCH  13  25
ENDBRANCH  11  13
ENDBRANCH   4   9
BRANCH   1  28
HETATM   28  C4  UNL     1       1.541   8.389   7.020  1.00  0.00     0.278 C 
BRANCH  28  29
HETATM   29  C2  UNL     1       2.477   9.296   6.225  1.00  0.00     0.017 C 
HETATM   30  C1  UNL     1       2.988  10.470   6.989  1.00  0.00     0.012 C 
HETATM   31  C3  UNL     1       3.626   8.543   5.636  1.00  0.00     0.012 C 
ENDBRANCH  28  29
BRANCH  28  32
HETATM   32  N1  UNL     1       1.785   7.060   6.389  1.00  0.00    -0.066 N 
ATOM     33  H13 UNL     1       2.331   7.084   5.528  1.00  0.00     0.275 HD
ATOM     34  H12 UNL     1       2.431   6.454   6.896  1.00  0.00     0.275 HD
ATOM     35  H11 UNL     1       0.838   6.694   6.290  1.00  0.00     0.275 HD
ENDBRANCH  28  32
ENDBRANCH   1  28
BRANCH   8  36
HETATM   36  C21 UNL     1      -2.729   8.791   5.811  1.00  0.00     0.029 A 
HETATM   37  C22 UNL     1      -2.551   7.819   4.858  1.00  0.00     0.018 A 
HETATM   38  C23 UNL     1      -2.969   7.975   3.528  1.00  0.00     0.043 A 
HETATM   39  C24 UNL     1      -3.578   9.124   3.129  1.00  0.00     0.119 A 
HETATM   40  F1  UNL     1      -3.980   9.272   1.845  1.00  0.00    -0.206 F 
HETATM   41  C25 UNL     1      -3.774  10.122   4.058  1.00  0.00     0.085 A 
HETATM   42  C26 UNL     1      -3.361   9.961   5.361  1.00  0.00     0.130 A 
HETATM   43  F2  UNL     1      -3.567  10.946   6.234  1.00  0.00    -0.205 F 
ENDBRANCH   8  36
TORSDOF 11
ENDMDL
MODEL 5
REMARK VINA RESULT: -7.360635170      3.346      6.304
REMARK  11 active torsions:
REMARK  status: ('A' for Active; 'I' for Inactive)
REMARK    1  A    between atoms: C2_2  and  C4_4 
REMARK    2  A    between atoms: C4_4  and  N1_5 
REMARK    3  A    between atoms: C4_4  and  C5_9 
REMARK       I    between atoms: C5_9  and  N2_11 
REMARK    4  A    between atoms: C6_12  and  C7_13 
REMARK       I    between atoms: C7_13  and  N3_15 
REMARK    5  A    between atoms: N3_15  and  C8_17 
REMARK    6  A    between atoms: C8_17  and  C9_18 
REMARK    7  A    between atoms: C8_17  and  C16_29 
REMARK       I    between atoms: C9_18  and  N4_20 
REMARK    8  A    between atoms: N4_20  and  C10_22 
REMARK    9  A    between atoms: C10_22  and  C11_23 
REMARK   10  A    between atoms: C11_23  and  C12_25 
REMARK   11  A    between atoms: C20_35  and  C21_36 
ROOT
HETATM    1  C5  UNL     1      -2.557   7.817   6.879  1.00  0.00     0.254 C 
HETATM    2  O1  UNL     1      -3.753   7.612   7.304  1.00  0.00    -0.271 OA
HETATM    3  N2  UNL     1      -1.495   8.006   7.803  1.00  0.00    -0.296 N 
HETATM    4  C6  UNL     1      -0.112   8.198   7.564  1.00  0.00     0.282 C 
HETATM    5  C19 UNL     1       0.429   8.578   8.917  1.00  0.00     0.293 C 
HETATM    6  O5  UNL     1       1.433   9.310   9.060  1.00  0.00    -0.262 OA
HETATM    7  O6  UNL     1      -0.410   7.951   9.816  1.00  0.00    -0.289 OA
HETATM    8  C20 UNL     1      -1.706   8.063   9.233  1.00  0.00     0.274 C 
ENDROOT
BRANCH   4   9
HETATM    9  C7  UNL     1       0.654   7.017   7.122  1.00  0.00     0.251 C 
HETATM   10  O2  UNL     1       0.654   6.799   5.856  1.00  0.00    -0.271 OA
HETATM   11  N3  UNL     1       1.368   6.121   7.920  1.00  0.00    -0.345 N 
ATOM     12  H3  UNL     1       1.394   6.249   8.932  1.00  0.00     0.163 HD
BRANCH  11  13
HETATM   13  C8  UNL     1       2.090   4.983   7.301  1.00  0.00     0.180 C 
BRANCH  13  14
HETATM   14  C9  UNL     1       1.858   3.766   8.128  1.00  0.00     0.241 C 
HETATM   15  O3  UNL     1       2.194   2.620   7.662  1.00  0.00    -0.271 OA
HETATM   16  N4  UNL     1       1.287   3.799   9.405  1.00  0.00    -0.352 N 
ATOM     17  H4  UNL     1       1.010   4.690   9.817  1.00  0.00     0.162 HD
BRANCH  16  18
HETATM   18  C10 UNL     1       1.087   2.550  10.154  1.00  0.00     0.201 C 
BRANCH  18  19
HETATM   19  C11 UNL     1      -0.343   2.237  10.279  1.00  0.00     0.151 C 
HETATM   20  O4  UNL     1      -1.117   2.620   9.411  1.00  0.00    -0.295 OA
BRANCH  19  21
HETATM   21  C12 UNL     1      -0.905   1.480  11.406  1.00  0.00     0.011 C 
HETATM   22  C13 UNL     1      -2.196   2.154  11.845  1.00  0.00     0.022 C 
HETATM   23  C14 UNL     1      -1.288   0.059  11.003  1.00  0.00     0.022 C 
HETATM   24  C15 UNL     1       0.000   1.399  12.590  1.00  0.00     0.022 C 
ENDBRANCH  19  21
ENDBRANCH  18  19
ENDBRANCH  16  18
ENDBRANCH  13  14
BRANCH  13  25
HETATM   25  C16 UNL     1       3.557   5.352   7.194  1.00  0.00     0.009 C 
HETATM   26  C17 UNL     1       4.068   4.816   5.848  1.00  0.00     0.012 C 
HETATM   27  C18 UNL     1       4.428   4.704   8.237  1.00  0.00     0.012 C 
ENDBRANCH  13  25
ENDBRANCH  11  13
ENDBRANCH   4   9
BRANCH   1  28
HETATM   28  C4  UNL     1      -2.436   7.830   5.403  1.00  0.00     0.278 C 
BRANCH  28  29
HETATM   29  C2  UNL     1      -1.672   9.062   4.927  1.00  0.00     0.017 C 
HETATM   30  C1  UNL     1      -1.166   8.967   3.527  1.00  0.00     0.012 C 
HETATM   31  C3  UNL     1      -2.468  10.316   5.088  1.00  0.00     0.012 C 
ENDBRANCH  28  29
BRANCH  28  32
HETATM   32  N1  UNL     1      -3.811   8.098   4.892  1.00  0.00    -0.066 N 
ATOM     33  H13 UNL     1      -4.434   7.291   4.885  1.00  0.00     0.275 HD
ATOM     34  H12 UNL     1      -4.396   8.666   5.505  1.00  0.00     0.275 HD
ATOM     35  H11 UNL     1      -3.622   8.506   3.976  1.00  0.00     0.275 HD
ENDBRANCH  28  32
ENDBRANCH   1  28
BRANCH   8  36
HETATM   36  C21 UNL     1      -2.670   7.142   9.800  1.00  0.00     0.029 A 
HETATM   37  C22 UNL     1      -2.678   5.778   9.649  1.00  0.00     0.018 A 
HETATM   38  C23 UNL     1      -3.642   4.954  10.250  1.00  0.00     0.043 A 
HETATM   39  C24 UNL     1      -4.624   5.494  11.020  1.00  0.00     0.119 A 
HETATM   40  F1  UNL     1      -5.552   4.697  11.599  1.00  0.00    -0.206 F 
HETATM   41  C25 UNL     1      -4.648   6.860  11.194  1.00  0.00     0.085 A 
HETATM   42  C26 UNL     1      -3.699   7.661  10.601  1.00  0.00     0.130 A 
HETATM   43  F2  UNL     1      -3.751   8.979  10.790  1.00  0.00    -0.205 F 
ENDBRANCH   8  36
TORSDOF 11
ENDMDL
