MODEL 1
REMARK VINA RESULT: -9.994764805      0.000      0.000
REMARK  11 active torsions:
REMARK  status: ('A' for Active; 'I' for Inactive)
REMARK    1  A    between atoms: O1_1  and  C1_3 
REMARK    2  A    between atoms: C1_3  and  C2_4 
REMARK    3  A    between atoms: C3_6  and  S1_7 
REMARK    4  A    between atoms: S1_7  and  C4_8 
REMARK    5  A    between atoms: C4_8  and  C5_9 
REMARK    6  A    between atoms: C9_13  and  N1_14 
REMARK    7  A    between atoms: C10_16  and  C11_17 
REMARK    8  A    between atoms: C14_20  and  C15_21 
REMARK    9  A    between atoms: C23_31  and  O4_32 
REMARK   10  A    between atoms: C24_34  and  O5_35 
REMARK   11  A    between atoms: C25_37  and  O6_38 
ROOT
HETATM    1  C5  UNL     1      27.785   0.168  -0.732  1.00  0.00     0.133 C 
HETATM    2  C6  UNL     1      28.863   0.058  -1.744  1.00  0.00     0.033 C 
HETATM    3  C7  UNL     1      28.565   1.110  -2.823  1.00  0.00     0.007 C 
HETATM    4  C8  UNL     1      28.366   2.313  -2.271  1.00  0.00     0.054 C 
HETATM    5  C9  UNL     1      28.472   2.386  -0.781  1.00  0.00     0.220 C 
HETATM    6  O3  UNL     1      27.789   1.415  -0.094  1.00  0.00    -0.361 OA
ENDROOT
BRANCH   1   7
HETATM    7  C4  UNL     1      27.560  -0.999   0.137  1.00  0.00     0.108 C 
BRANCH   7   8
HETATM    8  S1  UNL     1      25.995  -1.294   0.874  1.00  0.00    -0.132 SA
BRANCH   8   9
HETATM    9  C3  UNL     1      24.904   0.046   1.204  1.00  0.00     0.214 C 
HETATM   10  O2  UNL     1      24.098  -0.084   2.293  1.00  0.00    -0.363 OA
HETATM   11  C2  UNL     1      23.601   1.122   2.774  1.00  0.00     0.178 C 
HETATM   12  C25 UNL     1      23.670   2.226   1.773  1.00  0.00     0.180 C 
HETATM   13  C24 UNL     1      23.453   1.809   0.358  1.00  0.00     0.181 C 
HETATM   14  C23 UNL     1      24.100   0.495  -0.010  1.00  0.00     0.188 C 
BRANCH  11  15
HETATM   15  C1  UNL     1      22.225   0.862   3.324  1.00  0.00     0.198 C 
BRANCH  15  16
HETATM   16  O1  UNL     1      22.198   0.487   4.643  1.00  0.00    -0.398 OA
ATOM     17  H1  UNL     1      22.703  -0.292   4.843  1.00  0.00     0.209 HD
ENDBRANCH  15  16
ENDBRANCH  11  15
BRANCH  12  18
HETATM   18  O6  UNL     1      22.672   3.165   2.092  1.00  0.00    -0.390 OA
ATOM     19  H6  UNL     1      23.053   3.810   2.676  1.00  0.00     0.210 HD
ENDBRANCH  12  18
BRANCH  13  20
HETATM   20  O5  UNL     1      22.089   1.811   0.001  1.00  0.00    -0.390 OA
ATOM     21  H5  UNL     1      21.944   1.284  -0.776  1.00  0.00     0.210 HD
ENDBRANCH  13  20
BRANCH  14  22
HETATM   22  O4  UNL     1      23.113  -0.383  -0.378  1.00  0.00    -0.389 OA
ATOM     23  H4  UNL     1      22.391   0.023  -0.843  1.00  0.00     0.210 HD
ENDBRANCH  14  22
ENDBRANCH   8   9
ENDBRANCH   7   8
ENDBRANCH   1   7
BRANCH   5  24
HETATM   24  N1  UNL     1      27.923   3.670  -0.386  1.00  0.00    -0.372 N 
HETATM   25  C10 UNL     1      26.963   3.828   0.461  1.00  0.00     0.096 C 
ATOM     26  H1  UNL     1      28.326   4.507  -0.808  1.00  0.00     0.161 HD
BRANCH  25  27
HETATM   27  C11 UNL     1      26.561   5.214   0.717  1.00  0.00    -0.021 A 
HETATM   28  C12 UNL     1      25.453   5.540   1.467  1.00  0.00     0.013 A 
HETATM   29  C13 UNL     1      25.120   6.853   1.677  1.00  0.00     0.013 A 
HETATM   30  C14 UNL     1      25.889   7.869   1.140  1.00  0.00    -0.026 A 
HETATM   31  C21 UNL     1      26.995   7.526   0.393  1.00  0.00     0.013 A 
HETATM   32  C22 UNL     1      27.353   6.206   0.165  1.00  0.00     0.013 A 
BRANCH  30  33
HETATM   33  C15 UNL     1      25.517   9.254   1.375  1.00  0.00    -0.026 A 
HETATM   34  C16 UNL     1      24.345   9.511   2.046  1.00  0.00     0.015 A 
HETATM   35  C17 UNL     1      23.953  10.822   2.293  1.00  0.00     0.043 A 
HETATM   36  C18 UNL     1      24.715  11.895   1.877  1.00  0.00     0.116 A 
HETATM   37  F1  UNL     1      24.325  13.160   2.121  1.00  0.00    -0.206 F 
HETATM   38  C19 UNL     1      25.888  11.625   1.204  1.00  0.00     0.043 A 
HETATM   39  C20 UNL     1      26.283  10.319   0.958  1.00  0.00     0.015 A 
ENDBRANCH  30  33
ENDBRANCH  25  27
ENDBRANCH   5  24
TORSDOF 11
ENDMDL
MODEL 2
REMARK VINA RESULT: -9.790640272      0.951      1.389
REMARK  11 active torsions:
REMARK  status: ('A' for Active; 'I' for Inactive)
REMARK    1  A    between atoms: O1_1  and  C1_3 
REMARK    2  A    between atoms: C1_3  and  C2_4 
REMARK    3  A    between atoms: C3_6  and  S1_7 
REMARK    4  A    between atoms: S1_7  and  C4_8 
REMARK    5  A    between atoms: C4_8  and  C5_9 
REMARK    6  A    between atoms: C9_13  and  N1_14 
REMARK    7  A    between atoms: C10_16  and  C11_17 
REMARK    8  A    between atoms: C14_20  and  C15_21 
REMARK    9  A    between atoms: C23_31  and  O4_32 
REMARK   10  A    between atoms: C24_34  and  O5_35 
REMARK   11  A    between atoms: C25_37  and  O6_38 
ROOT
HETATM    1  C5  UNL     1      27.903   0.067  -1.173  1.00  0.00     0.133 C 
HETATM    2  C6  UNL     1      28.837  -0.033  -2.320  1.00  0.00     0.033 C 
HETATM    3  C7  UNL     1      28.380   1.007  -3.354  1.00  0.00     0.007 C 
HETATM    4  C8  UNL     1      28.237   2.210  -2.785  1.00  0.00     0.054 C 
HETATM    5  C9  UNL     1      28.541   2.296  -1.324  1.00  0.00     0.220 C 
HETATM    6  O3  UNL     1      27.972   1.319  -0.547  1.00  0.00    -0.361 OA
ENDROOT
BRANCH   1   7
HETATM    7  C4  UNL     1      27.816  -1.098  -0.276  1.00  0.00     0.108 C 
BRANCH   7   8
HETATM    8  S1  UNL     1      26.317  -1.504   0.541  1.00  0.00    -0.132 SA
BRANCH   8   9
HETATM    9  C3  UNL     1      25.020  -0.319   0.655  1.00  0.00     0.214 C 
HETATM   10  O2  UNL     1      25.180   0.666   1.581  1.00  0.00    -0.363 OA
HETATM   11  C2  UNL     1      24.401   1.793   1.344  1.00  0.00     0.178 C 
HETATM   12  C25 UNL     1      23.253   1.531   0.427  1.00  0.00     0.180 C 
HETATM   13  C24 UNL     1      22.638   0.179   0.556  1.00  0.00     0.181 C 
HETATM   14  C23 UNL     1      23.632  -0.940   0.763  1.00  0.00     0.188 C 
BRANCH  11  15
HETATM   15  C1  UNL     1      24.015   2.369   2.679  1.00  0.00     0.198 C 
BRANCH  15  16
HETATM   16  O1  UNL     1      23.395   1.485   3.525  1.00  0.00    -0.398 OA
ATOM     17  H1  UNL     1      22.529   1.212   3.245  1.00  0.00     0.209 HD
ENDBRANCH  15  16
ENDBRANCH  11  15
BRANCH  12  18
HETATM   18  O6  UNL     1      22.250   2.477   0.706  1.00  0.00    -0.390 OA
ATOM     19  H6  UNL     1      21.432   2.009   0.825  1.00  0.00     0.210 HD
ENDBRANCH  12  18
BRANCH  13  20
HETATM   20  O5  UNL     1      21.630   0.140   1.540  1.00  0.00    -0.390 OA
ATOM     21  H5  UNL     1      21.719  -0.635   2.083  1.00  0.00     0.210 HD
ENDBRANCH  13  20
BRANCH  14  22
HETATM   22  O4  UNL     1      23.377  -1.522   1.978  1.00  0.00    -0.389 OA
ATOM     23  H4  UNL     1      22.998  -2.391   1.916  1.00  0.00     0.210 HD
ENDBRANCH  14  22
ENDBRANCH   8   9
ENDBRANCH   7   8
ENDBRANCH   1   7
BRANCH   5  24
HETATM   24  N1  UNL     1      28.029   3.573  -0.865  1.00  0.00    -0.372 N 
HETATM   25  C10 UNL     1      27.356   3.745   0.222  1.00  0.00     0.096 C 
ATOM     26  H1  UNL     1      28.215   4.393  -1.443  1.00  0.00     0.161 HD
BRANCH  25  27
HETATM   27  C11 UNL     1      26.933   5.122   0.498  1.00  0.00    -0.021 A 
HETATM   28  C12 UNL     1      27.628   6.218   0.037  1.00  0.00     0.013 A 
HETATM   29  C13 UNL     1      27.190   7.486   0.323  1.00  0.00     0.013 A 
HETATM   30  C14 UNL     1      26.048   7.683   1.076  1.00  0.00    -0.026 A 
HETATM   31  C21 UNL     1      25.365   6.576   1.529  1.00  0.00     0.013 A 
HETATM   32  C22 UNL     1      25.786   5.284   1.254  1.00  0.00     0.013 A 
BRANCH  30  33
HETATM   33  C15 UNL     1      25.603   9.035   1.368  1.00  0.00    -0.026 A 
HETATM   34  C16 UNL     1      24.396   9.204   2.005  1.00  0.00     0.015 A 
HETATM   35  C17 UNL     1      23.935  10.481   2.303  1.00  0.00     0.043 A 
HETATM   36  C18 UNL     1      24.661  11.608   1.973  1.00  0.00     0.116 A 
HETATM   37  F1  UNL     1      24.204  12.840   2.266  1.00  0.00    -0.206 F 
HETATM   38  C19 UNL     1      25.870  11.427   1.334  1.00  0.00     0.043 A 
HETATM   39  C20 UNL     1      26.334  10.155   1.036  1.00  0.00     0.015 A 
ENDBRANCH  30  33
ENDBRANCH  25  27
ENDBRANCH   5  24
TORSDOF 11
ENDMDL
MODEL 3
REMARK VINA RESULT: -9.499553067      4.857      9.677
REMARK  11 active torsions:
REMARK  status: ('A' for Active; 'I' for Inactive)
REMARK    1  A    between atoms: O1_1  and  C1_3 
REMARK    2  A    between atoms: C1_3  and  C2_4 
REMARK    3  A    between atoms: C3_6  and  S1_7 
REMARK    4  A    between atoms: S1_7  and  C4_8 
REMARK    5  A    between atoms: C4_8  and  C5_9 
REMARK    6  A    between atoms: C9_13  and  N1_14 
REMARK    7  A    between atoms: C10_16  and  C11_17 
REMARK    8  A    between atoms: C14_20  and  C15_21 
REMARK    9  A    between atoms: C23_31  and  O4_32 
REMARK   10  A    between atoms: C24_34  and  O5_35 
REMARK   11  A    between atoms: C25_37  and  O6_38 
ROOT
HETATM    1  C5  UNL     1      26.679   5.427   0.172  1.00  0.00     0.133 C 
HETATM    2  C6  UNL     1      26.166   6.368   1.197  1.00  0.00     0.033 C 
HETATM    3  C7  UNL     1      24.690   6.011   1.425  1.00  0.00     0.007 C 
HETATM    4  C8  UNL     1      24.550   4.704   1.674  1.00  0.00     0.054 C 
HETATM    5  C9  UNL     1      25.805   3.891   1.680  1.00  0.00     0.220 C 
HETATM    6  O3  UNL     1      26.646   4.099   0.617  1.00  0.00    -0.361 OA
ENDROOT
BRANCH   1   7
HETATM    7  C4  UNL     1      27.888   5.830  -0.564  1.00  0.00     0.108 C 
BRANCH   7   8
HETATM    8  S1  UNL     1      28.900   4.643  -1.368  1.00  0.00    -0.132 SA
BRANCH   8   9
HETATM    9  C3  UNL     1      28.814   2.947  -0.907  1.00  0.00     0.214 C 
HETATM   10  O2  UNL     1      29.980   2.367  -0.513  1.00  0.00    -0.363 OA
HETATM   11  C2  UNL     1      29.808   1.215   0.248  1.00  0.00     0.178 C 
HETATM   12  C25 UNL     1      28.451   0.611   0.098  1.00  0.00     0.180 C 
HETATM   13  C24 UNL     1      27.850   0.738  -1.260  1.00  0.00     0.181 C 
HETATM   14  C23 UNL     1      28.095   2.071  -1.927  1.00  0.00     0.188 C 
BRANCH  11  15
HETATM   15  C1  UNL     1      30.945   0.284  -0.071  1.00  0.00     0.198 C 
BRANCH  15  16
HETATM   16  O1  UNL     1      32.117   0.570   0.582  1.00  0.00    -0.398 OA
ATOM     17  H1  UNL     1      32.853   0.023   0.333  1.00  0.00     0.209 HD
ENDBRANCH  15  16
ENDBRANCH  11  15
BRANCH  12  18
HETATM   18  O6  UNL     1      28.554  -0.762   0.385  1.00  0.00    -0.390 OA
ATOM     19  H6  UNL     1      28.187  -0.909   1.250  1.00  0.00     0.210 HD
ENDBRANCH  12  18
BRANCH  13  20
HETATM   20  O5  UNL     1      28.221  -0.322  -2.112  1.00  0.00    -0.390 OA
ATOM     21  H5  UNL     1      27.640  -1.065  -1.998  1.00  0.00     0.210 HD
ENDBRANCH  13  20
BRANCH  14  22
HETATM   22  O4  UNL     1      28.812   1.853  -3.075  1.00  0.00    -0.389 OA
ATOM     23  H4  UNL     1      28.879   0.937  -3.318  1.00  0.00     0.210 HD
ENDBRANCH  14  22
ENDBRANCH   8   9
ENDBRANCH   7   8
ENDBRANCH   1   7
BRANCH   5  24
HETATM   24  N1  UNL     1      25.400   2.498   1.653  1.00  0.00    -0.372 N 
HETATM   25  C10 UNL     1      24.185   2.090   1.507  1.00  0.00     0.096 C 
ATOM     26  H1  UNL     1      26.129   1.791   1.756  1.00  0.00     0.161 HD
BRANCH  25  27
HETATM   27  C11 UNL     1      23.998   0.636   1.508  1.00  0.00    -0.021 A 
HETATM   28  C12 UNL     1      22.808   0.041   1.864  1.00  0.00     0.013 A 
HETATM   29  C13 UNL     1      22.685  -1.325   1.847  1.00  0.00     0.013 A 
HETATM   30  C14 UNL     1      23.749  -2.124   1.475  1.00  0.00    -0.026 A 
HETATM   31  C21 UNL     1      24.932  -1.513   1.121  1.00  0.00     0.013 A 
HETATM   32  C22 UNL     1      25.083  -0.134   1.129  1.00  0.00     0.013 A 
BRANCH  30  33
HETATM   33  C15 UNL     1      23.595  -3.569   1.466  1.00  0.00    -0.026 A 
HETATM   34  C16 UNL     1      24.729  -4.347   1.442  1.00  0.00     0.015 A 
HETATM   35  C17 UNL     1      24.625  -5.733   1.434  1.00  0.00     0.043 A 
HETATM   36  C18 UNL     1      23.399  -6.367   1.447  1.00  0.00     0.116 A 
HETATM   37  F1  UNL     1      23.312  -7.711   1.439  1.00  0.00    -0.206 F 
HETATM   38  C19 UNL     1      22.269  -5.577   1.470  1.00  0.00     0.043 A 
HETATM   39  C20 UNL     1      22.368  -4.195   1.480  1.00  0.00     0.015 A 
ENDBRANCH  30  33
ENDBRANCH  25  27
ENDBRANCH   5  24
TORSDOF 11
ENDMDL
MODEL 4
REMARK VINA RESULT: -9.457661344      4.420      8.635
REMARK  11 active torsions:
REMARK  status: ('A' for Active; 'I' for Inactive)
REMARK    1  A    between atoms: O1_1  and  C1_3 
REMARK    2  A    between atoms: C1_3  and  C2_4 
REMARK    3  A    between atoms: C3_6  and  S1_7 
REMARK    4  A    between atoms: S1_7  and  C4_8 
REMARK    5  A    between atoms: C4_8  and  C5_9 
REMARK    6  A    between atoms: C9_13  and  N1_14 
REMARK    7  A    between atoms: C10_16  and  C11_17 
REMARK    8  A    between atoms: C14_20  and  C15_21 
REMARK    9  A    between atoms: C23_31  and  O4_32 
REMARK   10  A    between atoms: C24_34  and  O5_35 
REMARK   11  A    between atoms: C25_37  and  O6_38 
ROOT
HETATM    1  C5  UNL     1      27.658   5.847  -0.779  1.00  0.00     0.133 C 
HETATM    2  C6  UNL     1      27.772   7.030   0.108  1.00  0.00     0.033 C 
HETATM    3  C7  UNL     1      26.357   7.337   0.619  1.00  0.00     0.007 C 
HETATM    4  C8  UNL     1      25.790   6.241   1.134  1.00  0.00     0.054 C 
HETATM    5  C9  UNL     1      26.613   4.993   1.111  1.00  0.00     0.220 C 
HETATM    6  O3  UNL     1      27.221   4.712  -0.085  1.00  0.00    -0.361 OA
ENDROOT
BRANCH   1   7
HETATM    7  C4  UNL     1      28.742   5.631  -1.752  1.00  0.00     0.108 C 
BRANCH   7   8
HETATM    8  S1  UNL     1      28.968   4.074  -2.528  1.00  0.00    -0.132 SA
BRANCH   8   9
HETATM    9  C3  UNL     1      28.847   2.590  -1.590  1.00  0.00     0.214 C 
HETATM   10  O2  UNL     1      30.001   2.131  -1.033  1.00  0.00    -0.363 OA
HETATM   11  C2  UNL     1      29.804   1.256   0.031  1.00  0.00     0.178 C 
HETATM   12  C25 UNL     1      28.437   0.660   0.054  1.00  0.00     0.180 C 
HETATM   13  C24 UNL     1      27.841   0.392  -1.286  1.00  0.00     0.181 C 
HETATM   14  C23 UNL     1      28.114   1.466  -2.314  1.00  0.00     0.188 C 
BRANCH  11  15
HETATM   15  C1  UNL     1      30.924   0.252   0.009  1.00  0.00     0.198 C 
BRANCH  15  16
HETATM   16  O1  UNL     1      32.037   0.623   0.720  1.00  0.00    -0.398 OA
ATOM     17  H1  UNL     1      32.807   0.092   0.555  1.00  0.00     0.209 HD
ENDBRANCH  15  16
ENDBRANCH  11  15
BRANCH  12  18
HETATM   18  O6  UNL     1      28.512  -0.570   0.733  1.00  0.00    -0.390 OA
ATOM     19  H6  UNL     1      29.315  -0.575   1.241  1.00  0.00     0.210 HD
ENDBRANCH  12  18
BRANCH  13  20
HETATM   20  O5  UNL     1      28.193  -0.877  -1.786  1.00  0.00    -0.390 OA
ATOM     21  H5  UNL     1      27.620  -1.548  -1.434  1.00  0.00     0.210 HD
ENDBRANCH  13  20
BRANCH  14  22
HETATM   22  O4  UNL     1      28.829   0.908  -3.341  1.00  0.00    -0.389 OA
ATOM     23  H4  UNL     1      29.067   0.000  -3.194  1.00  0.00     0.210 HD
ENDBRANCH  14  22
ENDBRANCH   8   9
ENDBRANCH   7   8
ENDBRANCH   1   7
BRANCH   5  24
HETATM   24  N1  UNL     1      25.716   3.894   1.415  1.00  0.00    -0.372 N 
HETATM   25  C10 UNL     1      25.731   2.749   0.822  1.00  0.00     0.096 C 
ATOM     26  H1  UNL     1      25.023   4.038   2.151  1.00  0.00     0.161 HD
BRANCH  25  27
HETATM   27  C11 UNL     1      24.735   1.778   1.285  1.00  0.00    -0.021 A 
HETATM   28  C12 UNL     1      23.983   1.971   2.423  1.00  0.00     0.013 A 
HETATM   29  C13 UNL     1      23.064   1.031   2.813  1.00  0.00     0.013 A 
HETATM   30  C14 UNL     1      22.878  -0.121   2.073  1.00  0.00    -0.026 A 
HETATM   31  C21 UNL     1      23.637  -0.298   0.938  1.00  0.00     0.013 A 
HETATM   32  C22 UNL     1      24.574   0.636   0.521  1.00  0.00     0.013 A 
BRANCH  30  33
HETATM   33  C15 UNL     1      21.898  -1.103   2.506  1.00  0.00    -0.026 A 
HETATM   34  C16 UNL     1      21.825  -2.297   1.828  1.00  0.00     0.015 A 
HETATM   35  C17 UNL     1      20.903  -3.264   2.211  1.00  0.00     0.043 A 
HETATM   36  C18 UNL     1      20.040  -3.061   3.269  1.00  0.00     0.116 A 
HETATM   37  F1  UNL     1      19.150  -4.005   3.631  1.00  0.00    -0.206 F 
HETATM   38  C19 UNL     1      20.121  -1.861   3.942  1.00  0.00     0.043 A 
HETATM   39  C20 UNL     1      21.040  -0.894   3.563  1.00  0.00     0.015 A 
ENDBRANCH  30  33
ENDBRANCH  25  27
ENDBRANCH   5  24
TORSDOF 11
ENDMDL
MODEL 5
REMARK VINA RESULT: -9.453315838      1.477      2.356
REMARK  11 active torsions:
REMARK  status: ('A' for Active; 'I' for Inactive)
REMARK    1  A    between atoms: O1_1  and  C1_3 
REMARK    2  A    between atoms: C1_3  and  C2_4 
REMARK    3  A    between atoms: C3_6  and  S1_7 
REMARK    4  A    between atoms: S1_7  and  C4_8 
REMARK    5  A    between atoms: C4_8  and  C5_9 
REMARK    6  A    between atoms: C9_13  and  N1_14 
REMARK    7  A    between atoms: C10_16  and  C11_17 
REMARK    8  A    between atoms: C14_20  and  C15_21 
REMARK    9  A    between atoms: C23_31  and  O4_32 
REMARK   10  A    between atoms: C24_34  and  O5_35 
REMARK   11  A    between atoms: C25_37  and  O6_38 
ROOT
HETATM    1  C5  UNL     1      27.370  -1.126  -0.437  1.00  0.00     0.133 C 
HETATM    2  C6  UNL     1      28.776  -1.455  -0.775  1.00  0.00     0.033 C 
HETATM    3  C7  UNL     1      29.262  -0.371  -1.748  1.00  0.00     0.007 C 
HETATM    4  C8  UNL     1      29.024   0.850  -1.255  1.00  0.00     0.054 C 
HETATM    5  C9  UNL     1      28.362   0.909   0.084  1.00  0.00     0.220 C 
HETATM    6  O3  UNL     1      27.266   0.099   0.235  1.00  0.00    -0.361 OA
ENDROOT
BRANCH   1   7
HETATM    7  C4  UNL     1      26.530  -2.219   0.081  1.00  0.00     0.108 C 
BRANCH   7   8
HETATM    8  S1  UNL     1      25.583  -2.020   1.545  1.00  0.00    -0.132 SA
BRANCH   8   9
HETATM    9  C3  UNL     1      24.045  -1.166   1.497  1.00  0.00     0.214 C 
HETATM   10  O2  UNL     1      23.017  -1.806   0.877  1.00  0.00    -0.363 OA
HETATM   11  C2  UNL     1      21.759  -1.334   1.239  1.00  0.00     0.178 C 
HETATM   12  C25 UNL     1      21.798   0.025   1.854  1.00  0.00     0.180 C 
HETATM   13  C24 UNL     1      22.836   0.940   1.300  1.00  0.00     0.181 C 
HETATM   14  C23 UNL     1      24.160   0.272   1.005  1.00  0.00     0.188 C 
BRANCH  11  15
HETATM   15  C1  UNL     1      20.865  -1.451   0.036  1.00  0.00     0.198 C 
BRANCH  15  16
HETATM   16  O1  UNL     1      21.132  -0.551  -0.964  1.00  0.00    -0.398 OA
ATOM     17  H1  UNL     1      21.268  -0.940  -1.820  1.00  0.00     0.209 HD
ENDBRANCH  15  16
ENDBRANCH  11  15
BRANCH  12  18
HETATM   18  O6  UNL     1      20.547   0.633   1.642  1.00  0.00    -0.390 OA
ATOM     19  H6  UNL     1      19.947  -0.034   1.327  1.00  0.00     0.210 HD
ENDBRANCH  12  18
BRANCH  13  20
HETATM   20  O5  UNL     1      22.377   1.655   0.176  1.00  0.00    -0.390 OA
ATOM     21  H5  UNL     1      21.560   2.100   0.371  1.00  0.00     0.210 HD
ENDBRANCH  13  20
BRANCH  14  22
HETATM   22  O4  UNL     1      24.406   0.381  -0.340  1.00  0.00    -0.389 OA
ATOM     23  H4  UNL     1      23.829   0.988  -0.788  1.00  0.00     0.210 HD
ENDBRANCH  14  22
ENDBRANCH   8   9
ENDBRANCH   7   8
ENDBRANCH   1   7
BRANCH   5  24
HETATM   24  N1  UNL     1      27.924   2.279   0.274  1.00  0.00    -0.372 N 
HETATM   25  C10 UNL     1      28.288   3.274  -0.461  1.00  0.00     0.096 C 
ATOM     26  H1  UNL     1      27.281   2.468   1.044  1.00  0.00     0.161 HD
BRANCH  25  27
HETATM   27  C11 UNL     1      27.725   4.577  -0.094  1.00  0.00    -0.021 A 
HETATM   28  C12 UNL     1      28.182   5.761  -0.629  1.00  0.00     0.013 A 
HETATM   29  C13 UNL     1      27.620   6.954  -0.252  1.00  0.00     0.013 A 
HETATM   30  C14 UNL     1      26.590   6.987   0.669  1.00  0.00    -0.026 A 
HETATM   31  C21 UNL     1      26.145   5.794   1.194  1.00  0.00     0.013 A 
HETATM   32  C22 UNL     1      26.695   4.574   0.830  1.00  0.00     0.013 A 
BRANCH  30  33
HETATM   33  C15 UNL     1      26.011   8.263   1.054  1.00  0.00    -0.026 A 
HETATM   34  C16 UNL     1      26.770   9.399   0.900  1.00  0.00     0.015 A 
HETATM   35  C17 UNL     1      26.253  10.639   1.256  1.00  0.00     0.043 A 
HETATM   36  C18 UNL     1      24.979  10.771   1.770  1.00  0.00     0.116 A 
HETATM   37  F1  UNL     1      24.489  11.978   2.111  1.00  0.00    -0.206 F 
HETATM   38  C19 UNL     1      24.227   9.626   1.921  1.00  0.00     0.043 A 
HETATM   39  C20 UNL     1      24.739   8.387   1.566  1.00  0.00     0.015 A 
ENDBRANCH  30  33
ENDBRANCH  25  27
ENDBRANCH   5  24
TORSDOF 11
ENDMDL
