MODEL 1
REMARK VINA RESULT: -9.991826880      0.000      0.000
REMARK  11 active torsions:
REMARK  status: ('A' for Active; 'I' for Inactive)
REMARK    1  A    between atoms: O1_2  and  C2_3 
REMARK    2  A    between atoms: C5_6  and  C6_7 
REMARK    3  A    between atoms: C7_9  and  O3_10 
REMARK    4  A    between atoms: O3_10  and  C8_11 
REMARK    5  A    between atoms: C8_11  and  C9_12 
REMARK    6  A    between atoms: C12_15  and  C13_16 
REMARK    7  A    between atoms: C19_23  and  O4_24 
REMARK    8  A    between atoms: C20_26  and  O5_27 
REMARK    9  A    between atoms: C21_29  and  O6_30 
REMARK   10  A    between atoms: C22_32  and  O7_33 
REMARK   11  A    between atoms: C23_35  and  O8_36 
ROOT
HETATM    1  C6  UNL     1      28.048   1.225  -1.478  1.00  0.00     0.094 C 
HETATM    2  O2  UNL     1      28.473   0.550  -0.342  1.00  0.00    -0.318 OA
HETATM    3  C7  UNL     1      27.819  -0.695  -0.356  1.00  0.00     0.297 C 
HETATM    4  C19 UNL     1      28.887  -1.728  -0.611  1.00  0.00     0.205 C 
HETATM    5  C20 UNL     1      29.813  -1.153  -1.664  1.00  0.00     0.183 C 
HETATM    6  C21 UNL     1      29.096  -0.649  -2.866  1.00  0.00     0.184 C 
HETATM    7  C22 UNL     1      28.492   0.698  -2.781  1.00  0.00     0.207 C 
ENDROOT
BRANCH   3   8
HETATM    8  O3  UNL     1      27.140  -0.863   0.812  1.00  0.00    -0.354 OA
BRANCH   8   9
HETATM    9  C8  UNL     1      25.829  -0.460   0.798  1.00  0.00     0.209 C 
BRANCH   9  10
HETATM   10  C9  UNL     1      24.975  -1.678   0.970  1.00  0.00    -0.032 A 
HETATM   11  C10 UNL     1      25.496  -2.923   1.182  1.00  0.00     0.010 A 
HETATM   12  C11 UNL     1      24.663  -4.010   1.329  1.00  0.00     0.011 A 
HETATM   13  C12 UNL     1      23.282  -3.893   1.270  1.00  0.00    -0.012 A 
HETATM   14  C17 UNL     1      22.745  -2.648   1.057  1.00  0.00     0.124 A 
HETATM   15  F1  UNL     1      21.408  -2.491   0.994  1.00  0.00    -0.206 F 
HETATM   16  C18 UNL     1      23.582  -1.570   0.912  1.00  0.00     0.052 A 
BRANCH  13  17
HETATM   17  C13 UNL     1      22.410  -5.086   1.431  1.00  0.00    -0.021 C 
HETATM   18  C14 UNL     1      21.335  -4.866   2.447  1.00  0.00     0.019 C 
HETATM   19  C15 UNL     1      21.762  -5.460   0.099  1.00  0.00     0.019 C 
HETATM   20  C16 UNL     1      23.272  -6.250   1.835  1.00  0.00     0.019 C 
ENDBRANCH  13  17
ENDBRANCH   9  10
ENDBRANCH   8   9
ENDBRANCH   3   8
BRANCH   4  21
HETATM   21  O4  UNL     1      28.378  -2.953  -1.032  1.00  0.00    -0.388 OA
ATOM     22  H4  UNL     1      27.896  -2.899  -1.849  1.00  0.00     0.210 HD
ENDBRANCH   4  21
BRANCH   1  23
HETATM   23  C5  UNL     1      28.134   2.697  -1.326  1.00  0.00     0.029 A 
HETATM   24  C4  UNL     1      28.820   3.539  -2.173  1.00  0.00     0.020 A 
HETATM   25  C3  UNL     1      28.846   4.923  -1.972  1.00  0.00     0.038 A 
HETATM   26  C2  UNL     1      28.179   5.496  -0.910  1.00  0.00     0.070 A 
HETATM   27  C25 UNL     1      27.494   4.658  -0.065  1.00  0.00     0.074 A 
HETATM   28  C23 UNL     1      27.479   3.304  -0.275  1.00  0.00     0.083 A 
BRANCH  26  29
HETATM   29  O1  UNL     1      28.229   6.874  -0.746  1.00  0.00    -0.356 OA
HETATM   30  C1  UNL     1      27.355   7.544   0.160  1.00  0.00     0.210 C 
ENDBRANCH  26  29
BRANCH  28  31
HETATM   31  O8  UNL     1      26.777   2.533   0.607  1.00  0.00    -0.355 OA
HETATM   32  C24 UNL     1      25.825   3.041   1.494  1.00  0.00     0.210 C 
ENDBRANCH  28  31
ENDBRANCH   1  23
BRANCH   5  33
HETATM   33  O5  UNL     1      30.656  -2.189  -2.065  1.00  0.00    -0.390 OA
ATOM     34  H5  UNL     1      31.043  -1.922  -2.890  1.00  0.00     0.210 HD
ENDBRANCH   5  33
BRANCH   7  35
HETATM   35  O7  UNL     1      27.478   0.779  -3.758  1.00  0.00    -0.386 OA
ATOM     36  H7  UNL     1      27.779   1.210  -4.550  1.00  0.00     0.210 HD
ENDBRANCH   7  35
BRANCH   6  37
HETATM   37  O6  UNL     1      28.150  -1.616  -3.222  1.00  0.00    -0.390 OA
ATOM     38  H6  UNL     1      28.317  -1.854  -4.126  1.00  0.00     0.210 HD
ENDBRANCH   6  37
TORSDOF 11
ENDMDL
MODEL 2
REMARK VINA RESULT: -9.986365135      2.372      3.536
REMARK  11 active torsions:
REMARK  status: ('A' for Active; 'I' for Inactive)
REMARK    1  A    between atoms: O1_2  and  C2_3 
REMARK    2  A    between atoms: C5_6  and  C6_7 
REMARK    3  A    between atoms: C7_9  and  O3_10 
REMARK    4  A    between atoms: O3_10  and  C8_11 
REMARK    5  A    between atoms: C8_11  and  C9_12 
REMARK    6  A    between atoms: C12_15  and  C13_16 
REMARK    7  A    between atoms: C19_23  and  O4_24 
REMARK    8  A    between atoms: C20_26  and  O5_27 
REMARK    9  A    between atoms: C21_29  and  O6_30 
REMARK   10  A    between atoms: C22_32  and  O7_33 
REMARK   11  A    between atoms: C23_35  and  O8_36 
ROOT
HETATM    1  C6  UNL     1      28.053   1.357  -1.561  1.00  0.00     0.094 C 
HETATM    2  O2  UNL     1      28.423   0.692  -0.400  1.00  0.00    -0.318 OA
HETATM    3  C7  UNL     1      27.764  -0.551  -0.432  1.00  0.00     0.297 C 
HETATM    4  C19 UNL     1      28.838  -1.591  -0.628  1.00  0.00     0.205 C 
HETATM    5  C20 UNL     1      29.813  -1.030  -1.644  1.00  0.00     0.183 C 
HETATM    6  C21 UNL     1      29.154  -0.534  -2.882  1.00  0.00     0.184 C 
HETATM    7  C22 UNL     1      28.553   0.816  -2.837  1.00  0.00     0.207 C 
ENDROOT
BRANCH   3   8
HETATM    8  O3  UNL     1      27.032  -0.704   0.705  1.00  0.00    -0.354 OA
BRANCH   8   9
HETATM    9  C8  UNL     1      25.808  -1.301   0.547  1.00  0.00     0.209 C 
BRANCH   9  10
HETATM   10  C9  UNL     1      24.758  -0.267   0.812  1.00  0.00    -0.032 A 
HETATM   11  C10 UNL     1      24.147   0.440  -0.183  1.00  0.00     0.010 A 
HETATM   12  C11 UNL     1      23.189   1.383   0.119  1.00  0.00     0.011 A 
HETATM   13  C12 UNL     1      22.808   1.653   1.424  1.00  0.00    -0.012 A 
HETATM   14  C17 UNL     1      23.413   0.950   2.436  1.00  0.00     0.124 A 
HETATM   15  F1  UNL     1      23.072   1.181   3.719  1.00  0.00    -0.206 F 
HETATM   16  C18 UNL     1      24.367   0.012   2.126  1.00  0.00     0.052 A 
BRANCH  13  17
HETATM   17  C13 UNL     1      21.772   2.678   1.719  1.00  0.00    -0.021 C 
HETATM   18  C14 UNL     1      20.564   2.087   2.372  1.00  0.00     0.019 C 
HETATM   19  C15 UNL     1      22.341   3.770   2.624  1.00  0.00     0.019 C 
HETATM   20  C16 UNL     1      21.387   3.344   0.427  1.00  0.00     0.019 C 
ENDBRANCH  13  17
ENDBRANCH   9  10
ENDBRANCH   8   9
ENDBRANCH   3   8
BRANCH   4  21
HETATM   21  O4  UNL     1      28.342  -2.818  -1.061  1.00  0.00    -0.388 OA
ATOM     22  H4  UNL     1      28.762  -3.135  -1.851  1.00  0.00     0.210 HD
ENDBRANCH   4  21
BRANCH   1  23
HETATM   23  C5  UNL     1      28.139   2.831  -1.419  1.00  0.00     0.029 A 
HETATM   24  C4  UNL     1      28.807   3.669  -2.284  1.00  0.00     0.020 A 
HETATM   25  C3  UNL     1      28.834   5.054  -2.093  1.00  0.00     0.038 A 
HETATM   26  C2  UNL     1      28.186   5.631  -1.021  1.00  0.00     0.070 A 
HETATM   27  C25 UNL     1      27.520   4.797  -0.158  1.00  0.00     0.074 A 
HETATM   28  C23 UNL     1      27.503   3.443  -0.359  1.00  0.00     0.083 A 
BRANCH  26  29
HETATM   29  O1  UNL     1      28.237   7.011  -0.866  1.00  0.00    -0.356 OA
HETATM   30  C1  UNL     1      27.505   7.667   0.167  1.00  0.00     0.210 C 
ENDBRANCH  26  29
BRANCH  28  31
HETATM   31  O8  UNL     1      26.820   2.675   0.541  1.00  0.00    -0.355 OA
HETATM   32  C24 UNL     1      26.094   3.200   1.613  1.00  0.00     0.210 C 
ENDBRANCH  28  31
ENDBRANCH   1  23
BRANCH   5  33
HETATM   33  O5  UNL     1      30.668  -2.074  -1.997  1.00  0.00    -0.390 OA
ATOM     34  H5  UNL     1      30.275  -2.509  -2.743  1.00  0.00     0.210 HD
ENDBRANCH   5  33
BRANCH   7  35
HETATM   35  O7  UNL     1      27.584   0.891  -3.860  1.00  0.00    -0.386 OA
ATOM     36  H7  UNL     1      27.642   1.705  -4.347  1.00  0.00     0.210 HD
ENDBRANCH   7  35
BRANCH   6  37
HETATM   37  O6  UNL     1      28.220  -1.501  -3.271  1.00  0.00    -0.390 OA
ATOM     38  H6  UNL     1      28.532  -1.885  -4.082  1.00  0.00     0.210 HD
ENDBRANCH   6  37
TORSDOF 11
ENDMDL
MODEL 3
REMARK VINA RESULT: -9.802984993      1.681      2.736
REMARK  11 active torsions:
REMARK  status: ('A' for Active; 'I' for Inactive)
REMARK    1  A    between atoms: O1_2  and  C2_3 
REMARK    2  A    between atoms: C5_6  and  C6_7 
REMARK    3  A    between atoms: C7_9  and  O3_10 
REMARK    4  A    between atoms: O3_10  and  C8_11 
REMARK    5  A    between atoms: C8_11  and  C9_12 
REMARK    6  A    between atoms: C12_15  and  C13_16 
REMARK    7  A    between atoms: C19_23  and  O4_24 
REMARK    8  A    between atoms: C20_26  and  O5_27 
REMARK    9  A    between atoms: C21_29  and  O6_30 
REMARK   10  A    between atoms: C22_32  and  O7_33 
REMARK   11  A    between atoms: C23_35  and  O8_36 
ROOT
HETATM    1  C6  UNL     1      28.108   1.343  -1.627  1.00  0.00     0.094 C 
HETATM    2  O2  UNL     1      28.475   0.673  -0.468  1.00  0.00    -0.318 OA
HETATM    3  C7  UNL     1      27.839  -0.581  -0.521  1.00  0.00     0.297 C 
HETATM    4  C19 UNL     1      28.933  -1.600  -0.714  1.00  0.00     0.205 C 
HETATM    5  C20 UNL     1      29.911  -1.011  -1.711  1.00  0.00     0.183 C 
HETATM    6  C21 UNL     1      29.260  -0.515  -2.952  1.00  0.00     0.184 C 
HETATM    7  C22 UNL     1      28.634   0.824  -2.902  1.00  0.00     0.207 C 
ENDROOT
BRANCH   3   8
HETATM    8  O3  UNL     1      27.094  -0.759   0.604  1.00  0.00    -0.354 OA
BRANCH   8   9
HETATM    9  C8  UNL     1      26.119  -1.720   0.525  1.00  0.00     0.209 C 
BRANCH   9  10
HETATM   10  C9  UNL     1      24.799  -1.051   0.757  1.00  0.00    -0.032 A 
HETATM   11  C10 UNL     1      24.467   0.146   0.191  1.00  0.00     0.010 A 
HETATM   12  C11 UNL     1      23.239   0.718   0.442  1.00  0.00     0.011 A 
HETATM   13  C12 UNL     1      22.301   0.115   1.266  1.00  0.00    -0.012 A 
HETATM   14  C17 UNL     1      22.621  -1.089   1.842  1.00  0.00     0.124 A 
HETATM   15  F1  UNL     1      21.738  -1.709   2.649  1.00  0.00    -0.206 F 
HETATM   16  C18 UNL     1      23.847  -1.651   1.586  1.00  0.00     0.052 A 
BRANCH  13  17
HETATM   17  C13 UNL     1      20.984   0.758   1.519  1.00  0.00    -0.021 C 
HETATM   18  C14 UNL     1      19.842  -0.111   1.100  1.00  0.00     0.019 C 
HETATM   19  C15 UNL     1      20.830   1.098   3.001  1.00  0.00     0.019 C 
HETATM   20  C16 UNL     1      20.944   2.061   0.769  1.00  0.00     0.019 C 
ENDBRANCH  13  17
ENDBRANCH   9  10
ENDBRANCH   8   9
ENDBRANCH   3   8
BRANCH   4  21
HETATM   21  O4  UNL     1      28.465  -2.831  -1.165  1.00  0.00    -0.388 OA
ATOM     22  H4  UNL     1      27.520  -2.867  -1.247  1.00  0.00     0.210 HD
ENDBRANCH   4  21
BRANCH   1  23
HETATM   23  C5  UNL     1      28.166   2.817  -1.469  1.00  0.00     0.029 A 
HETATM   24  C4  UNL     1      28.775   3.681  -2.351  1.00  0.00     0.020 A 
HETATM   25  C3  UNL     1      28.778   5.064  -2.143  1.00  0.00     0.038 A 
HETATM   26  C2  UNL     1      28.166   5.613  -1.035  1.00  0.00     0.070 A 
HETATM   27  C25 UNL     1      27.559   4.752  -0.155  1.00  0.00     0.074 A 
HETATM   28  C23 UNL     1      27.565   3.400  -0.373  1.00  0.00     0.083 A 
BRANCH  26  29
HETATM   29  O1  UNL     1      28.191   6.991  -0.864  1.00  0.00    -0.356 OA
HETATM   30  C1  UNL     1      27.489   7.616   0.208  1.00  0.00     0.210 C 
ENDBRANCH  26  29
BRANCH  28  31
HETATM   31  O8  UNL     1      26.941   2.605   0.546  1.00  0.00    -0.355 OA
HETATM   32  C24 UNL     1      25.977   3.069   1.444  1.00  0.00     0.210 C 
ENDBRANCH  28  31
ENDBRANCH   1  23
BRANCH   5  33
HETATM   33  O5  UNL     1      30.790  -2.036  -2.062  1.00  0.00    -0.390 OA
ATOM     34  H5  UNL     1      31.556  -1.621  -2.440  1.00  0.00     0.210 HD
ENDBRANCH   5  33
BRANCH   7  35
HETATM   35  O7  UNL     1      27.678   0.893  -3.937  1.00  0.00    -0.386 OA
ATOM     36  H7  UNL     1      27.750   1.699  -4.436  1.00  0.00     0.210 HD
ENDBRANCH   7  35
BRANCH   6  37
HETATM   37  O6  UNL     1      28.349  -1.493  -3.364  1.00  0.00    -0.390 OA
ATOM     38  H6  UNL     1      28.556  -1.711  -4.265  1.00  0.00     0.210 HD
ENDBRANCH   6  37
TORSDOF 11
ENDMDL
MODEL 4
REMARK VINA RESULT: -9.786149522      1.780      2.681
REMARK  11 active torsions:
REMARK  status: ('A' for Active; 'I' for Inactive)
REMARK    1  A    between atoms: O1_2  and  C2_3 
REMARK    2  A    between atoms: C5_6  and  C6_7 
REMARK    3  A    between atoms: C7_9  and  O3_10 
REMARK    4  A    between atoms: O3_10  and  C8_11 
REMARK    5  A    between atoms: C8_11  and  C9_12 
REMARK    6  A    between atoms: C12_15  and  C13_16 
REMARK    7  A    between atoms: C19_23  and  O4_24 
REMARK    8  A    between atoms: C20_26  and  O5_27 
REMARK    9  A    between atoms: C21_29  and  O6_30 
REMARK   10  A    between atoms: C22_32  and  O7_33 
REMARK   11  A    between atoms: C23_35  and  O8_36 
ROOT
HETATM    1  C6  UNL     1      28.244   1.282  -1.714  1.00  0.00     0.094 C 
HETATM    2  O2  UNL     1      28.593   0.610  -0.551  1.00  0.00    -0.318 OA
HETATM    3  C7  UNL     1      27.965  -0.647  -0.620  1.00  0.00     0.297 C 
HETATM    4  C19 UNL     1      29.069  -1.659  -0.796  1.00  0.00     0.205 C 
HETATM    5  C20 UNL     1      30.063  -1.061  -1.772  1.00  0.00     0.183 C 
HETATM    6  C21 UNL     1      29.431  -0.564  -3.024  1.00  0.00     0.184 C 
HETATM    7  C22 UNL     1      28.797   0.771  -2.980  1.00  0.00     0.207 C 
ENDROOT
BRANCH   3   8
HETATM    8  O3  UNL     1      27.201  -0.834   0.491  1.00  0.00    -0.354 OA
BRANCH   8   9
HETATM    9  C8  UNL     1      26.261  -1.828   0.404  1.00  0.00     0.209 C 
BRANCH   9  10
HETATM   10  C9  UNL     1      24.941  -1.244   0.801  1.00  0.00    -0.032 A 
HETATM   11  C10 UNL     1      24.024  -1.927   1.548  1.00  0.00     0.010 A 
HETATM   12  C11 UNL     1      22.823  -1.342   1.882  1.00  0.00     0.011 A 
HETATM   13  C12 UNL     1      22.494  -0.056   1.481  1.00  0.00    -0.012 A 
HETATM   14  C17 UNL     1      23.405   0.643   0.729  1.00  0.00     0.124 A 
HETATM   15  F1  UNL     1      23.126   1.896   0.319  1.00  0.00    -0.206 F 
HETATM   16  C18 UNL     1      24.601   0.052   0.401  1.00  0.00     0.052 A 
BRANCH  13  17
HETATM   17  C13 UNL     1      21.188   0.548   1.855  1.00  0.00    -0.021 C 
HETATM   18  C14 UNL     1      20.458   1.094   0.669  1.00  0.00     0.019 C 
HETATM   19  C15 UNL     1      20.300  -0.483   2.550  1.00  0.00     0.019 C 
HETATM   20  C16 UNL     1      21.443   1.644   2.853  1.00  0.00     0.019 C 
ENDBRANCH  13  17
ENDBRANCH   9  10
ENDBRANCH   8   9
ENDBRANCH   3   8
BRANCH   4  21
HETATM   21  O4  UNL     1      28.617  -2.891  -1.260  1.00  0.00    -0.388 OA
ATOM     22  H4  UNL     1      29.235  -3.325  -1.837  1.00  0.00     0.210 HD
ENDBRANCH   4  21
BRANCH   1  23
HETATM   23  C5  UNL     1      28.290   2.755  -1.550  1.00  0.00     0.029 A 
HETATM   24  C4  UNL     1      28.945   3.623  -2.395  1.00  0.00     0.020 A 
HETATM   25  C3  UNL     1      28.934   5.006  -2.183  1.00  0.00     0.038 A 
HETATM   26  C2  UNL     1      28.260   5.550  -1.110  1.00  0.00     0.070 A 
HETATM   27  C25 UNL     1      27.607   4.686  -0.267  1.00  0.00     0.074 A 
HETATM   28  C23 UNL     1      27.628   3.335  -0.488  1.00  0.00     0.083 A 
BRANCH  26  29
HETATM   29  O1  UNL     1      28.273   6.929  -0.935  1.00  0.00    -0.356 OA
HETATM   30  C1  UNL     1      27.543   7.546   0.122  1.00  0.00     0.210 C 
ENDBRANCH  26  29
BRANCH  28  31
HETATM   31  O8  UNL     1      26.956   2.537   0.394  1.00  0.00    -0.355 OA
HETATM   32  C24 UNL     1      26.130   3.027   1.408  1.00  0.00     0.210 C 
ENDBRANCH  28  31
ENDBRANCH   1  23
BRANCH   5  33
HETATM   33  O5  UNL     1      30.954  -2.079  -2.111  1.00  0.00    -0.390 OA
ATOM     34  H5  UNL     1      31.250  -1.900  -2.995  1.00  0.00     0.210 HD
ENDBRANCH   5  33
BRANCH   7  35
HETATM   35  O7  UNL     1      27.860   0.838  -4.033  1.00  0.00    -0.386 OA
ATOM     36  H7  UNL     1      28.035   1.564  -4.621  1.00  0.00     0.210 HD
ENDBRANCH   7  35
BRANCH   6  37
HETATM   37  O6  UNL     1      28.534  -1.546  -3.456  1.00  0.00    -0.390 OA
ATOM     38  H6  UNL     1      27.771  -1.499  -2.891  1.00  0.00     0.210 HD
ENDBRANCH   6  37
TORSDOF 11
ENDMDL
MODEL 5
REMARK VINA RESULT: -9.673136190      0.803      1.340
REMARK  11 active torsions:
REMARK  status: ('A' for Active; 'I' for Inactive)
REMARK    1  A    between atoms: O1_2  and  C2_3 
REMARK    2  A    between atoms: C5_6  and  C6_7 
REMARK    3  A    between atoms: C7_9  and  O3_10 
REMARK    4  A    between atoms: O3_10  and  C8_11 
REMARK    5  A    between atoms: C8_11  and  C9_12 
REMARK    6  A    between atoms: C12_15  and  C13_16 
REMARK    7  A    between atoms: C19_23  and  O4_24 
REMARK    8  A    between atoms: C20_26  and  O5_27 
REMARK    9  A    between atoms: C21_29  and  O6_30 
REMARK   10  A    between atoms: C22_32  and  O7_33 
REMARK   11  A    between atoms: C23_35  and  O8_36 
ROOT
HETATM    1  C6  UNL     1      28.078   1.239  -1.482  1.00  0.00     0.094 C 
HETATM    2  O2  UNL     1      28.487   0.556  -0.345  1.00  0.00    -0.318 OA
HETATM    3  C7  UNL     1      27.823  -0.685  -0.371  1.00  0.00     0.297 C 
HETATM    4  C19 UNL     1      28.885  -1.724  -0.621  1.00  0.00     0.205 C 
HETATM    5  C20 UNL     1      29.826  -1.151  -1.662  1.00  0.00     0.183 C 
HETATM    6  C21 UNL     1      29.125  -0.636  -2.869  1.00  0.00     0.184 C 
HETATM    7  C22 UNL     1      28.530   0.715  -2.782  1.00  0.00     0.207 C 
ENDROOT
BRANCH   3   8
HETATM    8  O3  UNL     1      27.131  -0.853   0.789  1.00  0.00    -0.354 OA
BRANCH   8   9
HETATM    9  C8  UNL     1      25.849  -0.366   0.791  1.00  0.00     0.209 C 
BRANCH   9  10
HETATM   10  C9  UNL     1      24.919  -1.529   0.951  1.00  0.00    -0.032 A 
HETATM   11  C10 UNL     1      23.562  -1.410   0.856  1.00  0.00     0.010 A 
HETATM   12  C11 UNL     1      22.753  -2.513   1.016  1.00  0.00     0.011 A 
HETATM   13  C12 UNL     1      23.271  -3.773   1.275  1.00  0.00    -0.012 A 
HETATM   14  C17 UNL     1      24.633  -3.909   1.373  1.00  0.00     0.124 A 
HETATM   15  F1  UNL     1      25.177  -5.116   1.623  1.00  0.00    -0.206 F 
HETATM   16  C18 UNL     1      25.431  -2.803   1.213  1.00  0.00     0.052 A 
BRANCH  13  17
HETATM   17  C13 UNL     1      22.371  -4.946   1.444  1.00  0.00    -0.021 C 
HETATM   18  C14 UNL     1      23.085  -6.124   2.026  1.00  0.00     0.019 C 
HETATM   19  C15 UNL     1      21.190  -4.589   2.345  1.00  0.00     0.019 C 
HETATM   20  C16 UNL     1      21.800  -5.300   0.099  1.00  0.00     0.019 C 
ENDBRANCH  13  17
ENDBRANCH   9  10
ENDBRANCH   8   9
ENDBRANCH   3   8
BRANCH   4  21
HETATM   21  O4  UNL     1      28.371  -2.944  -1.054  1.00  0.00    -0.388 OA
ATOM     22  H4  UNL     1      27.463  -3.077  -0.808  1.00  0.00     0.210 HD
ENDBRANCH   4  21
BRANCH   1  23
HETATM   23  C5  UNL     1      28.173   2.710  -1.321  1.00  0.00     0.029 A 
HETATM   24  C4  UNL     1      28.874   3.551  -2.157  1.00  0.00     0.020 A 
HETATM   25  C3  UNL     1      28.908   4.934  -1.950  1.00  0.00     0.038 A 
HETATM   26  C2  UNL     1      28.235   5.506  -0.891  1.00  0.00     0.070 A 
HETATM   27  C25 UNL     1      27.536   4.669  -0.057  1.00  0.00     0.074 A 
HETATM   28  C23 UNL     1      27.513   3.317  -0.273  1.00  0.00     0.083 A 
BRANCH  26  29
HETATM   29  O1  UNL     1      28.294   6.883  -0.719  1.00  0.00    -0.356 OA
HETATM   30  C1  UNL     1      27.435   7.551   0.201  1.00  0.00     0.210 C 
ENDBRANCH  26  29
BRANCH  28  31
HETATM   31  O8  UNL     1      26.797   2.546   0.598  1.00  0.00    -0.355 OA
HETATM   32  C24 UNL     1      25.868   3.062   1.505  1.00  0.00     0.210 C 
ENDBRANCH  28  31
ENDBRANCH   1  23
BRANCH   5  33
HETATM   33  O5  UNL     1      30.665  -2.192  -2.060  1.00  0.00    -0.390 OA
ATOM     34  H5  UNL     1      31.443  -1.790  -2.428  1.00  0.00     0.210 HD
ENDBRANCH   5  33
BRANCH   7  35
HETATM   35  O7  UNL     1      27.526   0.809  -3.769  1.00  0.00    -0.386 OA
ATOM     36  H7  UNL     1      26.866   0.132  -3.672  1.00  0.00     0.210 HD
ENDBRANCH   7  35
BRANCH   6  37
HETATM   37  O6  UNL     1      28.175  -1.594  -3.239  1.00  0.00    -0.390 OA
ATOM     38  H6  UNL     1      27.815  -1.958  -2.438  1.00  0.00     0.210 HD
ENDBRANCH   6  37
TORSDOF 11
ENDMDL
