MODEL 1
REMARK VINA RESULT: -9.435312139      0.000      0.000
REMARK  9 active torsions:
REMARK  status: ('A' for Active; 'I' for Inactive)
REMARK    1  A    between atoms: N1_2  and  C2_3 
REMARK    2  A    between atoms: N1_2  and  C9_12 
REMARK    3  A    between atoms: C2_3  and  C3_4 
REMARK    4  A    between atoms: C11_17  and  C12_18 
REMARK    5  A    between atoms: C15_21  and  C16_22 
REMARK    6  A    between atoms: C16_22  and  C17_23 
REMARK    7  A    between atoms: C17_23  and  C18_24 
REMARK    8  A    between atoms: C18_24  and  C19_25 
REMARK    9  A    between atoms: C19_25  and  O2_26 
ROOT
HETATM    1  C9  UNL     1      16.978   9.066   9.770  1.00  0.00     0.682 A 
HETATM    2  N2  UNL     1      16.349  10.234  10.028  1.00  0.00    -0.155 N 
ATOM      3  H2  UNL     1      15.373  10.196  10.324  1.00  0.00     0.187 HD
HETATM    4  C10 UNL     1      16.926  11.441   9.918  1.00  0.00     0.272 A 
HETATM    5  O1  UNL     1      16.286  12.489  10.172  1.00  0.00    -0.267 OA
HETATM    6  C11 UNL     1      18.243  11.528   9.522  1.00  0.00     0.059 A 
HETATM    7  C26 UNL     1      18.900  10.345   9.256  1.00  0.00     0.124 A 
HETATM    8  N4  UNL     1      18.255   9.147   9.385  1.00  0.00    -0.201 N 
ATOM      9  H4  UNL     1      18.766   8.287   9.181  1.00  0.00     0.183 HD
ENDROOT
BRANCH   6  10
HETATM   10  C12 UNL     1      18.933  12.818   9.377  1.00  0.00    -0.019 A 
HETATM   11  C13 UNL     1      18.770  13.610   8.271  1.00  0.00     0.013 A 
HETATM   12  C14 UNL     1      19.439  14.827   8.144  1.00  0.00     0.008 A 
HETATM   13  C15 UNL     1      20.280  15.241   9.153  1.00  0.00    -0.058 A 
HETATM   14  C24 UNL     1      20.443  14.452  10.259  1.00  0.00     0.008 A 
HETATM   15  C25 UNL     1      19.776  13.247  10.375  1.00  0.00     0.013 A 
BRANCH  13  16
HETATM   16  C16 UNL     1      20.997  16.561   8.975  1.00  0.00     0.039 C 
BRANCH  16  17
HETATM   17  C17 UNL     1      19.947  17.574   8.706  1.00  0.00     0.016 C 
BRANCH  17  18
HETATM   18  C18 UNL     1      20.227  18.528   7.573  1.00  0.00    -0.016 C 
HETATM   19  C20 UNL     1      18.943  19.159   7.116  1.00  0.00     0.039 C 
HETATM   20  C21 UNL     1      18.880  19.500   5.666  1.00  0.00     0.233 C 
HETATM   21  N3  UNL     1      19.494  18.557   4.783  1.00  0.00    -0.075 N 
HETATM   22  C22 UNL     1      20.900  18.495   5.139  1.00  0.00     0.233 C 
ATOM     23  H32 UNL     1      19.037  17.645   4.791  1.00  0.00     0.277 HD
ATOM     24  H31 UNL     1      19.339  18.771   3.798  1.00  0.00     0.277 HD
HETATM   25  C23 UNL     1      20.976  17.826   6.490  1.00  0.00     0.039 C 
BRANCH  18  26
HETATM   26  C19 UNL     1      21.119  19.627   8.208  1.00  0.00     0.173 C 
BRANCH  26  27
HETATM   27  O2  UNL     1      20.868  19.777   9.549  1.00  0.00    -0.400 OA
ATOM     28  H2  UNL     1      21.669  19.882  10.049  1.00  0.00     0.209 HD
ENDBRANCH  26  27
ENDBRANCH  18  26
ENDBRANCH  17  18
ENDBRANCH  16  17
ENDBRANCH  13  16
ENDBRANCH   6  10
BRANCH   1  29
HETATM   29  N1  UNL     1      16.292   7.823   9.901  1.00  0.00    -0.222 N 
HETATM   30  C1  UNL     1      15.811   7.194   8.675  1.00  0.00     0.168 C 
BRANCH  29  31
HETATM   31  C2  UNL     1      16.057   7.169  11.143  1.00  0.00     0.145 C 
BRANCH  31  32
HETATM   32  C3  UNL     1      14.912   6.184  11.154  1.00  0.00     0.004 C 
HETATM   33  C4  UNL     1      15.310   4.991  12.036  1.00  0.00     0.012 C 
HETATM   34  C5  UNL     1      14.928   5.223  13.474  1.00  0.00     0.079 C 
HETATM   35  C6  UNL     1      13.413   5.171  13.541  1.00  0.00     0.243 C 
HETATM   36  F1  UNL     1      13.006   5.967  14.578  1.00  0.00    -0.206 F 
HETATM   37  F2  UNL     1      13.039   3.868  13.789  1.00  0.00    -0.206 F 
HETATM   38  C7  UNL     1      12.816   5.578  12.210  1.00  0.00     0.079 C 
HETATM   39  C8  UNL     1      13.608   6.739  11.624  1.00  0.00     0.012 C 
ENDBRANCH  31  32
ENDBRANCH  29  31
ENDBRANCH   1  29
TORSDOF 9
ENDMDL
MODEL 2
REMARK VINA RESULT: -9.413017001      6.085      8.907
REMARK  9 active torsions:
REMARK  status: ('A' for Active; 'I' for Inactive)
REMARK    1  A    between atoms: N1_2  and  C2_3 
REMARK    2  A    between atoms: N1_2  and  C9_12 
REMARK    3  A    between atoms: C2_3  and  C3_4 
REMARK    4  A    between atoms: C11_17  and  C12_18 
REMARK    5  A    between atoms: C15_21  and  C16_22 
REMARK    6  A    between atoms: C16_22  and  C17_23 
REMARK    7  A    between atoms: C17_23  and  C18_24 
REMARK    8  A    between atoms: C18_24  and  C19_25 
REMARK    9  A    between atoms: C19_25  and  O2_26 
ROOT
HETATM    1  C9  UNL     1      14.687  14.930   6.969  1.00  0.00     0.682 A 
HETATM    2  N2  UNL     1      14.850  16.124   7.582  1.00  0.00    -0.155 N 
ATOM      3  H2  UNL     1      14.858  16.141   8.602  1.00  0.00     0.187 HD
HETATM    4  C10 UNL     1      15.002  17.290   6.933  1.00  0.00     0.272 A 
HETATM    5  O1  UNL     1      15.149  18.365   7.561  1.00  0.00    -0.267 OA
HETATM    6  C11 UNL     1      14.998  17.302   5.554  1.00  0.00     0.059 A 
HETATM    7  C26 UNL     1      14.834  16.093   4.914  1.00  0.00     0.124 A 
HETATM    8  N4  UNL     1      14.683  14.939   5.633  1.00  0.00    -0.201 N 
ATOM      9  H4  UNL     1      14.563  14.058   5.133  1.00  0.00     0.183 HD
ENDROOT
BRANCH   6  10
HETATM   10  C12 UNL     1      15.155  18.544   4.784  1.00  0.00    -0.019 A 
HETATM   11  C13 UNL     1      14.082  19.317   4.424  1.00  0.00     0.013 A 
HETATM   12  C14 UNL     1      14.247  20.488   3.684  1.00  0.00     0.008 A 
HETATM   13  C15 UNL     1      15.513  20.875   3.308  1.00  0.00    -0.058 A 
HETATM   14  C24 UNL     1      16.586  20.105   3.667  1.00  0.00     0.008 A 
HETATM   15  C25 UNL     1      16.413  18.945   4.401  1.00  0.00     0.013 A 
BRANCH  13  16
HETATM   16  C16 UNL     1      15.651  22.144   2.497  1.00  0.00     0.039 C 
BRANCH  16  17
HETATM   17  C17 UNL     1      14.316  22.792   2.505  1.00  0.00     0.016 C 
BRANCH  17  18
HETATM   18  C18 UNL     1      14.277  24.211   3.012  1.00  0.00    -0.016 C 
HETATM   19  C20 UNL     1      15.385  24.422   4.004  1.00  0.00     0.039 C 
HETATM   20  C21 UNL     1      15.092  25.400   5.091  1.00  0.00     0.233 C 
HETATM   21  N3  UNL     1      13.756  25.374   5.601  1.00  0.00    -0.075 N 
HETATM   22  C22 UNL     1      12.872  25.696   4.494  1.00  0.00     0.233 C 
ATOM     23  H32 UNL     1      13.519  24.494   6.059  1.00  0.00     0.277 HD
ATOM     24  H31 UNL     1      13.624  25.981   6.409  1.00  0.00     0.277 HD
HETATM   25  C23 UNL     1      12.919  24.524   3.545  1.00  0.00     0.039 C 
BRANCH  18  26
HETATM   26  C19 UNL     1      14.566  25.075   1.757  1.00  0.00     0.173 C 
BRANCH  26  27
HETATM   27  O2  UNL     1      13.422  25.646   1.256  1.00  0.00    -0.400 OA
ATOM     28  H2  UNL     1      13.093  26.334   1.823  1.00  0.00     0.209 HD
ENDBRANCH  26  27
ENDBRANCH  18  26
ENDBRANCH  17  18
ENDBRANCH  16  17
ENDBRANCH  13  16
ENDBRANCH   6  10
BRANCH   1  29
HETATM   29  N1  UNL     1      14.523  13.736   7.730  1.00  0.00    -0.222 N 
HETATM   30  C1  UNL     1      13.485  12.807   7.297  1.00  0.00     0.168 C 
BRANCH  29  31
HETATM   31  C2  UNL     1      15.306  13.403   8.870  1.00  0.00     0.145 C 
BRANCH  31  32
HETATM   32  C3  UNL     1      16.474  12.480   8.612  1.00  0.00     0.004 C 
HETATM   33  C4  UNL     1      17.543  13.261   7.833  1.00  0.00     0.012 C 
HETATM   34  C5  UNL     1      18.496  13.961   8.765  1.00  0.00     0.079 C 
HETATM   35  C6  UNL     1      19.324  12.883   9.439  1.00  0.00     0.243 C 
HETATM   36  F1  UNL     1      19.700  13.346  10.672  1.00  0.00    -0.206 F 
HETATM   37  F2  UNL     1      20.447  12.660   8.671  1.00  0.00    -0.206 F 
HETATM   38  C7  UNL     1      18.543  11.587   9.504  1.00  0.00     0.079 C 
HETATM   39  C8  UNL     1      17.086  11.880   9.834  1.00  0.00     0.012 C 
ENDBRANCH  31  32
ENDBRANCH  29  31
ENDBRANCH   1  29
TORSDOF 9
ENDMDL
MODEL 3
REMARK VINA RESULT: -9.375427839      3.061      3.845
REMARK  9 active torsions:
REMARK  status: ('A' for Active; 'I' for Inactive)
REMARK    1  A    between atoms: N1_2  and  C2_3 
REMARK    2  A    between atoms: N1_2  and  C9_12 
REMARK    3  A    between atoms: C2_3  and  C3_4 
REMARK    4  A    between atoms: C11_17  and  C12_18 
REMARK    5  A    between atoms: C15_21  and  C16_22 
REMARK    6  A    between atoms: C16_22  and  C17_23 
REMARK    7  A    between atoms: C17_23  and  C18_24 
REMARK    8  A    between atoms: C18_24  and  C19_25 
REMARK    9  A    between atoms: C19_25  and  O2_26 
ROOT
HETATM    1  C9  UNL     1      17.430   9.143  10.036  1.00  0.00     0.682 A 
HETATM    2  N2  UNL     1      16.671  10.248  10.211  1.00  0.00    -0.155 N 
ATOM      3  H2  UNL     1      15.718  10.124  10.555  1.00  0.00     0.187 HD
HETATM    4  C10 UNL     1      17.091  11.499   9.963  1.00  0.00     0.272 A 
HETATM    5  O1  UNL     1      16.336  12.483  10.146  1.00  0.00    -0.267 OA
HETATM    6  C11 UNL     1      18.373  11.702   9.500  1.00  0.00     0.059 A 
HETATM    7  C26 UNL     1      19.161  10.586   9.316  1.00  0.00     0.124 A 
HETATM    8  N4  UNL     1      18.674   9.338   9.587  1.00  0.00    -0.201 N 
ATOM      9  H4  UNL     1      19.279   8.529   9.442  1.00  0.00     0.183 HD
ENDROOT
BRANCH   6  10
HETATM   10  C12 UNL     1      18.893  13.045   9.203  1.00  0.00    -0.019 A 
HETATM   11  C13 UNL     1      18.479  13.760   8.110  1.00  0.00     0.013 A 
HETATM   12  C14 UNL     1      18.990  15.029   7.837  1.00  0.00     0.008 A 
HETATM   13  C15 UNL     1      19.929  15.574   8.684  1.00  0.00    -0.058 A 
HETATM   14  C24 UNL     1      20.343  14.861   9.776  1.00  0.00     0.008 A 
HETATM   15  C25 UNL     1      19.832  13.604  10.039  1.00  0.00     0.013 A 
BRANCH  13  16
HETATM   16  C16 UNL     1      20.468  16.947   8.349  1.00  0.00     0.039 C 
BRANCH  16  17
HETATM   17  C17 UNL     1      21.037  16.850   6.982  1.00  0.00     0.016 C 
BRANCH  17  18
HETATM   18  C18 UNL     1      20.717  17.993   6.053  1.00  0.00    -0.016 C 
HETATM   19  C20 UNL     1      20.850  19.294   6.792  1.00  0.00     0.039 C 
HETATM   20  C21 UNL     1      19.930  20.379   6.344  1.00  0.00     0.233 C 
HETATM   21  N3  UNL     1      18.608  19.961   5.992  1.00  0.00    -0.075 N 
HETATM   22  C22 UNL     1      18.738  19.035   4.880  1.00  0.00     0.233 C 
ATOM     23  H32 UNL     1      18.087  19.574   6.778  1.00  0.00     0.277 HD
ATOM     24  H31 UNL     1      17.982  20.741   5.792  1.00  0.00     0.277 HD
HETATM   25  C23 UNL     1      19.377  17.784   5.431  1.00  0.00     0.039 C 
BRANCH  18  26
HETATM   26  C19 UNL     1      21.821  17.926   4.966  1.00  0.00     0.173 C 
BRANCH  26  27
HETATM   27  O2  UNL     1      21.982  16.653   4.479  1.00  0.00    -0.400 OA
ATOM     28  H2  UNL     1      22.616  16.158   4.985  1.00  0.00     0.209 HD
ENDBRANCH  26  27
ENDBRANCH  18  26
ENDBRANCH  17  18
ENDBRANCH  16  17
ENDBRANCH  13  16
ENDBRANCH   6  10
BRANCH   1  29
HETATM   29  N1  UNL     1      16.907   7.847  10.315  1.00  0.00    -0.222 N 
HETATM   30  C1  UNL     1      17.384   7.180  11.521  1.00  0.00     0.168 C 
BRANCH  29  31
HETATM   31  C2  UNL     1      15.954   7.179   9.495  1.00  0.00     0.145 C 
BRANCH  31  32
HETATM   32  C3  UNL     1      16.448   5.926   8.811  1.00  0.00     0.004 C 
HETATM   33  C4  UNL     1      15.273   5.298   8.047  1.00  0.00     0.012 C 
HETATM   34  C5  UNL     1      15.176   5.845   6.647  1.00  0.00     0.079 C 
HETATM   35  C6  UNL     1      16.370   5.307   5.881  1.00  0.00     0.243 C 
HETATM   36  F1  UNL     1      16.690   6.211   4.904  1.00  0.00    -0.206 F 
HETATM   37  F2  UNL     1      16.005   4.112   5.299  1.00  0.00    -0.206 F 
HETATM   38  C7  UNL     1      17.518   5.027   6.830  1.00  0.00     0.079 C 
HETATM   39  C8  UNL     1      17.598   6.128   7.880  1.00  0.00     0.012 C 
ENDBRANCH  31  32
ENDBRANCH  29  31
ENDBRANCH   1  29
TORSDOF 9
ENDMDL
MODEL 4
REMARK VINA RESULT: -9.338929301      2.815      3.717
REMARK  9 active torsions:
REMARK  status: ('A' for Active; 'I' for Inactive)
REMARK    1  A    between atoms: N1_2  and  C2_3 
REMARK    2  A    between atoms: N1_2  and  C9_12 
REMARK    3  A    between atoms: C2_3  and  C3_4 
REMARK    4  A    between atoms: C11_17  and  C12_18 
REMARK    5  A    between atoms: C15_21  and  C16_22 
REMARK    6  A    between atoms: C16_22  and  C17_23 
REMARK    7  A    between atoms: C17_23  and  C18_24 
REMARK    8  A    between atoms: C18_24  and  C19_25 
REMARK    9  A    between atoms: C19_25  and  O2_26 
ROOT
HETATM    1  C9  UNL     1      17.022   9.054   9.788  1.00  0.00     0.682 A 
HETATM    2  N2  UNL     1      16.388  10.222  10.034  1.00  0.00    -0.155 N 
ATOM      3  H2  UNL     1      15.410  10.184  10.324  1.00  0.00     0.187 HD
HETATM    4  C10 UNL     1      16.963  11.430   9.922  1.00  0.00     0.272 A 
HETATM    5  O1  UNL     1      16.319  12.478  10.166  1.00  0.00    -0.267 OA
HETATM    6  C11 UNL     1      18.284  11.517   9.535  1.00  0.00     0.059 A 
HETATM    7  C26 UNL     1      18.945  10.335   9.281  1.00  0.00     0.124 A 
HETATM    8  N4  UNL     1      18.302   9.136   9.412  1.00  0.00    -0.201 N 
ATOM      9  H4  UNL     1      18.816   8.276   9.217  1.00  0.00     0.183 HD
ENDROOT
BRANCH   6  10
HETATM   10  C12 UNL     1      18.971  12.809   9.388  1.00  0.00    -0.019 A 
HETATM   11  C13 UNL     1      18.835  13.582   8.266  1.00  0.00     0.013 A 
HETATM   12  C14 UNL     1      19.502  14.800   8.138  1.00  0.00     0.008 A 
HETATM   13  C15 UNL     1      20.313  15.234   9.162  1.00  0.00    -0.058 A 
HETATM   14  C24 UNL     1      20.451  14.464  10.284  1.00  0.00     0.008 A 
HETATM   15  C25 UNL     1      19.786  13.257  10.402  1.00  0.00     0.013 A 
BRANCH  13  16
HETATM   16  C16 UNL     1      21.030  16.555   8.982  1.00  0.00     0.039 C 
BRANCH  16  17
HETATM   17  C17 UNL     1      19.976  17.571   8.743  1.00  0.00     0.016 C 
BRANCH  17  18
HETATM   18  C18 UNL     1      20.221  18.513   7.591  1.00  0.00    -0.016 C 
HETATM   19  C20 UNL     1      18.933  19.186   7.209  1.00  0.00     0.039 C 
HETATM   20  C21 UNL     1      18.796  19.527   5.764  1.00  0.00     0.233 C 
HETATM   21  N3  UNL     1      19.325  18.562   4.849  1.00  0.00    -0.075 N 
HETATM   22  C22 UNL     1      20.747  18.453   5.122  1.00  0.00     0.233 C 
ATOM     23  H32 UNL     1      18.839  17.665   4.887  1.00  0.00     0.277 HD
ATOM     24  H31 UNL     1      19.119  18.779   3.875  1.00  0.00     0.277 HD
HETATM   25  C23 UNL     1      20.881  17.785   6.469  1.00  0.00     0.039 C 
BRANCH  18  26
HETATM   26  C19 UNL     1      21.185  19.583   8.168  1.00  0.00     0.173 C 
BRANCH  26  27
HETATM   27  O2  UNL     1      20.900  19.874   9.479  1.00  0.00    -0.400 OA
ATOM     28  H2  UNL     1      21.588  19.581  10.064  1.00  0.00     0.209 HD
ENDBRANCH  26  27
ENDBRANCH  18  26
ENDBRANCH  17  18
ENDBRANCH  16  17
ENDBRANCH  13  16
ENDBRANCH   6  10
BRANCH   1  29
HETATM   29  N1  UNL     1      16.338   7.811   9.921  1.00  0.00    -0.222 N 
HETATM   30  C1  UNL     1      16.575   7.045  11.139  1.00  0.00     0.168 C 
BRANCH  29  31
HETATM   31  C2  UNL     1      15.444   7.284   8.946  1.00  0.00     0.145 C 
BRANCH  31  32
HETATM   32  C3  UNL     1      15.910   6.030   8.245  1.00  0.00     0.004 C 
HETATM   33  C4  UNL     1      14.784   5.548   7.318  1.00  0.00     0.012 C 
HETATM   34  C5  UNL     1      14.894   6.173   5.953  1.00  0.00     0.079 C 
HETATM   35  C6  UNL     1      16.121   5.573   5.292  1.00  0.00     0.243 C 
HETATM   36  F1  UNL     1      16.624   6.495   4.413  1.00  0.00    -0.206 F 
HETATM   37  F2  UNL     1      15.729   4.446   4.601  1.00  0.00    -0.206 F 
HETATM   38  C7  UNL     1      17.124   5.145   6.342  1.00  0.00     0.079 C 
HETATM   39  C8  UNL     1      17.172   6.177   7.461  1.00  0.00     0.012 C 
ENDBRANCH  31  32
ENDBRANCH  29  31
ENDBRANCH   1  29
TORSDOF 9
ENDMDL
MODEL 5
REMARK VINA RESULT: -9.338905151      3.089      3.930
REMARK  9 active torsions:
REMARK  status: ('A' for Active; 'I' for Inactive)
REMARK    1  A    between atoms: N1_2  and  C2_3 
REMARK    2  A    between atoms: N1_2  and  C9_12 
REMARK    3  A    between atoms: C2_3  and  C3_4 
REMARK    4  A    between atoms: C11_17  and  C12_18 
REMARK    5  A    between atoms: C15_21  and  C16_22 
REMARK    6  A    between atoms: C16_22  and  C17_23 
REMARK    7  A    between atoms: C17_23  and  C18_24 
REMARK    8  A    between atoms: C18_24  and  C19_25 
REMARK    9  A    between atoms: C19_25  and  O2_26 
ROOT
HETATM    1  C9  UNL     1      17.461   9.333   9.857  1.00  0.00     0.682 A 
HETATM    2  N2  UNL     1      16.679  10.436   9.862  1.00  0.00    -0.155 N 
ATOM      3  H2  UNL     1      15.677  10.310  10.013  1.00  0.00     0.187 HD
HETATM    4  C10 UNL     1      17.135  11.685   9.682  1.00  0.00     0.272 A 
HETATM    5  O1  UNL     1      16.356  12.667   9.698  1.00  0.00    -0.267 OA
HETATM    6  C11 UNL     1      18.483  11.890   9.479  1.00  0.00     0.059 A 
HETATM    7  C26 UNL     1      19.295  10.776   9.472  1.00  0.00     0.124 A 
HETATM    8  N4  UNL     1      18.768   9.529   9.660  1.00  0.00    -0.201 N 
ATOM      9  H4  UNL     1      19.393   8.722   9.649  1.00  0.00     0.183 HD
ENDROOT
BRANCH   6  10
HETATM   10  C12 UNL     1      19.047  13.231   9.270  1.00  0.00    -0.019 A 
HETATM   11  C13 UNL     1      18.762  13.975   8.155  1.00  0.00     0.013 A 
HETATM   12  C14 UNL     1      19.313  15.243   7.968  1.00  0.00     0.008 A 
HETATM   13  C15 UNL     1      20.161  15.756   8.923  1.00  0.00    -0.058 A 
HETATM   14  C24 UNL     1      20.447  15.016  10.037  1.00  0.00     0.008 A 
HETATM   15  C25 UNL     1      19.896  13.760  10.214  1.00  0.00     0.013 A 
BRANCH  13  16
HETATM   16  C16 UNL     1      20.748  17.129   8.679  1.00  0.00     0.039 C 
BRANCH  16  17
HETATM   17  C17 UNL     1      20.626  17.382   7.222  1.00  0.00     0.016 C 
BRANCH  17  18
HETATM   18  C18 UNL     1      20.437  18.823   6.818  1.00  0.00    -0.016 C 
HETATM   19  C20 UNL     1      20.907  19.015   5.404  1.00  0.00     0.039 C 
HETATM   20  C21 UNL     1      21.476  20.358   5.097  1.00  0.00     0.233 C 
HETATM   21  N3  UNL     1      22.271  20.942   6.133  1.00  0.00    -0.075 N 
HETATM   22  C22 UNL     1      21.408  21.106   7.290  1.00  0.00     0.233 C 
ATOM     23  H32 UNL     1      23.118  20.411   6.337  1.00  0.00     0.277 HD
ATOM     24  H31 UNL     1      22.727  21.808   5.848  1.00  0.00     0.277 HD
HETATM   25  C23 UNL     1      21.106  19.720   7.805  1.00  0.00     0.039 C 
BRANCH  18  26
HETATM   26  C19 UNL     1      18.902  19.036   6.863  1.00  0.00     0.173 C 
BRANCH  26  27
HETATM   27  O2  UNL     1      18.236  18.127   6.079  1.00  0.00    -0.400 OA
ATOM     28  H2  UNL     1      18.179  17.275   6.497  1.00  0.00     0.209 HD
ENDBRANCH  26  27
ENDBRANCH  18  26
ENDBRANCH  17  18
ENDBRANCH  16  17
ENDBRANCH  13  16
ENDBRANCH   6  10
BRANCH   1  29
HETATM   29  N1  UNL     1      16.898   8.038  10.047  1.00  0.00    -0.222 N 
HETATM   30  C1  UNL     1      17.375   7.263  11.187  1.00  0.00     0.168 C 
BRANCH  29  31
HETATM   31  C2  UNL     1      15.906   7.468   9.200  1.00  0.00     0.145 C 
BRANCH  31  32
HETATM   32  C3  UNL     1      16.289   6.170   8.529  1.00  0.00     0.004 C 
HETATM   33  C4  UNL     1      15.065   5.641   7.768  1.00  0.00     0.012 C 
HETATM   34  C5  UNL     1      15.020   6.180   6.362  1.00  0.00     0.079 C 
HETATM   35  C6  UNL     1      16.164   5.531   5.605  1.00  0.00     0.243 C 
HETATM   36  F1  UNL     1      16.564   6.395   4.620  1.00  0.00    -0.206 F 
HETATM   37  F2  UNL     1      15.696   4.368   5.033  1.00  0.00    -0.206 F 
HETATM   38  C7  UNL     1      17.280   5.161   6.560  1.00  0.00     0.079 C 
HETATM   39  C8  UNL     1      17.454   6.260   7.600  1.00  0.00     0.012 C 
ENDBRANCH  31  32
ENDBRANCH  29  31
ENDBRANCH   1  29
TORSDOF 9
ENDMDL
