MODEL 1
REMARK VINA RESULT: -7.670987334      0.000      0.000
REMARK  11 active torsions:
REMARK  status: ('A' for Active; 'I' for Inactive)
REMARK    1  A    between atoms: C2_2  and  O1_5 
REMARK    2  A    between atoms: O1_5  and  C5_6 
REMARK    3  A    between atoms: C8_10  and  C9_11 
REMARK    4  A    between atoms: C10_12  and  C11_13 
REMARK    5  A    between atoms: C11_13  and  C12_14 
REMARK    6  A    between atoms: C12_14  and  C13_15 
REMARK    7  A    between atoms: C18_22  and  C19_23 
REMARK    8  A    between atoms: C19_23  and  C20_24 
REMARK    9  A    between atoms: C21_27  and  C22_28 
REMARK   10  A    between atoms: C22_28  and  O5_29 
REMARK   11  A    between atoms: C23_31  and  C24_32 
ROOT
HETATM    1  C5  UNL     1      13.395  16.527   5.074  1.00  0.00     0.275 C 
HETATM    2  O2  UNL     1      14.441  16.049   4.361  1.00  0.00    -0.355 OA
HETATM    3  C6  UNL     1      15.559  15.610   4.915  1.00  0.00     0.132 C 
HETATM    4  C7  UNL     1      16.605  16.701   4.977  1.00  0.00     0.041 C 
HETATM    5  C8  UNL     1      16.225  17.648   6.088  1.00  0.00     0.016 C 
HETATM    6  C17 UNL     1      15.068  17.132   6.852  1.00  0.00     0.017 C 
HETATM    7  C18 UNL     1      15.267  15.724   7.341  1.00  0.00     0.010 C 
HETATM    8  C21 UNL     1      15.517  14.820   6.193  1.00  0.00     0.043 C 
HETATM    9  C23 UNL     1      13.736  17.409   6.213  1.00  0.00     0.147 C 
ENDROOT
BRANCH   5  10
HETATM   10  C9  UNL     1      17.400  17.774   7.001  1.00  0.00    -0.024 C 
HETATM   11  C10 UNL     1      18.604  17.343   6.673  1.00  0.00    -0.013 C 
BRANCH  11  12
HETATM   12  C11 UNL     1      19.752  17.477   7.588  1.00  0.00     0.036 A 
HETATM   13  C14 UNL     1      21.025  17.975   6.945  1.00  0.00     0.050 A 
HETATM   14  C15 UNL     1      20.982  19.226   7.745  1.00  0.00     0.013 A 
HETATM   15  C16 UNL     1      19.853  18.774   8.307  1.00  0.00     0.103 A 
HETATM   16  F2  UNL     1      19.056  19.344   9.251  1.00  0.00    -0.210 F 
BRANCH  12  17
HETATM   17  C12 UNL     1      19.975  16.265   8.423  1.00  0.00     0.052 C 
BRANCH  17  18
HETATM   18  C13 UNL     1      20.777  16.504   9.664  1.00  0.00     0.223 C 
HETATM   19  F1  UNL     1      20.312  15.574  10.608  1.00  0.00    -0.255 F 
ENDBRANCH  17  18
ENDBRANCH  12  17
ENDBRANCH  11  12
ENDBRANCH   5  10
BRANCH   7  20
HETATM   20  C19 UNL     1      14.082  15.343   8.208  1.00  0.00     0.118 C 
BRANCH  20  21
HETATM   21  C20 UNL     1      14.041  13.916   8.517  1.00  0.00     0.172 C 
HETATM   22  O3  UNL     1      13.034  13.221   8.139  1.00  0.00    -0.648 OA
HETATM   23  O4  UNL     1      15.032  13.234   9.204  1.00  0.00    -0.648 OA
ENDBRANCH  20  21
ENDBRANCH   7  20
BRANCH   9  24
HETATM   24  C24 UNL     1      13.779  18.857   5.862  1.00  0.00     0.182 C 
HETATM   25  O6  UNL     1      14.421  19.380   4.956  1.00  0.00    -0.648 OA
HETATM   26  O7  UNL     1      12.996  19.690   6.668  1.00  0.00    -0.648 OA
ENDBRANCH   9  24
BRANCH   8  27
HETATM   27  C22 UNL     1      16.855  14.101   6.376  1.00  0.00     0.171 C 
BRANCH  27  28
HETATM   28  O5  UNL     1      17.366  14.158   7.646  1.00  0.00    -0.400 OA
ATOM     29  H5  UNL     1      18.278  14.419   7.695  1.00  0.00     0.209 HD
ENDBRANCH  27  28
ENDBRANCH   8  27
BRANCH   1  30
HETATM   30  O1  UNL     1      12.622  17.265   4.180  1.00  0.00    -0.351 OA
BRANCH  30  31
HETATM   31  C2  UNL     1      11.366  16.825   3.939  1.00  0.00     0.053 C 
HETATM   32  C1  UNL     1      10.457  16.918   5.147  1.00  0.00     0.045 C 
HETATM   33  C3  UNL     1      11.276  15.463   3.294  1.00  0.00     0.045 C 
HETATM   34  C4  UNL     1      10.768  17.796   2.903  1.00  0.00     0.045 C 
ENDBRANCH  30  31
ENDBRANCH   1  30
TORSDOF 11
ENDMDL
MODEL 2
REMARK VINA RESULT: -7.576763282      2.331      3.365
REMARK  11 active torsions:
REMARK  status: ('A' for Active; 'I' for Inactive)
REMARK    1  A    between atoms: C2_2  and  O1_5 
REMARK    2  A    between atoms: O1_5  and  C5_6 
REMARK    3  A    between atoms: C8_10  and  C9_11 
REMARK    4  A    between atoms: C10_12  and  C11_13 
REMARK    5  A    between atoms: C11_13  and  C12_14 
REMARK    6  A    between atoms: C12_14  and  C13_15 
REMARK    7  A    between atoms: C18_22  and  C19_23 
REMARK    8  A    between atoms: C19_23  and  C20_24 
REMARK    9  A    between atoms: C21_27  and  C22_28 
REMARK   10  A    between atoms: C22_28  and  O5_29 
REMARK   11  A    between atoms: C23_31  and  C24_32 
ROOT
HETATM    1  C5  UNL     1      14.174  16.677   5.602  1.00  0.00     0.275 C 
HETATM    2  O2  UNL     1      14.439  15.553   4.897  1.00  0.00    -0.355 OA
HETATM    3  C6  UNL     1      14.786  14.407   5.459  1.00  0.00     0.132 C 
HETATM    4  C7  UNL     1      16.290  14.257   5.514  1.00  0.00     0.041 C 
HETATM    5  C8  UNL     1      16.808  15.150   6.614  1.00  0.00     0.016 C 
HETATM    6  C17 UNL     1      15.693  15.750   7.379  1.00  0.00     0.017 C 
HETATM    7  C18 UNL     1      14.710  14.730   7.883  1.00  0.00     0.010 C 
HETATM    8  C21 UNL     1      14.146  13.964   6.745  1.00  0.00     0.043 C 
HETATM    9  C23 UNL     1      15.085  16.963   6.733  1.00  0.00     0.147 C 
ENDROOT
BRANCH   5  10
HETATM   10  C9  UNL     1      17.638  14.311   7.529  1.00  0.00    -0.024 C 
HETATM   11  C10 UNL     1      18.684  14.788   8.177  1.00  0.00    -0.013 C 
BRANCH  11  12
HETATM   12  C11 UNL     1      19.491  13.944   9.076  1.00  0.00     0.036 A 
HETATM   13  C14 UNL     1      20.735  13.356   8.452  1.00  0.00     0.050 A 
HETATM   14  C15 UNL     1      21.606  14.146   9.359  1.00  0.00     0.013 A 
HETATM   15  C16 UNL     1      20.495  14.661   9.903  1.00  0.00     0.103 A 
HETATM   16  F2  UNL     1      20.351  15.565  10.910  1.00  0.00    -0.210 F 
BRANCH  12  17
HETATM   17  C12 UNL     1      18.682  12.922   9.797  1.00  0.00     0.052 C 
BRANCH  17  18
HETATM   18  C13 UNL     1      19.003  11.506   9.433  1.00  0.00     0.223 C 
HETATM   19  F1  UNL     1      17.832  10.981   8.862  1.00  0.00    -0.255 F 
ENDBRANCH  17  18
ENDBRANCH  12  17
ENDBRANCH  11  12
ENDBRANCH   5  10
BRANCH   7  20
HETATM   20  C19 UNL     1      13.685  15.435   8.751  1.00  0.00     0.118 C 
BRANCH  20  21
HETATM   21  C20 UNL     1      12.311  15.060   8.424  1.00  0.00     0.172 C 
HETATM   22  O3  UNL     1      11.824  13.980   8.908  1.00  0.00    -0.648 OA
HETATM   23  O4  UNL     1      11.468  15.802   7.612  1.00  0.00    -0.648 OA
ENDBRANCH  20  21
ENDBRANCH   7  20
BRANCH   9  24
HETATM   24  C24 UNL     1      16.250  17.819   6.368  1.00  0.00     0.182 C 
HETATM   25  O6  UNL     1      16.791  17.902   5.269  1.00  0.00    -0.648 OA
HETATM   26  O7  UNL     1      16.763  18.604   7.406  1.00  0.00    -0.648 OA
ENDBRANCH   9  24
BRANCH   8  27
HETATM   27  C22 UNL     1      14.406  12.470   6.941  1.00  0.00     0.171 C 
BRANCH  27  28
HETATM   28  O5  UNL     1      13.324  11.753   7.381  1.00  0.00    -0.400 OA
ATOM     29  H5  UNL     1      13.495  10.832   7.536  1.00  0.00     0.209 HD
ENDBRANCH  27  28
ENDBRANCH   8  27
BRANCH   1  30
HETATM   30  O1  UNL     1      14.273  17.734   4.698  1.00  0.00    -0.351 OA
BRANCH  30  31
HETATM   31  C2  UNL     1      13.275  18.646   4.702  1.00  0.00     0.053 C 
HETATM   32  C1  UNL     1      13.649  19.946   4.019  1.00  0.00     0.045 C 
HETATM   33  C3  UNL     1      12.646  18.901   6.050  1.00  0.00     0.045 C 
HETATM   34  C4  UNL     1      12.147  18.044   3.844  1.00  0.00     0.045 C 
ENDBRANCH  30  31
ENDBRANCH   1  30
TORSDOF 11
ENDMDL
MODEL 3
REMARK VINA RESULT: -7.546299671      0.987      1.228
REMARK  11 active torsions:
REMARK  status: ('A' for Active; 'I' for Inactive)
REMARK    1  A    between atoms: C2_2  and  O1_5 
REMARK    2  A    between atoms: O1_5  and  C5_6 
REMARK    3  A    between atoms: C8_10  and  C9_11 
REMARK    4  A    between atoms: C10_12  and  C11_13 
REMARK    5  A    between atoms: C11_13  and  C12_14 
REMARK    6  A    between atoms: C12_14  and  C13_15 
REMARK    7  A    between atoms: C18_22  and  C19_23 
REMARK    8  A    between atoms: C19_23  and  C20_24 
REMARK    9  A    between atoms: C21_27  and  C22_28 
REMARK   10  A    between atoms: C22_28  and  O5_29 
REMARK   11  A    between atoms: C23_31  and  C24_32 
ROOT
HETATM    1  C5  UNL     1      13.164  15.968   5.142  1.00  0.00     0.275 C 
HETATM    2  O2  UNL     1      13.947  14.951   4.712  1.00  0.00    -0.355 OA
HETATM    3  C6  UNL     1      14.883  14.389   5.458  1.00  0.00     0.132 C 
HETATM    4  C7  UNL     1      16.235  15.018   5.205  1.00  0.00     0.041 C 
HETATM    5  C8  UNL     1      16.259  16.364   5.887  1.00  0.00     0.016 C 
HETATM    6  C17 UNL     1      15.042  16.566   6.703  1.00  0.00     0.017 C 
HETATM    7  C18 UNL     1      14.786  15.439   7.666  1.00  0.00     0.010 C 
HETATM    8  C21 UNL     1      14.653  14.161   6.926  1.00  0.00     0.043 C 
HETATM    9  C23 UNL     1      13.845  17.026   5.921  1.00  0.00     0.147 C 
ENDROOT
BRANCH   5  10
HETATM   10  C9  UNL     1      17.459  16.404   6.775  1.00  0.00    -0.024 C 
HETATM   11  C10 UNL     1      18.489  17.196   6.542  1.00  0.00    -0.013 C 
BRANCH  11  12
HETATM   12  C11 UNL     1      19.665  17.221   7.430  1.00  0.00     0.036 A 
HETATM   13  C14 UNL     1      20.968  17.575   6.752  1.00  0.00     0.050 A 
HETATM   14  C15 UNL     1      21.074  18.833   7.534  1.00  0.00     0.013 A 
HETATM   15  C16 UNL     1      19.917  18.508   8.127  1.00  0.00     0.103 A 
HETATM   16  F2  UNL     1      19.206  19.170   9.079  1.00  0.00    -0.210 F 
BRANCH  12  17
HETATM   17  C12 UNL     1      19.781  16.002   8.277  1.00  0.00     0.052 C 
BRANCH  17  18
HETATM   18  C13 UNL     1      20.640  16.168   9.491  1.00  0.00     0.223 C 
HETATM   19  F1  UNL     1      20.109  15.302  10.460  1.00  0.00    -0.255 F 
ENDBRANCH  17  18
ENDBRANCH  12  17
ENDBRANCH  11  12
ENDBRANCH   5  10
BRANCH   7  20
HETATM   20  C19 UNL     1      13.594  15.804   8.531  1.00  0.00     0.118 C 
BRANCH  20  21
HETATM   21  C20 UNL     1      12.520  14.817   8.462  1.00  0.00     0.172 C 
HETATM   22  O3  UNL     1      11.424  15.122   7.874  1.00  0.00    -0.648 OA
HETATM   23  O4  UNL     1      12.593  13.540   8.995  1.00  0.00    -0.648 OA
ENDBRANCH  20  21
ENDBRANCH   7  20
BRANCH   9  24
HETATM   24  C24 UNL     1      14.350  18.157   5.090  1.00  0.00     0.182 C 
HETATM   25  O6  UNL     1      15.025  18.079   4.067  1.00  0.00    -0.648 OA
HETATM   26  O7  UNL     1      14.004  19.434   5.545  1.00  0.00    -0.648 OA
ENDBRANCH   9  24
BRANCH   8  27
HETATM   27  C22 UNL     1      15.681  13.151   7.439  1.00  0.00     0.171 C 
BRANCH  27  28
HETATM   28  O5  UNL     1      15.304  12.474   8.569  1.00  0.00    -0.400 OA
ATOM     29  H5  UNL     1      15.620  12.851   9.381  1.00  0.00     0.209 HD
ENDBRANCH  27  28
ENDBRANCH   8  27
BRANCH   1  30
HETATM   30  O1  UNL     1      12.632  16.558   3.996  1.00  0.00    -0.351 OA
BRANCH  30  31
HETATM   31  C2  UNL     1      11.293  16.476   3.824  1.00  0.00     0.053 C 
HETATM   32  C1  UNL     1      10.507  16.771   5.085  1.00  0.00     0.045 C 
HETATM   33  C3  UNL     1      10.808  15.208   3.165  1.00  0.00     0.045 C 
HETATM   34  C4  UNL     1      10.923  17.602   2.839  1.00  0.00     0.045 C 
ENDBRANCH  30  31
ENDBRANCH   1  30
TORSDOF 11
ENDMDL
MODEL 4
REMARK VINA RESULT: -7.423439806      1.232      1.650
REMARK  11 active torsions:
REMARK  status: ('A' for Active; 'I' for Inactive)
REMARK    1  A    between atoms: C2_2  and  O1_5 
REMARK    2  A    between atoms: O1_5  and  C5_6 
REMARK    3  A    between atoms: C8_10  and  C9_11 
REMARK    4  A    between atoms: C10_12  and  C11_13 
REMARK    5  A    between atoms: C11_13  and  C12_14 
REMARK    6  A    between atoms: C12_14  and  C13_15 
REMARK    7  A    between atoms: C18_22  and  C19_23 
REMARK    8  A    between atoms: C19_23  and  C20_24 
REMARK    9  A    between atoms: C21_27  and  C22_28 
REMARK   10  A    between atoms: C22_28  and  O5_29 
REMARK   11  A    between atoms: C23_31  and  C24_32 
ROOT
HETATM    1  C5  UNL     1      12.586  16.722   5.343  1.00  0.00     0.275 C 
HETATM    2  O2  UNL     1      13.495  16.362   4.406  1.00  0.00    -0.355 OA
HETATM    3  C6  UNL     1      14.718  15.952   4.699  1.00  0.00     0.132 C 
HETATM    4  C7  UNL     1      15.705  17.097   4.651  1.00  0.00     0.041 C 
HETATM    5  C8  UNL     1      15.505  17.936   5.889  1.00  0.00     0.016 C 
HETATM    6  C17 UNL     1      14.544  17.297   6.813  1.00  0.00     0.017 C 
HETATM    7  C18 UNL     1      14.897  15.872   7.137  1.00  0.00     0.010 C 
HETATM    8  C21 UNL     1      14.961  15.071   5.892  1.00  0.00     0.043 C 
HETATM    9  C23 UNL     1      13.102  17.538   6.465  1.00  0.00     0.147 C 
ENDROOT
BRANCH   5  10
HETATM   10  C9  UNL     1      16.829  18.067   6.569  1.00  0.00    -0.024 C 
HETATM   11  C10 UNL     1      17.969  17.789   5.965  1.00  0.00    -0.013 C 
BRANCH  11  12
HETATM   12  C11 UNL     1      19.265  17.925   6.653  1.00  0.00     0.036 A 
HETATM   13  C14 UNL     1      20.029  16.634   6.833  1.00  0.00     0.050 A 
HETATM   14  C15 UNL     1      21.113  17.108   5.935  1.00  0.00     0.013 A 
HETATM   15  C16 UNL     1      20.424  18.248   5.782  1.00  0.00     0.103 A 
HETATM   16  F2  UNL     1      20.718  19.355   5.048  1.00  0.00    -0.210 F 
BRANCH  12  17
HETATM   17  C12 UNL     1      19.175  18.712   7.914  1.00  0.00     0.052 C 
BRANCH  17  18
HETATM   18  C13 UNL     1      20.489  19.204   8.435  1.00  0.00     0.223 C 
HETATM   19  F1  UNL     1      20.541  18.809   9.781  1.00  0.00    -0.255 F 
ENDBRANCH  17  18
ENDBRANCH  12  17
ENDBRANCH  11  12
ENDBRANCH   5  10
BRANCH   7  20
HETATM   20  C19 UNL     1      13.923  15.358   8.180  1.00  0.00     0.118 C 
BRANCH  20  21
HETATM   21  C20 UNL     1      14.026  13.916   8.391  1.00  0.00     0.172 C 
HETATM   22  O3  UNL     1      13.019  13.170   8.130  1.00  0.00    -0.648 OA
HETATM   23  O4  UNL     1      15.159  13.272   8.862  1.00  0.00    -0.648 OA
ENDBRANCH  20  21
ENDBRANCH   7  20
BRANCH   9  24
HETATM   24  C24 UNL     1      13.010  19.008   6.234  1.00  0.00     0.182 C 
HETATM   25  O6  UNL     1      13.583  19.657   5.364  1.00  0.00    -0.648 OA
HETATM   26  O7  UNL     1      12.174  19.701   7.117  1.00  0.00    -0.648 OA
ENDBRANCH   9  24
BRANCH   8  27
HETATM   27  C22 UNL     1      16.340  14.422   5.757  1.00  0.00     0.171 C 
BRANCH  27  28
HETATM   28  O5  UNL     1      17.112  14.479   6.888  1.00  0.00    -0.400 OA
ATOM     29  H5  UNL     1      17.773  15.161   6.883  1.00  0.00     0.209 HD
ENDBRANCH  27  28
ENDBRANCH   8  27
BRANCH   1  30
HETATM   30  O1  UNL     1      11.621  17.476   4.676  1.00  0.00    -0.351 OA
BRANCH  30  31
HETATM   31  C2  UNL     1      10.348  17.020   4.712  1.00  0.00     0.053 C 
HETATM   32  C1  UNL     1       9.392  17.968   5.405  1.00  0.00     0.045 C 
HETATM   33  C3  UNL     1      10.186  15.610   5.227  1.00  0.00     0.045 C 
HETATM   34  C4  UNL     1       9.878  16.964   3.246  1.00  0.00     0.045 C 
ENDBRANCH  30  31
ENDBRANCH   1  30
TORSDOF 11
ENDMDL
MODEL 5
REMARK VINA RESULT: -7.414575583      1.550      2.205
REMARK  11 active torsions:
REMARK  status: ('A' for Active; 'I' for Inactive)
REMARK    1  A    between atoms: C2_2  and  O1_5 
REMARK    2  A    between atoms: O1_5  and  C5_6 
REMARK    3  A    between atoms: C8_10  and  C9_11 
REMARK    4  A    between atoms: C10_12  and  C11_13 
REMARK    5  A    between atoms: C11_13  and  C12_14 
REMARK    6  A    between atoms: C12_14  and  C13_15 
REMARK    7  A    between atoms: C18_22  and  C19_23 
REMARK    8  A    between atoms: C19_23  and  C20_24 
REMARK    9  A    between atoms: C21_27  and  C22_28 
REMARK   10  A    between atoms: C22_28  and  O5_29 
REMARK   11  A    between atoms: C23_31  and  C24_32 
ROOT
HETATM    1  C5  UNL     1      12.812  16.688   5.341  1.00  0.00     0.275 C 
HETATM    2  O2  UNL     1      13.755  16.342   4.434  1.00  0.00    -0.355 OA
HETATM    3  C6  UNL     1      14.976  15.956   4.766  1.00  0.00     0.132 C 
HETATM    4  C7  UNL     1      15.942  17.120   4.743  1.00  0.00     0.041 C 
HETATM    5  C8  UNL     1      15.689  17.959   5.971  1.00  0.00     0.016 C 
HETATM    6  C17 UNL     1      14.712  17.306   6.868  1.00  0.00     0.017 C 
HETATM    7  C18 UNL     1      15.082  15.889   7.209  1.00  0.00     0.010 C 
HETATM    8  C21 UNL     1      15.199  15.084   5.969  1.00  0.00     0.043 C 
HETATM    9  C23 UNL     1      13.277  17.518   6.474  1.00  0.00     0.147 C 
ENDROOT
BRANCH   5  10
HETATM   10  C9  UNL     1      16.988  18.118   6.690  1.00  0.00    -0.024 C 
HETATM   11  C10 UNL     1      18.155  17.991   6.086  1.00  0.00    -0.013 C 
BRANCH  11  12
HETATM   12  C11 UNL     1      19.427  18.151   6.814  1.00  0.00     0.036 A 
HETATM   13  C14 UNL     1      19.501  17.425   8.136  1.00  0.00     0.050 A 
HETATM   14  C15 UNL     1      20.574  16.533   7.627  1.00  0.00     0.013 A 
HETATM   15  C16 UNL     1      20.498  17.185   6.458  1.00  0.00     0.103 A 
HETATM   16  F2  UNL     1      21.199  17.002   5.307  1.00  0.00    -0.210 F 
BRANCH  12  17
HETATM   17  C12 UNL     1      19.860  19.573   6.923  1.00  0.00     0.052 C 
BRANCH  17  18
HETATM   18  C13 UNL     1      19.713  20.364   5.661  1.00  0.00     0.223 C 
HETATM   19  F1  UNL     1      20.813  20.019   4.861  1.00  0.00    -0.255 F 
ENDBRANCH  17  18
ENDBRANCH  12  17
ENDBRANCH  11  12
ENDBRANCH   5  10
BRANCH   7  20
HETATM   20  C19 UNL     1      14.086  15.361   8.224  1.00  0.00     0.118 C 
BRANCH  20  21
HETATM   21  C20 UNL     1      14.162  13.912   8.392  1.00  0.00     0.172 C 
HETATM   22  O3  UNL     1      13.145  13.191   8.099  1.00  0.00    -0.648 OA
HETATM   23  O4  UNL     1      15.279  13.234   8.854  1.00  0.00    -0.648 OA
ENDBRANCH  20  21
ENDBRANCH   7  20
BRANCH   9  24
HETATM   24  C24 UNL     1      13.164  18.985   6.234  1.00  0.00     0.182 C 
HETATM   25  O6  UNL     1      13.749  19.641   5.377  1.00  0.00    -0.648 OA
HETATM   26  O7  UNL     1      12.293  19.666   7.091  1.00  0.00    -0.648 OA
ENDBRANCH   9  24
BRANCH   8  27
HETATM   27  C22 UNL     1      16.594  14.462   5.880  1.00  0.00     0.171 C 
BRANCH  27  28
HETATM   28  O5  UNL     1      17.354  14.597   7.012  1.00  0.00    -0.400 OA
ATOM     29  H5  UNL     1      17.228  15.414   7.479  1.00  0.00     0.209 HD
ENDBRANCH  27  28
ENDBRANCH   8  27
BRANCH   1  30
HETATM   30  O1  UNL     1      11.853  17.420   4.641  1.00  0.00    -0.351 OA
BRANCH  30  31
HETATM   31  C2  UNL     1      10.579  16.970   4.686  1.00  0.00     0.053 C 
HETATM   32  C1  UNL     1       9.622  17.944   5.342  1.00  0.00     0.045 C 
HETATM   33  C3  UNL     1      10.409  15.579   5.246  1.00  0.00     0.045 C 
HETATM   34  C4  UNL     1      10.116  16.868   3.220  1.00  0.00     0.045 C 
ENDBRANCH  30  31
ENDBRANCH   1  30
TORSDOF 11
ENDMDL
