MODEL 1
REMARK VINA RESULT: -8.551455915      0.000      0.000
REMARK  11 active torsions:
REMARK  status: ('A' for Active; 'I' for Inactive)
REMARK    1  A    between atoms: C2_2  and  C4_4 
REMARK    2  A    between atoms: C5_5  and  C6_6 
REMARK    3  A    between atoms: C6_6  and  C7_7 
REMARK    4  A    between atoms: C6_6  and  C9_11 
REMARK    5  A    between atoms: C7_7  and  C8_9 
REMARK    6  A    between atoms: C9_11  and  C11_13 
REMARK    7  A    between atoms: C11_13  and  C12_14 
REMARK    8  A    between atoms: C12_14  and  O2_15 
REMARK    9  A    between atoms: C19_24  and  O3_25 
REMARK   10  A    between atoms: C21_28  and  C22_29 
REMARK   11  A    between atoms: C23_31  and  O5_32 
ROOT
HETATM    1  C4  UNL     1      17.318  16.718   6.874  1.00  0.00    -0.034 A 
HETATM    2  C5  UNL     1      16.091  17.160   6.217  1.00  0.00    -0.042 A 
HETATM    3  C13 UNL     1      16.440  18.312   5.588  1.00  0.00    -0.012 A 
HETATM    4  C14 UNL     1      17.772  18.702   5.770  1.00  0.00     0.027 A 
HETATM    5  C15 UNL     1      18.695  19.169   4.753  1.00  0.00     0.047 C 
HETATM    6  C16 UNL     1      19.827  19.824   5.516  1.00  0.00     0.177 C 
HETATM    7  F1  UNL     1      19.726  21.203   5.235  1.00  0.00    -0.249 F 
HETATM    8  C17 UNL     1      19.811  19.661   7.003  1.00  0.00     0.058 C 
HETATM    9  C18 UNL     1      21.251  19.862   7.406  1.00  0.00     0.042 C 
HETATM   10  C19 UNL     1      21.563  19.616   8.838  1.00  0.00     0.119 C 
HETATM   11  C20 UNL     1      20.488  18.861   9.570  1.00  0.00     0.046 C 
HETATM   12  C21 UNL     1      20.033  17.755   8.599  1.00  0.00     0.085 C 
HETATM   13  C23 UNL     1      19.183  18.401   7.584  1.00  0.00     0.086 C 
HETATM   14  C24 UNL     1      18.467  17.601   6.577  1.00  0.00     0.023 A 
HETATM   15  C25 UNL     1      19.350  16.846   5.612  1.00  0.00     0.024 C 
ENDROOT
BRANCH   2  16
HETATM   16  C6  UNL     1      14.654  16.711   6.305  1.00  0.00     0.093 C 
BRANCH  16  17
HETATM   17  C7  UNL     1      14.196  16.433   4.899  1.00  0.00     0.149 C 
HETATM   18  O1  UNL     1      14.785  15.759   4.088  1.00  0.00    -0.296 OA
BRANCH  17  19
HETATM   19  C8  UNL     1      12.895  17.031   4.411  1.00  0.00     0.193 C 
HETATM   20 CL1  UNL     1      12.975  18.784   4.316  1.00  0.00    -0.123 Cl
ENDBRANCH  17  19
ENDBRANCH  16  17
BRANCH  16  21
HETATM   21  C9  UNL     1      14.200  15.718   7.237  1.00  0.00    -0.001 C 
HETATM   22  C10 UNL     1      13.941  14.344   6.622  1.00  0.00     0.011 C 
BRANCH  21  23
HETATM   23  C11 UNL     1      12.887  16.138   7.874  1.00  0.00     0.031 C 
BRANCH  23  24
HETATM   24  C12 UNL     1      11.876  15.046   7.974  1.00  0.00     0.164 C 
BRANCH  24  25
HETATM   25  O2  UNL     1      11.326  14.846   9.223  1.00  0.00    -0.401 OA
ATOM     26  H2  UNL     1      10.377  14.874   9.268  1.00  0.00     0.209 HD
ENDBRANCH  24  25
ENDBRANCH  23  24
ENDBRANCH  21  23
ENDBRANCH  16  21
ENDBRANCH   2  16
BRANCH   1  27
HETATM   27  C2  UNL     1      17.695  15.284   6.861  1.00  0.00    -0.064 C 
HETATM   28  C1  UNL     1      17.312  14.369   5.979  1.00  0.00     0.019 C 
HETATM   29  C3  UNL     1      18.484  14.655   8.011  1.00  0.00     0.048 C 
ENDBRANCH   1  27
BRANCH  13  30
HETATM   30  O5  UNL     1      18.096  18.908   8.385  1.00  0.00    -0.387 OA
ATOM     31  H5  UNL     1      18.336  18.651   9.268  1.00  0.00     0.210 HD
ENDBRANCH  13  30
BRANCH  12  32
HETATM   32  C22 UNL     1      21.248  17.089   8.165  1.00  0.00     0.238 C 
HETATM   33  O4  UNL     1      21.581  16.083   8.815  1.00  0.00    -0.306 OA
ENDBRANCH  12  32
BRANCH  10  34
HETATM   34  O3  UNL     1      21.763  20.806   9.552  1.00  0.00    -0.396 OA
ATOM     35  H3  UNL     1      22.111  20.651  10.421  1.00  0.00     0.210 HD
ENDBRANCH  10  34
TORSDOF 11
ENDMDL
MODEL 2
REMARK VINA RESULT: -8.509122115      1.660      2.348
REMARK  11 active torsions:
REMARK  status: ('A' for Active; 'I' for Inactive)
REMARK    1  A    between atoms: C2_2  and  C4_4 
REMARK    2  A    between atoms: C5_5  and  C6_6 
REMARK    3  A    between atoms: C6_6  and  C7_7 
REMARK    4  A    between atoms: C6_6  and  C9_11 
REMARK    5  A    between atoms: C7_7  and  C8_9 
REMARK    6  A    between atoms: C9_11  and  C11_13 
REMARK    7  A    between atoms: C11_13  and  C12_14 
REMARK    8  A    between atoms: C12_14  and  O2_15 
REMARK    9  A    between atoms: C19_24  and  O3_25 
REMARK   10  A    between atoms: C21_28  and  C22_29 
REMARK   11  A    between atoms: C23_31  and  O5_32 
ROOT
HETATM    1  C4  UNL     1      17.608  16.680   6.776  1.00  0.00    -0.034 A 
HETATM    2  C5  UNL     1      16.501  17.086   5.913  1.00  0.00    -0.042 A 
HETATM    3  C13 UNL     1      16.980  18.160   5.232  1.00  0.00    -0.012 A 
HETATM    4  C14 UNL     1      18.289  18.531   5.563  1.00  0.00     0.027 A 
HETATM    5  C15 UNL     1      19.362  18.869   4.647  1.00  0.00     0.047 C 
HETATM    6  C16 UNL     1      20.403  19.568   5.497  1.00  0.00     0.177 C 
HETATM    7  F1  UNL     1      20.397  20.913   5.075  1.00  0.00    -0.249 F 
HETATM    8  C17 UNL     1      20.175  19.555   6.975  1.00  0.00     0.058 C 
HETATM    9  C18 UNL     1      21.552  19.757   7.556  1.00  0.00     0.042 C 
HETATM   10  C19 UNL     1      21.654  19.646   9.036  1.00  0.00     0.119 C 
HETATM   11  C20 UNL     1      20.459  18.997   9.677  1.00  0.00     0.046 C 
HETATM   12  C21 UNL     1      20.098  17.812   8.761  1.00  0.00     0.085 C 
HETATM   13  C23 UNL     1      19.423  18.375   7.579  1.00  0.00     0.086 C 
HETATM   14  C24 UNL     1      18.821  17.498   6.561  1.00  0.00     0.023 A 
HETATM   15  C25 UNL     1      19.798  16.628   5.807  1.00  0.00     0.024 C 
ENDROOT
BRANCH   2  16
HETATM   16  C6  UNL     1      15.049  16.687   5.839  1.00  0.00     0.093 C 
BRANCH  16  17
HETATM   17  C7  UNL     1      14.386  17.222   7.079  1.00  0.00     0.149 C 
HETATM   18  O1  UNL     1      14.475  18.354   7.491  1.00  0.00    -0.296 OA
BRANCH  17  19
HETATM   19  C8  UNL     1      13.527  16.301   7.917  1.00  0.00     0.193 C 
HETATM   20 CL1  UNL     1      14.335  14.777   8.252  1.00  0.00    -0.123 Cl
ENDBRANCH  17  19
ENDBRANCH  16  17
BRANCH  16  21
HETATM   21  C9  UNL     1      14.246  16.869   4.664  1.00  0.00    -0.001 C 
HETATM   22  C10 UNL     1      13.355  18.109   4.692  1.00  0.00     0.011 C 
BRANCH  21  23
HETATM   23  C11 UNL     1      13.307  15.691   4.466  1.00  0.00     0.031 C 
BRANCH  23  24
HETATM   24  C12 UNL     1      11.974  16.056   3.905  1.00  0.00     0.164 C 
BRANCH  24  25
HETATM   25  O2  UNL     1      11.789  15.782   2.566  1.00  0.00    -0.401 OA
ATOM     26  H2  UNL     1      11.180  16.349   2.107  1.00  0.00     0.209 HD
ENDBRANCH  24  25
ENDBRANCH  23  24
ENDBRANCH  21  23
ENDBRANCH  16  21
ENDBRANCH   2  16
BRANCH   1  27
HETATM   27  C2  UNL     1      17.924  15.242   6.953  1.00  0.00    -0.064 C 
HETATM   28  C1  UNL     1      17.439  14.228   6.248  1.00  0.00     0.019 C 
HETATM   29  C3  UNL     1      18.774  14.750   8.126  1.00  0.00     0.048 C 
ENDBRANCH   1  27
BRANCH  13  30
HETATM   30  O5  UNL     1      18.257  18.989   8.166  1.00  0.00    -0.387 OA
ATOM     31  H5  UNL     1      18.010  18.378   8.851  1.00  0.00     0.210 HD
ENDBRANCH  13  30
BRANCH  12  32
HETATM   32  C22 UNL     1      21.333  17.074   8.569  1.00  0.00     0.238 C 
HETATM   33  O4  UNL     1      21.618  16.246   9.451  1.00  0.00    -0.306 OA
ENDBRANCH  12  32
BRANCH  10  34
HETATM   34  O3  UNL     1      21.800  20.896   9.653  1.00  0.00    -0.396 OA
ATOM     35  H3  UNL     1      22.596  21.339   9.385  1.00  0.00     0.210 HD
ENDBRANCH  10  34
TORSDOF 11
ENDMDL
MODEL 3
REMARK VINA RESULT: -8.376863820      1.127      1.168
REMARK  11 active torsions:
REMARK  status: ('A' for Active; 'I' for Inactive)
REMARK    1  A    between atoms: C2_2  and  C4_4 
REMARK    2  A    between atoms: C5_5  and  C6_6 
REMARK    3  A    between atoms: C6_6  and  C7_7 
REMARK    4  A    between atoms: C6_6  and  C9_11 
REMARK    5  A    between atoms: C7_7  and  C8_9 
REMARK    6  A    between atoms: C9_11  and  C11_13 
REMARK    7  A    between atoms: C11_13  and  C12_14 
REMARK    8  A    between atoms: C12_14  and  O2_15 
REMARK    9  A    between atoms: C19_24  and  O3_25 
REMARK   10  A    between atoms: C21_28  and  C22_29 
REMARK   11  A    between atoms: C23_31  and  O5_32 
ROOT
HETATM    1  C4  UNL     1      17.093  16.798   6.849  1.00  0.00    -0.034 A 
HETATM    2  C5  UNL     1      15.843  17.274   6.262  1.00  0.00    -0.042 A 
HETATM    3  C13 UNL     1      16.180  18.436   5.646  1.00  0.00    -0.012 A 
HETATM    4  C14 UNL     1      17.524  18.803   5.775  1.00  0.00     0.027 A 
HETATM    5  C15 UNL     1      18.407  19.283   4.727  1.00  0.00     0.047 C 
HETATM    6  C16 UNL     1      19.582  19.903   5.453  1.00  0.00     0.177 C 
HETATM    7  F1  UNL     1      19.489  21.289   5.211  1.00  0.00    -0.249 F 
HETATM    8  C17 UNL     1      19.633  19.702   6.934  1.00  0.00     0.058 C 
HETATM    9  C18 UNL     1      21.093  19.873   7.274  1.00  0.00     0.042 C 
HETATM   10  C19 UNL     1      21.468  19.585   8.683  1.00  0.00     0.119 C 
HETATM   11  C20 UNL     1      20.417  18.827   9.446  1.00  0.00     0.046 C 
HETATM   12  C21 UNL     1      19.901  17.753   8.470  1.00  0.00     0.085 C 
HETATM   13  C23 UNL     1      19.014  18.436   7.512  1.00  0.00     0.086 C 
HETATM   14  C24 UNL     1      18.240  17.672   6.520  1.00  0.00     0.023 A 
HETATM   15  C25 UNL     1      19.065  16.930   5.496  1.00  0.00     0.024 C 
ENDROOT
BRANCH   2  16
HETATM   16  C6  UNL     1      14.405  16.842   6.406  1.00  0.00     0.093 C 
BRANCH  16  17
HETATM   17  C7  UNL     1      13.664  17.390   5.216  1.00  0.00     0.149 C 
HETATM   18  O1  UNL     1      13.746  16.975   4.085  1.00  0.00    -0.296 OA
BRANCH  17  19
HETATM   19  C8  UNL     1      12.727  18.563   5.403  1.00  0.00     0.193 C 
HETATM   20 CL1  UNL     1      12.709  19.130   7.066  1.00  0.00    -0.123 Cl
ENDBRANCH  17  19
ENDBRANCH  16  17
BRANCH  16  21
HETATM   21  C9  UNL     1      14.020  15.496   6.722  1.00  0.00    -0.001 C 
HETATM   22  C10 UNL     1      12.578  15.149   6.359  1.00  0.00     0.011 C 
BRANCH  21  23
HETATM   23  C11 UNL     1      14.144  15.238   8.214  1.00  0.00     0.031 C 
BRANCH  23  24
HETATM   24  C12 UNL     1      13.886  13.824   8.615  1.00  0.00     0.164 C 
BRANCH  24  25
HETATM   25  O2  UNL     1      14.941  13.165   9.211  1.00  0.00    -0.401 OA
ATOM     26  H2  UNL     1      14.730  12.339   9.631  1.00  0.00     0.209 HD
ENDBRANCH  24  25
ENDBRANCH  23  24
ENDBRANCH  21  23
ENDBRANCH  16  21
ENDBRANCH   2  16
BRANCH   1  27
HETATM   27  C2  UNL     1      17.447  15.359   6.783  1.00  0.00    -0.064 C 
HETATM   28  C1  UNL     1      17.001  14.470   5.905  1.00  0.00     0.019 C 
HETATM   29  C3  UNL     1      18.292  14.694   7.871  1.00  0.00     0.048 C 
ENDBRANCH   1  27
BRANCH  13  30
HETATM   30  O5  UNL     1      17.974  18.938   8.376  1.00  0.00    -0.387 OA
ATOM     31  H5  UNL     1      17.510  18.152   8.640  1.00  0.00     0.210 HD
ENDBRANCH  13  30
BRANCH  12  32
HETATM   32  C22 UNL     1      21.084  17.081   7.963  1.00  0.00     0.238 C 
HETATM   33  O4  UNL     1      21.431  16.054   8.571  1.00  0.00    -0.306 OA
ENDBRANCH  12  32
BRANCH  10  34
HETATM   34  O3  UNL     1      21.718  20.754   9.416  1.00  0.00    -0.396 OA
ATOM     35  H3  UNL     1      21.369  21.528   8.990  1.00  0.00     0.210 HD
ENDBRANCH  10  34
TORSDOF 11
ENDMDL
MODEL 4
REMARK VINA RESULT: -8.242244339      2.853      7.488
REMARK  11 active torsions:
REMARK  status: ('A' for Active; 'I' for Inactive)
REMARK    1  A    between atoms: C2_2  and  C4_4 
REMARK    2  A    between atoms: C5_5  and  C6_6 
REMARK    3  A    between atoms: C6_6  and  C7_7 
REMARK    4  A    between atoms: C6_6  and  C9_11 
REMARK    5  A    between atoms: C7_7  and  C8_9 
REMARK    6  A    between atoms: C9_11  and  C11_13 
REMARK    7  A    between atoms: C11_13  and  C12_14 
REMARK    8  A    between atoms: C12_14  and  O2_15 
REMARK    9  A    between atoms: C19_24  and  O3_25 
REMARK   10  A    between atoms: C21_28  and  C22_29 
REMARK   11  A    between atoms: C23_31  and  O5_32 
ROOT
HETATM    1  C4  UNL     1      16.633  17.919   5.947  1.00  0.00    -0.034 A 
HETATM    2  C5  UNL     1      18.028  17.830   6.372  1.00  0.00    -0.042 A 
HETATM    3  C13 UNL     1      18.181  16.539   6.765  1.00  0.00    -0.012 A 
HETATM    4  C14 UNL     1      17.026  15.754   6.668  1.00  0.00     0.027 A 
HETATM    5  C15 UNL     1      16.922  14.413   6.122  1.00  0.00     0.047 C 
HETATM    6  C16 UNL     1      15.590  13.887   6.616  1.00  0.00     0.177 C 
HETATM    7  F1  UNL     1      15.903  12.865   7.536  1.00  0.00    -0.249 F 
HETATM    8  C17 UNL     1      14.702  14.869   7.312  1.00  0.00     0.058 C 
HETATM    9  C18 UNL     1      13.320  14.285   7.153  1.00  0.00     0.042 C 
HETATM   10  C19 UNL     1      12.199  15.134   7.636  1.00  0.00     0.119 C 
HETATM   11  C20 UNL     1      12.582  16.569   7.865  1.00  0.00     0.046 C 
HETATM   12  C21 UNL     1      13.478  16.947   6.670  1.00  0.00     0.085 C 
HETATM   13  C23 UNL     1      14.796  16.336   6.913  1.00  0.00     0.086 C 
HETATM   14  C24 UNL     1      15.936  16.617   6.025  1.00  0.00     0.023 A 
HETATM   15  C25 UNL     1      15.777  16.129   4.605  1.00  0.00     0.024 C 
ENDROOT
BRANCH   2  16
HETATM   16  C6  UNL     1      19.101  18.862   6.612  1.00  0.00     0.093 C 
BRANCH  16  17
HETATM   17  C7  UNL     1      19.324  18.923   8.099  1.00  0.00     0.149 C 
HETATM   18  O1  UNL     1      18.516  19.295   8.916  1.00  0.00    -0.296 OA
BRANCH  17  19
HETATM   19  C8  UNL     1      20.659  18.495   8.667  1.00  0.00     0.193 C 
HETATM   20 CL1  UNL     1      20.558  16.940   9.479  1.00  0.00    -0.123 Cl
ENDBRANCH  17  19
ENDBRANCH  16  17
BRANCH  16  21
HETATM   21  C9  UNL     1      20.329  18.901   5.870  1.00  0.00    -0.001 C 
HETATM   22  C10 UNL     1      20.571  20.205   5.112  1.00  0.00     0.011 C 
BRANCH  21  23
HETATM   23  C11 UNL     1      20.358  17.802   4.821  1.00  0.00     0.031 C 
BRANCH  23  24
HETATM   24  C12 UNL     1      21.569  16.933   4.876  1.00  0.00     0.164 C 
BRANCH  24  25
HETATM   25  O2  UNL     1      22.712  17.455   4.308  1.00  0.00    -0.401 OA
ATOM     26  H2  UNL     1      22.933  17.127   3.444  1.00  0.00     0.209 HD
ENDBRANCH  24  25
ENDBRANCH  23  24
ENDBRANCH  21  23
ENDBRANCH  16  21
ENDBRANCH   2  16
BRANCH   1  27
HETATM   27  C2  UNL     1      16.275  18.675   4.723  1.00  0.00    -0.064 C 
HETATM   28  C1  UNL     1      17.071  18.957   3.700  1.00  0.00     0.019 C 
HETATM   29  C3  UNL     1      14.918  19.368   4.581  1.00  0.00     0.048 C 
ENDBRANCH   1  27
BRANCH  13  30
HETATM   30  O5  UNL     1      15.206  16.988   8.133  1.00  0.00    -0.387 OA
ATOM     31  H5  UNL     1      14.499  17.601   8.302  1.00  0.00     0.210 HD
ENDBRANCH  13  30
BRANCH  12  32
HETATM   32  C22 UNL     1      12.738  16.554   5.484  1.00  0.00     0.238 C 
HETATM   33  O4  UNL     1      12.022  17.430   4.971  1.00  0.00    -0.306 OA
ENDBRANCH  12  32
BRANCH  10  34
HETATM   34  O3  UNL     1      11.666  14.672   8.848  1.00  0.00    -0.396 OA
ATOM     35  H3  UNL     1      10.755  14.918   8.957  1.00  0.00     0.210 HD
ENDBRANCH  10  34
TORSDOF 11
ENDMDL
MODEL 5
REMARK VINA RESULT: -8.131818619      2.835      7.648
REMARK  11 active torsions:
REMARK  status: ('A' for Active; 'I' for Inactive)
REMARK    1  A    between atoms: C2_2  and  C4_4 
REMARK    2  A    between atoms: C5_5  and  C6_6 
REMARK    3  A    between atoms: C6_6  and  C7_7 
REMARK    4  A    between atoms: C6_6  and  C9_11 
REMARK    5  A    between atoms: C7_7  and  C8_9 
REMARK    6  A    between atoms: C9_11  and  C11_13 
REMARK    7  A    between atoms: C11_13  and  C12_14 
REMARK    8  A    between atoms: C12_14  and  O2_15 
REMARK    9  A    between atoms: C19_24  and  O3_25 
REMARK   10  A    between atoms: C21_28  and  C22_29 
REMARK   11  A    between atoms: C23_31  and  O5_32 
ROOT
HETATM    1  C4  UNL     1      16.106  17.962   5.978  1.00  0.00    -0.034 A 
HETATM    2  C5  UNL     1      17.512  18.000   6.374  1.00  0.00    -0.042 A 
HETATM    3  C13 UNL     1      17.804  16.717   6.711  1.00  0.00    -0.012 A 
HETATM    4  C14 UNL     1      16.733  15.822   6.602  1.00  0.00     0.027 A 
HETATM    5  C15 UNL     1      16.754  14.500   6.005  1.00  0.00     0.047 C 
HETATM    6  C16 UNL     1      15.494  13.822   6.501  1.00  0.00     0.177 C 
HETATM    7  F1  UNL     1      15.930  12.802   7.372  1.00  0.00    -0.249 F 
HETATM    8  C17 UNL     1      14.526  14.680   7.253  1.00  0.00     0.058 C 
HETATM    9  C18 UNL     1      13.208  13.964   7.096  1.00  0.00     0.042 C 
HETATM   10  C19 UNL     1      12.017  14.673   7.634  1.00  0.00     0.119 C 
HETATM   11  C20 UNL     1      12.258  16.131   7.914  1.00  0.00     0.046 C 
HETATM   12  C21 UNL     1      13.083  16.645   6.719  1.00  0.00     0.085 C 
HETATM   13  C23 UNL     1      14.462  16.163   6.913  1.00  0.00     0.086 C 
HETATM   14  C24 UNL     1      15.547  16.593   6.016  1.00  0.00     0.023 A 
HETATM   15  C25 UNL     1      15.406  16.148   4.580  1.00  0.00     0.024 C 
ENDROOT
BRANCH   2  16
HETATM   16  C6  UNL     1      18.480  19.127   6.636  1.00  0.00     0.093 C 
BRANCH  16  17
HETATM   17  C7  UNL     1      19.295  18.731   7.838  1.00  0.00     0.149 C 
HETATM   18  O1  UNL     1      19.226  19.239   8.931  1.00  0.00    -0.296 OA
BRANCH  17  19
HETATM   19  C8  UNL     1      20.303  17.610   7.714  1.00  0.00     0.193 C 
HETATM   20 CL1  UNL     1      20.544  16.775   9.241  1.00  0.00    -0.123 Cl
ENDBRANCH  17  19
ENDBRANCH  16  17
BRANCH  16  21
HETATM   21  C9  UNL     1      19.277  19.729   5.605  1.00  0.00    -0.001 C 
HETATM   22  C10 UNL     1      20.265  18.778   4.932  1.00  0.00     0.011 C 
BRANCH  21  23
HETATM   23  C11 UNL     1      20.116  20.863   6.169  1.00  0.00     0.031 C 
BRANCH  23  24
HETATM   24  C12 UNL     1      21.566  20.782   5.828  1.00  0.00     0.164 C 
BRANCH  24  25
HETATM   25  O2  UNL     1      22.422  21.460   6.670  1.00  0.00    -0.401 OA
ATOM     26  H2  UNL     1      23.336  21.475   6.409  1.00  0.00     0.209 HD
ENDBRANCH  24  25
ENDBRANCH  23  24
ENDBRANCH  21  23
ENDBRANCH  16  21
ENDBRANCH   2  16
BRANCH   1  27
HETATM   27  C2  UNL     1      15.645  18.724   4.793  1.00  0.00    -0.064 C 
HETATM   28  C1  UNL     1      16.368  19.059   3.732  1.00  0.00     0.019 C 
HETATM   29  C3  UNL     1      14.255  19.361   4.745  1.00  0.00     0.048 C 
ENDBRANCH   1  27
BRANCH  13  30
HETATM   30  O5  UNL     1      14.830  16.805   8.151  1.00  0.00    -0.387 OA
ATOM     31  H5  UNL     1      14.248  16.406   8.787  1.00  0.00     0.210 HD
ENDBRANCH  13  30
BRANCH  12  32
HETATM   32  C22 UNL     1      12.361  16.224   5.532  1.00  0.00     0.238 C 
HETATM   33  O4  UNL     1      11.585  17.060   5.039  1.00  0.00    -0.306 OA
ENDBRANCH  12  32
BRANCH  10  34
HETATM   34  O3  UNL     1      11.561  14.112   8.835  1.00  0.00    -0.396 OA
ATOM     35  H3  UNL     1      12.009  13.302   9.046  1.00  0.00     0.210 HD
ENDBRANCH  10  34
TORSDOF 11
ENDMDL
