MODEL 1
REMARK VINA RESULT: -9.500739761      0.000      0.000
REMARK  9 active torsions:
REMARK  status: ('A' for Active; 'I' for Inactive)
REMARK    1  A    between atoms: C2_2  and  C4_4 
REMARK    2  A    between atoms: C4_4  and  C5_5 
REMARK    3  A    between atoms: C4_4  and  C23_30 
REMARK       I    between atoms: C5_5  and  N1_7 
REMARK    4  A    between atoms: N1_7  and  C6_9 
REMARK    5  A    between atoms: C6_9  and  C7_10 
REMARK    6  A    between atoms: C9_12  and  C10_13 
REMARK    7  A    between atoms: C10_13  and  C11_14 
REMARK    8  A    between atoms: C11_14  and  C12_15 
REMARK    9  A    between atoms: C12_15  and  O2_18 
ROOT
HETATM    1  C7  UNL     1      16.873  15.895   5.892  1.00  0.00    -0.004 C 
HETATM    2  C8  UNL     1      17.897  15.960   6.739  1.00  0.00    -0.072 C 
HETATM    3  C9  UNL     1      18.856  14.842   7.111  1.00  0.00     0.023 C 
HETATM    4  C15 UNL     1      19.851  15.928   7.441  1.00  0.00    -0.029 C 
HETATM    5  C16 UNL     1      20.637  15.709   8.713  1.00  0.00     0.016 C 
HETATM    6  C17 UNL     1      20.679  16.276   6.270  1.00  0.00     0.016 C 
HETATM    7  C18 UNL     1      20.204  17.388   5.416  1.00  0.00     0.080 C 
HETATM    8  C19 UNL     1      19.678  18.555   6.177  1.00  0.00     0.247 C 
HETATM    9  F1  UNL     1      18.920  19.340   5.295  1.00  0.00    -0.206 F 
HETATM   10  F2  UNL     1      20.775  19.372   6.487  1.00  0.00    -0.206 F 
HETATM   11  C20 UNL     1      18.876  18.235   7.390  1.00  0.00     0.063 C 
HETATM   12  C21 UNL     1      19.675  18.763   8.601  1.00  0.00     0.017 C 
HETATM   13  C22 UNL     1      18.648  16.802   7.652  1.00  0.00     0.033 C 
ENDROOT
BRANCH   1  14
HETATM   14  C6  UNL     1      15.964  17.025   5.564  1.00  0.00     0.150 C 
BRANCH  14  15
HETATM   15  N1  UNL     1      14.568  16.657   5.793  1.00  0.00    -0.357 N 
HETATM   16  C5  UNL     1      13.807  17.353   6.757  1.00  0.00     0.230 C 
HETATM   17  O1  UNL     1      14.360  18.290   7.403  1.00  0.00    -0.273 OA
ATOM     18  H1  UNL     1      14.145  15.899   5.258  1.00  0.00     0.162 HD
BRANCH  16  19
HETATM   19  C4  UNL     1      12.400  17.042   7.048  1.00  0.00     0.158 C 
BRANCH  19  20
HETATM   20  C2  UNL     1      11.476  17.176   5.877  1.00  0.00    -0.002 C 
HETATM   21  C1  UNL     1      10.056  17.041   6.434  1.00  0.00     0.011 C 
HETATM   22  C3  UNL     1      11.618  18.527   5.194  1.00  0.00     0.011 C 
ENDBRANCH  19  20
BRANCH  19  23
HETATM   23  C23 UNL     1      12.288  15.617   7.526  1.00  0.00     0.157 A 
HETATM   24  N2  UNL     1      11.902  15.218   8.748  1.00  0.00    -0.278 N 
HETATM   25  N3  UNL     1      11.927  13.897   8.800  1.00  0.00    -0.243 N 
ATOM     26  H2  UNL     1      11.631  15.835   9.515  1.00  0.00     0.189 HD
HETATM   27  C24 UNL     1      12.338  13.519   7.578  1.00  0.00     0.385 A 
ATOM     28  H3  UNL     1      11.687  13.298   9.591  1.00  0.00     0.192 HD
HETATM   29  O3  UNL     1      12.481  12.306   7.261  1.00  0.00    -0.236 OA
HETATM   30  O4  UNL     1      12.551  14.568   6.826  1.00  0.00    -0.245 OA
ENDBRANCH  19  23
ENDBRANCH  16  19
ENDBRANCH  14  15
ENDBRANCH   1  14
BRANCH   3  31
HETATM   31  C10 UNL     1      18.418  14.091   8.348  1.00  0.00     0.013 C 
BRANCH  31  32
HETATM   32  C11 UNL     1      17.192  13.235   8.077  1.00  0.00     0.038 C 
BRANCH  32  33
HETATM   33  C12 UNL     1      17.183  12.164   9.174  1.00  0.00     0.051 C 
HETATM   34  C13 UNL     1      18.556  12.148   9.846  1.00  0.00     0.045 C 
HETATM   35  C14 UNL     1      16.940  10.795   8.617  1.00  0.00     0.045 C 
BRANCH  33  36
HETATM   36  O2  UNL     1      16.194  12.443  10.115  1.00  0.00    -0.391 OA
ATOM     37  H2  UNL     1      15.548  11.747  10.132  1.00  0.00     0.210 HD
ENDBRANCH  33  36
ENDBRANCH  32  33
ENDBRANCH  31  32
ENDBRANCH   3  31
TORSDOF 9
ENDMDL
MODEL 2
REMARK VINA RESULT: -9.445479763      3.885      7.954
REMARK  9 active torsions:
REMARK  status: ('A' for Active; 'I' for Inactive)
REMARK    1  A    between atoms: C2_2  and  C4_4 
REMARK    2  A    between atoms: C4_4  and  C5_5 
REMARK    3  A    between atoms: C4_4  and  C23_30 
REMARK       I    between atoms: C5_5  and  N1_7 
REMARK    4  A    between atoms: N1_7  and  C6_9 
REMARK    5  A    between atoms: C6_9  and  C7_10 
REMARK    6  A    between atoms: C9_12  and  C10_13 
REMARK    7  A    between atoms: C10_13  and  C11_14 
REMARK    8  A    between atoms: C11_14  and  C12_15 
REMARK    9  A    between atoms: C12_15  and  O2_18 
ROOT
HETATM    1  C7  UNL     1      16.346  14.942   5.532  1.00  0.00    -0.004 C 
HETATM    2  C8  UNL     1      15.315  15.743   5.787  1.00  0.00    -0.072 C 
HETATM    3  C9  UNL     1      14.797  16.880   4.922  1.00  0.00     0.023 C 
HETATM    4  C15 UNL     1      13.461  16.658   5.589  1.00  0.00    -0.029 C 
HETATM    5  C16 UNL     1      12.727  17.918   5.984  1.00  0.00     0.016 C 
HETATM    6  C17 UNL     1      12.639  15.687   4.842  1.00  0.00     0.016 C 
HETATM    7  C18 UNL     1      12.738  14.266   5.249  1.00  0.00     0.080 C 
HETATM    8  C19 UNL     1      12.764  14.058   6.723  1.00  0.00     0.247 C 
HETATM    9  F1  UNL     1      13.247  12.763   6.968  1.00  0.00    -0.206 F 
HETATM   10  F2  UNL     1      11.431  14.002   7.154  1.00  0.00    -0.206 F 
HETATM   11  C20 UNL     1      13.551  15.050   7.508  1.00  0.00     0.063 C 
HETATM   12  C21 UNL     1      12.541  15.814   8.392  1.00  0.00     0.017 C 
HETATM   13  C22 UNL     1      14.258  16.078   6.723  1.00  0.00     0.033 C 
ENDROOT
BRANCH   1  14
HETATM   14  C6  UNL     1      16.810  13.842   6.417  1.00  0.00     0.150 C 
BRANCH  14  15
HETATM   15  N1  UNL     1      17.484  14.372   7.601  1.00  0.00    -0.357 N 
HETATM   16  C5  UNL     1      18.820  14.821   7.508  1.00  0.00     0.230 C 
HETATM   17  O1  UNL     1      19.403  14.754   6.387  1.00  0.00    -0.273 OA
ATOM     18  H1  UNL     1      16.992  14.416   8.493  1.00  0.00     0.162 HD
BRANCH  16  19
HETATM   19  C4  UNL     1      19.567  15.363   8.651  1.00  0.00     0.158 C 
BRANCH  19  20
HETATM   20  C2  UNL     1      20.674  14.484   9.147  1.00  0.00    -0.002 C 
HETATM   21  C1  UNL     1      21.228  15.160  10.405  1.00  0.00     0.011 C 
HETATM   22  C3  UNL     1      20.175  13.094   9.507  1.00  0.00     0.011 C 
ENDBRANCH  19  20
BRANCH  19  23
HETATM   23  C23 UNL     1      20.199  16.676   8.263  1.00  0.00     0.157 A 
HETATM   24  N2  UNL     1      21.031  16.881   7.229  1.00  0.00    -0.278 N 
HETATM   25  N3  UNL     1      21.381  18.156   7.202  1.00  0.00    -0.243 N 
ATOM     26  H2  UNL     1      21.342  16.168   6.568  1.00  0.00     0.189 HD
HETATM   27  C24 UNL     1      20.739  18.705   8.247  1.00  0.00     0.385 A 
ATOM     28  H3  UNL     1      22.001  18.619   6.537  1.00  0.00     0.192 HD
HETATM   29  O3  UNL     1      20.843  19.929   8.533  1.00  0.00    -0.236 OA
HETATM   30  O4  UNL     1      20.033  17.798   8.874  1.00  0.00    -0.245 OA
ENDBRANCH  19  23
ENDBRANCH  16  19
ENDBRANCH  14  15
ENDBRANCH   1  14
BRANCH   3  31
HETATM   31  C10 UNL     1      15.396  18.216   5.300  1.00  0.00     0.013 C 
BRANCH  31  32
HETATM   32  C11 UNL     1      16.655  18.509   4.502  1.00  0.00     0.038 C 
BRANCH  32  33
HETATM   33  C12 UNL     1      17.785  18.611   5.533  1.00  0.00     0.051 C 
HETATM   34  C13 UNL     1      17.166  18.610   6.931  1.00  0.00     0.045 C 
HETATM   35  C14 UNL     1      18.561  19.884   5.388  1.00  0.00     0.045 C 
BRANCH  33  36
HETATM   36  O2  UNL     1      18.663  17.538   5.398  1.00  0.00    -0.391 OA
ATOM     37  H2  UNL     1      18.597  16.961   6.150  1.00  0.00     0.210 HD
ENDBRANCH  33  36
ENDBRANCH  32  33
ENDBRANCH  31  32
ENDBRANCH   3  31
TORSDOF 9
ENDMDL
MODEL 3
REMARK VINA RESULT: -9.410455213      1.962      2.420
REMARK  9 active torsions:
REMARK  status: ('A' for Active; 'I' for Inactive)
REMARK    1  A    between atoms: C2_2  and  C4_4 
REMARK    2  A    between atoms: C4_4  and  C5_5 
REMARK    3  A    between atoms: C4_4  and  C23_30 
REMARK       I    between atoms: C5_5  and  N1_7 
REMARK    4  A    between atoms: N1_7  and  C6_9 
REMARK    5  A    between atoms: C6_9  and  C7_10 
REMARK    6  A    between atoms: C9_12  and  C10_13 
REMARK    7  A    between atoms: C10_13  and  C11_14 
REMARK    8  A    between atoms: C11_14  and  C12_15 
REMARK    9  A    between atoms: C12_15  and  O2_18 
ROOT
HETATM    1  C7  UNL     1      17.639  17.718   5.227  1.00  0.00    -0.004 C 
HETATM    2  C8  UNL     1      18.397  17.362   6.261  1.00  0.00    -0.072 C 
HETATM    3  C9  UNL     1      19.001  15.994   6.531  1.00  0.00     0.023 C 
HETATM    4  C15 UNL     1      20.057  16.719   7.331  1.00  0.00    -0.029 C 
HETATM    5  C16 UNL     1      20.425  16.065   8.643  1.00  0.00     0.016 C 
HETATM    6  C17 UNL     1      21.214  17.085   6.491  1.00  0.00     0.016 C 
HETATM    7  C18 UNL     1      21.194  18.428   5.868  1.00  0.00     0.080 C 
HETATM    8  C19 UNL     1      20.711  19.509   6.770  1.00  0.00     0.247 C 
HETATM    9  F1  UNL     1      20.370  20.615   5.976  1.00  0.00    -0.206 F 
HETATM   10  F2  UNL     1      21.819  19.958   7.505  1.00  0.00    -0.206 F 
HETATM   11  C20 UNL     1      19.573  19.154   7.662  1.00  0.00     0.063 C 
HETATM   12  C21 UNL     1      20.108  19.218   9.109  1.00  0.00     0.017 C 
HETATM   13  C22 UNL     1      19.023  17.796   7.496  1.00  0.00     0.033 C 
ENDROOT
BRANCH   1  14
HETATM   14  C6  UNL     1      17.074  19.075   5.011  1.00  0.00     0.150 C 
BRANCH  14  15
HETATM   15  N1  UNL     1      15.821  19.243   5.745  1.00  0.00    -0.357 N 
HETATM   16  C5  UNL     1      14.627  18.687   5.235  1.00  0.00     0.230 C 
HETATM   17  O1  UNL     1      14.676  18.049   4.144  1.00  0.00    -0.273 OA
ATOM     18  H1  UNL     1      15.808  19.761   6.623  1.00  0.00     0.162 HD
BRANCH  16  19
HETATM   19  C4  UNL     1      13.328  18.815   5.910  1.00  0.00     0.158 C 
BRANCH  19  20
HETATM   20  C2  UNL     1      12.186  19.161   5.005  1.00  0.00    -0.002 C 
HETATM   21  C1  UNL     1      11.010  19.521   5.917  1.00  0.00     0.011 C 
HETATM   22  C3  UNL     1      12.508  20.350   4.115  1.00  0.00     0.011 C 
ENDBRANCH  19  20
BRANCH  19  23
HETATM   23  C23 UNL     1      12.974  17.507   6.571  1.00  0.00     0.157 A 
HETATM   24  N2  UNL     1      13.285  17.142   7.826  1.00  0.00    -0.278 N 
HETATM   25  N3  UNL     1      12.809  15.929   8.053  1.00  0.00    -0.243 N 
ATOM     26  H2  UNL     1      13.804  17.710   8.496  1.00  0.00     0.189 HD
HETATM   27  C24 UNL     1      12.209  15.580   6.903  1.00  0.00     0.385 A 
ATOM     28  H3  UNL     1      12.883  15.381   8.911  1.00  0.00     0.192 HD
HETATM   29  O3  UNL     1      11.636  14.466   6.755  1.00  0.00    -0.236 OA
HETATM   30  O4  UNL     1      12.319  16.542   6.023  1.00  0.00    -0.245 OA
ENDBRANCH  19  23
ENDBRANCH  16  19
ENDBRANCH  14  15
ENDBRANCH   1  14
BRANCH   3  31
HETATM   31  C10 UNL     1      18.122  15.137   7.414  1.00  0.00     0.013 C 
BRANCH  31  32
HETATM   32  C11 UNL     1      17.427  14.045   6.618  1.00  0.00     0.038 C 
BRANCH  32  33
HETATM   33  C12 UNL     1      15.939  14.412   6.623  1.00  0.00     0.051 C 
HETATM   34  C13 UNL     1      15.146  13.207   7.130  1.00  0.00     0.045 C 
HETATM   35  C14 UNL     1      15.437  14.731   5.248  1.00  0.00     0.045 C 
BRANCH  33  36
HETATM   36  O2  UNL     1      15.713  15.513   7.446  1.00  0.00    -0.391 OA
ATOM     37  H2  UNL     1      15.854  15.280   8.356  1.00  0.00     0.210 HD
ENDBRANCH  33  36
ENDBRANCH  32  33
ENDBRANCH  31  32
ENDBRANCH   3  31
TORSDOF 9
ENDMDL
MODEL 4
REMARK VINA RESULT: -9.405037617      2.787      4.306
REMARK  9 active torsions:
REMARK  status: ('A' for Active; 'I' for Inactive)
REMARK    1  A    between atoms: C2_2  and  C4_4 
REMARK    2  A    between atoms: C4_4  and  C5_5 
REMARK    3  A    between atoms: C4_4  and  C23_30 
REMARK       I    between atoms: C5_5  and  N1_7 
REMARK    4  A    between atoms: N1_7  and  C6_9 
REMARK    5  A    between atoms: C6_9  and  C7_10 
REMARK    6  A    between atoms: C9_12  and  C10_13 
REMARK    7  A    between atoms: C10_13  and  C11_14 
REMARK    8  A    between atoms: C11_14  and  C12_15 
REMARK    9  A    between atoms: C12_15  and  O2_18 
ROOT
HETATM    1  C7  UNL     1      17.366  17.860   5.386  1.00  0.00    -0.004 C 
HETATM    2  C8  UNL     1      18.192  17.436   6.340  1.00  0.00    -0.072 C 
HETATM    3  C9  UNL     1      18.807  16.053   6.478  1.00  0.00     0.023 C 
HETATM    4  C15 UNL     1      19.918  16.724   7.249  1.00  0.00    -0.029 C 
HETATM    5  C16 UNL     1      20.372  15.985   8.486  1.00  0.00     0.016 C 
HETATM    6  C17 UNL     1      21.016  17.145   6.358  1.00  0.00     0.016 C 
HETATM    7  C18 UNL     1      20.960  18.526   5.827  1.00  0.00     0.080 C 
HETATM    8  C19 UNL     1      20.545  19.545   6.829  1.00  0.00     0.247 C 
HETATM    9  F1  UNL     1      20.155  20.701   6.135  1.00  0.00    -0.206 F 
HETATM   10  F2  UNL     1      21.702  19.944   7.514  1.00  0.00    -0.206 F 
HETATM   11  C20 UNL     1      19.468  19.132   7.772  1.00  0.00     0.063 C 
HETATM   12  C21 UNL     1      20.101  19.100   9.180  1.00  0.00     0.017 C 
HETATM   13  C22 UNL     1      18.902  17.788   7.555  1.00  0.00     0.033 C 
ENDROOT
BRANCH   1  14
HETATM   14  C6  UNL     1      16.793  19.228   5.300  1.00  0.00     0.150 C 
BRANCH  14  15
HETATM   15  N1  UNL     1      15.342  19.200   5.469  1.00  0.00    -0.357 N 
HETATM   16  C5  UNL     1      14.505  19.699   4.446  1.00  0.00     0.230 C 
HETATM   17  O1  UNL     1      15.042  20.160   3.398  1.00  0.00    -0.273 OA
ATOM     18  H1  UNL     1      14.934  18.822   6.323  1.00  0.00     0.162 HD
BRANCH  16  19
HETATM   19  C4  UNL     1      13.039  19.709   4.541  1.00  0.00     0.158 C 
BRANCH  19  20
HETATM   20  C2  UNL     1      12.447  18.499   5.194  1.00  0.00    -0.002 C 
HETATM   21  C1  UNL     1      10.928  18.635   5.053  1.00  0.00     0.011 C 
HETATM   22  C3  UNL     1      12.896  17.213   4.519  1.00  0.00     0.011 C 
ENDBRANCH  19  20
BRANCH  19  23
HETATM   23  C23 UNL     1      12.595  20.899   5.354  1.00  0.00     0.157 A 
HETATM   24  N2  UNL     1      12.929  21.159   6.628  1.00  0.00    -0.278 N 
HETATM   25  N3  UNL     1      12.352  22.288   7.005  1.00  0.00    -0.243 N 
ATOM     26  H2  UNL     1      13.531  20.579   7.212  1.00  0.00     0.189 HD
HETATM   27  C24 UNL     1      11.666  22.694   5.923  1.00  0.00     0.385 A 
ATOM     28  H3  UNL     1      12.415  22.747   7.914  1.00  0.00     0.192 HD
HETATM   29  O3  UNL     1      10.983  23.754   5.919  1.00  0.00    -0.236 OA
HETATM   30  O4  UNL     1      11.824  21.845   4.940  1.00  0.00    -0.245 OA
ENDBRANCH  19  23
ENDBRANCH  16  19
ENDBRANCH  14  15
ENDBRANCH   1  14
BRANCH   3  31
HETATM   31  C10 UNL     1      17.986  15.140   7.360  1.00  0.00     0.013 C 
BRANCH  31  32
HETATM   32  C11 UNL     1      17.470  13.936   6.590  1.00  0.00     0.038 C 
BRANCH  32  33
HETATM   33  C12 UNL     1      15.956  14.140   6.467  1.00  0.00     0.051 C 
HETATM   34  C13 UNL     1      15.648  14.637   5.055  1.00  0.00     0.045 C 
HETATM   35  C14 UNL     1      15.451  15.174   7.426  1.00  0.00     0.045 C 
BRANCH  33  36
HETATM   36  O2  UNL     1      15.284  12.944   6.710  1.00  0.00    -0.391 OA
ATOM     37  H2  UNL     1      14.345  13.089   6.727  1.00  0.00     0.210 HD
ENDBRANCH  33  36
ENDBRANCH  32  33
ENDBRANCH  31  32
ENDBRANCH   3  31
TORSDOF 9
ENDMDL
MODEL 5
REMARK VINA RESULT: -9.165764599      2.456      3.892
REMARK  9 active torsions:
REMARK  status: ('A' for Active; 'I' for Inactive)
REMARK    1  A    between atoms: C2_2  and  C4_4 
REMARK    2  A    between atoms: C4_4  and  C5_5 
REMARK    3  A    between atoms: C4_4  and  C23_30 
REMARK       I    between atoms: C5_5  and  N1_7 
REMARK    4  A    between atoms: N1_7  and  C6_9 
REMARK    5  A    between atoms: C6_9  and  C7_10 
REMARK    6  A    between atoms: C9_12  and  C10_13 
REMARK    7  A    between atoms: C10_13  and  C11_14 
REMARK    8  A    between atoms: C11_14  and  C12_15 
REMARK    9  A    between atoms: C12_15  and  O2_18 
ROOT
HETATM    1  C7  UNL     1      17.102  17.629   5.155  1.00  0.00    -0.004 C 
HETATM    2  C8  UNL     1      17.866  17.196   6.155  1.00  0.00    -0.072 C 
HETATM    3  C9  UNL     1      18.314  15.769   6.419  1.00  0.00     0.023 C 
HETATM    4  C15 UNL     1      19.490  16.370   7.150  1.00  0.00    -0.029 C 
HETATM    5  C16 UNL     1      19.847  15.692   8.453  1.00  0.00     0.016 C 
HETATM    6  C17 UNL     1      20.637  16.583   6.245  1.00  0.00     0.016 C 
HETATM    7  C18 UNL     1      20.746  17.911   5.599  1.00  0.00     0.080 C 
HETATM    8  C19 UNL     1      20.445  19.054   6.505  1.00  0.00     0.247 C 
HETATM    9  F1  UNL     1      20.198  20.183   5.710  1.00  0.00    -0.206 F 
HETATM   10  F2  UNL     1      21.636  19.374   7.174  1.00  0.00    -0.206 F 
HETATM   11  C20 UNL     1      19.321  18.849   7.461  1.00  0.00     0.063 C 
HETATM   12  C21 UNL     1      19.936  18.866   8.877  1.00  0.00     0.017 C 
HETATM   13  C22 UNL     1      18.604  17.566   7.348  1.00  0.00     0.033 C 
ENDROOT
BRANCH   1  14
HETATM   14  C6  UNL     1      16.693  19.042   4.944  1.00  0.00     0.150 C 
BRANCH  14  15
HETATM   15  N1  UNL     1      15.381  19.302   5.535  1.00  0.00    -0.357 N 
HETATM   16  C5  UNL     1      14.238  18.654   5.019  1.00  0.00     0.230 C 
HETATM   17  O1  UNL     1      14.382  17.855   4.049  1.00  0.00    -0.273 OA
ATOM     18  H1  UNL     1      15.292  19.949   6.317  1.00  0.00     0.162 HD
BRANCH  16  19
HETATM   19  C4  UNL     1      12.885  18.864   5.553  1.00  0.00     0.158 C 
BRANCH  19  20
HETATM   20  C2  UNL     1      12.573  18.075   6.788  1.00  0.00    -0.002 C 
HETATM   21  C1  UNL     1      11.303  17.277   6.478  1.00  0.00     0.011 C 
HETATM   22  C3  UNL     1      13.693  17.111   7.143  1.00  0.00     0.011 C 
ENDBRANCH  19  20
BRANCH  19  23
HETATM   23  C23 UNL     1      12.705  20.317   5.912  1.00  0.00     0.157 A 
HETATM   24  N2  UNL     1      12.260  20.796   7.084  1.00  0.00    -0.278 N 
HETATM   25  N3  UNL     1      12.234  22.117   7.030  1.00  0.00    -0.243 N 
ATOM     26  H2  UNL     1      11.985  20.232   7.889  1.00  0.00     0.189 HD
HETATM   27  C24 UNL     1      12.675  22.413   5.795  1.00  0.00     0.385 A 
ATOM     28  H3  UNL     1      11.945  22.766   7.762  1.00  0.00     0.192 HD
HETATM   29  O3  UNL     1      12.783  23.602   5.387  1.00  0.00    -0.236 OA
HETATM   30  O4  UNL     1      12.952  21.317   5.137  1.00  0.00    -0.245 OA
ENDBRANCH  19  23
ENDBRANCH  16  19
ENDBRANCH  14  15
ENDBRANCH   1  14
BRANCH   3  31
HETATM   31  C10 UNL     1      17.386  15.035   7.361  1.00  0.00     0.013 C 
BRANCH  31  32
HETATM   32  C11 UNL     1      16.439  14.116   6.609  1.00  0.00     0.038 C 
BRANCH  32  33
HETATM   33  C12 UNL     1      15.924  13.112   7.646  1.00  0.00     0.051 C 
HETATM   34  C13 UNL     1      14.848  13.795   8.489  1.00  0.00     0.045 C 
HETATM   35  C14 UNL     1      17.008  12.665   8.578  1.00  0.00     0.045 C 
BRANCH  33  36
HETATM   36  O2  UNL     1      15.394  11.990   7.012  1.00  0.00    -0.391 OA
ATOM     37  H2  UNL     1      14.791  11.537   7.591  1.00  0.00     0.210 HD
ENDBRANCH  33  36
ENDBRANCH  32  33
ENDBRANCH  31  32
ENDBRANCH   3  31
TORSDOF 9
ENDMDL
