MODEL 1
REMARK VINA RESULT: -7.691523741      0.000      0.000
REMARK  15 active torsions:
REMARK  status: ('A' for Active; 'I' for Inactive)
REMARK    1  A    between atoms: C2_2  and  C3_3 
REMARK    2  A    between atoms: C3_3  and  C4_4 
REMARK    3  A    between atoms: C8_10  and  C9_11 
REMARK       I    between atoms: C9_11  and  N1_13 
REMARK    4  A    between atoms: N1_13  and  C10_15 
REMARK    5  A    between atoms: C10_15  and  C11_16 
REMARK    6  A    between atoms: C11_16  and  N2_17 
REMARK    7  A    between atoms: N3_20  and  C14_21 
REMARK    8  A    between atoms: C14_21  and  O2_22 
REMARK    9  A    between atoms: C14_21  and  C15_24 
REMARK   10  A    between atoms: C15_24  and  O3_25 
REMARK   11  A    between atoms: C15_24  and  C16_27 
REMARK   12  A    between atoms: C16_27  and  C17_28 
REMARK   13  A    between atoms: C16_27  and  C23_38 
REMARK   14  A    between atoms: C17_28  and  C18_30 
REMARK       I    between atoms: C18_30  and  N4_32 
REMARK   15  A    between atoms: N4_32  and  C19_34 
ROOT
HETATM    1  C14 UNL     1     -20.397  -2.366  -1.252  1.00  0.00     0.148 C 
ENDROOT
BRANCH   1   2
HETATM    2  N3  UNL     1     -20.826  -1.243  -1.966  1.00  0.00    -0.323 N 
HETATM    3  C4  UNL     1     -21.356  -1.330  -3.313  1.00  0.00     0.097 C 
HETATM    4  C5  UNL     1     -22.285  -0.223  -3.688  1.00  0.00     0.105 C 
HETATM    5  C6  UNL     1     -22.880   0.523  -2.517  1.00  0.00     0.251 C 
HETATM    6  F1  UNL     1     -23.742   1.488  -2.979  1.00  0.00    -0.206 F 
HETATM    7  F2  UNL     1     -23.638  -0.387  -1.809  1.00  0.00    -0.206 F 
HETATM    8  C7  UNL     1     -21.811   1.033  -1.597  1.00  0.00     0.142 C 
HETATM    9  C8  UNL     1     -20.718   0.086  -1.340  1.00  0.00     0.087 C 
BRANCH   3  10
HETATM   10  C3  UNL     1     -20.260  -1.586  -4.312  1.00  0.00     0.026 C 
BRANCH  10  11
HETATM   11  C2  UNL     1     -19.347  -0.468  -4.655  1.00  0.00    -0.002 C 
HETATM   12  C1  UNL     1     -19.712   0.437  -5.768  1.00  0.00     0.005 C 
ENDBRANCH  10  11
ENDBRANCH   3  10
BRANCH   9  13
HETATM   13  C9  UNL     1     -19.358   0.656  -1.377  1.00  0.00     0.264 C 
HETATM   14  O1  UNL     1     -19.257   1.767  -2.006  1.00  0.00    -0.266 OA
HETATM   15  N1  UNL     1     -18.187   0.134  -0.811  1.00  0.00    -0.354 N 
ATOM     16  H1  UNL     1     -18.269  -0.754  -0.314  1.00  0.00     0.162 HD
BRANCH  15  17
HETATM   17  C10 UNL     1     -16.874   0.732  -0.865  1.00  0.00     0.153 C 
BRANCH  17  18
HETATM   18  C11 UNL     1     -16.121   0.212  -2.029  1.00  0.00     0.291 C 
BRANCH  18  19
HETATM   19  N2  UNL     1     -15.291  -0.935  -1.721  1.00  0.00     0.081 N 
HETATM   20  C12 UNL     1     -15.159  -1.837  -2.841  1.00  0.00     0.309 C 
HETATM   21  C13 UNL     1     -14.014  -0.552  -1.166  1.00  0.00     0.309 C 
ENDBRANCH  18  19
ENDBRANCH  17  18
ENDBRANCH  15  17
ENDBRANCH   9  13
ENDBRANCH   1   2
BRANCH   1  22
HETATM   22  O2  UNL     1     -21.174  -2.677  -0.244  1.00  0.00    -0.347 OA
ATOM     23  H2  UNL     1     -21.642  -3.495  -0.361  1.00  0.00     0.219 HD
ENDBRANCH   1  22
BRANCH   1  24
HETATM   24  C15 UNL     1     -19.270  -3.224  -1.420  1.00  0.00     0.205 C 
BRANCH  24  25
HETATM   25  O3  UNL     1     -18.180  -2.588  -1.982  1.00  0.00    -0.387 OA
ATOM     26  H3  UNL     1     -18.367  -2.208  -2.833  1.00  0.00     0.210 HD
ENDBRANCH  24  25
BRANCH  24  27
HETATM   27  C16 UNL     1     -19.547  -4.473  -2.229  1.00  0.00     0.109 C 
BRANCH  27  28
HETATM   28  C17 UNL     1     -20.913  -4.965  -2.165  1.00  0.00     0.224 C 
HETATM   29  O4  UNL     1     -21.704  -4.615  -3.124  1.00  0.00    -0.287 OA
BRANCH  28  30
HETATM   30  C18 UNL     1     -21.481  -5.795  -1.161  1.00  0.00     0.288 C 
HETATM   31  O5  UNL     1     -21.582  -5.415   0.027  1.00  0.00    -0.264 OA
HETATM   32  N4  UNL     1     -21.966  -7.108  -1.468  1.00  0.00    -0.346 N 
ATOM     33  H4  UNL     1     -21.897  -7.442  -2.429  1.00  0.00     0.163 HD
BRANCH  32  34
HETATM   34  C19 UNL     1     -22.543  -7.968  -0.484  1.00  0.00     0.022 C 
HETATM   35  C20 UNL     1     -22.750  -9.360  -1.039  1.00  0.00     0.037 C 
HETATM   36  C21 UNL     1     -21.657  -8.115   0.748  1.00  0.00     0.037 C 
HETATM   37  C22 UNL     1     -23.886  -7.483   0.019  1.00  0.00     0.037 C 
ENDBRANCH  32  34
ENDBRANCH  28  30
ENDBRANCH  27  28
BRANCH  27  38
HETATM   38  C23 UNL     1     -18.489  -5.507  -2.062  1.00  0.00    -0.038 C 
HETATM   39  C24 UNL     1     -18.771  -6.838  -2.722  1.00  0.00     0.015 C 
HETATM   40  C25 UNL     1     -17.238  -4.916  -2.802  1.00  0.00     0.015 C 
HETATM   41  C26 UNL     1     -17.996  -5.753  -0.677  1.00  0.00     0.015 C 
ENDBRANCH  27  38
ENDBRANCH  24  27
ENDBRANCH   1  24
TORSDOF 15
ENDMDL
MODEL 2
REMARK VINA RESULT: -7.656701113      1.149      1.715
REMARK  15 active torsions:
REMARK  status: ('A' for Active; 'I' for Inactive)
REMARK    1  A    between atoms: C2_2  and  C3_3 
REMARK    2  A    between atoms: C3_3  and  C4_4 
REMARK    3  A    between atoms: C8_10  and  C9_11 
REMARK       I    between atoms: C9_11  and  N1_13 
REMARK    4  A    between atoms: N1_13  and  C10_15 
REMARK    5  A    between atoms: C10_15  and  C11_16 
REMARK    6  A    between atoms: C11_16  and  N2_17 
REMARK    7  A    between atoms: N3_20  and  C14_21 
REMARK    8  A    between atoms: C14_21  and  O2_22 
REMARK    9  A    between atoms: C14_21  and  C15_24 
REMARK   10  A    between atoms: C15_24  and  O3_25 
REMARK   11  A    between atoms: C15_24  and  C16_27 
REMARK   12  A    between atoms: C16_27  and  C17_28 
REMARK   13  A    between atoms: C16_27  and  C23_38 
REMARK   14  A    between atoms: C17_28  and  C18_30 
REMARK       I    between atoms: C18_30  and  N4_32 
REMARK   15  A    between atoms: N4_32  and  C19_34 
ROOT
HETATM    1  C14 UNL     1     -20.481  -2.362  -0.981  1.00  0.00     0.148 C 
ENDROOT
BRANCH   1   2
HETATM    2  N3  UNL     1     -20.843  -1.293  -1.806  1.00  0.00    -0.323 N 
HETATM    3  C4  UNL     1     -21.425  -1.484  -3.121  1.00  0.00     0.097 C 
HETATM    4  C5  UNL     1     -22.275  -0.352  -3.594  1.00  0.00     0.105 C 
HETATM    5  C6  UNL     1     -22.767   0.567  -2.500  1.00  0.00     0.251 C 
HETATM    6  F1  UNL     1     -23.564   1.543  -3.046  1.00  0.00    -0.206 F 
HETATM    7  F2  UNL     1     -23.570  -0.193  -1.675  1.00  0.00    -0.206 F 
HETATM    8  C7  UNL     1     -21.629   1.084  -1.672  1.00  0.00     0.142 C 
HETATM    9  C8  UNL     1     -20.607   0.083  -1.338  1.00  0.00     0.087 C 
BRANCH   3  10
HETATM   10  C3  UNL     1     -20.388  -1.939  -4.112  1.00  0.00     0.026 C 
BRANCH  10  11
HETATM   11  C2  UNL     1     -19.327  -0.982  -4.509  1.00  0.00    -0.002 C 
HETATM   12  C1  UNL     1     -19.587  -0.050  -5.628  1.00  0.00     0.005 C 
ENDBRANCH  10  11
ENDBRANCH   3  10
BRANCH   9  13
HETATM   13  C9  UNL     1     -19.208   0.530  -1.473  1.00  0.00     0.264 C 
HETATM   14  O1  UNL     1     -19.065   1.767  -1.777  1.00  0.00    -0.266 OA
HETATM   15  N1  UNL     1     -18.039  -0.226  -1.308  1.00  0.00    -0.354 N 
ATOM     16  H1  UNL     1     -18.156  -1.212  -1.071  1.00  0.00     0.162 HD
BRANCH  15  17
HETATM   17  C10 UNL     1     -16.686   0.257  -1.443  1.00  0.00     0.153 C 
BRANCH  17  18
HETATM   18  C11 UNL     1     -15.910  -0.636  -2.335  1.00  0.00     0.291 C 
BRANCH  18  19
HETATM   19  N2  UNL     1     -15.013  -1.528  -1.630  1.00  0.00     0.081 N 
HETATM   20  C12 UNL     1     -15.006  -2.859  -2.190  1.00  0.00     0.309 C 
HETATM   21  C13 UNL     1     -13.684  -0.977  -1.501  1.00  0.00     0.309 C 
ENDBRANCH  18  19
ENDBRANCH  17  18
ENDBRANCH  15  17
ENDBRANCH   9  13
ENDBRANCH   1   2
BRANCH   1  22
HETATM   22  O2  UNL     1     -21.143  -2.403   0.149  1.00  0.00    -0.347 OA
ATOM     23  H2  UNL     1     -22.085  -2.455   0.037  1.00  0.00     0.219 HD
ENDBRANCH   1  22
BRANCH   1  24
HETATM   24  C15 UNL     1     -19.522  -3.405  -1.144  1.00  0.00     0.205 C 
BRANCH  24  25
HETATM   25  O3  UNL     1     -18.462  -3.047  -1.955  1.00  0.00    -0.387 OA
ATOM     26  H3  UNL     1     -17.709  -2.732  -1.469  1.00  0.00     0.210 HD
ENDBRANCH  24  25
BRANCH  24  27
HETATM   27  C16 UNL     1     -20.091  -4.705  -1.672  1.00  0.00     0.109 C 
BRANCH  27  28
HETATM   28  C17 UNL     1     -21.346  -5.124  -1.069  1.00  0.00     0.224 C 
HETATM   29  O4  UNL     1     -21.413  -5.088   0.221  1.00  0.00    -0.287 OA
BRANCH  28  30
HETATM   30  C18 UNL     1     -22.516  -5.569  -1.741  1.00  0.00     0.288 C 
HETATM   31  O5  UNL     1     -22.570  -5.640  -2.989  1.00  0.00    -0.264 OA
HETATM   32  N4  UNL     1     -23.687  -5.959  -1.014  1.00  0.00    -0.346 N 
ATOM     33  H4  UNL     1     -23.669  -5.912   0.004  1.00  0.00     0.163 HD
BRANCH  32  34
HETATM   34  C19 UNL     1     -24.880  -6.412  -1.657  1.00  0.00     0.022 C 
HETATM   35  C20 UNL     1     -24.866  -7.916  -1.823  1.00  0.00     0.037 C 
HETATM   36  C21 UNL     1     -26.134  -6.071  -0.859  1.00  0.00     0.037 C 
HETATM   37  C22 UNL     1     -25.080  -5.812  -3.033  1.00  0.00     0.037 C 
ENDBRANCH  32  34
ENDBRANCH  28  30
ENDBRANCH  27  28
BRANCH  27  38
HETATM   38  C23 UNL     1     -19.059  -5.770  -1.799  1.00  0.00    -0.038 C 
HETATM   39  C24 UNL     1     -18.004  -5.529  -2.855  1.00  0.00     0.015 C 
HETATM   40  C25 UNL     1     -18.304  -5.755  -0.424  1.00  0.00     0.015 C 
HETATM   41  C26 UNL     1     -19.547  -7.173  -1.919  1.00  0.00     0.015 C 
ENDBRANCH  27  38
ENDBRANCH  24  27
ENDBRANCH   1  24
TORSDOF 15
ENDMDL
MODEL 3
REMARK VINA RESULT: -7.483459058      2.011      3.518
REMARK  15 active torsions:
REMARK  status: ('A' for Active; 'I' for Inactive)
REMARK    1  A    between atoms: C2_2  and  C3_3 
REMARK    2  A    between atoms: C3_3  and  C4_4 
REMARK    3  A    between atoms: C8_10  and  C9_11 
REMARK       I    between atoms: C9_11  and  N1_13 
REMARK    4  A    between atoms: N1_13  and  C10_15 
REMARK    5  A    between atoms: C10_15  and  C11_16 
REMARK    6  A    between atoms: C11_16  and  N2_17 
REMARK    7  A    between atoms: N3_20  and  C14_21 
REMARK    8  A    between atoms: C14_21  and  O2_22 
REMARK    9  A    between atoms: C14_21  and  C15_24 
REMARK   10  A    between atoms: C15_24  and  O3_25 
REMARK   11  A    between atoms: C15_24  and  C16_27 
REMARK   12  A    between atoms: C16_27  and  C17_28 
REMARK   13  A    between atoms: C16_27  and  C23_38 
REMARK   14  A    between atoms: C17_28  and  C18_30 
REMARK       I    between atoms: C18_30  and  N4_32 
REMARK   15  A    between atoms: N4_32  and  C19_34 
ROOT
HETATM    1  C14 UNL     1     -20.436  -3.431  -2.514  1.00  0.00     0.148 C 
ENDROOT
BRANCH   1   2
HETATM    2  N3  UNL     1     -20.057  -2.085  -2.520  1.00  0.00    -0.323 N 
HETATM    3  C4  UNL     1     -20.741  -1.085  -3.317  1.00  0.00     0.097 C 
HETATM    4  C5  UNL     1     -20.640   0.307  -2.788  1.00  0.00     0.105 C 
HETATM    5  C6  UNL     1     -20.266   0.400  -1.327  1.00  0.00     0.251 C 
HETATM    6  F1  UNL     1     -20.238   1.719  -0.945  1.00  0.00    -0.206 F 
HETATM    7  F2  UNL     1     -21.284  -0.203  -0.618  1.00  0.00    -0.206 F 
HETATM    8  C7  UNL     1     -19.004  -0.357  -1.039  1.00  0.00     0.142 C 
HETATM    9  C8  UNL     1     -18.906  -1.663  -1.705  1.00  0.00     0.087 C 
BRANCH   3  10
HETATM   10  C3  UNL     1     -20.394  -1.222  -4.775  1.00  0.00     0.026 C 
BRANCH  10  11
HETATM   11  C2  UNL     1     -19.550  -0.173  -5.399  1.00  0.00    -0.002 C 
HETATM   12  C1  UNL     1     -20.210   0.989  -6.036  1.00  0.00     0.005 C 
ENDBRANCH  10  11
ENDBRANCH   3  10
BRANCH   9  13
HETATM   13  C9  UNL     1     -17.597  -1.973  -2.311  1.00  0.00     0.264 C 
HETATM   14  O1  UNL     1     -17.171  -1.100  -3.147  1.00  0.00    -0.266 OA
HETATM   15  N1  UNL     1     -16.781  -3.089  -2.082  1.00  0.00    -0.354 N 
ATOM     16  H1  UNL     1     -17.125  -3.785  -1.419  1.00  0.00     0.162 HD
BRANCH  15  17
HETATM   17  C10 UNL     1     -15.500  -3.348  -2.694  1.00  0.00     0.153 C 
BRANCH  17  18
HETATM   18  C11 UNL     1     -14.411  -3.148  -1.709  1.00  0.00     0.291 C 
BRANCH  18  19
HETATM   19  N2  UNL     1     -13.572  -2.003  -1.994  1.00  0.00     0.081 N 
HETATM   20  C12 UNL     1     -14.032  -0.804  -1.333  1.00  0.00     0.309 C 
HETATM   21  C13 UNL     1     -12.176  -2.271  -1.740  1.00  0.00     0.309 C 
ENDBRANCH  18  19
ENDBRANCH  17  18
ENDBRANCH  15  17
ENDBRANCH   9  13
ENDBRANCH   1   2
BRANCH   1  22
HETATM   22  O2  UNL     1     -19.524  -4.237  -2.998  1.00  0.00    -0.347 OA
ATOM     23  H2  UNL     1     -18.715  -4.240  -2.501  1.00  0.00     0.219 HD
ENDBRANCH   1  22
BRANCH   1  24
HETATM   24  C15 UNL     1     -21.631  -4.079  -2.083  1.00  0.00     0.205 C 
BRANCH  24  25
HETATM   25  O3  UNL     1     -22.649  -3.195  -1.775  1.00  0.00    -0.387 OA
ATOM     26  H3  UNL     1     -23.329  -3.163  -2.436  1.00  0.00     0.210 HD
ENDBRANCH  24  25
BRANCH  24  27
HETATM   27  C16 UNL     1     -21.451  -5.008  -0.901  1.00  0.00     0.109 C 
BRANCH  27  28
HETATM   28  C17 UNL     1     -20.214  -4.836  -0.159  1.00  0.00     0.224 C 
HETATM   29  O4  UNL     1     -20.169  -3.856   0.681  1.00  0.00    -0.287 OA
BRANCH  28  30
HETATM   30  C18 UNL     1     -19.039  -5.630  -0.251  1.00  0.00     0.288 C 
HETATM   31  O5  UNL     1     -18.081  -5.303  -0.986  1.00  0.00    -0.264 OA
HETATM   32  N4  UNL     1     -18.901  -6.843   0.499  1.00  0.00    -0.346 N 
ATOM     33  H4  UNL     1     -19.667  -7.132   1.106  1.00  0.00     0.163 HD
BRANCH  32  34
HETATM   34  C19 UNL     1     -17.735  -7.665   0.430  1.00  0.00     0.022 C 
HETATM   35  C20 UNL     1     -18.052  -9.088   0.833  1.00  0.00     0.037 C 
HETATM   36  C21 UNL     1     -17.152  -7.729  -0.978  1.00  0.00     0.037 C 
HETATM   37  C22 UNL     1     -16.613  -7.185   1.327  1.00  0.00     0.037 C 
ENDBRANCH  32  34
ENDBRANCH  28  30
ENDBRANCH  27  28
BRANCH  27  38
HETATM   38  C23 UNL     1     -21.811  -6.416  -1.223  1.00  0.00    -0.038 C 
HETATM   39  C24 UNL     1     -22.249  -7.260  -0.047  1.00  0.00     0.015 C 
HETATM   40  C25 UNL     1     -23.064  -6.300  -2.160  1.00  0.00     0.015 C 
HETATM   41  C26 UNL     1     -20.833  -7.195  -2.035  1.00  0.00     0.015 C 
ENDBRANCH  27  38
ENDBRANCH  24  27
ENDBRANCH   1  24
TORSDOF 15
ENDMDL
MODEL 4
REMARK VINA RESULT: -7.448835942      1.572      2.842
REMARK  15 active torsions:
REMARK  status: ('A' for Active; 'I' for Inactive)
REMARK    1  A    between atoms: C2_2  and  C3_3 
REMARK    2  A    between atoms: C3_3  and  C4_4 
REMARK    3  A    between atoms: C8_10  and  C9_11 
REMARK       I    between atoms: C9_11  and  N1_13 
REMARK    4  A    between atoms: N1_13  and  C10_15 
REMARK    5  A    between atoms: C10_15  and  C11_16 
REMARK    6  A    between atoms: C11_16  and  N2_17 
REMARK    7  A    between atoms: N3_20  and  C14_21 
REMARK    8  A    between atoms: C14_21  and  O2_22 
REMARK    9  A    between atoms: C14_21  and  C15_24 
REMARK   10  A    between atoms: C15_24  and  O3_25 
REMARK   11  A    between atoms: C15_24  and  C16_27 
REMARK   12  A    between atoms: C16_27  and  C17_28 
REMARK   13  A    between atoms: C16_27  and  C23_38 
REMARK   14  A    between atoms: C17_28  and  C18_30 
REMARK       I    between atoms: C18_30  and  N4_32 
REMARK   15  A    between atoms: N4_32  and  C19_34 
ROOT
HETATM    1  C14 UNL     1     -20.400  -2.548  -1.473  1.00  0.00     0.148 C 
ENDROOT
BRANCH   1   2
HETATM    2  N3  UNL     1     -20.808  -1.375  -2.114  1.00  0.00    -0.323 N 
HETATM    3  C4  UNL     1     -21.372  -1.370  -3.450  1.00  0.00     0.097 C 
HETATM    4  C5  UNL     1     -22.272  -0.216  -3.741  1.00  0.00     0.105 C 
HETATM    5  C6  UNL     1     -22.814   0.485  -2.517  1.00  0.00     0.251 C 
HETATM    6  F1  UNL     1     -23.653   1.501  -2.904  1.00  0.00    -0.206 F 
HETATM    7  F2  UNL     1     -23.585  -0.438  -1.840  1.00  0.00    -0.206 F 
HETATM    8  C7  UNL     1     -21.707   0.908  -1.598  1.00  0.00     0.142 C 
HETATM    9  C8  UNL     1     -20.641  -0.086  -1.420  1.00  0.00     0.087 C 
BRANCH   3  10
HETATM   10  C3  UNL     1     -20.308  -1.606  -4.489  1.00  0.00     0.026 C 
BRANCH  10  11
HETATM   11  C2  UNL     1     -19.381  -0.494  -4.810  1.00  0.00    -0.002 C 
HETATM   12  C1  UNL     1     -19.795   0.517  -5.808  1.00  0.00     0.005 C 
ENDBRANCH  10  11
ENDBRANCH   3  10
BRANCH   9  13
HETATM   13  C9  UNL     1     -19.263   0.441  -1.460  1.00  0.00     0.264 C 
HETATM   14  O1  UNL     1     -19.175   1.699  -1.685  1.00  0.00    -0.266 OA
HETATM   15  N1  UNL     1     -18.064  -0.261  -1.280  1.00  0.00    -0.354 N 
ATOM     16  H1  UNL     1     -18.137  -1.264  -1.105  1.00  0.00     0.162 HD
BRANCH  15  17
HETATM   17  C10 UNL     1     -16.734   0.299  -1.319  1.00  0.00     0.153 C 
BRANCH  17  18
HETATM   18  C11 UNL     1     -15.897  -0.436  -2.295  1.00  0.00     0.291 C 
BRANCH  18  19
HETATM   19  N2  UNL     1     -15.182  -1.557  -1.721  1.00  0.00     0.081 N 
HETATM   20  C12 UNL     1     -15.529  -2.812  -2.347  1.00  0.00     0.309 C 
HETATM   21  C13 UNL     1     -13.756  -1.335  -1.684  1.00  0.00     0.309 C 
ENDBRANCH  18  19
ENDBRANCH  17  18
ENDBRANCH  15  17
ENDBRANCH   9  13
ENDBRANCH   1   2
BRANCH   1  22
HETATM   22  O2  UNL     1     -19.134  -2.833  -1.651  1.00  0.00    -0.347 OA
ATOM     23  H2  UNL     1     -18.940  -3.761  -1.594  1.00  0.00     0.219 HD
ENDBRANCH   1  22
BRANCH   1  24
HETATM   24  C15 UNL     1     -21.112  -3.487  -0.669  1.00  0.00     0.205 C 
BRANCH  24  25
HETATM   25  O3  UNL     1     -20.607  -3.600   0.612  1.00  0.00    -0.387 OA
ATOM     26  H3  UNL     1     -21.283  -3.672   1.275  1.00  0.00     0.210 HD
ENDBRANCH  24  25
BRANCH  24  27
HETATM   27  C16 UNL     1     -21.198  -4.880  -1.258  1.00  0.00     0.109 C 
BRANCH  27  28
HETATM   28  C17 UNL     1     -19.922  -5.532  -1.498  1.00  0.00     0.224 C 
HETATM   29  O4  UNL     1     -19.371  -5.330  -2.649  1.00  0.00    -0.287 OA
BRANCH  28  30
HETATM   30  C18 UNL     1     -19.205  -6.372  -0.604  1.00  0.00     0.288 C 
HETATM   31  O5  UNL     1     -19.618  -6.605   0.554  1.00  0.00    -0.264 OA
HETATM   32  N4  UNL     1     -17.973  -6.992  -0.993  1.00  0.00    -0.346 N 
ATOM     33  H4  UNL     1     -17.614  -6.819  -1.931  1.00  0.00     0.163 HD
BRANCH  32  34
HETATM   34  C19 UNL     1     -17.227  -7.842  -0.120  1.00  0.00     0.022 C 
HETATM   35  C20 UNL     1     -16.118  -8.546  -0.870  1.00  0.00     0.037 C 
HETATM   36  C21 UNL     1     -16.564  -7.068   1.015  1.00  0.00     0.037 C 
HETATM   37  C22 UNL     1     -18.072  -8.912   0.538  1.00  0.00     0.037 C 
ENDBRANCH  32  34
ENDBRANCH  28  30
ENDBRANCH  27  28
BRANCH  27  38
HETATM   38  C23 UNL     1     -22.178  -4.968  -2.374  1.00  0.00    -0.038 C 
HETATM   39  C24 UNL     1     -21.581  -4.998  -3.763  1.00  0.00     0.015 C 
HETATM   40  C25 UNL     1     -22.878  -6.358  -2.177  1.00  0.00     0.015 C 
HETATM   41  C26 UNL     1     -23.310  -3.998  -2.359  1.00  0.00     0.015 C 
ENDBRANCH  27  38
ENDBRANCH  24  27
ENDBRANCH   1  24
TORSDOF 15
ENDMDL
MODEL 5
REMARK VINA RESULT: -7.419439856      1.469      3.267
REMARK  15 active torsions:
REMARK  status: ('A' for Active; 'I' for Inactive)
REMARK    1  A    between atoms: C2_2  and  C3_3 
REMARK    2  A    between atoms: C3_3  and  C4_4 
REMARK    3  A    between atoms: C8_10  and  C9_11 
REMARK       I    between atoms: C9_11  and  N1_13 
REMARK    4  A    between atoms: N1_13  and  C10_15 
REMARK    5  A    between atoms: C10_15  and  C11_16 
REMARK    6  A    between atoms: C11_16  and  N2_17 
REMARK    7  A    between atoms: N3_20  and  C14_21 
REMARK    8  A    between atoms: C14_21  and  O2_22 
REMARK    9  A    between atoms: C14_21  and  C15_24 
REMARK   10  A    between atoms: C15_24  and  O3_25 
REMARK   11  A    between atoms: C15_24  and  C16_27 
REMARK   12  A    between atoms: C16_27  and  C17_28 
REMARK   13  A    between atoms: C16_27  and  C23_38 
REMARK   14  A    between atoms: C17_28  and  C18_30 
REMARK       I    between atoms: C18_30  and  N4_32 
REMARK   15  A    between atoms: N4_32  and  C19_34 
ROOT
HETATM    1  C14 UNL     1     -21.557  -2.186  -1.464  1.00  0.00     0.148 C 
ENDROOT
BRANCH   1   2
HETATM    2  N3  UNL     1     -21.509  -0.986  -2.179  1.00  0.00    -0.323 N 
HETATM    3  C4  UNL     1     -21.532  -0.938  -3.628  1.00  0.00     0.097 C 
HETATM    4  C5  UNL     1     -22.069   0.333  -4.200  1.00  0.00     0.105 C 
HETATM    5  C6  UNL     1     -22.906   1.149  -3.244  1.00  0.00     0.251 C 
HETATM    6  F1  UNL     1     -23.373   2.270  -3.886  1.00  0.00    -0.206 F 
HETATM    7  F2  UNL     1     -24.007   0.381  -2.925  1.00  0.00    -0.206 F 
HETATM    8  C7  UNL     1     -22.165   1.426  -1.970  1.00  0.00     0.142 C 
HETATM    9  C8  UNL     1     -21.410   0.284  -1.438  1.00  0.00     0.087 C 
BRANCH   3  10
HETATM   10  C3  UNL     1     -20.212  -1.371  -4.207  1.00  0.00     0.026 C 
BRANCH  10  11
HETATM   11  C2  UNL     1     -19.281  -0.323  -4.694  1.00  0.00    -0.002 C 
HETATM   12  C1  UNL     1     -19.642   0.447  -5.904  1.00  0.00     0.005 C 
ENDBRANCH  10  11
ENDBRANCH   3  10
BRANCH   9  13
HETATM   13  C9  UNL     1     -20.050   0.588  -0.952  1.00  0.00     0.264 C 
HETATM   14  O1  UNL     1     -19.927   0.606   0.324  1.00  0.00    -0.266 OA
HETATM   15  N1  UNL     1     -18.901   0.851  -1.708  1.00  0.00    -0.354 N 
ATOM     16  H1  UNL     1     -19.003   0.840  -2.724  1.00  0.00     0.162 HD
BRANCH  15  17
HETATM   17  C10 UNL     1     -17.585   1.137  -1.188  1.00  0.00     0.153 C 
BRANCH  17  18
HETATM   18  C11 UNL     1     -16.546   0.664  -2.132  1.00  0.00     0.291 C 
BRANCH  18  19
HETATM   19  N2  UNL     1     -15.935  -0.591  -1.744  1.00  0.00     0.081 N 
HETATM   20  C12 UNL     1     -16.087  -1.613  -2.754  1.00  0.00     0.309 C 
HETATM   21  C13 UNL     1     -14.563  -0.426  -1.328  1.00  0.00     0.309 C 
ENDBRANCH  18  19
ENDBRANCH  17  18
ENDBRANCH  15  17
ENDBRANCH   9  13
ENDBRANCH   1   2
BRANCH   1  22
HETATM   22  O2  UNL     1     -21.271  -2.053  -0.193  1.00  0.00    -0.347 OA
ATOM     23  H2  UNL     1     -21.869  -2.514   0.383  1.00  0.00     0.219 HD
ENDBRANCH   1  22
BRANCH   1  24
HETATM   24  C15 UNL     1     -21.852  -3.521  -1.869  1.00  0.00     0.205 C 
BRANCH  24  25
HETATM   25  O3  UNL     1     -23.166  -3.693  -2.262  1.00  0.00    -0.387 OA
ATOM     26  H3  UNL     1     -23.501  -4.562  -2.078  1.00  0.00     0.210 HD
ENDBRANCH  24  25
BRANCH  24  27
HETATM   27  C16 UNL     1     -21.537  -4.577  -0.831  1.00  0.00     0.109 C 
BRANCH  27  28
HETATM   28  C17 UNL     1     -20.190  -4.529  -0.286  1.00  0.00     0.224 C 
HETATM   29  O4  UNL     1     -20.082  -4.314   0.983  1.00  0.00    -0.287 OA
BRANCH  28  30
HETATM   30  C18 UNL     1     -18.970  -4.695  -0.995  1.00  0.00     0.288 C 
HETATM   31  O5  UNL     1     -18.524  -3.805  -1.753  1.00  0.00    -0.264 OA
HETATM   32  N4  UNL     1     -18.195  -5.894  -0.870  1.00  0.00    -0.346 N 
ATOM     33  H4  UNL     1     -18.536  -6.635  -0.258  1.00  0.00     0.163 HD
BRANCH  32  34
HETATM   34  C19 UNL     1     -16.964  -6.094  -1.567  1.00  0.00     0.022 C 
HETATM   35  C20 UNL     1     -16.493  -7.525  -1.431  1.00  0.00     0.037 C 
HETATM   36  C21 UNL     1     -17.093  -5.816  -3.062  1.00  0.00     0.037 C 
HETATM   37  C22 UNL     1     -15.844  -5.205  -1.069  1.00  0.00     0.037 C 
ENDBRANCH  32  34
ENDBRANCH  28  30
ENDBRANCH  27  28
BRANCH  27  38
HETATM   38  C23 UNL     1     -22.015  -5.929  -1.229  1.00  0.00    -0.038 C 
HETATM   39  C24 UNL     1     -21.344  -6.524  -2.447  1.00  0.00     0.015 C 
HETATM   40  C25 UNL     1     -21.624  -6.857  -0.026  1.00  0.00     0.015 C 
HETATM   41  C26 UNL     1     -23.489  -6.115  -1.354  1.00  0.00     0.015 C 
ENDBRANCH  27  38
ENDBRANCH  24  27
ENDBRANCH   1  24
TORSDOF 15
ENDMDL
