MODEL 1
REMARK VINA RESULT: -7.765094820      0.000      0.000
REMARK  11 active torsions:
REMARK  status: ('A' for Active; 'I' for Inactive)
REMARK    1  A    between atoms: C2_3  and  C3_5 
REMARK    2  A    between atoms: C4_6  and  C5_7 
REMARK    3  A    between atoms: C5_7  and  O2_8 
REMARK    4  A    between atoms: C5_7  and  N2_10 
REMARK    5  A    between atoms: N2_10  and  C6_11 
REMARK    6  A    between atoms: N2_10  and  C13_23 
REMARK    7  A    between atoms: C6_11  and  C7_12 
REMARK       I    between atoms: C7_12  and  N3_14 
REMARK    8  A    between atoms: N3_14  and  C8_16 
REMARK    9  A    between atoms: C8_16  and  C9_17 
REMARK   10  A    between atoms: C8_16  and  C10_20 
REMARK   11  A    between atoms: C13_23  and  C14_24 
ROOT
HETATM    1  C1  UNL     1     -16.740  -8.423  -0.685  1.00  0.00     0.232 C 
HETATM    2  N1  UNL     1     -17.903  -8.618  -1.345  1.00  0.00    -0.395 NA
HETATM    3  C2  UNL     1     -19.095  -8.817  -2.022  1.00  0.00     0.296 C 
HETATM    4  O1  UNL     1     -19.224  -9.162  -3.204  1.00  0.00    -0.257 OA
ENDROOT
BRANCH   3   5
HETATM    5  C3  UNL     1     -20.439  -8.618  -1.335  1.00  0.00     0.125 C 
HETATM    6  C4  UNL     1     -20.437  -7.244  -0.634  1.00  0.00     0.095 C 
HETATM    7  C17 UNL     1     -21.841  -6.873  -0.322  1.00  0.00     0.023 C 
HETATM    8  C18 UNL     1     -22.031  -6.739   1.172  1.00  0.00     0.028 C 
HETATM    9  C19 UNL     1     -22.309  -5.644  -1.013  1.00  0.00     0.028 C 
HETATM   10  S1  UNL     1     -23.066  -8.139  -0.787  1.00  0.00    -0.087 SA
HETATM   11  S2  UNL     1     -22.331  -9.951   0.048  1.00  0.00    -0.086 SA
HETATM   12  C20 UNL     1     -20.580  -9.794  -0.488  1.00  0.00     0.025 C 
HETATM   13  C21 UNL     1     -19.741  -9.860   0.744  1.00  0.00     0.028 C 
HETATM   14  C22 UNL     1     -20.338 -11.100  -1.232  1.00  0.00     0.028 C 
BRANCH   6  15
HETATM   15  C5  UNL     1     -19.862  -6.295  -1.571  1.00  0.00     0.124 C 
BRANCH  15  16
HETATM   16  O2  UNL     1     -20.191  -6.589  -2.813  1.00  0.00    -0.349 OA
ATOM     17  H2  UNL     1     -21.070  -6.293  -3.017  1.00  0.00     0.219 HD
ENDBRANCH  15  16
BRANCH  15  18
HETATM   18  N2  UNL     1     -19.033  -5.144  -1.515  1.00  0.00    -0.334 N 
BRANCH  18  19
HETATM   19  C6  UNL     1     -19.734  -3.976  -2.104  1.00  0.00     0.232 C 
BRANCH  19  20
HETATM   20  C7  UNL     1     -19.896  -2.785  -1.337  1.00  0.00     0.236 C 
HETATM   21  O3  UNL     1     -20.412  -2.689  -0.212  1.00  0.00    -0.272 OA
HETATM   22  N3  UNL     1     -19.438  -1.555  -1.894  1.00  0.00    -0.346 N 
ATOM     23  H3  UNL     1     -18.988  -1.583  -2.809  1.00  0.00     0.163 HD
BRANCH  22  24
HETATM   24  C8  UNL     1     -19.570  -0.266  -1.243  1.00  0.00     0.177 C 
BRANCH  24  25
HETATM   25  C9  UNL     1     -20.867   0.356  -1.695  1.00  0.00     0.254 C 
HETATM   26  N4  UNL     1     -21.542   1.350  -0.961  1.00  0.00    -0.060 NA
HETATM   27  O4  UNL     1     -21.406  -0.006  -2.781  1.00  0.00    -0.275 OA
ENDBRANCH  24  25
BRANCH  24  28
HETATM   28  C10 UNL     1     -18.433   0.594  -1.736  1.00  0.00     0.009 C 
HETATM   29  C11 UNL     1     -17.623  -0.109  -2.796  1.00  0.00     0.012 C 
HETATM   30  C12 UNL     1     -17.494   0.973  -0.611  1.00  0.00     0.012 C 
ENDBRANCH  24  28
ENDBRANCH  22  24
ENDBRANCH  19  20
ENDBRANCH  18  19
BRANCH  18  31
HETATM   31  C13 UNL     1     -17.724  -4.947  -1.075  1.00  0.00     0.091 C 
BRANCH  31  32
HETATM   32  C14 UNL     1     -16.485  -4.714  -1.769  1.00  0.00     0.062 C 
HETATM   33  C15 UNL     1     -16.620  -5.591  -3.102  1.00  0.00     0.038 C 
HETATM   34  C16 UNL     1     -16.198  -3.369  -2.371  1.00  0.00     0.038 C 
HETATM   35 CL1  UNL     1     -14.993  -5.430  -1.130  1.00  0.00    -0.114 Cl
ENDBRANCH  31  32
ENDBRANCH  18  31
ENDBRANCH  15  18
ENDBRANCH   6  15
ENDBRANCH   3   5
TORSDOF 10
ENDMDL
MODEL 2
REMARK VINA RESULT: -7.596821100      1.201      1.407
REMARK  11 active torsions:
REMARK  status: ('A' for Active; 'I' for Inactive)
REMARK    1  A    between atoms: C2_3  and  C3_5 
REMARK    2  A    between atoms: C4_6  and  C5_7 
REMARK    3  A    between atoms: C5_7  and  O2_8 
REMARK    4  A    between atoms: C5_7  and  N2_10 
REMARK    5  A    between atoms: N2_10  and  C6_11 
REMARK    6  A    between atoms: N2_10  and  C13_23 
REMARK    7  A    between atoms: C6_11  and  C7_12 
REMARK       I    between atoms: C7_12  and  N3_14 
REMARK    8  A    between atoms: N3_14  and  C8_16 
REMARK    9  A    between atoms: C8_16  and  C9_17 
REMARK   10  A    between atoms: C8_16  and  C10_20 
REMARK   11  A    between atoms: C13_23  and  C14_24 
ROOT
HETATM    1  C1  UNL     1     -17.296  -9.485  -0.193  1.00  0.00     0.232 C 
HETATM    2  N1  UNL     1     -18.327  -9.292  -1.046  1.00  0.00    -0.395 NA
HETATM    3  C2  UNL     1     -19.383  -9.094  -1.920  1.00  0.00     0.296 C 
HETATM    4  O1  UNL     1     -19.349  -9.195  -3.154  1.00  0.00    -0.257 OA
ENDROOT
BRANCH   3   5
HETATM    5  C3  UNL     1     -20.767  -8.709  -1.417  1.00  0.00     0.125 C 
HETATM    6  C4  UNL     1     -20.670  -7.347  -0.698  1.00  0.00     0.095 C 
HETATM    7  C17 UNL     1     -22.039  -6.785  -0.571  1.00  0.00     0.023 C 
HETATM    8  C18 UNL     1     -22.409  -6.624   0.886  1.00  0.00     0.028 C 
HETATM    9  C19 UNL     1     -22.235  -5.504  -1.297  1.00  0.00     0.028 C 
HETATM   10  S1  UNL     1     -23.353  -7.869  -1.219  1.00  0.00    -0.087 SA
HETATM   11  S2  UNL     1     -22.994  -9.764  -0.324  1.00  0.00    -0.086 SA
HETATM   12  C20 UNL     1     -21.182  -9.853  -0.617  1.00  0.00     0.025 C 
HETATM   13  C21 UNL     1     -20.535 -10.033   0.715  1.00  0.00     0.028 C 
HETATM   14  C22 UNL     1     -21.024 -11.181  -1.344  1.00  0.00     0.028 C 
BRANCH   6  15
HETATM   15  C5  UNL     1     -19.849  -6.489  -1.533  1.00  0.00     0.124 C 
BRANCH  15  16
HETATM   16  O2  UNL     1     -20.224  -6.547  -2.795  1.00  0.00    -0.349 OA
ATOM     17  H2  UNL     1     -20.890  -5.897  -2.987  1.00  0.00     0.219 HD
ENDBRANCH  15  16
BRANCH  15  18
HETATM   18  N2  UNL     1     -18.743  -5.614  -1.362  1.00  0.00    -0.334 N 
BRANCH  18  19
HETATM   19  C6  UNL     1     -18.853  -4.462  -2.291  1.00  0.00     0.232 C 
BRANCH  19  20
HETATM   20  C7  UNL     1     -19.114  -3.158  -1.776  1.00  0.00     0.236 C 
HETATM   21  O3  UNL     1     -19.964  -2.851  -0.925  1.00  0.00    -0.272 OA
HETATM   22  N3  UNL     1     -18.345  -2.066  -2.277  1.00  0.00    -0.346 N 
ATOM     23  H3  UNL     1     -17.620  -2.269  -2.965  1.00  0.00     0.163 HD
BRANCH  22  24
HETATM   24  C8  UNL     1     -18.528  -0.686  -1.870  1.00  0.00     0.177 C 
BRANCH  24  25
HETATM   25  C9  UNL     1     -19.473  -0.032  -2.846  1.00  0.00     0.254 C 
HETATM   26  N4  UNL     1     -20.810   0.278  -2.534  1.00  0.00    -0.060 NA
HETATM   27  O4  UNL     1     -19.082   0.267  -4.012  1.00  0.00    -0.275 OA
ENDBRANCH  24  25
BRANCH  24  28
HETATM   28  C10 UNL     1     -17.184  -0.012  -1.986  1.00  0.00     0.009 C 
HETATM   29  C11 UNL     1     -16.059  -1.017  -2.019  1.00  0.00     0.012 C 
HETATM   30  C12 UNL     1     -16.932   0.927  -0.826  1.00  0.00     0.012 C 
ENDBRANCH  24  28
ENDBRANCH  22  24
ENDBRANCH  19  20
ENDBRANCH  18  19
BRANCH  18  31
HETATM   31  C13 UNL     1     -17.609  -5.678  -0.554  1.00  0.00     0.091 C 
BRANCH  31  32
HETATM   32  C14 UNL     1     -16.204  -5.786  -0.849  1.00  0.00     0.062 C 
HETATM   33  C15 UNL     1     -15.545  -6.167   0.559  1.00  0.00     0.038 C 
HETATM   34  C16 UNL     1     -15.694  -6.918  -1.690  1.00  0.00     0.038 C 
HETATM   35 CL1  UNL     1     -15.280  -4.309  -1.183  1.00  0.00    -0.114 Cl
ENDBRANCH  31  32
ENDBRANCH  18  31
ENDBRANCH  15  18
ENDBRANCH   6  15
ENDBRANCH   3   5
TORSDOF 10
ENDMDL
MODEL 3
REMARK VINA RESULT: -7.418590639      1.348      2.039
REMARK  11 active torsions:
REMARK  status: ('A' for Active; 'I' for Inactive)
REMARK    1  A    between atoms: C2_3  and  C3_5 
REMARK    2  A    between atoms: C4_6  and  C5_7 
REMARK    3  A    between atoms: C5_7  and  O2_8 
REMARK    4  A    between atoms: C5_7  and  N2_10 
REMARK    5  A    between atoms: N2_10  and  C6_11 
REMARK    6  A    between atoms: N2_10  and  C13_23 
REMARK    7  A    between atoms: C6_11  and  C7_12 
REMARK       I    between atoms: C7_12  and  N3_14 
REMARK    8  A    between atoms: N3_14  and  C8_16 
REMARK    9  A    between atoms: C8_16  and  C9_17 
REMARK   10  A    between atoms: C8_16  and  C10_20 
REMARK   11  A    between atoms: C13_23  and  C14_24 
ROOT
HETATM    1  C1  UNL     1     -16.903  -8.230  -0.212  1.00  0.00     0.232 C 
HETATM    2  N1  UNL     1     -17.940  -8.381  -1.065  1.00  0.00    -0.395 NA
HETATM    3  C2  UNL     1     -19.003  -8.536  -1.940  1.00  0.00     0.296 C 
HETATM    4  O1  UNL     1     -18.932  -8.754  -3.157  1.00  0.00    -0.257 OA
ENDROOT
BRANCH   3   5
HETATM    5  C3  UNL     1     -20.444  -8.444  -1.460  1.00  0.00     0.125 C 
HETATM    6  C4  UNL     1     -20.608  -7.151  -0.634  1.00  0.00     0.095 C 
HETATM    7  C17 UNL     1     -22.058  -6.851  -0.513  1.00  0.00     0.023 C 
HETATM    8  C18 UNL     1     -22.484  -6.880   0.937  1.00  0.00     0.028 C 
HETATM    9  C19 UNL     1     -22.464  -5.568  -1.144  1.00  0.00     0.028 C 
HETATM   10  S1  UNL     1     -23.142  -8.091  -1.292  1.00  0.00    -0.087 SA
HETATM   11  S2  UNL     1     -22.471  -9.962  -0.535  1.00  0.00    -0.086 SA
HETATM   12  C20 UNL     1     -20.666  -9.705  -0.767  1.00  0.00     0.025 C 
HETATM   13  C21 UNL     1     -20.028  -9.879   0.570  1.00  0.00     0.028 C 
HETATM   14  C22 UNL     1     -20.258 -10.920  -1.590  1.00  0.00     0.028 C 
BRANCH   6  15
HETATM   15  C5  UNL     1     -19.935  -6.095  -1.368  1.00  0.00     0.124 C 
BRANCH  15  16
HETATM   16  O2  UNL     1     -20.132  -6.212  -2.666  1.00  0.00    -0.349 OA
ATOM     17  H2  UNL     1     -19.314  -6.160  -3.145  1.00  0.00     0.219 HD
ENDBRANCH  15  16
BRANCH  15  18
HETATM   18  N2  UNL     1     -19.111  -4.977  -1.070  1.00  0.00    -0.334 N 
BRANCH  18  19
HETATM   19  C6  UNL     1     -19.946  -3.773  -0.832  1.00  0.00     0.232 C 
BRANCH  19  20
HETATM   20  C7  UNL     1     -20.050  -2.772  -1.842  1.00  0.00     0.236 C 
HETATM   21  O3  UNL     1     -19.522  -2.791  -2.965  1.00  0.00    -0.272 OA
HETATM   22  N3  UNL     1     -20.826  -1.609  -1.563  1.00  0.00    -0.346 N 
ATOM     23  H3  UNL     1     -21.297  -1.554  -0.660  1.00  0.00     0.163 HD
BRANCH  22  24
HETATM   24  C8  UNL     1     -20.990  -0.498  -2.481  1.00  0.00     0.177 C 
BRANCH  24  25
HETATM   25  C9  UNL     1     -20.482   0.749  -1.802  1.00  0.00     0.254 C 
HETATM   26  N4  UNL     1     -21.250   1.494  -0.887  1.00  0.00    -0.060 NA
HETATM   27  O4  UNL     1     -19.316   1.177  -2.040  1.00  0.00    -0.275 OA
ENDBRANCH  24  25
BRANCH  24  28
HETATM   28  C10 UNL     1     -22.470  -0.340  -2.720  1.00  0.00     0.009 C 
HETATM   29  C11 UNL     1     -23.178  -1.672  -2.730  1.00  0.00     0.012 C 
HETATM   30  C12 UNL     1     -22.749   0.342  -4.043  1.00  0.00     0.012 C 
ENDBRANCH  24  28
ENDBRANCH  22  24
ENDBRANCH  19  20
ENDBRANCH  18  19
BRANCH  18  31
HETATM   31  C13 UNL     1     -17.727  -4.815  -1.019  1.00  0.00     0.091 C 
BRANCH  31  32
HETATM   32  C14 UNL     1     -16.721  -4.684  -2.040  1.00  0.00     0.062 C 
HETATM   33  C15 UNL     1     -15.368  -5.119  -1.302  1.00  0.00     0.038 C 
HETATM   34  C16 UNL     1     -16.698  -5.630  -3.204  1.00  0.00     0.038 C 
HETATM   35 CL1  UNL     1     -16.229  -3.061  -2.559  1.00  0.00    -0.114 Cl
ENDBRANCH  31  32
ENDBRANCH  18  31
ENDBRANCH  15  18
ENDBRANCH   6  15
ENDBRANCH   3   5
TORSDOF 10
ENDMDL
MODEL 4
REMARK VINA RESULT: -7.379824296      1.546      1.936
REMARK  11 active torsions:
REMARK  status: ('A' for Active; 'I' for Inactive)
REMARK    1  A    between atoms: C2_3  and  C3_5 
REMARK    2  A    between atoms: C4_6  and  C5_7 
REMARK    3  A    between atoms: C5_7  and  O2_8 
REMARK    4  A    between atoms: C5_7  and  N2_10 
REMARK    5  A    between atoms: N2_10  and  C6_11 
REMARK    6  A    between atoms: N2_10  and  C13_23 
REMARK    7  A    between atoms: C6_11  and  C7_12 
REMARK       I    between atoms: C7_12  and  N3_14 
REMARK    8  A    between atoms: N3_14  and  C8_16 
REMARK    9  A    between atoms: C8_16  and  C9_17 
REMARK   10  A    between atoms: C8_16  and  C10_20 
REMARK   11  A    between atoms: C13_23  and  C14_24 
ROOT
HETATM    1  C1  UNL     1     -17.509  -9.954  -0.221  1.00  0.00     0.232 C 
HETATM    2  N1  UNL     1     -18.503  -9.576  -1.055  1.00  0.00    -0.395 NA
HETATM    3  C2  UNL     1     -19.521  -9.189  -1.911  1.00  0.00     0.296 C 
HETATM    4  O1  UNL     1     -19.500  -9.228  -3.148  1.00  0.00    -0.257 OA
ENDROOT
BRANCH   3   5
HETATM    5  C3  UNL     1     -20.839  -8.644  -1.379  1.00  0.00     0.125 C 
HETATM    6  C4  UNL     1     -20.565  -7.308  -0.656  1.00  0.00     0.095 C 
HETATM    7  C17 UNL     1     -21.854  -6.586  -0.499  1.00  0.00     0.023 C 
HETATM    8  C18 UNL     1     -22.174  -6.391   0.965  1.00  0.00     0.028 C 
HETATM    9  C19 UNL     1     -21.908  -5.286  -1.216  1.00  0.00     0.028 C 
HETATM   10  S1  UNL     1     -23.300  -7.500  -1.125  1.00  0.00    -0.087 SA
HETATM   11  S2  UNL     1     -23.155  -9.431  -0.246  1.00  0.00    -0.086 SA
HETATM   12  C20 UNL     1     -21.373  -9.734  -0.575  1.00  0.00     0.025 C 
HETATM   13  C21 UNL     1     -20.727 -10.000   0.743  1.00  0.00     0.028 C 
HETATM   14  C22 UNL     1     -21.390 -11.067  -1.311  1.00  0.00     0.028 C 
BRANCH   6  15
HETATM   15  C5  UNL     1     -19.663  -6.549  -1.503  1.00  0.00     0.124 C 
BRANCH  15  16
HETATM   16  O2  UNL     1     -20.030  -6.607  -2.768  1.00  0.00    -0.349 OA
ATOM     17  H2  UNL     1     -20.927  -6.907  -2.853  1.00  0.00     0.219 HD
ENDBRANCH  15  16
BRANCH  15  18
HETATM   18  N2  UNL     1     -18.485  -5.772  -1.342  1.00  0.00    -0.334 N 
BRANCH  18  19
HETATM   19  C6  UNL     1     -18.268  -4.915  -2.535  1.00  0.00     0.232 C 
BRANCH  19  20
HETATM   20  C7  UNL     1     -18.202  -3.498  -2.389  1.00  0.00     0.236 C 
HETATM   21  O3  UNL     1     -17.175  -2.806  -2.311  1.00  0.00    -0.272 OA
HETATM   22  N3  UNL     1     -19.425  -2.770  -2.309  1.00  0.00    -0.346 N 
ATOM     23  H3  UNL     1     -20.298  -3.291  -2.387  1.00  0.00     0.163 HD
BRANCH  22  24
HETATM   24  C8  UNL     1     -19.507  -1.333  -2.124  1.00  0.00     0.177 C 
BRANCH  24  25
HETATM   25  C9  UNL     1     -20.342  -1.067  -0.897  1.00  0.00     0.254 C 
HETATM   26  N4  UNL     1     -20.788   0.218  -0.534  1.00  0.00    -0.060 NA
HETATM   27  O4  UNL     1     -20.678  -2.017  -0.133  1.00  0.00    -0.275 OA
ENDBRANCH  24  25
BRANCH  24  28
HETATM   28  C10 UNL     1     -20.233  -0.777  -3.323  1.00  0.00     0.009 C 
HETATM   29  C11 UNL     1     -21.249  -1.753  -3.861  1.00  0.00     0.012 C 
HETATM   30  C12 UNL     1     -19.274  -0.441  -4.446  1.00  0.00     0.012 C 
ENDBRANCH  24  28
ENDBRANCH  22  24
ENDBRANCH  19  20
ENDBRANCH  18  19
BRANCH  18  31
HETATM   31  C13 UNL     1     -17.523  -5.719  -0.335  1.00  0.00     0.091 C 
BRANCH  31  32
HETATM   32  C14 UNL     1     -16.130  -6.083  -0.294  1.00  0.00     0.062 C 
HETATM   33  C15 UNL     1     -15.946  -7.041  -1.563  1.00  0.00     0.038 C 
HETATM   34  C16 UNL     1     -15.073  -5.059  -0.586  1.00  0.00     0.038 C 
HETATM   35 CL1  UNL     1     -15.570  -7.200   0.965  1.00  0.00    -0.114 Cl
ENDBRANCH  31  32
ENDBRANCH  18  31
ENDBRANCH  15  18
ENDBRANCH   6  15
ENDBRANCH   3   5
TORSDOF 10
ENDMDL
MODEL 5
REMARK VINA RESULT: -7.270907414      2.098      3.138
REMARK  11 active torsions:
REMARK  status: ('A' for Active; 'I' for Inactive)
REMARK    1  A    between atoms: C2_3  and  C3_5 
REMARK    2  A    between atoms: C4_6  and  C5_7 
REMARK    3  A    between atoms: C5_7  and  O2_8 
REMARK    4  A    between atoms: C5_7  and  N2_10 
REMARK    5  A    between atoms: N2_10  and  C6_11 
REMARK    6  A    between atoms: N2_10  and  C13_23 
REMARK    7  A    between atoms: C6_11  and  C7_12 
REMARK       I    between atoms: C7_12  and  N3_14 
REMARK    8  A    between atoms: N3_14  and  C8_16 
REMARK    9  A    between atoms: C8_16  and  C9_17 
REMARK   10  A    between atoms: C8_16  and  C10_20 
REMARK   11  A    between atoms: C13_23  and  C14_24 
ROOT
HETATM    1  C1  UNL     1     -22.651  -6.006  -2.497  1.00  0.00     0.232 C 
HETATM    2  N1  UNL     1     -22.363  -6.599  -1.317  1.00  0.00    -0.395 NA
HETATM    3  C2  UNL     1     -22.068  -7.206  -0.107  1.00  0.00     0.296 C 
HETATM    4  O1  UNL     1     -22.696  -7.084   0.953  1.00  0.00    -0.257 OA
ENDROOT
BRANCH   3   5
HETATM    5  C3  UNL     1     -20.871  -8.134   0.042  1.00  0.00     0.125 C 
HETATM    6  C4  UNL     1     -19.653  -7.485  -0.648  1.00  0.00     0.095 C 
HETATM    7  C17 UNL     1     -18.422  -8.164  -0.168  1.00  0.00     0.023 C 
HETATM    8  C18 UNL     1     -17.707  -8.835  -1.318  1.00  0.00     0.028 C 
HETATM    9  C19 UNL     1     -17.490  -7.274   0.570  1.00  0.00     0.028 C 
HETATM   10  S1  UNL     1     -18.734  -9.538   0.989  1.00  0.00    -0.087 SA
HETATM   11  S2  UNL     1     -20.198 -10.745   0.028  1.00  0.00    -0.086 SA
HETATM   12  C20 UNL     1     -21.339  -9.403  -0.497  1.00  0.00     0.025 C 
HETATM   13  C21 UNL     1     -21.484  -9.512  -1.977  1.00  0.00     0.028 C 
HETATM   14  C22 UNL     1     -22.672  -9.847   0.091  1.00  0.00     0.028 C 
BRANCH   6  15
HETATM   15  C5  UNL     1     -19.643  -6.088  -0.256  1.00  0.00     0.124 C 
BRANCH  15  16
HETATM   16  O2  UNL     1     -20.053  -5.936   0.988  1.00  0.00    -0.349 OA
ATOM     17  H2  UNL     1     -20.919  -5.547   1.020  1.00  0.00     0.219 HD
ENDBRANCH  15  16
BRANCH  15  18
HETATM   18  N2  UNL     1     -19.323  -4.838  -0.850  1.00  0.00    -0.334 N 
BRANCH  18  19
HETATM   19  C6  UNL     1     -20.089  -3.748  -0.196  1.00  0.00     0.232 C 
BRANCH  19  20
HETATM   20  C7  UNL     1     -20.763  -2.777  -0.995  1.00  0.00     0.236 C 
HETATM   21  O3  UNL     1     -21.917  -2.856  -1.444  1.00  0.00    -0.272 OA
HETATM   22  N3  UNL     1     -20.064  -1.584  -1.341  1.00  0.00    -0.346 N 
ATOM     23  H3  UNL     1     -19.118  -1.462  -0.980  1.00  0.00     0.163 HD
BRANCH  22  24
HETATM   24  C8  UNL     1     -20.612  -0.531  -2.174  1.00  0.00     0.177 C 
BRANCH  24  25
HETATM   25  C9  UNL     1     -20.098  -0.729  -3.578  1.00  0.00     0.254 C 
HETATM   26  N4  UNL     1     -19.151   0.123  -4.178  1.00  0.00    -0.060 NA
HETATM   27  O4  UNL     1     -20.513  -1.696  -4.280  1.00  0.00    -0.275 OA
ENDBRANCH  24  25
BRANCH  24  28
HETATM   28  C10 UNL     1     -20.067   0.774  -1.648  1.00  0.00     0.009 C 
HETATM   29  C11 UNL     1     -19.000   0.552  -0.606  1.00  0.00     0.012 C 
HETATM   30  C12 UNL     1     -21.157   1.618  -1.021  1.00  0.00     0.012 C 
ENDBRANCH  24  28
ENDBRANCH  22  24
ENDBRANCH  19  20
ENDBRANCH  18  19
BRANCH  18  31
HETATM   31  C13 UNL     1     -18.499  -4.488  -1.918  1.00  0.00     0.091 C 
BRANCH  31  32
HETATM   32  C14 UNL     1     -17.072  -4.351  -2.048  1.00  0.00     0.062 C 
HETATM   33  C15 UNL     1     -16.684  -5.426  -3.169  1.00  0.00     0.038 C 
HETATM   34  C16 UNL     1     -16.484  -3.114  -2.660  1.00  0.00     0.038 C 
HETATM   35 CL1  UNL     1     -16.029  -4.944  -0.741  1.00  0.00    -0.114 Cl
ENDBRANCH  31  32
ENDBRANCH  18  31
ENDBRANCH  15  18
ENDBRANCH   6  15
ENDBRANCH   3   5
TORSDOF 10
ENDMDL
