MODEL 1
REMARK VINA RESULT: -8.969442748      0.000      0.000
REMARK  12 active torsions:
REMARK  status: ('A' for Active; 'I' for Inactive)
REMARK    1  A    between atoms: S1_2  and  C1_4 
REMARK    2  A    between atoms: S1_2  and  N2_22 
REMARK    3  A    between atoms: C1_4  and  C2_5 
REMARK    4  A    between atoms: C2_5  and  C3_6 
REMARK    5  A    between atoms: C6_9  and  N1_10 
REMARK    6  A    between atoms: C9_13  and  O3_14 
REMARK    7  A    between atoms: C16_25  and  C17_26 
REMARK    8  A    between atoms: C17_26  and  C18_27 
REMARK    9  A    between atoms: C18_27  and  N3_28 
REMARK   10  A    between atoms: C21_31  and  O4_32 
REMARK   11  A    between atoms: C21_31  and  C22_34 
REMARK   12  A    between atoms: C22_34  and  O5_35 
ROOT
HETATM    1  O1  UNL     1     -20.345   0.063   0.197  1.00  0.00    -0.211 OA
HETATM    2  S1  UNL     1     -20.749   0.231  -1.254  1.00  0.00     0.211 S 
HETATM    3  O2  UNL     1     -21.925   1.161  -1.371  1.00  0.00    -0.211 OA
ENDROOT
BRANCH   2   4
HETATM    4  C1  UNL     1     -21.198  -1.399  -1.865  1.00  0.00     0.158 C 
BRANCH   4   5
HETATM    5  C2  UNL     1     -20.810  -2.347  -0.757  1.00  0.00     0.021 C 
BRANCH   5   6
HETATM    6  C3  UNL     1     -21.100  -3.780  -1.001  1.00  0.00    -0.008 C 
HETATM    7  C4  UNL     1     -21.160  -4.594   0.234  1.00  0.00     0.007 C 
HETATM    8  C5  UNL     1     -20.557  -5.947   0.200  1.00  0.00     0.042 C 
HETATM    9  C6  UNL     1     -20.585  -6.631  -1.115  1.00  0.00     0.294 C 
HETATM   10  C12 UNL     1     -20.467  -5.781  -2.330  1.00  0.00     0.274 C 
HETATM   11  F1  UNL     1     -19.508  -6.232  -3.217  1.00  0.00    -0.204 F 
HETATM   12  F2  UNL     1     -21.660  -5.755  -3.068  1.00  0.00    -0.204 F 
HETATM   13  C13 UNL     1     -20.136  -4.347  -2.035  1.00  0.00     0.086 C 
BRANCH   9  14
HETATM   14  N1  UNL     1     -19.601  -7.685  -1.225  1.00  0.00     0.099 N 
HETATM   15  C7  UNL     1     -20.157  -8.930  -1.738  1.00  0.00     0.275 C 
HETATM   16  C8  UNL     1     -18.979  -9.698  -2.312  1.00  0.00     0.062 C 
HETATM   17  C9  UNL     1     -17.853  -9.758  -1.300  1.00  0.00     0.121 C 
HETATM   18  C10 UNL     1     -18.391  -9.353   0.067  1.00  0.00     0.062 C 
HETATM   19  C11 UNL     1     -18.833  -7.893  -0.029  1.00  0.00     0.275 C 
BRANCH  17  20
HETATM   20  O3  UNL     1     -16.838  -8.823  -1.590  1.00  0.00    -0.395 OA
ATOM     21  H3  UNL     1     -17.147  -7.929  -1.503  1.00  0.00     0.210 HD
ENDBRANCH  17  20
ENDBRANCH   9  14
ENDBRANCH   5   6
ENDBRANCH   4   5
ENDBRANCH   2   4
BRANCH   2  22
HETATM   22  N2  UNL     1     -19.404   0.773  -2.151  1.00  0.00    -0.210 NA
HETATM   23  C14 UNL     1     -18.321   1.232  -1.315  1.00  0.00     0.107 C 
HETATM   24  C15 UNL     1     -17.286   0.101  -1.326  1.00  0.00     0.021 C 
HETATM   25  C16 UNL     1     -17.867  -0.963  -2.166  1.00  0.00     0.002 C 
HETATM   26  C25 UNL     1     -18.859  -0.209  -3.068  1.00  0.00     0.112 C 
BRANCH  25  27
HETATM   27  C17 UNL     1     -16.849  -1.694  -2.992  1.00  0.00     0.036 C 
BRANCH  27  28
HETATM   28  C18 UNL     1     -15.908  -2.459  -2.054  1.00  0.00     0.272 C 
BRANCH  28  29
HETATM   29  N3  UNL     1     -15.358  -3.614  -2.676  1.00  0.00     0.088 N 
HETATM   30  C19 UNL     1     -14.142  -4.047  -2.051  1.00  0.00     0.275 C 
HETATM   31  C20 UNL     1     -14.370  -4.641  -0.679  1.00  0.00     0.070 C 
HETATM   32  C21 UNL     1     -15.347  -5.763  -0.758  1.00  0.00     0.082 C 
HETATM   33  C23 UNL     1     -16.620  -5.273  -1.399  1.00  0.00     0.070 C 
HETATM   34  C24 UNL     1     -16.339  -4.692  -2.760  1.00  0.00     0.275 C 
BRANCH  32  35
HETATM   35  O4  UNL     1     -14.823  -6.774  -1.557  1.00  0.00    -0.388 OA
ATOM     36  H4  UNL     1     -14.744  -7.570  -1.044  1.00  0.00     0.210 HD
ENDBRANCH  32  35
BRANCH  32  37
HETATM   37  C22 UNL     1     -15.676  -6.313   0.632  1.00  0.00     0.201 C 
BRANCH  37  38
HETATM   38  O5  UNL     1     -15.367  -7.648   0.767  1.00  0.00    -0.398 OA
ATOM     39  H5  UNL     1     -14.513  -7.792   1.157  1.00  0.00     0.209 HD
ENDBRANCH  37  38
ENDBRANCH  32  37
ENDBRANCH  28  29
ENDBRANCH  27  28
ENDBRANCH  25  27
ENDBRANCH   2  22
TORSDOF 12
ENDMDL
MODEL 2
REMARK VINA RESULT: -8.765750214      2.766      5.680
REMARK  12 active torsions:
REMARK  status: ('A' for Active; 'I' for Inactive)
REMARK    1  A    between atoms: S1_2  and  C1_4 
REMARK    2  A    between atoms: S1_2  and  N2_22 
REMARK    3  A    between atoms: C1_4  and  C2_5 
REMARK    4  A    between atoms: C2_5  and  C3_6 
REMARK    5  A    between atoms: C6_9  and  N1_10 
REMARK    6  A    between atoms: C9_13  and  O3_14 
REMARK    7  A    between atoms: C16_25  and  C17_26 
REMARK    8  A    between atoms: C17_26  and  C18_27 
REMARK    9  A    between atoms: C18_27  and  N3_28 
REMARK   10  A    between atoms: C21_31  and  O4_32 
REMARK   11  A    between atoms: C21_31  and  C22_34 
REMARK   12  A    between atoms: C22_34  and  O5_35 
ROOT
HETATM    1  O1  UNL     1     -20.746   0.751  -3.082  1.00  0.00    -0.211 OA
HETATM    2  S1  UNL     1     -21.397   0.291  -1.793  1.00  0.00     0.211 S 
HETATM    3  O2  UNL     1     -22.153   1.421  -1.151  1.00  0.00    -0.211 OA
ENDROOT
BRANCH   2   4
HETATM    4  C1  UNL     1     -20.076  -0.256  -0.704  1.00  0.00     0.158 C 
BRANCH   4   5
HETATM    5  C2  UNL     1     -18.995   0.787  -0.854  1.00  0.00     0.021 C 
BRANCH   5   6
HETATM    6  C3  UNL     1     -17.806   0.378  -1.639  1.00  0.00    -0.008 C 
HETATM    7  C4  UNL     1     -17.920  -0.974  -2.229  1.00  0.00     0.007 C 
HETATM    8  C5  UNL     1     -16.715  -1.837  -2.215  1.00  0.00     0.042 C 
HETATM    9  C6  UNL     1     -15.415  -1.128  -2.283  1.00  0.00     0.294 C 
HETATM   10  C12 UNL     1     -15.328   0.205  -1.630  1.00  0.00     0.274 C 
HETATM   11  F1  UNL     1     -14.238   0.328  -0.790  1.00  0.00    -0.204 F 
HETATM   12  F2  UNL     1     -15.182   1.238  -2.567  1.00  0.00    -0.204 F 
HETATM   13  C13 UNL     1     -16.539   0.559  -0.815  1.00  0.00     0.086 C 
BRANCH   9  14
HETATM   14  N1  UNL     1     -14.311  -1.924  -1.794  1.00  0.00     0.099 N 
HETATM   15  C7  UNL     1     -13.120  -1.816  -2.625  1.00  0.00     0.275 C 
HETATM   16  C8  UNL     1     -11.958  -2.206  -1.728  1.00  0.00     0.062 C 
HETATM   17  C9  UNL     1     -12.253  -3.520  -1.034  1.00  0.00     0.121 C 
HETATM   18  C10 UNL     1     -13.434  -4.192  -1.724  1.00  0.00     0.062 C 
HETATM   19  C11 UNL     1     -14.654  -3.292  -1.522  1.00  0.00     0.275 C 
BRANCH  17  20
HETATM   20  O3  UNL     1     -12.665  -3.326   0.301  1.00  0.00    -0.395 OA
ATOM     21  H3  UNL     1     -13.365  -2.688   0.365  1.00  0.00     0.210 HD
ENDBRANCH  17  20
ENDBRANCH   9  14
ENDBRANCH   5   6
ENDBRANCH   4   5
ENDBRANCH   2   4
BRANCH   2  22
HETATM   22  N2  UNL     1     -22.396  -1.052  -2.120  1.00  0.00    -0.210 NA
HETATM   23  C14 UNL     1     -22.526  -1.325  -3.530  1.00  0.00     0.107 C 
HETATM   24  C15 UNL     1     -21.612  -2.525  -3.803  1.00  0.00     0.021 C 
HETATM   25  C16 UNL     1     -20.988  -2.853  -2.508  1.00  0.00     0.002 C 
HETATM   26  C25 UNL     1     -21.976  -2.282  -1.476  1.00  0.00     0.112 C 
BRANCH  25  27
HETATM   27  C17 UNL     1     -20.792  -4.327  -2.296  1.00  0.00     0.036 C 
BRANCH  27  28
HETATM   28  C18 UNL     1     -19.292  -4.638  -2.347  1.00  0.00     0.272 C 
BRANCH  28  29
HETATM   29  N3  UNL     1     -19.042  -6.026  -2.533  1.00  0.00     0.088 N 
HETATM   30  C19 UNL     1     -17.702  -6.287  -2.973  1.00  0.00     0.275 C 
HETATM   31  C20 UNL     1     -16.673  -6.036  -1.894  1.00  0.00     0.070 C 
HETATM   32  C21 UNL     1     -16.992  -6.838  -0.680  1.00  0.00     0.082 C 
HETATM   33  C23 UNL     1     -18.395  -6.528  -0.229  1.00  0.00     0.070 C 
HETATM   34  C24 UNL     1     -19.380  -6.793  -1.338  1.00  0.00     0.275 C 
BRANCH  32  35
HETATM   35  O4  UNL     1     -16.929  -8.192  -0.993  1.00  0.00    -0.388 OA
ATOM     36  H4  UNL     1     -17.650  -8.646  -0.573  1.00  0.00     0.210 HD
ENDBRANCH  32  35
BRANCH  32  37
HETATM   37  C22 UNL     1     -16.025  -6.522   0.465  1.00  0.00     0.201 C 
BRANCH  37  38
HETATM   38  O5  UNL     1     -16.479  -6.968   1.687  1.00  0.00    -0.398 OA
ATOM     39  H5  UNL     1     -15.925  -6.693   2.408  1.00  0.00     0.209 HD
ENDBRANCH  37  38
ENDBRANCH  32  37
ENDBRANCH  28  29
ENDBRANCH  27  28
ENDBRANCH  25  27
ENDBRANCH   2  22
TORSDOF 12
ENDMDL
MODEL 3
REMARK VINA RESULT: -8.761923385      1.806      2.236
REMARK  12 active torsions:
REMARK  status: ('A' for Active; 'I' for Inactive)
REMARK    1  A    between atoms: S1_2  and  C1_4 
REMARK    2  A    between atoms: S1_2  and  N2_22 
REMARK    3  A    between atoms: C1_4  and  C2_5 
REMARK    4  A    between atoms: C2_5  and  C3_6 
REMARK    5  A    between atoms: C6_9  and  N1_10 
REMARK    6  A    between atoms: C9_13  and  O3_14 
REMARK    7  A    between atoms: C16_25  and  C17_26 
REMARK    8  A    between atoms: C17_26  and  C18_27 
REMARK    9  A    between atoms: C18_27  and  N3_28 
REMARK   10  A    between atoms: C21_31  and  O4_32 
REMARK   11  A    between atoms: C21_31  and  C22_34 
REMARK   12  A    between atoms: C22_34  and  O5_35 
ROOT
HETATM    1  O1  UNL     1     -21.151  -0.201  -0.726  1.00  0.00    -0.211 OA
HETATM    2  S1  UNL     1     -21.163   0.084  -2.214  1.00  0.00     0.211 S 
HETATM    3  O2  UNL     1     -22.191   1.131  -2.543  1.00  0.00    -0.211 OA
ENDROOT
BRANCH   2   4
HETATM    4  C1  UNL     1     -21.576  -1.458  -3.040  1.00  0.00     0.158 C 
BRANCH   4   5
HETATM    5  C2  UNL     1     -21.977  -2.396  -1.928  1.00  0.00     0.021 C 
BRANCH   5   6
HETATM    6  C3  UNL     1     -21.084  -3.559  -1.710  1.00  0.00    -0.008 C 
HETATM    7  C4  UNL     1     -21.158  -4.575  -2.783  1.00  0.00     0.007 C 
HETATM    8  C5  UNL     1     -21.128  -6.002  -2.386  1.00  0.00     0.042 C 
HETATM    9  C6  UNL     1     -20.366  -6.311  -1.152  1.00  0.00     0.294 C 
HETATM   10  C12 UNL     1     -20.363  -5.285  -0.075  1.00  0.00     0.274 C 
HETATM   11  F1  UNL     1     -20.683  -5.801   1.166  1.00  0.00    -0.204 F 
HETATM   12  F2  UNL     1     -19.098  -4.703   0.089  1.00  0.00    -0.204 F 
HETATM   13  C13 UNL     1     -21.310  -4.147  -0.323  1.00  0.00     0.086 C 
BRANCH   9  14
HETATM   14  N1  UNL     1     -20.749  -7.570  -0.552  1.00  0.00     0.099 N 
HETATM   15  C7  UNL     1     -19.644  -8.513  -0.455  1.00  0.00     0.275 C 
HETATM   16  C8  UNL     1     -20.030  -9.485   0.647  1.00  0.00     0.062 C 
HETATM   17  C9  UNL     1     -21.429 -10.015   0.409  1.00  0.00     0.121 C 
HETATM   18  C10 UNL     1     -21.847  -9.690  -1.020  1.00  0.00     0.062 C 
HETATM   19  C11 UNL     1     -21.914  -8.167  -1.142  1.00  0.00     0.275 C 
BRANCH  17  20
HETATM   20  O3  UNL     1     -22.380  -9.370   1.228  1.00  0.00    -0.395 OA
ATOM     21  H3  UNL     1     -23.237  -9.772   1.157  1.00  0.00     0.210 HD
ENDBRANCH  17  20
ENDBRANCH   9  14
ENDBRANCH   5   6
ENDBRANCH   4   5
ENDBRANCH   2   4
BRANCH   2  22
HETATM   22  N2  UNL     1     -19.595   0.540  -2.709  1.00  0.00    -0.210 NA
HETATM   23  C14 UNL     1     -18.796   1.064  -1.629  1.00  0.00     0.107 C 
HETATM   24  C15 UNL     1     -17.841  -0.068  -1.235  1.00  0.00     0.021 C 
HETATM   25  C16 UNL     1     -18.178  -1.198  -2.120  1.00  0.00     0.002 C 
HETATM   26  C25 UNL     1     -18.833  -0.522  -3.337  1.00  0.00     0.112 C 
BRANCH  25  27
HETATM   27  C17 UNL     1     -16.983  -2.005  -2.541  1.00  0.00     0.036 C 
BRANCH  27  28
HETATM   28  C18 UNL     1     -17.292  -3.492  -2.333  1.00  0.00     0.272 C 
BRANCH  28  29
HETATM   29  N3  UNL     1     -16.268  -4.327  -2.859  1.00  0.00     0.088 N 
HETATM   30  C19 UNL     1     -15.030  -4.191  -2.148  1.00  0.00     0.275 C 
HETATM   31  C20 UNL     1     -15.086  -4.785  -0.759  1.00  0.00     0.070 C 
HETATM   32  C21 UNL     1     -15.498  -6.215  -0.825  1.00  0.00     0.082 C 
HETATM   33  C23 UNL     1     -16.810  -6.325  -1.558  1.00  0.00     0.070 C 
HETATM   34  C24 UNL     1     -16.702  -5.719  -2.933  1.00  0.00     0.275 C 
BRANCH  32  35
HETATM   35  O4  UNL     1     -14.545  -6.936  -1.537  1.00  0.00    -0.388 OA
ATOM     36  H4  UNL     1     -14.978  -7.606  -2.053  1.00  0.00     0.210 HD
ENDBRANCH  32  35
BRANCH  32  37
HETATM   37  C22 UNL     1     -15.665  -6.812   0.575  1.00  0.00     0.201 C 
BRANCH  37  38
HETATM   38  O5  UNL     1     -16.930  -6.631   1.087  1.00  0.00    -0.398 OA
ATOM     39  H5  UNL     1     -16.931  -6.159   1.912  1.00  0.00     0.209 HD
ENDBRANCH  37  38
ENDBRANCH  32  37
ENDBRANCH  28  29
ENDBRANCH  27  28
ENDBRANCH  25  27
ENDBRANCH   2  22
TORSDOF 12
ENDMDL
MODEL 4
REMARK VINA RESULT: -8.702830618      2.774      5.786
REMARK  12 active torsions:
REMARK  status: ('A' for Active; 'I' for Inactive)
REMARK    1  A    between atoms: S1_2  and  C1_4 
REMARK    2  A    between atoms: S1_2  and  N2_22 
REMARK    3  A    between atoms: C1_4  and  C2_5 
REMARK    4  A    between atoms: C2_5  and  C3_6 
REMARK    5  A    between atoms: C6_9  and  N1_10 
REMARK    6  A    between atoms: C9_13  and  O3_14 
REMARK    7  A    between atoms: C16_25  and  C17_26 
REMARK    8  A    between atoms: C17_26  and  C18_27 
REMARK    9  A    between atoms: C18_27  and  N3_28 
REMARK   10  A    between atoms: C21_31  and  O4_32 
REMARK   11  A    between atoms: C21_31  and  C22_34 
REMARK   12  A    between atoms: C22_34  and  O5_35 
ROOT
HETATM    1  O1  UNL     1     -20.924   0.528  -3.102  1.00  0.00    -0.211 OA
HETATM    2  S1  UNL     1     -21.409   0.122  -1.725  1.00  0.00     0.211 S 
HETATM    3  O2  UNL     1     -22.204   1.233  -1.096  1.00  0.00    -0.211 OA
ENDROOT
BRANCH   2   4
HETATM    4  C1  UNL     1     -19.950  -0.221  -0.734  1.00  0.00     0.158 C 
BRANCH   4   5
HETATM    5  C2  UNL     1     -18.973   0.873  -1.092  1.00  0.00     0.021 C 
BRANCH   5   6
HETATM    6  C3  UNL     1     -17.756   0.440  -1.818  1.00  0.00    -0.008 C 
HETATM    7  C4  UNL     1     -17.876  -0.900  -2.435  1.00  0.00     0.007 C 
HETATM    8  C5  UNL     1     -16.700  -1.799  -2.368  1.00  0.00     0.042 C 
HETATM    9  C6  UNL     1     -15.377  -1.129  -2.352  1.00  0.00     0.294 C 
HETATM   10  C12 UNL     1     -15.288   0.191  -1.672  1.00  0.00     0.274 C 
HETATM   11  F1  UNL     1     -14.244   0.268  -0.771  1.00  0.00    -0.204 F 
HETATM   12  F2  UNL     1     -15.059   1.233  -2.583  1.00  0.00    -0.204 F 
HETATM   13  C13 UNL     1     -16.531   0.569  -0.921  1.00  0.00     0.086 C 
BRANCH   9  14
HETATM   14  N1  UNL     1     -14.327  -1.966  -1.816  1.00  0.00     0.099 N 
HETATM   15  C7  UNL     1     -13.092  -1.890  -2.583  1.00  0.00     0.275 C 
HETATM   16  C8  UNL     1     -11.991  -2.327  -1.632  1.00  0.00     0.062 C 
HETATM   17  C9  UNL     1     -12.364  -3.636  -0.968  1.00  0.00     0.121 C 
HETATM   18  C10 UNL     1     -13.530  -4.262  -1.725  1.00  0.00     0.062 C 
HETATM   19  C11 UNL     1     -14.728  -3.324  -1.576  1.00  0.00     0.275 C 
BRANCH  17  20
HETATM   20  O3  UNL     1     -12.838  -3.441   0.346  1.00  0.00    -0.395 OA
ATOM     21  H3  UNL     1     -13.562  -4.021   0.549  1.00  0.00     0.210 HD
ENDBRANCH  17  20
ENDBRANCH   9  14
ENDBRANCH   5   6
ENDBRANCH   4   5
ENDBRANCH   2   4
BRANCH   2  22
HETATM   22  N2  UNL     1     -22.307  -1.323  -1.853  1.00  0.00    -0.210 NA
HETATM   23  C14 UNL     1     -22.716  -1.611  -3.205  1.00  0.00     0.107 C 
HETATM   24  C15 UNL     1     -21.763  -2.705  -3.699  1.00  0.00     0.021 C 
HETATM   25  C16 UNL     1     -20.836  -2.960  -2.581  1.00  0.00     0.002 C 
HETATM   26  C25 UNL     1     -21.626  -2.498  -1.345  1.00  0.00     0.112 C 
BRANCH  25  27
HETATM   27  C17 UNL     1     -20.442  -4.403  -2.450  1.00  0.00     0.036 C 
BRANCH  27  28
HETATM   28  C18 UNL     1     -19.676  -4.589  -1.135  1.00  0.00     0.272 C 
BRANCH  28  29
HETATM   29  N3  UNL     1     -18.286  -4.792  -1.353  1.00  0.00     0.088 N 
HETATM   30  C19 UNL     1     -17.682  -5.598  -0.331  1.00  0.00     0.275 C 
HETATM   31  C20 UNL     1     -18.114  -7.045  -0.398  1.00  0.00     0.070 C 
HETATM   32  C21 UNL     1     -17.827  -7.608  -1.747  1.00  0.00     0.082 C 
HETATM   33  C23 UNL     1     -18.490  -6.754  -2.797  1.00  0.00     0.070 C 
HETATM   34  C24 UNL     1     -18.028  -5.325  -2.688  1.00  0.00     0.275 C 
BRANCH  32  35
HETATM   35  O4  UNL     1     -16.455  -7.583  -1.974  1.00  0.00    -0.388 OA
ATOM     36  H4  UNL     1     -16.082  -8.425  -1.742  1.00  0.00     0.210 HD
ENDBRANCH  32  35
BRANCH  32  37
HETATM   37  C22 UNL     1     -18.351  -9.041  -1.875  1.00  0.00     0.201 C 
BRANCH  37  38
HETATM   38  O5  UNL     1     -19.027  -9.261  -3.054  1.00  0.00    -0.398 OA
ATOM     39  H5  UNL     1     -18.706 -10.019  -3.528  1.00  0.00     0.209 HD
ENDBRANCH  37  38
ENDBRANCH  32  37
ENDBRANCH  28  29
ENDBRANCH  27  28
ENDBRANCH  25  27
ENDBRANCH   2  22
TORSDOF 12
ENDMDL
MODEL 5
REMARK VINA RESULT: -8.693418660      1.015      1.156
REMARK  12 active torsions:
REMARK  status: ('A' for Active; 'I' for Inactive)
REMARK    1  A    between atoms: S1_2  and  C1_4 
REMARK    2  A    between atoms: S1_2  and  N2_22 
REMARK    3  A    between atoms: C1_4  and  C2_5 
REMARK    4  A    between atoms: C2_5  and  C3_6 
REMARK    5  A    between atoms: C6_9  and  N1_10 
REMARK    6  A    between atoms: C9_13  and  O3_14 
REMARK    7  A    between atoms: C16_25  and  C17_26 
REMARK    8  A    between atoms: C17_26  and  C18_27 
REMARK    9  A    between atoms: C18_27  and  N3_28 
REMARK   10  A    between atoms: C21_31  and  O4_32 
REMARK   11  A    between atoms: C21_31  and  C22_34 
REMARK   12  A    between atoms: C22_34  and  O5_35 
ROOT
HETATM    1  O1  UNL     1     -20.038   0.184   0.245  1.00  0.00    -0.211 OA
HETATM    2  S1  UNL     1     -20.433   0.275  -1.215  1.00  0.00     0.211 S 
HETATM    3  O2  UNL     1     -21.635   1.164  -1.382  1.00  0.00    -0.211 OA
ENDROOT
BRANCH   2   4
HETATM    4  C1  UNL     1     -20.828  -1.392  -1.757  1.00  0.00     0.158 C 
BRANCH   4   5
HETATM    5  C2  UNL     1     -20.441  -2.278  -0.598  1.00  0.00     0.021 C 
BRANCH   5   6
HETATM    6  C3  UNL     1     -21.129  -3.588  -0.527  1.00  0.00    -0.008 C 
HETATM    7  C4  UNL     1     -20.712  -4.417   0.625  1.00  0.00     0.007 C 
HETATM    8  C5  UNL     1     -20.539  -5.872   0.404  1.00  0.00     0.042 C 
HETATM    9  C6  UNL     1     -21.407  -6.472  -0.639  1.00  0.00     0.294 C 
HETATM   10  C12 UNL     1     -21.757  -5.622  -1.809  1.00  0.00     0.274 C 
HETATM   11  F1  UNL     1     -21.537  -6.249  -3.020  1.00  0.00    -0.204 F 
HETATM   12  F2  UNL     1     -23.118  -5.281  -1.819  1.00  0.00    -0.204 F 
HETATM   13  C13 UNL     1     -21.008  -4.322  -1.857  1.00  0.00     0.086 C 
BRANCH   9  14
HETATM   14  N1  UNL     1     -20.894  -7.724  -1.150  1.00  0.00     0.099 N 
HETATM   15  C7  UNL     1     -21.562  -8.886  -0.580  1.00  0.00     0.275 C 
HETATM   16  C8  UNL     1     -21.341 -10.013  -1.574  1.00  0.00     0.062 C 
HETATM   17  C9  UNL     1     -19.872 -10.112  -1.933  1.00  0.00     0.121 C 
HETATM   18  C10 UNL     1     -19.060  -9.305  -0.927  1.00  0.00     0.062 C 
HETATM   19  C11 UNL     1     -19.464  -7.839  -1.082  1.00  0.00     0.275 C 
BRANCH  17  20
HETATM   20  O3  UNL     1     -19.599  -9.524  -3.186  1.00  0.00    -0.395 OA
ATOM     21  H3  UNL     1     -19.815  -8.599  -3.196  1.00  0.00     0.210 HD
ENDBRANCH  17  20
ENDBRANCH   9  14
ENDBRANCH   5   6
ENDBRANCH   4   5
ENDBRANCH   2   4
BRANCH   2  22
HETATM   22  N2  UNL     1     -19.096   0.819  -2.123  1.00  0.00    -0.210 NA
HETATM   23  C14 UNL     1     -18.015   1.299  -1.298  1.00  0.00     0.107 C 
HETATM   24  C15 UNL     1     -16.969   0.179  -1.295  1.00  0.00     0.021 C 
HETATM   25  C16 UNL     1     -17.542  -0.902  -2.118  1.00  0.00     0.002 C 
HETATM   26  C25 UNL     1     -18.545  -0.171  -3.028  1.00  0.00     0.112 C 
BRANCH  25  27
HETATM   27  C17 UNL     1     -16.519  -1.635  -2.938  1.00  0.00     0.036 C 
BRANCH  27  28
HETATM   28  C18 UNL     1     -15.791  -2.640  -2.036  1.00  0.00     0.272 C 
BRANCH  28  29
HETATM   29  N3  UNL     1     -15.579  -3.885  -2.689  1.00  0.00     0.088 N 
HETATM   30  C19 UNL     1     -14.514  -4.641  -2.096  1.00  0.00     0.275 C 
HETATM   31  C20 UNL     1     -14.873  -5.183  -0.731  1.00  0.00     0.070 C 
HETATM   32  C21 UNL     1     -16.115  -6.001  -0.811  1.00  0.00     0.082 C 
HETATM   33  C23 UNL     1     -17.220  -5.176  -1.418  1.00  0.00     0.070 C 
HETATM   34  C24 UNL     1     -16.814  -4.660  -2.773  1.00  0.00     0.275 C 
BRANCH  32  35
HETATM   35  O4  UNL     1     -15.892  -7.097  -1.637  1.00  0.00    -0.388 OA
ATOM     36  H4  UNL     1     -15.763  -7.873  -1.104  1.00  0.00     0.210 HD
ENDBRANCH  32  35
BRANCH  32  37
HETATM   37  C22 UNL     1     -16.559  -6.475   0.576  1.00  0.00     0.201 C 
BRANCH  37  38
HETATM   38  O5  UNL     1     -15.586  -7.194   1.233  1.00  0.00    -0.398 OA
ATOM     39  H5  UNL     1     -14.706  -6.933   0.989  1.00  0.00     0.209 HD
ENDBRANCH  37  38
ENDBRANCH  32  37
ENDBRANCH  28  29
ENDBRANCH  27  28
ENDBRANCH  25  27
ENDBRANCH   2  22
TORSDOF 12
ENDMDL
