MODEL 1
REMARK VINA RESULT: -10.035767249      0.000      0.000
REMARK  10 active torsions:
REMARK  status: ('A' for Active; 'I' for Inactive)
REMARK       I    between atoms: C1_2  and  N1_3 
REMARK    1  A    between atoms: C1_2  and  C10_20 
REMARK    2  A    between atoms: N1_3  and  C2_5 
REMARK    3  A    between atoms: C5_8  and  N2_9 
REMARK    4  A    between atoms: N2_9  and  S1_11 
REMARK    5  A    between atoms: S1_11  and  C6_14 
REMARK    6  A    between atoms: C6_14  and  C7_15 
REMARK    7  A    between atoms: C10_20  and  C11_22 
REMARK    8  A    between atoms: C19_31  and  C20_32 
REMARK    9  A    between atoms: C20_32  and  O6_33 
REMARK   10  A    between atoms: C20_32  and  C21_35 
ROOT
HETATM    1  C10 UNL     1       2.215  -4.485  -2.139  1.00  0.00     0.222 C 
HETATM    2  O4  UNL     1       1.419  -5.146  -2.853  1.00  0.00    -0.287 OA
ENDROOT
BRANCH   1   3
HETATM    3  C1  UNL     1       2.933  -5.098  -1.034  1.00  0.00     0.288 C 
HETATM    4  O1  UNL     1       2.766  -4.793   0.172  1.00  0.00    -0.264 OA
HETATM    5  N1  UNL     1       3.884  -6.101  -1.312  1.00  0.00    -0.350 N 
ATOM      6  H1  UNL     1       4.040  -6.368  -2.284  1.00  0.00     0.163 HD
BRANCH   5   7
HETATM    7  C2  UNL     1       4.654  -6.774  -0.273  1.00  0.00     0.085 C 
HETATM    8  C3  UNL     1       4.247  -8.218  -0.194  1.00  0.00     0.027 C 
HETATM    9  C4  UNL     1       5.324  -9.061   0.407  1.00  0.00     0.028 C 
HETATM   10  C5  UNL     1       6.554  -9.161  -0.436  1.00  0.00     0.093 C 
HETATM   11  C8  UNL     1       6.553  -7.955  -1.386  1.00  0.00     0.028 C 
HETATM   12  C9  UNL     1       6.108  -6.711  -0.670  1.00  0.00     0.027 C 
BRANCH  10  13
HETATM   13  N2  UNL     1       7.731  -9.156   0.370  1.00  0.00    -0.315 N 
ATOM     14  H2  UNL     1       8.094  -8.296   0.781  1.00  0.00     0.172 HD
BRANCH  13  15
HETATM   15  S1  UNL     1       8.496 -10.643   0.612  1.00  0.00     0.232 S 
HETATM   16  O2  UNL     1       9.890 -10.634  -0.017  1.00  0.00    -0.206 OA
HETATM   17  O3  UNL     1       8.787 -10.748   2.111  1.00  0.00    -0.206 OA
BRANCH  15  18
HETATM   18  C6  UNL     1       7.624 -12.070   0.101  1.00  0.00     0.234 C 
BRANCH  18  19
HETATM   19  C7  UNL     1       7.934 -12.576  -1.264  1.00  0.00     0.368 C 
HETATM   20  F1  UNL     1       7.846 -11.578  -2.232  1.00  0.00    -0.213 F 
HETATM   21  F2  UNL     1       9.046 -13.352  -1.385  1.00  0.00    -0.213 F 
ENDBRANCH  18  19
ENDBRANCH  15  18
ENDBRANCH  13  15
ENDBRANCH  10  13
ENDBRANCH   5   7
ENDBRANCH   1   3
BRANCH   1  22
HETATM   22  C11 UNL     1       2.442  -3.044  -2.412  1.00  0.00     0.090 C 
HETATM   23  C12 UNL     1       1.947  -2.609  -3.776  1.00  0.00     0.188 C 
HETATM   24  O5  UNL     1       1.698  -1.193  -3.723  1.00  0.00    -0.350 OA
HETATM   25  C13 UNL     1       1.964  -0.308  -2.688  1.00  0.00     0.075 A 
HETATM   26  C14 UNL     1       0.997   0.675  -2.497  1.00  0.00     0.037 A 
HETATM   27  C18 UNL     1       3.078  -0.346  -1.876  1.00  0.00    -0.018 A 
HETATM   28  C15 UNL     1       1.147   1.613  -1.495  1.00  0.00     0.003 A 
HETATM   29  C16 UNL     1       2.251   1.593  -0.672  1.00  0.00     0.001 A 
HETATM   30  C17 UNL     1       3.198   0.620  -0.870  1.00  0.00     0.010 A 
HETATM   31  C19 UNL     1       4.200  -1.281  -1.929  1.00  0.00     0.055 C 
HETATM   32  C27 UNL     1       3.872  -2.712  -2.161  1.00  0.00     0.027 C 
BRANCH  31  33
HETATM   33  C20 UNL     1       5.262  -0.903  -2.964  1.00  0.00     0.159 C 
BRANCH  33  34
HETATM   34  O6  UNL     1       4.966   0.273  -3.623  1.00  0.00    -0.390 OA
ATOM     35  H6  UNL     1       5.605   0.487  -4.293  1.00  0.00     0.210 HD
ENDBRANCH  33  34
BRANCH  33  36
HETATM   36  C21 UNL     1       6.634  -0.905  -2.411  1.00  0.00    -0.029 A 
HETATM   37  C22 UNL     1       7.105   0.186  -1.715  1.00  0.00     0.010 A 
HETATM   38  C23 UNL     1       8.372   0.196  -1.200  1.00  0.00     0.001 A 
HETATM   39  C24 UNL     1       9.209  -0.873  -1.357  1.00  0.00     0.000 A 
HETATM   40  C25 UNL     1       8.776  -1.978  -2.043  1.00  0.00     0.001 A 
HETATM   41  C26 UNL     1       7.492  -1.977  -2.560  1.00  0.00     0.010 A 
ENDBRANCH  33  36
ENDBRANCH  31  33
ENDBRANCH   1  22
TORSDOF 10
ENDMDL
MODEL 2
REMARK VINA RESULT: -10.010013291      4.454      6.767
REMARK  10 active torsions:
REMARK  status: ('A' for Active; 'I' for Inactive)
REMARK       I    between atoms: C1_2  and  N1_3 
REMARK    1  A    between atoms: C1_2  and  C10_20 
REMARK    2  A    between atoms: N1_3  and  C2_5 
REMARK    3  A    between atoms: C5_8  and  N2_9 
REMARK    4  A    between atoms: N2_9  and  S1_11 
REMARK    5  A    between atoms: S1_11  and  C6_14 
REMARK    6  A    between atoms: C6_14  and  C7_15 
REMARK    7  A    between atoms: C10_20  and  C11_22 
REMARK    8  A    between atoms: C19_31  and  C20_32 
REMARK    9  A    between atoms: C20_32  and  O6_33 
REMARK   10  A    between atoms: C20_32  and  C21_35 
ROOT
HETATM    1  C10 UNL     1       5.942   0.906  -1.134  1.00  0.00     0.222 C 
HETATM    2  O4  UNL     1       6.115   1.759  -0.228  1.00  0.00    -0.287 OA
ENDROOT
BRANCH   1   3
HETATM    3  C1  UNL     1       7.057   0.365  -1.893  1.00  0.00     0.288 C 
HETATM    4  O1  UNL     1       7.561   0.920  -2.900  1.00  0.00    -0.264 OA
HETATM    5  N1  UNL     1       7.624  -0.860  -1.490  1.00  0.00    -0.350 N 
ATOM      6  H1  UNL     1       7.234  -1.333  -0.675  1.00  0.00     0.163 HD
BRANCH   5   7
HETATM    7  C2  UNL     1       8.745  -1.483  -2.186  1.00  0.00     0.085 C 
HETATM    8  C3  UNL     1      10.036  -0.882  -1.709  1.00  0.00     0.027 C 
HETATM    9  C4  UNL     1      11.189  -1.806  -1.931  1.00  0.00     0.028 C 
HETATM   10  C5  UNL     1      11.134  -3.050  -1.105  1.00  0.00     0.093 C 
HETATM   11  C8  UNL     1       9.671  -3.257  -0.689  1.00  0.00     0.028 C 
HETATM   12  C9  UNL     1       8.743  -2.949  -1.831  1.00  0.00     0.027 C 
BRANCH  10  13
HETATM   13  N2  UNL     1      11.604  -4.177  -1.841  1.00  0.00    -0.315 N 
ATOM     14  H2  UNL     1      10.990  -4.704  -2.463  1.00  0.00     0.172 HD
BRANCH  13  15
HETATM   15  S1  UNL     1      13.227  -4.601  -1.636  1.00  0.00     0.232 S 
HETATM   16  O2  UNL     1      13.693  -4.255  -0.221  1.00  0.00    -0.206 OA
HETATM   17  O3  UNL     1      13.288  -6.130  -1.662  1.00  0.00    -0.206 OA
BRANCH  15  18
HETATM   18  C6  UNL     1      14.360  -3.966  -2.805  1.00  0.00     0.234 C 
BRANCH  18  19
HETATM   19  C7  UNL     1      14.544  -2.489  -2.809  1.00  0.00     0.368 C 
HETATM   20  F1  UNL     1      13.837  -1.870  -3.838  1.00  0.00    -0.213 F 
HETATM   21  F2  UNL     1      14.417  -1.859  -1.609  1.00  0.00    -0.213 F 
ENDBRANCH  18  19
ENDBRANCH  15  18
ENDBRANCH  13  15
ENDBRANCH  10  13
ENDBRANCH   5   7
ENDBRANCH   1   3
BRANCH   1  22
HETATM   22  C11 UNL     1       4.575   0.424  -1.455  1.00  0.00     0.090 C 
HETATM   23  C12 UNL     1       3.588   0.631  -0.324  1.00  0.00     0.188 C 
HETATM   24  O5  UNL     1       2.267   0.669  -0.894  1.00  0.00    -0.350 OA
HETATM   25  C13 UNL     1       1.886   0.436  -2.208  1.00  0.00     0.075 A 
HETATM   26  C14 UNL     1       0.869   1.261  -2.676  1.00  0.00     0.037 A 
HETATM   27  C18 UNL     1       2.435  -0.520  -3.036  1.00  0.00    -0.018 A 
HETATM   28  C15 UNL     1       0.404   1.128  -3.969  1.00  0.00     0.003 A 
HETATM   29  C16 UNL     1       0.937   0.181  -4.814  1.00  0.00     0.001 A 
HETATM   30  C17 UNL     1       1.941  -0.628  -4.341  1.00  0.00     0.010 A 
HETATM   31  C19 UNL     1       3.489  -1.483  -2.727  1.00  0.00     0.055 C 
HETATM   32  C27 UNL     1       4.646  -0.983  -1.937  1.00  0.00     0.027 C 
BRANCH  31  33
HETATM   33  C20 UNL     1       2.982  -2.737  -2.011  1.00  0.00     0.159 C 
BRANCH  33  34
HETATM   34  O6  UNL     1       1.626  -2.932  -2.180  1.00  0.00    -0.390 OA
ATOM     35  H6  UNL     1       1.264  -3.541  -1.547  1.00  0.00     0.210 HD
ENDBRANCH  33  34
BRANCH  33  36
HETATM   36  C21 UNL     1       3.767  -3.947  -2.340  1.00  0.00    -0.029 A 
HETATM   37  C22 UNL     1       3.158  -5.180  -2.391  1.00  0.00     0.010 A 
HETATM   38  C23 UNL     1       3.874  -6.305  -2.693  1.00  0.00     0.001 A 
HETATM   39  C24 UNL     1       5.213  -6.243  -2.955  1.00  0.00     0.000 A 
HETATM   40  C25 UNL     1       5.856  -5.033  -2.915  1.00  0.00     0.001 A 
HETATM   41  C26 UNL     1       5.121  -3.901  -2.608  1.00  0.00     0.010 A 
ENDBRANCH  33  36
ENDBRANCH  31  33
ENDBRANCH   1  22
TORSDOF 10
ENDMDL
MODEL 3
REMARK VINA RESULT: -9.991376025      1.057      1.218
REMARK  10 active torsions:
REMARK  status: ('A' for Active; 'I' for Inactive)
REMARK       I    between atoms: C1_2  and  N1_3 
REMARK    1  A    between atoms: C1_2  and  C10_20 
REMARK    2  A    between atoms: N1_3  and  C2_5 
REMARK    3  A    between atoms: C5_8  and  N2_9 
REMARK    4  A    between atoms: N2_9  and  S1_11 
REMARK    5  A    between atoms: S1_11  and  C6_14 
REMARK    6  A    between atoms: C6_14  and  C7_15 
REMARK    7  A    between atoms: C10_20  and  C11_22 
REMARK    8  A    between atoms: C19_31  and  C20_32 
REMARK    9  A    between atoms: C20_32  and  O6_33 
REMARK   10  A    between atoms: C20_32  and  C21_35 
ROOT
HETATM    1  C10 UNL     1       2.219  -4.481  -2.143  1.00  0.00     0.222 C 
HETATM    2  O4  UNL     1       1.451  -5.151  -2.878  1.00  0.00    -0.287 OA
ENDROOT
BRANCH   1   3
HETATM    3  C1  UNL     1       2.907  -5.082  -1.013  1.00  0.00     0.288 C 
HETATM    4  O1  UNL     1       2.799  -4.683   0.173  1.00  0.00    -0.264 OA
HETATM    5  N1  UNL     1       3.755  -6.185  -1.239  1.00  0.00    -0.350 N 
ATOM      6  H1  UNL     1       3.862  -6.529  -2.193  1.00  0.00     0.163 HD
BRANCH   5   7
HETATM    7  C2  UNL     1       4.487  -6.856  -0.171  1.00  0.00     0.085 C 
HETATM    8  C3  UNL     1       4.103  -8.307  -0.126  1.00  0.00     0.027 C 
HETATM    9  C4  UNL     1       5.165  -9.138   0.517  1.00  0.00     0.028 C 
HETATM   10  C5  UNL     1       6.435  -9.207  -0.268  1.00  0.00     0.093 C 
HETATM   11  C8  UNL     1       6.458  -7.991  -1.205  1.00  0.00     0.028 C 
HETATM   12  C9  UNL     1       5.957  -6.763  -0.498  1.00  0.00     0.027 C 
BRANCH  10  13
HETATM   13  N2  UNL     1       7.572  -9.191   0.594  1.00  0.00    -0.315 N 
ATOM     14  H2  UNL     1       7.894  -8.331   1.039  1.00  0.00     0.172 HD
BRANCH  13  15
HETATM   15  S1  UNL     1       8.363 -10.663   0.842  1.00  0.00     0.232 S 
HETATM   16  O2  UNL     1       8.985 -10.705   2.238  1.00  0.00    -0.206 OA
HETATM   17  O3  UNL     1       7.276 -11.739   0.909  1.00  0.00    -0.206 OA
BRANCH  15  18
HETATM   18  C6  UNL     1       9.552 -11.130  -0.351  1.00  0.00     0.234 C 
BRANCH  18  19
HETATM   19  C7  UNL     1      10.685 -11.962   0.140  1.00  0.00     0.368 C 
HETATM   20  F1  UNL     1      11.692 -11.195   0.721  1.00  0.00    -0.213 F 
HETATM   21  F2  UNL     1      10.356 -13.065   0.865  1.00  0.00    -0.213 F 
ENDBRANCH  18  19
ENDBRANCH  15  18
ENDBRANCH  13  15
ENDBRANCH  10  13
ENDBRANCH   5   7
ENDBRANCH   1   3
BRANCH   1  22
HETATM   22  C11 UNL     1       2.445  -3.040  -2.417  1.00  0.00     0.090 C 
HETATM   23  C12 UNL     1       1.957  -2.608  -3.784  1.00  0.00     0.188 C 
HETATM   24  O5  UNL     1       1.704  -1.192  -3.735  1.00  0.00    -0.350 OA
HETATM   25  C13 UNL     1       1.963  -0.304  -2.699  1.00  0.00     0.075 A 
HETATM   26  C14 UNL     1       0.993   0.676  -2.514  1.00  0.00     0.037 A 
HETATM   27  C18 UNL     1       3.072  -0.340  -1.882  1.00  0.00    -0.018 A 
HETATM   28  C15 UNL     1       1.135   1.616  -1.514  1.00  0.00     0.003 A 
HETATM   29  C16 UNL     1       2.235   1.600  -0.685  1.00  0.00     0.001 A 
HETATM   30  C17 UNL     1       3.185   0.629  -0.876  1.00  0.00     0.010 A 
HETATM   31  C19 UNL     1       4.197  -1.272  -1.927  1.00  0.00     0.055 C 
HETATM   32  C27 UNL     1       3.874  -2.704  -2.159  1.00  0.00     0.027 C 
BRANCH  31  33
HETATM   33  C20 UNL     1       5.263  -0.894  -2.958  1.00  0.00     0.159 C 
BRANCH  33  34
HETATM   34  O6  UNL     1       4.947   0.259  -3.650  1.00  0.00    -0.390 OA
ATOM     35  H6  UNL     1       5.718   0.748  -3.914  1.00  0.00     0.210 HD
ENDBRANCH  33  34
BRANCH  33  36
HETATM   36  C21 UNL     1       6.627  -0.847  -2.386  1.00  0.00    -0.029 A 
HETATM   37  C22 UNL     1       7.043   0.250  -1.666  1.00  0.00     0.010 A 
HETATM   38  C23 UNL     1       8.302   0.304  -1.134  1.00  0.00     0.001 A 
HETATM   39  C24 UNL     1       9.185  -0.726  -1.298  1.00  0.00     0.000 A 
HETATM   40  C25 UNL     1       8.807  -1.836  -2.009  1.00  0.00     0.001 A 
HETATM   41  C26 UNL     1       7.531  -1.879  -2.542  1.00  0.00     0.010 A 
ENDBRANCH  33  36
ENDBRANCH  31  33
ENDBRANCH   1  22
TORSDOF 10
ENDMDL
MODEL 4
REMARK VINA RESULT: -9.989849972      0.820      1.004
REMARK  10 active torsions:
REMARK  status: ('A' for Active; 'I' for Inactive)
REMARK       I    between atoms: C1_2  and  N1_3 
REMARK    1  A    between atoms: C1_2  and  C10_20 
REMARK    2  A    between atoms: N1_3  and  C2_5 
REMARK    3  A    between atoms: C5_8  and  N2_9 
REMARK    4  A    between atoms: N2_9  and  S1_11 
REMARK    5  A    between atoms: S1_11  and  C6_14 
REMARK    6  A    between atoms: C6_14  and  C7_15 
REMARK    7  A    between atoms: C10_20  and  C11_22 
REMARK    8  A    between atoms: C19_31  and  C20_32 
REMARK    9  A    between atoms: C20_32  and  O6_33 
REMARK   10  A    between atoms: C20_32  and  C21_35 
ROOT
HETATM    1  C10 UNL     1       2.231  -4.477  -2.144  1.00  0.00     0.222 C 
HETATM    2  O4  UNL     1       1.452  -5.140  -2.874  1.00  0.00    -0.287 OA
ENDROOT
BRANCH   1   3
HETATM    3  C1  UNL     1       2.928  -5.088  -1.024  1.00  0.00     0.288 C 
HETATM    4  O1  UNL     1       2.737  -4.780   0.178  1.00  0.00    -0.264 OA
HETATM    5  N1  UNL     1       3.882  -6.092  -1.280  1.00  0.00    -0.350 N 
ATOM      6  H1  UNL     1       4.057  -6.362  -2.248  1.00  0.00     0.163 HD
BRANCH   5   7
HETATM    7  C2  UNL     1       4.631  -6.764  -0.225  1.00  0.00     0.085 C 
HETATM    8  C3  UNL     1       4.130  -8.170  -0.062  1.00  0.00     0.027 C 
HETATM    9  C4  UNL     1       5.162  -9.055   0.558  1.00  0.00     0.028 C 
HETATM   10  C5  UNL     1       6.360  -9.281  -0.306  1.00  0.00     0.093 C 
HETATM   11  C8  UNL     1       6.417  -8.128  -1.318  1.00  0.00     0.028 C 
HETATM   12  C9  UNL     1       6.075  -6.822  -0.657  1.00  0.00     0.027 C 
BRANCH  10  13
HETATM   13  N2  UNL     1       7.555  -9.318   0.472  1.00  0.00    -0.315 N 
ATOM     14  H2  UNL     1       7.964  -8.469   0.864  1.00  0.00     0.172 HD
BRANCH  13  15
HETATM   15  S1  UNL     1       8.262 -10.833   0.715  1.00  0.00     0.232 S 
HETATM   16  O2  UNL     1       9.017 -10.862   2.044  1.00  0.00    -0.206 OA
HETATM   17  O3  UNL     1       7.116 -11.821   0.940  1.00  0.00    -0.206 OA
BRANCH  15  18
HETATM   18  C6  UNL     1       9.290 -11.436  -0.564  1.00  0.00     0.234 C 
BRANCH  18  19
HETATM   19  C7  UNL     1       9.368 -10.601  -1.794  1.00  0.00     0.368 C 
HETATM   20  F1  UNL     1      10.637 -10.621  -2.368  1.00  0.00    -0.213 F 
HETATM   21  F2  UNL     1       8.361 -10.757  -2.697  1.00  0.00    -0.213 F 
ENDBRANCH  18  19
ENDBRANCH  15  18
ENDBRANCH  13  15
ENDBRANCH  10  13
ENDBRANCH   5   7
ENDBRANCH   1   3
BRANCH   1  22
HETATM   22  C11 UNL     1       2.462  -3.036  -2.412  1.00  0.00     0.090 C 
HETATM   23  C12 UNL     1       1.969  -2.596  -3.776  1.00  0.00     0.188 C 
HETATM   24  O5  UNL     1       1.722  -1.179  -3.719  1.00  0.00    -0.350 OA
HETATM   25  C13 UNL     1       1.989  -0.297  -2.681  1.00  0.00     0.075 A 
HETATM   26  C14 UNL     1       1.023   0.686  -2.489  1.00  0.00     0.037 A 
HETATM   27  C18 UNL     1       3.101  -0.340  -1.869  1.00  0.00    -0.018 A 
HETATM   28  C15 UNL     1       1.174   1.621  -1.485  1.00  0.00     0.003 A 
HETATM   29  C16 UNL     1       2.277   1.598  -0.661  1.00  0.00     0.001 A 
HETATM   30  C17 UNL     1       3.222   0.623  -0.860  1.00  0.00     0.010 A 
HETATM   31  C19 UNL     1       4.222  -1.277  -1.923  1.00  0.00     0.055 C 
HETATM   32  C27 UNL     1       3.892  -2.707  -2.159  1.00  0.00     0.027 C 
BRANCH  31  33
HETATM   33  C20 UNL     1       5.286  -0.899  -2.956  1.00  0.00     0.159 C 
BRANCH  33  34
HETATM   34  O6  UNL     1       4.992   0.280  -3.612  1.00  0.00    -0.390 OA
ATOM     35  H6  UNL     1       4.086   0.326  -3.891  1.00  0.00     0.210 HD
ENDBRANCH  33  34
BRANCH  33  36
HETATM   36  C21 UNL     1       6.657  -0.904  -2.401  1.00  0.00    -0.029 A 
HETATM   37  C22 UNL     1       7.129   0.183  -1.701  1.00  0.00     0.010 A 
HETATM   38  C23 UNL     1       8.396   0.189  -1.184  1.00  0.00     0.001 A 
HETATM   39  C24 UNL     1       9.231  -0.880  -1.345  1.00  0.00     0.000 A 
HETATM   40  C25 UNL     1       8.797  -1.982  -2.036  1.00  0.00     0.001 A 
HETATM   41  C26 UNL     1       7.514  -1.977  -2.554  1.00  0.00     0.010 A 
ENDBRANCH  33  36
ENDBRANCH  31  33
ENDBRANCH   1  22
TORSDOF 10
ENDMDL
MODEL 5
REMARK VINA RESULT: -9.886321470      5.446      7.413
REMARK  10 active torsions:
REMARK  status: ('A' for Active; 'I' for Inactive)
REMARK       I    between atoms: C1_2  and  N1_3 
REMARK    1  A    between atoms: C1_2  and  C10_20 
REMARK    2  A    between atoms: N1_3  and  C2_5 
REMARK    3  A    between atoms: C5_8  and  N2_9 
REMARK    4  A    between atoms: N2_9  and  S1_11 
REMARK    5  A    between atoms: S1_11  and  C6_14 
REMARK    6  A    between atoms: C6_14  and  C7_15 
REMARK    7  A    between atoms: C10_20  and  C11_22 
REMARK    8  A    between atoms: C19_31  and  C20_32 
REMARK    9  A    between atoms: C20_32  and  O6_33 
REMARK   10  A    between atoms: C20_32  and  C21_35 
ROOT
HETATM    1  C10 UNL     1       2.713  -4.544  -1.086  1.00  0.00     0.222 C 
HETATM    2  O4  UNL     1       3.279  -4.711   0.024  1.00  0.00    -0.287 OA
ENDROOT
BRANCH   1   3
HETATM    3  C1  UNL     1       2.071  -5.644  -1.786  1.00  0.00     0.288 C 
HETATM    4  O1  UNL     1       2.543  -6.201  -2.808  1.00  0.00    -0.264 OA
HETATM    5  N1  UNL     1       0.841  -6.133  -1.304  1.00  0.00    -0.350 N 
ATOM      6  H1  UNL     1       0.435  -5.699  -0.475  1.00  0.00     0.163 HD
BRANCH   5   7
HETATM    7  C2  UNL     1       0.121  -7.232  -1.936  1.00  0.00     0.085 C 
HETATM    8  C3  UNL     1      -0.341  -8.205  -0.890  1.00  0.00     0.027 C 
HETATM    9  C4  UNL     1      -1.510  -9.008  -1.362  1.00  0.00     0.028 C 
HETATM   10  C5  UNL     1      -2.752  -8.202  -1.565  1.00  0.00     0.093 C 
HETATM   11  C8  UNL     1      -2.322  -6.740  -1.750  1.00  0.00     0.028 C 
HETATM   12  C9  UNL     1      -1.095  -6.650  -2.614  1.00  0.00     0.027 C 
BRANCH  10  13
HETATM   13  N2  UNL     1      -3.476  -8.654  -2.708  1.00  0.00    -0.315 N 
ATOM     14  H2  UNL     1      -3.003  -9.069  -3.511  1.00  0.00     0.172 HD
BRANCH  13  15
HETATM   15  S1  UNL     1      -5.155  -8.470  -2.671  1.00  0.00     0.232 S 
HETATM   16  O2  UNL     1      -5.844  -9.824  -2.851  1.00  0.00    -0.206 OA
HETATM   17  O3  UNL     1      -5.521  -8.077  -1.238  1.00  0.00    -0.206 OA
BRANCH  15  18
HETATM   18  C6  UNL     1      -5.844  -7.303  -3.775  1.00  0.00     0.234 C 
BRANCH  18  19
HETATM   19  C7  UNL     1      -5.217  -5.953  -3.779  1.00  0.00     0.368 C 
HETATM   20  F1  UNL     1      -5.311  -5.322  -2.541  1.00  0.00    -0.213 F 
HETATM   21  F2  UNL     1      -3.982  -5.860  -4.344  1.00  0.00    -0.213 F 
ENDBRANCH  18  19
ENDBRANCH  15  18
ENDBRANCH  13  15
ENDBRANCH  10  13
ENDBRANCH   5   7
ENDBRANCH   1   3
BRANCH   1  22
HETATM   22  C11 UNL     1       2.687  -3.200  -1.716  1.00  0.00     0.090 C 
HETATM   23  C12 UNL     1       2.146  -3.214  -3.130  1.00  0.00     0.188 C 
HETATM   24  O5  UNL     1       1.649  -1.896  -3.425  1.00  0.00    -0.350 OA
HETATM   25  C13 UNL     1       1.738  -0.747  -2.651  1.00  0.00     0.075 A 
HETATM   26  C14 UNL     1       0.609   0.066  -2.683  1.00  0.00     0.037 A 
HETATM   27  C18 UNL     1       2.827  -0.386  -1.888  1.00  0.00    -0.018 A 
HETATM   28  C15 UNL     1       0.574   1.237  -1.952  1.00  0.00     0.003 A 
HETATM   29  C16 UNL     1       1.650   1.618  -1.182  1.00  0.00     0.001 A 
HETATM   30  C17 UNL     1       2.757   0.807  -1.158  1.00  0.00     0.010 A 
HETATM   31  C19 UNL     1       4.097  -1.092  -1.737  1.00  0.00     0.055 C 
HETATM   32  C27 UNL     1       4.032  -2.570  -1.596  1.00  0.00     0.027 C 
BRANCH  31  33
HETATM   33  C20 UNL     1       5.093  -0.806  -2.864  1.00  0.00     0.159 C 
BRANCH  33  34
HETATM   34  O6  UNL     1       4.719   0.273  -3.640  1.00  0.00    -0.390 OA
ATOM     35  H6  UNL     1       3.825   0.547  -3.477  1.00  0.00     0.210 HD
ENDBRANCH  33  34
BRANCH  33  36
HETATM   36  C21 UNL     1       6.489  -0.695  -2.386  1.00  0.00    -0.029 A 
HETATM   37  C22 UNL     1       7.420  -1.648  -2.729  1.00  0.00     0.010 A 
HETATM   38  C23 UNL     1       8.713  -1.556  -2.292  1.00  0.00     0.001 A 
HETATM   39  C24 UNL     1       9.122  -0.518  -1.504  1.00  0.00     0.000 A 
HETATM   40  C25 UNL     1       8.223   0.453  -1.141  1.00  0.00     0.001 A 
HETATM   41  C26 UNL     1       6.918   0.349  -1.589  1.00  0.00     0.010 A 
ENDBRANCH  33  36
ENDBRANCH  31  33
ENDBRANCH   1  22
TORSDOF 10
ENDMDL
