MODEL 1
REMARK VINA RESULT: -8.923117971      0.000      0.000
REMARK  14 active torsions:
REMARK  status: ('A' for Active; 'I' for Inactive)
REMARK    1  A    between atoms: C2_2  and  C3_3 
REMARK    2  A    between atoms: C3_3  and  O1_4 
REMARK    3  A    between atoms: C3_3  and  C4_6 
REMARK    4  A    between atoms: C4_6  and  N1_7 
REMARK    5  A    between atoms: C4_6  and  C5_11 
REMARK       I    between atoms: C5_11  and  N2_13 
REMARK    6  A    between atoms: N2_13  and  C6_15 
REMARK    7  A    between atoms: C6_15  and  C7_16 
REMARK    8  A    between atoms: C6_15  and  C14_27 
REMARK       I    between atoms: C7_16  and  N3_18 
REMARK    9  A    between atoms: C8_20  and  C9_21 
REMARK   10  A    between atoms: N5_30  and  C17_31 
REMARK   11  A    between atoms: C17_31  and  O4_32 
REMARK   12  A    between atoms: C17_31  and  C18_34 
REMARK   13  A    between atoms: C18_34  and  C19_37 
REMARK   14  A    between atoms: C21_39  and  C22_40 
ROOT
HETATM    1  C6  UNL     1       2.064  -5.261  -2.646  1.00  0.00     0.181 C 
ENDROOT
BRANCH   1   2
HETATM    2  N2  UNL     1       2.928  -6.104  -1.830  1.00  0.00    -0.346 N 
HETATM    3  C5  UNL     1       4.079  -6.768  -2.320  1.00  0.00     0.251 C 
HETATM    4  O2  UNL     1       4.372  -6.615  -3.529  1.00  0.00    -0.271 OA
ATOM      5  H2  UNL     1       2.688  -6.222  -0.845  1.00  0.00     0.163 HD
BRANCH   3   6
HETATM    6  C4  UNL     1       4.919  -7.609  -1.463  1.00  0.00     0.303 C 
BRANCH   6   7
HETATM    7  C3  UNL     1       6.277  -6.997  -1.259  1.00  0.00     0.157 C 
BRANCH   7   8
HETATM    8  C2  UNL     1       6.345  -5.949  -0.198  1.00  0.00     0.030 C 
HETATM    9  C1  UNL     1       7.801  -5.487  -0.127  1.00  0.00     0.007 C 
ENDBRANCH   7   8
BRANCH   7  10
HETATM   10  O1  UNL     1       6.873  -6.578  -2.446  1.00  0.00    -0.393 OA
ATOM     11  H1  UNL     1       7.024  -7.301  -3.043  1.00  0.00     0.210 HD
ENDBRANCH   7  10
ENDBRANCH   6   7
BRANCH   6  12
HETATM   12  N1  UNL     1       5.157  -8.921  -2.068  1.00  0.00    -0.064 N 
ATOM     13  H13 UNL     1       6.138  -9.099  -2.282  1.00  0.00     0.275 HD
ATOM     14  H12 UNL     1       5.030  -9.697  -1.419  1.00  0.00     0.275 HD
ATOM     15  H11 UNL     1       4.547  -8.968  -2.884  1.00  0.00     0.275 HD
ENDBRANCH   6  12
ENDBRANCH   3   6
ENDBRANCH   1   2
BRANCH   1  16
HETATM   16  C7  UNL     1       0.741  -5.899  -2.645  1.00  0.00     0.244 C 
HETATM   17  O3  UNL     1       0.601  -7.011  -2.072  1.00  0.00    -0.271 OA
HETATM   18  N3  UNL     1      -0.425  -5.368  -3.246  1.00  0.00    -0.335 N 
HETATM   19  C8  UNL     1      -1.618  -5.621  -2.766  1.00  0.00     0.103 C 
ATOM     20  H3  UNL     1      -0.336  -4.774  -4.070  1.00  0.00     0.168 HD
BRANCH  19  21
HETATM   21  C9  UNL     1      -2.801  -5.082  -3.377  1.00  0.00    -0.004 A 
HETATM   22  C10 UNL     1      -3.615  -4.127  -2.781  1.00  0.00     0.031 A 
HETATM   23  C11 UNL     1      -4.625  -3.901  -3.705  1.00  0.00     0.091 A 
HETATM   24  N4  UNL     1      -4.396  -4.694  -4.781  1.00  0.00    -0.370 N 
HETATM   25  C12 UNL     1      -5.238  -4.746  -5.966  1.00  0.00     0.154 C 
HETATM   26  C13 UNL     1      -3.298  -5.422  -4.613  1.00  0.00     0.102 A 
ENDBRANCH  19  21
ENDBRANCH   1  16
BRANCH   1  27
HETATM   27  C14 UNL     1       2.035  -3.852  -2.098  1.00  0.00     0.021 C 
HETATM   28  C15 UNL     1       3.262  -3.601  -1.212  1.00  0.00     0.027 C 
HETATM   29  C16 UNL     1       4.294  -2.847  -1.950  1.00  0.00     0.126 C 
HETATM   30  N5  UNL     1       3.784  -1.458  -2.387  1.00  0.00    -0.355 N 
HETATM   31  C21 UNL     1       2.398  -1.463  -2.385  1.00  0.00     0.094 C 
HETATM   32  C26 UNL     1       2.011  -2.787  -3.162  1.00  0.00     0.033 C 
BRANCH  30  33
HETATM   33  C17 UNL     1       4.874  -0.650  -2.640  1.00  0.00     0.188 C 
BRANCH  33  34
HETATM   34  O4  UNL     1       4.816  -0.112  -3.870  1.00  0.00    -0.345 OA
ATOM     35  H4  UNL     1       4.684   0.828  -3.835  1.00  0.00     0.219 HD
ENDBRANCH  33  34
BRANCH  33  36
HETATM   36  C18 UNL     1       6.080  -0.207  -1.973  1.00  0.00     0.306 C 
HETATM   37  F1  UNL     1       6.012   0.231  -0.688  1.00  0.00    -0.197 F 
HETATM   38  F2  UNL     1       6.577   0.982  -2.645  1.00  0.00    -0.197 F 
BRANCH  36  39
HETATM   39  C19 UNL     1       7.282  -1.136  -2.131  1.00  0.00     0.084 C 
HETATM   40  C20 UNL     1       8.491  -0.483  -1.519  1.00  0.00     0.012 C 
ENDBRANCH  36  39
ENDBRANCH  33  36
ENDBRANCH  30  33
BRANCH  31  41
HETATM   41  C22 UNL     1       1.474  -0.428  -2.857  1.00  0.00    -0.031 C 
HETATM   42  C23 UNL     1       0.052  -1.009  -2.527  1.00  0.00     0.016 C 
HETATM   43  C24 UNL     1       1.405  -0.225  -4.350  1.00  0.00     0.016 C 
HETATM   44  C25 UNL     1       1.501   0.832  -2.066  1.00  0.00     0.016 C 
ENDBRANCH  31  41
ENDBRANCH   1  27
TORSDOF 14
ENDMDL
MODEL 2
REMARK VINA RESULT: -8.918711199      2.774      7.488
REMARK  14 active torsions:
REMARK  status: ('A' for Active; 'I' for Inactive)
REMARK    1  A    between atoms: C2_2  and  C3_3 
REMARK    2  A    between atoms: C3_3  and  O1_4 
REMARK    3  A    between atoms: C3_3  and  C4_6 
REMARK    4  A    between atoms: C4_6  and  N1_7 
REMARK    5  A    between atoms: C4_6  and  C5_11 
REMARK       I    between atoms: C5_11  and  N2_13 
REMARK    6  A    between atoms: N2_13  and  C6_15 
REMARK    7  A    between atoms: C6_15  and  C7_16 
REMARK    8  A    between atoms: C6_15  and  C14_27 
REMARK       I    between atoms: C7_16  and  N3_18 
REMARK    9  A    between atoms: C8_20  and  C9_21 
REMARK   10  A    between atoms: N5_30  and  C17_31 
REMARK   11  A    between atoms: C17_31  and  O4_32 
REMARK   12  A    between atoms: C17_31  and  C18_34 
REMARK   13  A    between atoms: C18_34  and  C19_37 
REMARK   14  A    between atoms: C21_39  and  C22_40 
ROOT
HETATM    1  C6  UNL     1       3.558  -5.091  -1.459  1.00  0.00     0.181 C 
ENDROOT
BRANCH   1   2
HETATM    2  N2  UNL     1       2.697  -6.214  -1.809  1.00  0.00    -0.346 N 
HETATM    3  C5  UNL     1       1.885  -6.909  -0.879  1.00  0.00     0.251 C 
HETATM    4  O2  UNL     1       1.907  -6.531   0.315  1.00  0.00    -0.271 OA
ATOM      5  H2  UNL     1       2.679  -6.517  -2.783  1.00  0.00     0.163 HD
BRANCH   3   6
HETATM    6  C4  UNL     1       1.035  -8.036  -1.275  1.00  0.00     0.303 C 
BRANCH   6   7
HETATM    7  C3  UNL     1      -0.405  -7.622  -1.386  1.00  0.00     0.157 C 
BRANCH   7   8
HETATM    8  C2  UNL     1      -0.686  -6.580  -2.418  1.00  0.00     0.030 C 
HETATM    9  C1  UNL     1      -2.201  -6.557  -2.621  1.00  0.00     0.007 C 
ENDBRANCH   7   8
BRANCH   7  10
HETATM   10  O1  UNL     1      -0.982  -7.308  -0.158  1.00  0.00    -0.393 OA
ATOM     11  H1  UNL     1      -1.016  -8.060   0.422  1.00  0.00     0.210 HD
ENDBRANCH   7  10
ENDBRANCH   6   7
BRANCH   6  12
HETATM   12  N1  UNL     1       1.069  -9.108  -0.278  1.00  0.00    -0.064 N 
ATOM     13  H13 UNL     1       0.493  -8.919   0.542  1.00  0.00     0.275 HD
ATOM     14  H12 UNL     1       0.586  -9.955  -0.575  1.00  0.00     0.275 HD
ATOM     15  H11 UNL     1       2.054  -9.256  -0.059  1.00  0.00     0.275 HD
ENDBRANCH   6  12
ENDBRANCH   3   6
ENDBRANCH   1   2
BRANCH   1  16
HETATM   16  C7  UNL     1       4.926  -5.622  -1.394  1.00  0.00     0.244 C 
HETATM   17  O3  UNL     1       5.094  -6.869  -1.358  1.00  0.00    -0.271 OA
HETATM   18  N3  UNL     1       6.107  -4.842  -1.367  1.00  0.00    -0.335 N 
HETATM   19  C8  UNL     1       7.231  -5.285  -1.875  1.00  0.00     0.103 C 
ATOM     20  H3  UNL     1       6.082  -3.915  -0.944  1.00  0.00     0.168 HD
BRANCH  19  21
HETATM   21  C9  UNL     1       8.428  -4.493  -1.847  1.00  0.00    -0.004 A 
HETATM   22  C10 UNL     1       9.710  -5.025  -1.821  1.00  0.00     0.031 A 
HETATM   23  C11 UNL     1      10.550  -3.921  -1.796  1.00  0.00     0.091 A 
HETATM   24  N4  UNL     1       9.778  -2.806  -1.808  1.00  0.00    -0.370 N 
HETATM   25  C12 UNL     1      10.288  -1.445  -1.788  1.00  0.00     0.154 C 
HETATM   26  C13 UNL     1       8.487  -3.119  -1.838  1.00  0.00     0.102 A 
ENDBRANCH  19  21
ENDBRANCH   1  16
BRANCH   1  27
HETATM   27  C14 UNL     1       3.408  -3.979  -2.472  1.00  0.00     0.021 C 
HETATM   28  C15 UNL     1       2.010  -4.019  -3.103  1.00  0.00     0.027 C 
HETATM   29  C16 UNL     1       1.128  -3.009  -2.484  1.00  0.00     0.126 C 
HETATM   30  N5  UNL     1       1.660  -1.578  -2.700  1.00  0.00    -0.355 N 
HETATM   31  C21 UNL     1       3.012  -1.637  -2.998  1.00  0.00     0.094 C 
HETATM   32  C26 UNL     1       3.614  -2.603  -1.898  1.00  0.00     0.033 C 
BRANCH  30  33
HETATM   33  C17 UNL     1       0.616  -0.691  -2.528  1.00  0.00     0.188 C 
BRANCH  33  34
HETATM   34  O4  UNL     1      -0.548  -1.330  -2.324  1.00  0.00    -0.345 OA
ATOM     35  H4  UNL     1      -0.936  -1.617  -3.143  1.00  0.00     0.219 HD
ENDBRANCH  33  34
BRANCH  33  36
HETATM   36  C18 UNL     1       0.394   0.739  -2.508  1.00  0.00     0.306 C 
HETATM   37  F1  UNL     1       1.330   1.555  -1.954  1.00  0.00    -0.197 F 
HETATM   38  F2  UNL     1      -0.755   1.024  -1.666  1.00  0.00    -0.197 F 
BRANCH  36  39
HETATM   39  C19 UNL     1      -0.079   1.336  -3.831  1.00  0.00     0.084 C 
HETATM   40  C20 UNL     1       0.584   0.605  -4.966  1.00  0.00     0.012 C 
ENDBRANCH  36  39
ENDBRANCH  33  36
ENDBRANCH  30  33
BRANCH  31  41
HETATM   41  C22 UNL     1       3.971  -0.538  -3.143  1.00  0.00    -0.031 C 
HETATM   42  C23 UNL     1       5.369  -1.254  -3.172  1.00  0.00     0.016 C 
HETATM   43  C24 UNL     1       4.105   0.392  -1.964  1.00  0.00     0.016 C 
HETATM   44  C25 UNL     1       3.931   0.147  -4.464  1.00  0.00     0.016 C 
ENDBRANCH  31  41
ENDBRANCH   1  27
TORSDOF 14
ENDMDL
MODEL 3
REMARK VINA RESULT: -8.879212267      1.021      1.116
REMARK  14 active torsions:
REMARK  status: ('A' for Active; 'I' for Inactive)
REMARK    1  A    between atoms: C2_2  and  C3_3 
REMARK    2  A    between atoms: C3_3  and  O1_4 
REMARK    3  A    between atoms: C3_3  and  C4_6 
REMARK    4  A    between atoms: C4_6  and  N1_7 
REMARK    5  A    between atoms: C4_6  and  C5_11 
REMARK       I    between atoms: C5_11  and  N2_13 
REMARK    6  A    between atoms: N2_13  and  C6_15 
REMARK    7  A    between atoms: C6_15  and  C7_16 
REMARK    8  A    between atoms: C6_15  and  C14_27 
REMARK       I    between atoms: C7_16  and  N3_18 
REMARK    9  A    between atoms: C8_20  and  C9_21 
REMARK   10  A    between atoms: N5_30  and  C17_31 
REMARK   11  A    between atoms: C17_31  and  O4_32 
REMARK   12  A    between atoms: C17_31  and  C18_34 
REMARK   13  A    between atoms: C18_34  and  C19_37 
REMARK   14  A    between atoms: C21_39  and  C22_40 
ROOT
HETATM    1  C6  UNL     1       1.688  -5.771  -2.574  1.00  0.00     0.181 C 
ENDROOT
BRANCH   1   2
HETATM    2  N2  UNL     1       2.488  -6.725  -1.817  1.00  0.00    -0.346 N 
HETATM    3  C5  UNL     1       3.736  -7.234  -2.254  1.00  0.00     0.251 C 
HETATM    4  O2  UNL     1       4.177  -6.835  -3.356  1.00  0.00    -0.271 OA
ATOM      5  H2  UNL     1       2.128  -7.045  -0.918  1.00  0.00     0.163 HD
BRANCH   3   6
HETATM    6  C4  UNL     1       4.507  -8.196  -1.461  1.00  0.00     0.303 C 
BRANCH   6   7
HETATM    7  C3  UNL     1       5.835  -7.625  -1.050  1.00  0.00     0.157 C 
BRANCH   7   8
HETATM    8  C2  UNL     1       5.778  -6.625   0.057  1.00  0.00     0.030 C 
HETATM    9  C1  UNL     1       7.112  -5.878   0.047  1.00  0.00     0.007 C 
ENDBRANCH   7   8
BRANCH   7  10
HETATM   10  O1  UNL     1       6.593  -7.169  -2.126  1.00  0.00    -0.393 OA
ATOM     11  H1  UNL     1       6.796  -7.866  -2.739  1.00  0.00     0.210 HD
ENDBRANCH   7  10
ENDBRANCH   6   7
BRANCH   6  12
HETATM   12  N1  UNL     1       4.811  -9.404  -2.231  1.00  0.00    -0.064 N 
ATOM     13  H13 UNL     1       5.747  -9.772  -2.059  1.00  0.00     0.275 HD
ATOM     14  H12 UNL     1       4.296 -10.226  -1.918  1.00  0.00     0.275 HD
ATOM     15  H11 UNL     1       4.641  -9.163  -3.208  1.00  0.00     0.275 HD
ENDBRANCH   6  12
ENDBRANCH   3   6
ENDBRANCH   1   2
BRANCH   1  16
HETATM   16  C7  UNL     1       0.307  -6.273  -2.544  1.00  0.00     0.244 C 
HETATM   17  O3  UNL     1       0.056  -7.327  -1.906  1.00  0.00    -0.271 OA
HETATM   18  N3  UNL     1      -0.798  -5.664  -3.185  1.00  0.00    -0.335 N 
HETATM   19  C8  UNL     1      -2.011  -5.768  -2.700  1.00  0.00     0.103 C 
ATOM     20  H3  UNL     1      -0.648  -5.134  -4.043  1.00  0.00     0.168 HD
BRANCH  19  21
HETATM   21  C9  UNL     1      -3.133  -5.151  -3.352  1.00  0.00    -0.004 A 
HETATM   22  C10 UNL     1      -3.953  -4.203  -2.753  1.00  0.00     0.031 A 
HETATM   23  C11 UNL     1      -4.892  -3.887  -3.724  1.00  0.00     0.091 A 
HETATM   24  N4  UNL     1      -4.618  -4.623  -4.830  1.00  0.00    -0.370 N 
HETATM   25  C12 UNL     1      -5.381  -4.576  -6.066  1.00  0.00     0.154 C 
HETATM   26  C13 UNL     1      -3.558  -5.399  -4.636  1.00  0.00     0.102 A 
ENDBRANCH  19  21
ENDBRANCH   1  16
BRANCH   1  27
HETATM   27  C14 UNL     1       1.821  -4.387  -1.980  1.00  0.00     0.021 C 
HETATM   28  C15 UNL     1       3.013  -4.334  -1.016  1.00  0.00     0.027 C 
HETATM   29  C16 UNL     1       4.185  -3.714  -1.666  1.00  0.00     0.126 C 
HETATM   30  N5  UNL     1       3.901  -2.257  -2.083  1.00  0.00    -0.355 N 
HETATM   31  C21 UNL     1       2.531  -2.067  -2.163  1.00  0.00     0.094 C 
HETATM   32  C26 UNL     1       2.012  -3.302  -3.006  1.00  0.00     0.033 C 
BRANCH  30  33
HETATM   33  C17 UNL     1       5.107  -1.604  -2.245  1.00  0.00     0.188 C 
BRANCH  33  34
HETATM   34  O4  UNL     1       6.143  -2.458  -2.192  1.00  0.00    -0.345 OA
ATOM     35  H4  UNL     1       6.833  -2.134  -1.626  1.00  0.00     0.219 HD
ENDBRANCH  33  34
BRANCH  33  36
HETATM   36  C18 UNL     1       5.597  -0.258  -2.449  1.00  0.00     0.306 C 
HETATM   37  F1  UNL     1       5.193   0.444  -3.541  1.00  0.00    -0.197 F 
HETATM   38  F2  UNL     1       7.033  -0.310  -2.668  1.00  0.00    -0.197 F 
BRANCH  36  39
HETATM   39  C19 UNL     1       5.539   0.643  -1.217  1.00  0.00     0.084 C 
HETATM   40  C20 UNL     1       6.936   1.073  -0.856  1.00  0.00     0.012 C 
ENDBRANCH  36  39
ENDBRANCH  33  36
ENDBRANCH  30  33
BRANCH  31  41
HETATM   41  C22 UNL     1       1.791  -0.900  -2.651  1.00  0.00    -0.031 C 
HETATM   42  C23 UNL     1       0.283  -1.304  -2.473  1.00  0.00     0.016 C 
HETATM   43  C24 UNL     1       1.882  -0.623  -4.131  1.00  0.00     0.016 C 
HETATM   44  C25 UNL     1       1.906   0.310  -1.792  1.00  0.00     0.016 C 
ENDBRANCH  31  41
ENDBRANCH   1  27
TORSDOF 14
ENDMDL
MODEL 4
REMARK VINA RESULT: -8.775842089      1.520      1.818
REMARK  14 active torsions:
REMARK  status: ('A' for Active; 'I' for Inactive)
REMARK    1  A    between atoms: C2_2  and  C3_3 
REMARK    2  A    between atoms: C3_3  and  O1_4 
REMARK    3  A    between atoms: C3_3  and  C4_6 
REMARK    4  A    between atoms: C4_6  and  N1_7 
REMARK    5  A    between atoms: C4_6  and  C5_11 
REMARK       I    between atoms: C5_11  and  N2_13 
REMARK    6  A    between atoms: N2_13  and  C6_15 
REMARK    7  A    between atoms: C6_15  and  C7_16 
REMARK    8  A    between atoms: C6_15  and  C14_27 
REMARK       I    between atoms: C7_16  and  N3_18 
REMARK    9  A    between atoms: C8_20  and  C9_21 
REMARK   10  A    between atoms: N5_30  and  C17_31 
REMARK   11  A    between atoms: C17_31  and  O4_32 
REMARK   12  A    between atoms: C17_31  and  C18_34 
REMARK   13  A    between atoms: C18_34  and  C19_37 
REMARK   14  A    between atoms: C21_39  and  C22_40 
ROOT
HETATM    1  C6  UNL     1       1.667  -5.850  -2.528  1.00  0.00     0.181 C 
ENDROOT
BRANCH   1   2
HETATM    2  N2  UNL     1       2.441  -6.798  -1.735  1.00  0.00    -0.346 N 
HETATM    3  C5  UNL     1       3.686  -7.338  -2.140  1.00  0.00     0.251 C 
HETATM    4  O2  UNL     1       4.150  -6.974  -3.245  1.00  0.00    -0.271 OA
ATOM      5  H2  UNL     1       2.062  -7.089  -0.834  1.00  0.00     0.163 HD
BRANCH   3   6
HETATM    6  C4  UNL     1       4.430  -8.292  -1.311  1.00  0.00     0.303 C 
BRANCH   6   7
HETATM    7  C3  UNL     1       4.420  -9.666  -1.919  1.00  0.00     0.157 C 
BRANCH   7   8
HETATM    8  C2  UNL     1       5.727 -10.388  -1.872  1.00  0.00     0.030 C 
HETATM    9  C1  UNL     1       6.810  -9.327  -1.678  1.00  0.00     0.007 C 
ENDBRANCH   7   8
BRANCH   7  10
HETATM   10  O1  UNL     1       3.850  -9.700  -3.190  1.00  0.00    -0.393 OA
ATOM     11  H1  UNL     1       2.938  -9.963  -3.164  1.00  0.00     0.210 HD
ENDBRANCH   7  10
ENDBRANCH   6   7
BRANCH   6  12
HETATM   12  N1  UNL     1       3.826  -8.435   0.014  1.00  0.00    -0.064 N 
ATOM     13  H13 UNL     1       2.810  -8.334   0.012  1.00  0.00     0.275 HD
ATOM     14  H12 UNL     1       3.854  -9.388   0.374  1.00  0.00     0.275 HD
ATOM     15  H11 UNL     1       4.301  -7.759   0.613  1.00  0.00     0.275 HD
ENDBRANCH   6  12
ENDBRANCH   3   6
ENDBRANCH   1   2
BRANCH   1  16
HETATM   16  C7  UNL     1       0.281  -6.335  -2.516  1.00  0.00     0.244 C 
HETATM   17  O3  UNL     1       0.011  -7.394  -1.892  1.00  0.00    -0.271 OA
HETATM   18  N3  UNL     1      -0.812  -5.705  -3.158  1.00  0.00    -0.335 N 
HETATM   19  C8  UNL     1      -2.030  -5.799  -2.683  1.00  0.00     0.103 C 
ATOM     20  H3  UNL     1      -0.648  -5.167  -4.008  1.00  0.00     0.168 HD
BRANCH  19  21
HETATM   21  C9  UNL     1      -3.139  -5.160  -3.337  1.00  0.00    -0.004 A 
HETATM   22  C10 UNL     1      -3.955  -4.214  -2.732  1.00  0.00     0.031 A 
HETATM   23  C11 UNL     1      -4.881  -3.872  -3.707  1.00  0.00     0.091 A 
HETATM   24  N4  UNL     1      -4.602  -4.593  -4.822  1.00  0.00    -0.370 N 
HETATM   25  C12 UNL     1      -5.351  -4.518  -6.065  1.00  0.00     0.154 C 
HETATM   26  C13 UNL     1      -3.552  -5.383  -4.629  1.00  0.00     0.102 A 
ENDBRANCH  19  21
ENDBRANCH   1  16
BRANCH   1  27
HETATM   27  C14 UNL     1       1.806  -4.456  -1.960  1.00  0.00     0.021 C 
HETATM   28  C15 UNL     1       3.008  -4.385  -1.010  1.00  0.00     0.027 C 
HETATM   29  C16 UNL     1       4.172  -3.776  -1.684  1.00  0.00     0.126 C 
HETATM   30  N5  UNL     1       3.884  -2.327  -2.125  1.00  0.00    -0.355 N 
HETATM   31  C21 UNL     1       2.512  -2.139  -2.194  1.00  0.00     0.094 C 
HETATM   32  C26 UNL     1       1.986  -3.389  -3.008  1.00  0.00     0.033 C 
BRANCH  30  33
HETATM   33  C17 UNL     1       5.087  -1.677  -2.311  1.00  0.00     0.188 C 
BRANCH  33  34
HETATM   34  O4  UNL     1       6.116  -2.540  -2.345  1.00  0.00    -0.345 OA
ATOM     35  H4  UNL     1       6.161  -2.996  -3.177  1.00  0.00     0.219 HD
ENDBRANCH  33  34
BRANCH  33  36
HETATM   36  C18 UNL     1       5.581  -0.326  -2.475  1.00  0.00     0.306 C 
HETATM   37  F1  UNL     1       5.181   0.408  -3.547  1.00  0.00    -0.197 F 
HETATM   38  F2  UNL     1       7.016  -0.375  -2.692  1.00  0.00    -0.197 F 
BRANCH  36  39
HETATM   39  C19 UNL     1       5.522   0.539  -1.218  1.00  0.00     0.084 C 
HETATM   40  C20 UNL     1       6.914   0.984  -0.861  1.00  0.00     0.012 C 
ENDBRANCH  36  39
ENDBRANCH  33  36
ENDBRANCH  30  33
BRANCH  31  41
HETATM   41  C22 UNL     1       1.767  -0.982  -2.696  1.00  0.00    -0.031 C 
HETATM   42  C23 UNL     1       0.261  -1.395  -2.521  1.00  0.00     0.016 C 
HETATM   43  C24 UNL     1       1.862  -0.717  -4.177  1.00  0.00     0.016 C 
HETATM   44  C25 UNL     1       1.869   0.236  -1.847  1.00  0.00     0.016 C 
ENDBRANCH  31  41
ENDBRANCH   1  27
TORSDOF 14
ENDMDL
MODEL 5
REMARK VINA RESULT: -8.720474674      1.656      1.950
REMARK  14 active torsions:
REMARK  status: ('A' for Active; 'I' for Inactive)
REMARK    1  A    between atoms: C2_2  and  C3_3 
REMARK    2  A    between atoms: C3_3  and  O1_4 
REMARK    3  A    between atoms: C3_3  and  C4_6 
REMARK    4  A    between atoms: C4_6  and  N1_7 
REMARK    5  A    between atoms: C4_6  and  C5_11 
REMARK       I    between atoms: C5_11  and  N2_13 
REMARK    6  A    between atoms: N2_13  and  C6_15 
REMARK    7  A    between atoms: C6_15  and  C7_16 
REMARK    8  A    between atoms: C6_15  and  C14_27 
REMARK       I    between atoms: C7_16  and  N3_18 
REMARK    9  A    between atoms: C8_20  and  C9_21 
REMARK   10  A    between atoms: N5_30  and  C17_31 
REMARK   11  A    between atoms: C17_31  and  O4_32 
REMARK   12  A    between atoms: C17_31  and  C18_34 
REMARK   13  A    between atoms: C18_34  and  C19_37 
REMARK   14  A    between atoms: C21_39  and  C22_40 
ROOT
HETATM    1  C6  UNL     1       2.412  -6.617  -1.925  1.00  0.00     0.181 C 
ENDROOT
BRANCH   1   2
HETATM    2  N2  UNL     1       3.205  -7.462  -1.041  1.00  0.00    -0.346 N 
HETATM    3  C5  UNL     1       4.285  -8.270  -1.475  1.00  0.00     0.251 C 
HETATM    4  O2  UNL     1       4.575  -8.251  -2.694  1.00  0.00    -0.271 OA
ATOM      5  H2  UNL     1       2.968  -7.472  -0.049  1.00  0.00     0.163 HD
BRANCH   3   6
HETATM    6  C4  UNL     1       5.054  -9.108  -0.552  1.00  0.00     0.303 C 
BRANCH   6   7
HETATM    7  C3  UNL     1       6.445  -8.573  -0.358  1.00  0.00     0.157 C 
BRANCH   7   8
HETATM    8  C2  UNL     1       6.544  -7.369   0.519  1.00  0.00     0.030 C 
HETATM    9  C1  UNL     1       7.656  -6.493  -0.058  1.00  0.00     0.007 C 
ENDBRANCH   7   8
BRANCH   7  10
HETATM   10  O1  UNL     1       7.139  -8.406  -1.555  1.00  0.00    -0.393 OA
ATOM     11  H1  UNL     1       6.668  -8.771  -2.294  1.00  0.00     0.210 HD
ENDBRANCH   7  10
ENDBRANCH   6   7
BRANCH   6  12
HETATM   12  N1  UNL     1       5.215 -10.468  -1.069  1.00  0.00    -0.064 N 
ATOM     13  H13 UNL     1       5.713 -10.509  -1.958  1.00  0.00     0.275 HD
ATOM     14  H12 UNL     1       5.874 -11.032  -0.533  1.00  0.00     0.275 HD
ATOM     15  H11 UNL     1       4.276 -10.865  -1.109  1.00  0.00     0.275 HD
ENDBRANCH   6  12
ENDBRANCH   3   6
ENDBRANCH   1   2
BRANCH   1  16
HETATM   16  C7  UNL     1       1.031  -7.111  -1.842  1.00  0.00     0.244 C 
HETATM   17  O3  UNL     1       0.796  -8.152  -1.176  1.00  0.00    -0.271 OA
HETATM   18  N3  UNL     1      -0.092  -6.509  -2.458  1.00  0.00    -0.335 N 
HETATM   19  C8  UNL     1      -1.289  -6.597  -1.931  1.00  0.00     0.103 C 
ATOM     20  H3  UNL     1       0.033  -5.995  -3.330  1.00  0.00     0.168 HD
BRANCH  19  21
HETATM   21  C9  UNL     1      -2.428  -5.986  -2.558  1.00  0.00    -0.004 A 
HETATM   22  C10 UNL     1      -2.395  -5.381  -3.808  1.00  0.00     0.031 A 
HETATM   23  C11 UNL     1      -3.690  -4.931  -4.016  1.00  0.00     0.091 A 
HETATM   24  N4  UNL     1      -4.431  -5.266  -2.930  1.00  0.00    -0.370 N 
HETATM   25  C12 UNL     1      -5.844  -4.965  -2.767  1.00  0.00     0.154 C 
HETATM   26  C13 UNL     1      -3.695  -5.906  -2.029  1.00  0.00     0.102 A 
ENDBRANCH  19  21
ENDBRANCH   1  16
BRANCH   1  27
HETATM   27  C14 UNL     1       2.541  -5.167  -1.518  1.00  0.00     0.021 C 
HETATM   28  C15 UNL     1       3.779  -4.970  -0.633  1.00  0.00     0.027 C 
HETATM   29  C16 UNL     1       4.901  -4.417  -1.418  1.00  0.00     0.126 C 
HETATM   30  N5  UNL     1       4.561  -3.030  -2.001  1.00  0.00    -0.355 N 
HETATM   31  C21 UNL     1       3.184  -2.876  -2.031  1.00  0.00     0.094 C 
HETATM   32  C26 UNL     1       2.654  -4.218  -2.683  1.00  0.00     0.033 C 
BRANCH  30  33
HETATM   33  C17 UNL     1       5.741  -2.382  -2.308  1.00  0.00     0.188 C 
BRANCH  33  34
HETATM   34  O4  UNL     1       6.796  -3.208  -2.220  1.00  0.00    -0.345 OA
ATOM     35  H4  UNL     1       6.700  -3.960  -2.793  1.00  0.00     0.219 HD
ENDBRANCH  33  34
BRANCH  33  36
HETATM   36  C18 UNL     1       6.189  -1.061  -2.692  1.00  0.00     0.306 C 
HETATM   37  F1  UNL     1       5.392  -0.285  -3.474  1.00  0.00    -0.197 F 
HETATM   38  F2  UNL     1       7.363  -1.192  -3.538  1.00  0.00    -0.197 F 
BRANCH  36  39
HETATM   39  C19 UNL     1       6.761  -0.218  -1.555  1.00  0.00     0.084 C 
HETATM   40  C20 UNL     1       5.764   0.847  -1.183  1.00  0.00     0.012 C 
ENDBRANCH  36  39
ENDBRANCH  33  36
ENDBRANCH  30  33
BRANCH  31  41
HETATM   41  C22 UNL     1       2.393  -1.795  -2.624  1.00  0.00    -0.031 C 
HETATM   42  C23 UNL     1       0.906  -2.273  -2.450  1.00  0.00     0.016 C 
HETATM   43  C24 UNL     1       2.508  -1.624  -4.117  1.00  0.00     0.016 C 
HETATM   44  C25 UNL     1       2.414  -0.520  -1.856  1.00  0.00     0.016 C 
ENDBRANCH  31  41
ENDBRANCH   1  27
TORSDOF 14
ENDMDL
