MODEL 1
REMARK VINA RESULT: -8.946211455      0.000      0.000
REMARK  10 active torsions:
REMARK  status: ('A' for Active; 'I' for Inactive)
REMARK    1  A    between atoms: C2_2  and  C4_4 
REMARK    2  A    between atoms: C4_4  and  N1_5 
REMARK    3  A    between atoms: C4_4  and  C13_15 
REMARK    4  A    between atoms: N1_5  and  C5_7 
REMARK       I    between atoms: C13_15  and  N2_17 
REMARK    5  A    between atoms: C16_21  and  O3_22 
REMARK    6  A    between atoms: C19_26  and  C20_27 
REMARK       I    between atoms: C20_27  and  N3_29 
REMARK    7  A    between atoms: N3_29  and  C21_31 
REMARK    8  A    between atoms: C21_31  and  C22_32 
REMARK    9  A    between atoms: C21_31  and  C25_38 
REMARK   10  A    between atoms: C22_32  and  C23_34 
ROOT
HETATM    1  C13 UNL     1       4.480  -5.801  -1.378  1.00  0.00     0.267 C 
HETATM    2  O1  UNL     1       5.527  -5.245  -1.860  1.00  0.00    -0.269 OA
HETATM    3  N2  UNL     1       3.246  -5.304  -1.763  1.00  0.00    -0.210 N 
HETATM    4  O2  UNL     1       2.084  -5.826  -1.324  1.00  0.00    -0.269 OA
HETATM    5  C14 UNL     1       1.395  -6.394  -2.374  1.00  0.00     0.161 A 
HETATM    6  C15 UNL     1      -0.084  -6.534  -2.064  1.00  0.00     0.067 A 
HETATM    7  C16 UNL     1      -0.376  -5.496  -3.098  1.00  0.00     0.127 A 
HETATM    8  C17 UNL     1       1.084  -5.383  -3.463  1.00  0.00     0.048 A 
HETATM    9  C18 UNL     1       1.678  -4.030  -3.116  1.00  0.00     0.047 C 
HETATM   10  C19 UNL     1       3.129  -4.177  -2.681  1.00  0.00     0.210 C 
ENDROOT
BRANCH   1  11
HETATM   11  C4  UNL     1       4.741  -6.962  -0.428  1.00  0.00     0.175 C 
BRANCH  11  12
HETATM   12  C2  UNL     1       6.185  -7.009  -0.091  1.00  0.00     0.009 C 
HETATM   13  C1  UNL     1       6.469  -7.469   1.324  1.00  0.00     0.012 C 
HETATM   14  C3  UNL     1       7.050  -7.851  -0.997  1.00  0.00     0.012 C 
ENDBRANCH  11  12
BRANCH  11  15
HETATM   15  N1  UNL     1       4.188  -8.116  -1.011  1.00  0.00    -0.404 N 
ATOM     16  H1  UNL     1       4.639  -8.440  -1.866  1.00  0.00     0.154 HD
BRANCH  15  17
HETATM   17  C5  UNL     1       3.118  -8.866  -0.579  1.00  0.00     0.085 C 
HETATM   18  C6  UNL     1       2.524  -8.550   0.733  1.00  0.00     0.025 C 
HETATM   19  C7  UNL     1       1.687  -9.640   1.373  1.00  0.00     0.002 C 
HETATM   20  C8  UNL     1       2.277 -11.000   1.333  1.00  0.00     0.001 C 
HETATM   21  C9  UNL     1       2.582 -11.295  -0.125  1.00  0.00     0.011 C 
HETATM   22  C10 UNL     1       3.590 -10.352  -0.672  1.00  0.00    -0.028 C 
HETATM   23  C11 UNL     1       4.885 -10.532   0.066  1.00  0.00     0.017 C 
HETATM   24  C12 UNL     1       3.816 -10.684  -2.132  1.00  0.00     0.017 C 
ENDBRANCH  15  17
ENDBRANCH  11  15
ENDBRANCH   1  11
BRANCH  10  25
HETATM   25  C20 UNL     1       3.530  -2.886  -2.068  1.00  0.00     0.243 C 
HETATM   26  O4  UNL     1       2.774  -2.520  -1.102  1.00  0.00    -0.271 OA
HETATM   27  N3  UNL     1       4.627  -2.124  -2.490  1.00  0.00    -0.347 N 
ATOM     28  H3  UNL     1       5.184  -2.479  -3.267  1.00  0.00     0.163 HD
BRANCH  27  29
HETATM   29  C21 UNL     1       5.026  -0.849  -1.887  1.00  0.00     0.164 C 
BRANCH  29  30
HETATM   30  C22 UNL     1       6.502  -0.858  -1.936  1.00  0.00     0.220 C 
HETATM   31  O5  UNL     1       7.036  -1.926  -2.299  1.00  0.00    -0.289 OA
BRANCH  30  32
HETATM   32  C23 UNL     1       7.411   0.248  -1.599  1.00  0.00     0.301 C 
HETATM   33  C24 UNL     1       8.776  -0.265  -1.166  1.00  0.00     0.099 C 
HETATM   34  F1  UNL     1       7.504   1.231  -2.515  1.00  0.00    -0.198 F 
HETATM   35  F2  UNL     1       6.891   0.859  -0.434  1.00  0.00    -0.198 F 
ENDBRANCH  30  32
ENDBRANCH  29  30
BRANCH  29  36
HETATM   36  C25 UNL     1       4.359   0.296  -2.564  1.00  0.00     0.008 C 
HETATM   37  C26 UNL     1       3.512  -0.030  -3.754  1.00  0.00     0.012 C 
HETATM   38  C27 UNL     1       3.417   0.956  -1.545  1.00  0.00     0.012 C 
ENDBRANCH  29  36
ENDBRANCH  27  29
ENDBRANCH  10  25
BRANCH   7  39
HETATM   39  O3  UNL     1      -0.891  -4.329  -2.512  1.00  0.00    -0.395 OA
ATOM     40  H3  UNL     1      -1.576  -3.950  -3.049  1.00  0.00     0.210 HD
ENDBRANCH   7  39
TORSDOF 10
ENDMDL
MODEL 2
REMARK VINA RESULT: -8.880322357      3.610      8.701
REMARK  10 active torsions:
REMARK  status: ('A' for Active; 'I' for Inactive)
REMARK    1  A    between atoms: C2_2  and  C4_4 
REMARK    2  A    between atoms: C4_4  and  N1_5 
REMARK    3  A    between atoms: C4_4  and  C13_15 
REMARK    4  A    between atoms: N1_5  and  C5_7 
REMARK       I    between atoms: C13_15  and  N2_17 
REMARK    5  A    between atoms: C16_21  and  O3_22 
REMARK    6  A    between atoms: C19_26  and  C20_27 
REMARK       I    between atoms: C20_27  and  N3_29 
REMARK    7  A    between atoms: N3_29  and  C21_31 
REMARK    8  A    between atoms: C21_31  and  C22_32 
REMARK    9  A    between atoms: C21_31  and  C25_38 
REMARK   10  A    between atoms: C22_32  and  C23_34 
ROOT
HETATM    1  C13 UNL     1       1.687  -3.991  -2.395  1.00  0.00     0.267 C 
HETATM    2  O1  UNL     1       0.767  -4.278  -3.238  1.00  0.00    -0.269 OA
HETATM    3  N2  UNL     1       2.351  -5.038  -1.779  1.00  0.00    -0.210 N 
HETATM    4  O2  UNL     1       3.343  -4.845  -0.887  1.00  0.00    -0.269 OA
HETATM    5  C14 UNL     1       4.534  -5.317  -1.396  1.00  0.00     0.161 A 
HETATM    6  C15 UNL     1       5.543  -5.592  -0.297  1.00  0.00     0.067 A 
HETATM    7  C16 UNL     1       5.426  -7.053  -0.586  1.00  0.00     0.127 A 
HETATM    8  C17 UNL     1       4.466  -6.798  -1.722  1.00  0.00     0.048 A 
HETATM    9  C18 UNL     1       3.073  -7.337  -1.451  1.00  0.00     0.047 C 
HETATM   10  C19 UNL     1       2.017  -6.429  -2.066  1.00  0.00     0.210 C 
ENDROOT
BRANCH   1  11
HETATM   11  C4  UNL     1       1.932  -2.504  -2.183  1.00  0.00     0.175 C 
BRANCH  11  12
HETATM   12  C2  UNL     1       1.026  -1.724  -3.062  1.00  0.00     0.009 C 
HETATM   13  C1  UNL     1       0.202  -0.687  -2.327  1.00  0.00     0.012 C 
HETATM   14  C3  UNL     1       1.679  -1.010  -4.221  1.00  0.00     0.012 C 
ENDBRANCH  11  12
BRANCH  11  15
HETATM   15  N1  UNL     1       3.312  -2.278  -2.335  1.00  0.00    -0.404 N 
ATOM     16  H1  UNL     1       3.765  -2.795  -3.088  1.00  0.00     0.154 HD
BRANCH  15  17
HETATM   17  C5  UNL     1       4.130  -1.450  -1.601  1.00  0.00     0.085 C 
HETATM   18  C6  UNL     1       3.590  -0.159  -1.139  1.00  0.00     0.025 C 
HETATM   19  C7  UNL     1       4.607   0.897  -0.753  1.00  0.00     0.002 C 
HETATM   20  C8  UNL     1       5.738   1.065  -1.698  1.00  0.00     0.001 C 
HETATM   21  C9  UNL     1       6.370  -0.306  -1.860  1.00  0.00     0.011 C 
HETATM   22  C10 UNL     1       5.422  -1.277  -2.463  1.00  0.00    -0.028 C 
HETATM   23  C11 UNL     1       5.063  -0.819  -3.847  1.00  0.00     0.017 C 
HETATM   24  C12 UNL     1       6.108  -2.622  -2.560  1.00  0.00     0.017 C 
ENDBRANCH  15  17
ENDBRANCH  11  15
ENDBRANCH   1  11
BRANCH  10  25
HETATM   25  C20 UNL     1       0.709  -6.840  -1.498  1.00  0.00     0.243 C 
HETATM   26  O4  UNL     1       0.788  -7.293  -0.303  1.00  0.00    -0.271 OA
HETATM   27  N3  UNL     1      -0.508  -6.751  -2.186  1.00  0.00    -0.347 N 
ATOM     28  H3  UNL     1      -0.492  -6.380  -3.136  1.00  0.00     0.163 HD
BRANCH  27  29
HETATM   29  C21 UNL     1      -1.802  -7.156  -1.629  1.00  0.00     0.164 C 
BRANCH  29  30
HETATM   30  C22 UNL     1      -2.722  -6.056  -1.982  1.00  0.00     0.220 C 
HETATM   31  O5  UNL     1      -3.435  -5.614  -1.058  1.00  0.00    -0.289 OA
BRANCH  30  32
HETATM   32  C23 UNL     1      -2.896  -5.432  -3.302  1.00  0.00     0.301 C 
HETATM   33  C24 UNL     1      -3.274  -3.963  -3.179  1.00  0.00     0.099 C 
HETATM   34  F1  UNL     1      -1.894  -5.627  -4.180  1.00  0.00    -0.198 F 
HETATM   35  F2  UNL     1      -4.037  -6.029  -3.887  1.00  0.00    -0.198 F 
ENDBRANCH  30  32
ENDBRANCH  29  30
BRANCH  29  36
HETATM   36  C25 UNL     1      -2.191  -8.510  -2.106  1.00  0.00     0.008 C 
HETATM   37  C26 UNL     1      -1.567  -9.675  -1.402  1.00  0.00     0.012 C 
HETATM   38  C27 UNL     1      -3.706  -8.659  -1.904  1.00  0.00     0.012 C 
ENDBRANCH  29  36
ENDBRANCH  27  29
ENDBRANCH  10  25
BRANCH   7  39
HETATM   39  O3  UNL     1       4.841  -7.737   0.491  1.00  0.00    -0.395 OA
ATOM     40  H3  UNL     1       3.956  -7.433   0.650  1.00  0.00     0.210 HD
ENDBRANCH   7  39
TORSDOF 10
ENDMDL
MODEL 3
REMARK VINA RESULT: -8.776346898      3.058      8.307
REMARK  10 active torsions:
REMARK  status: ('A' for Active; 'I' for Inactive)
REMARK    1  A    between atoms: C2_2  and  C4_4 
REMARK    2  A    between atoms: C4_4  and  N1_5 
REMARK    3  A    between atoms: C4_4  and  C13_15 
REMARK    4  A    between atoms: N1_5  and  C5_7 
REMARK       I    between atoms: C13_15  and  N2_17 
REMARK    5  A    between atoms: C16_21  and  O3_22 
REMARK    6  A    between atoms: C19_26  and  C20_27 
REMARK       I    between atoms: C20_27  and  N3_29 
REMARK    7  A    between atoms: N3_29  and  C21_31 
REMARK    8  A    between atoms: C21_31  and  C22_32 
REMARK    9  A    between atoms: C21_31  and  C25_38 
REMARK   10  A    between atoms: C22_32  and  C23_34 
ROOT
HETATM    1  C13 UNL     1       5.135  -4.939  -2.268  1.00  0.00     0.267 C 
HETATM    2  O1  UNL     1       5.182  -6.137  -2.717  1.00  0.00    -0.269 OA
HETATM    3  N2  UNL     1       6.332  -4.316  -1.956  1.00  0.00    -0.210 N 
HETATM    4  O2  UNL     1       6.393  -3.053  -1.491  1.00  0.00    -0.269 OA
HETATM    5  C14 UNL     1       7.023  -2.241  -2.410  1.00  0.00     0.161 A 
HETATM    6  C15 UNL     1       7.565  -0.979  -1.765  1.00  0.00     0.067 A 
HETATM    7  C16 UNL     1       8.952  -1.476  -2.012  1.00  0.00     0.127 A 
HETATM    8  C17 UNL     1       8.435  -2.710  -2.709  1.00  0.00     0.048 A 
HETATM    9  C18 UNL     1       8.742  -3.989  -1.952  1.00  0.00     0.047 C 
HETATM   10  C19 UNL     1       7.612  -4.996  -2.120  1.00  0.00     0.210 C 
ENDROOT
BRANCH   1  11
HETATM   11  C4  UNL     1       3.738  -4.349  -2.140  1.00  0.00     0.175 C 
BRANCH  11  12
HETATM   12  C2  UNL     1       2.736  -5.354  -2.571  1.00  0.00     0.009 C 
HETATM   13  C1  UNL     1       2.212  -6.219  -1.442  1.00  0.00     0.012 C 
HETATM   14  C3  UNL     1       1.526  -4.816  -3.295  1.00  0.00     0.012 C 
ENDBRANCH  11  12
BRANCH  11  15
HETATM   15  N1  UNL     1       3.736  -3.119  -2.823  1.00  0.00    -0.404 N 
ATOM     16  H1  UNL     1       3.797  -3.177  -3.839  1.00  0.00     0.154 HD
BRANCH  15  17
HETATM   17  C5  UNL     1       3.662  -1.849  -2.299  1.00  0.00     0.085 C 
HETATM   18  C6  UNL     1       2.867  -1.639  -1.076  1.00  0.00     0.025 C 
HETATM   19  C7  UNL     1       2.430  -0.214  -0.792  1.00  0.00     0.002 C 
HETATM   20  C8  UNL     1       1.882   0.525  -1.956  1.00  0.00     0.001 C 
HETATM   21  C9  UNL     1       2.937   0.456  -3.045  1.00  0.00     0.011 C 
HETATM   22  C10 UNL     1       3.183  -0.942  -3.479  1.00  0.00    -0.028 C 
HETATM   23  C11 UNL     1       1.927  -1.499  -4.082  1.00  0.00     0.017 C 
HETATM   24  C12 UNL     1       4.266  -0.934  -4.536  1.00  0.00     0.017 C 
ENDBRANCH  15  17
ENDBRANCH  11  15
ENDBRANCH   1  11
BRANCH  10  25
HETATM   25  C20 UNL     1       7.833  -6.066  -1.116  1.00  0.00     0.243 C 
HETATM   26  O4  UNL     1       8.408  -5.657  -0.047  1.00  0.00    -0.271 OA
HETATM   27  N3  UNL     1       7.457  -7.403  -1.297  1.00  0.00    -0.347 N 
ATOM     28  H3  UNL     1       7.003  -7.655  -2.175  1.00  0.00     0.163 HD
BRANCH  27  29
HETATM   29  C21 UNL     1       7.673  -8.463  -0.308  1.00  0.00     0.164 C 
BRANCH  29  30
HETATM   30  C22 UNL     1       6.549  -8.324   0.640  1.00  0.00     0.220 C 
HETATM   31  O5  UNL     1       6.853  -8.076   1.825  1.00  0.00    -0.289 OA
BRANCH  30  32
HETATM   32  C23 UNL     1       5.114  -8.453   0.345  1.00  0.00     0.301 C 
HETATM   33  C24 UNL     1       4.549  -9.758   0.886  1.00  0.00     0.099 C 
HETATM   34  F1  UNL     1       4.351  -7.393   0.672  1.00  0.00    -0.198 F 
HETATM   35  F2  UNL     1       4.999  -8.588  -1.059  1.00  0.00    -0.198 F 
ENDBRANCH  30  32
ENDBRANCH  29  30
BRANCH  29  36
HETATM   36  C25 UNL     1       7.811  -9.790  -0.965  1.00  0.00     0.008 C 
HETATM   37  C26 UNL     1       8.988  -9.970  -1.872  1.00  0.00     0.012 C 
HETATM   38  C27 UNL     1       7.965 -10.845   0.140  1.00  0.00     0.012 C 
ENDBRANCH  29  36
ENDBRANCH  27  29
ENDBRANCH  10  25
BRANCH   7  39
HETATM   39  O3  UNL     1       9.611  -1.757  -0.805  1.00  0.00    -0.395 OA
ATOM     40  H3  UNL     1      10.543  -1.591  -0.877  1.00  0.00     0.210 HD
ENDBRANCH   7  39
TORSDOF 10
ENDMDL
MODEL 4
REMARK VINA RESULT: -8.696133191      3.018      8.611
REMARK  10 active torsions:
REMARK  status: ('A' for Active; 'I' for Inactive)
REMARK    1  A    between atoms: C2_2  and  C4_4 
REMARK    2  A    between atoms: C4_4  and  N1_5 
REMARK    3  A    between atoms: C4_4  and  C13_15 
REMARK    4  A    between atoms: N1_5  and  C5_7 
REMARK       I    between atoms: C13_15  and  N2_17 
REMARK    5  A    between atoms: C16_21  and  O3_22 
REMARK    6  A    between atoms: C19_26  and  C20_27 
REMARK       I    between atoms: C20_27  and  N3_29 
REMARK    7  A    between atoms: N3_29  and  C21_31 
REMARK    8  A    between atoms: C21_31  and  C22_32 
REMARK    9  A    between atoms: C21_31  and  C25_38 
REMARK   10  A    between atoms: C22_32  and  C23_34 
ROOT
HETATM    1  C13 UNL     1       5.865  -2.176  -2.595  1.00  0.00     0.267 C 
HETATM    2  O1  UNL     1       5.092  -3.027  -3.158  1.00  0.00    -0.269 OA
HETATM    3  N2  UNL     1       7.039  -2.643  -2.029  1.00  0.00    -0.210 N 
HETATM    4  O2  UNL     1       7.928  -1.829  -1.425  1.00  0.00    -0.269 OA
HETATM    5  C14 UNL     1       9.109  -1.808  -2.137  1.00  0.00     0.161 A 
HETATM    6  C15 UNL     1      10.272  -1.345  -1.280  1.00  0.00     0.067 A 
HETATM    7  C16 UNL     1      10.843  -2.723  -1.352  1.00  0.00     0.127 A 
HETATM    8  C17 UNL     1       9.726  -3.189  -2.253  1.00  0.00     0.048 A 
HETATM    9  C18 UNL     1       8.833  -4.227  -1.600  1.00  0.00     0.047 C 
HETATM   10  C19 UNL     1       7.391  -4.058  -2.056  1.00  0.00     0.210 C 
ENDROOT
BRANCH   1  11
HETATM   11  C4  UNL     1       5.379  -0.734  -2.632  1.00  0.00     0.175 C 
BRANCH  11  12
HETATM   12  C2  UNL     1       6.129   0.066  -1.633  1.00  0.00     0.009 C 
HETATM   13  C1  UNL     1       7.157   0.998  -2.241  1.00  0.00     0.012 C 
HETATM   14  C3  UNL     1       5.296   0.902  -0.691  1.00  0.00     0.012 C 
ENDBRANCH  11  12
BRANCH  11  15
HETATM   15  N1  UNL     1       3.978  -0.758  -2.501  1.00  0.00    -0.404 N 
ATOM     16  H1  UNL     1       3.594  -1.565  -2.010  1.00  0.00     0.154 HD
BRANCH  15  17
HETATM   17  C5  UNL     1       3.060   0.164  -2.949  1.00  0.00     0.085 C 
HETATM   18  C6  UNL     1       1.970   0.565  -2.043  1.00  0.00     0.025 C 
HETATM   19  C7  UNL     1       0.753   1.197  -2.691  1.00  0.00     0.002 C 
HETATM   20  C8  UNL     1       0.253   0.510  -3.907  1.00  0.00     0.001 C 
HETATM   21  C9  UNL     1       1.428   0.417  -4.864  1.00  0.00     0.011 C 
HETATM   22  C10 UNL     1       2.525  -0.409  -4.301  1.00  0.00    -0.028 C 
HETATM   23  C11 UNL     1       2.035  -1.815  -4.110  1.00  0.00     0.017 C 
HETATM   24  C12 UNL     1       3.670  -0.427  -5.291  1.00  0.00     0.017 C 
ENDBRANCH  15  17
ENDBRANCH  11  15
ENDBRANCH   1  11
BRANCH  10  25
HETATM   25  C20 UNL     1       6.551  -4.882  -1.152  1.00  0.00     0.243 C 
HETATM   26  O4  UNL     1       7.042  -5.018   0.023  1.00  0.00    -0.271 OA
HETATM   27  N3  UNL     1       5.333  -5.465  -1.526  1.00  0.00    -0.347 N 
ATOM     28  H3  UNL     1       5.005  -5.313  -2.479  1.00  0.00     0.163 HD
BRANCH  27  29
HETATM   29  C21 UNL     1       4.501  -6.279  -0.635  1.00  0.00     0.164 C 
BRANCH  29  30
HETATM   30  C22 UNL     1       3.113  -5.929  -0.997  1.00  0.00     0.220 C 
HETATM   31  O5  UNL     1       2.434  -5.373  -0.108  1.00  0.00    -0.289 OA
BRANCH  30  32
HETATM   32  C23 UNL     1       2.440  -6.168  -2.282  1.00  0.00     0.301 C 
HETATM   33  C24 UNL     1       1.320  -5.167  -2.521  1.00  0.00     0.099 C 
HETATM   34  F1  UNL     1       3.249  -6.292  -3.352  1.00  0.00    -0.198 F 
HETATM   35  F2  UNL     1       1.770  -7.408  -2.165  1.00  0.00    -0.198 F 
ENDBRANCH  30  32
ENDBRANCH  29  30
BRANCH  29  36
HETATM   36  C25 UNL     1       4.857  -7.720  -0.737  1.00  0.00     0.008 C 
HETATM   37  C26 UNL     1       5.782  -8.105  -1.849  1.00  0.00     0.012 C 
HETATM   38  C27 UNL     1       5.572  -8.118   0.563  1.00  0.00     0.012 C 
ENDBRANCH  29  36
ENDBRANCH  27  29
ENDBRANCH  10  25
BRANCH   7  39
HETATM   39  O3  UNL     1      10.833  -3.342  -0.092  1.00  0.00    -0.395 OA
ATOM     40  H3  UNL     1      11.432  -4.079  -0.067  1.00  0.00     0.210 HD
ENDBRANCH   7  39
TORSDOF 10
ENDMDL
MODEL 5
REMARK VINA RESULT: -8.689697010      1.193      1.372
REMARK  10 active torsions:
REMARK  status: ('A' for Active; 'I' for Inactive)
REMARK    1  A    between atoms: C2_2  and  C4_4 
REMARK    2  A    between atoms: C4_4  and  N1_5 
REMARK    3  A    between atoms: C4_4  and  C13_15 
REMARK    4  A    between atoms: N1_5  and  C5_7 
REMARK       I    between atoms: C13_15  and  N2_17 
REMARK    5  A    between atoms: C16_21  and  O3_22 
REMARK    6  A    between atoms: C19_26  and  C20_27 
REMARK       I    between atoms: C20_27  and  N3_29 
REMARK    7  A    between atoms: N3_29  and  C21_31 
REMARK    8  A    between atoms: C21_31  and  C22_32 
REMARK    9  A    between atoms: C21_31  and  C25_38 
REMARK   10  A    between atoms: C22_32  and  C23_34 
ROOT
HETATM    1  C13 UNL     1       4.124  -5.299  -1.422  1.00  0.00     0.267 C 
HETATM    2  O1  UNL     1       5.036  -4.528  -1.883  1.00  0.00    -0.269 OA
HETATM    3  N2  UNL     1       2.809  -5.016  -1.751  1.00  0.00    -0.210 N 
HETATM    4  O2  UNL     1       1.777  -5.772  -1.329  1.00  0.00    -0.269 OA
HETATM    5  C14 UNL     1       1.173  -6.390  -2.404  1.00  0.00     0.161 A 
HETATM    6  C15 UNL     1      -0.244  -6.822  -2.079  1.00  0.00     0.067 A 
HETATM    7  C16 UNL     1      -0.753  -5.792  -3.034  1.00  0.00     0.127 A 
HETATM    8  C17 UNL     1       0.650  -5.387  -3.416  1.00  0.00     0.048 A 
HETATM    9  C18 UNL     1       0.994  -3.972  -2.987  1.00  0.00     0.047 C 
HETATM   10  C19 UNL     1       2.459  -3.874  -2.588  1.00  0.00     0.210 C 
ENDROOT
BRANCH   1  11
HETATM   11  C4  UNL     1       4.623  -6.449  -0.558  1.00  0.00     0.175 C 
BRANCH  11  12
HETATM   12  C2  UNL     1       6.061  -6.252  -0.256  1.00  0.00     0.009 C 
HETATM   13  C1  UNL     1       6.491  -6.829   1.078  1.00  0.00     0.012 C 
HETATM   14  C3  UNL     1       7.034  -6.778  -1.284  1.00  0.00     0.012 C 
ENDBRANCH  11  12
BRANCH  11  15
HETATM   15  N1  UNL     1       4.270  -7.646  -1.207  1.00  0.00    -0.404 N 
ATOM     16  H1  UNL     1       4.734  -7.820  -2.098  1.00  0.00     0.154 HD
BRANCH  15  17
HETATM   17  C5  UNL     1       3.381  -8.613  -0.796  1.00  0.00     0.085 C 
HETATM   18  C6  UNL     1       2.810  -8.511   0.558  1.00  0.00     0.025 C 
HETATM   19  C7  UNL     1       2.223  -9.783   1.140  1.00  0.00     0.002 C 
HETATM   20  C8  UNL     1       3.052 -11.001   0.967  1.00  0.00     0.001 C 
HETATM   21  C9  UNL     1       3.328 -11.126  -0.521  1.00  0.00     0.011 C 
HETATM   22  C10 UNL     1       4.114  -9.974  -1.028  1.00  0.00    -0.028 C 
HETATM   23  C11 UNL     1       5.457  -9.959  -0.357  1.00  0.00     0.017 C 
HETATM   24  C12 UNL     1       4.320 -10.151  -2.517  1.00  0.00     0.017 C 
ENDBRANCH  15  17
ENDBRANCH  11  15
ENDBRANCH   1  11
BRANCH  10  25
HETATM   25  C20 UNL     1       2.633  -2.573  -1.895  1.00  0.00     0.243 C 
HETATM   26  O4  UNL     1       2.378  -2.621  -0.641  1.00  0.00    -0.271 OA
HETATM   27  N3  UNL     1       3.036  -1.392  -2.532  1.00  0.00    -0.347 N 
ATOM     28  H3  UNL     1       3.222  -1.430  -3.534  1.00  0.00     0.163 HD
BRANCH  27  29
HETATM   29  C21 UNL     1       3.209  -0.106  -1.851  1.00  0.00     0.164 C 
BRANCH  29  30
HETATM   30  C22 UNL     1       4.539   0.370  -2.283  1.00  0.00     0.220 C 
HETATM   31  O5  UNL     1       4.775   0.311  -3.508  1.00  0.00    -0.289 OA
BRANCH  30  32
HETATM   32  C23 UNL     1       5.616   0.897  -1.432  1.00  0.00     0.301 C 
HETATM   33  C24 UNL     1       6.796  -0.060  -1.370  1.00  0.00     0.099 C 
HETATM   34  F1  UNL     1       6.000   2.162  -1.689  1.00  0.00    -0.198 F 
HETATM   35  F2  UNL     1       5.118   0.911  -0.109  1.00  0.00    -0.198 F 
ENDBRANCH  30  32
ENDBRANCH  29  30
BRANCH  29  36
HETATM   36  C25 UNL     1       2.068   0.807  -2.130  1.00  0.00     0.008 C 
HETATM   37  C26 UNL     1       0.722   0.169  -2.285  1.00  0.00     0.012 C 
HETATM   38  C27 UNL     1       1.941   1.774  -0.944  1.00  0.00     0.012 C 
ENDBRANCH  29  36
ENDBRANCH  27  29
ENDBRANCH  10  25
BRANCH   7  39
HETATM   39  O3  UNL     1      -1.457  -4.782  -2.362  1.00  0.00    -0.395 OA
ATOM     40  H3  UNL     1      -2.289  -4.604  -2.783  1.00  0.00     0.210 HD
ENDBRANCH   7  39
TORSDOF 10
ENDMDL
