MODEL 1
REMARK VINA RESULT: -8.813406126      0.000      0.000
REMARK  9 active torsions:
REMARK  status: ('A' for Active; 'I' for Inactive)
REMARK    1  A    between atoms: C2_2  and  C3_5 
REMARK    2  A    between atoms: C3_5  and  C4_6 
REMARK    3  A    between atoms: C4_6  and  C5_7 
REMARK       I    between atoms: C5_7  and  N1_9 
REMARK    4  A    between atoms: N1_9  and  C6_11 
REMARK    5  A    between atoms: C6_11  and  C7_12 
REMARK    6  A    between atoms: C6_11  and  C11_22 
REMARK       I    between atoms: C7_12  and  N2_14 
REMARK    7  A    between atoms: N2_14  and  S1_16 
REMARK    8  A    between atoms: S1_16  and  C8_19 
REMARK    9  A    between atoms: C16_28  and  C18_30 
ROOT
HETATM    1  C6  UNL     1       4.620  -3.306  -2.661  1.00  0.00     0.186 C 
ENDROOT
BRANCH   1   2
HETATM    2  N1  UNL     1       5.739  -2.625  -1.963  1.00  0.00    -0.347 N 
HETATM    3  C5  UNL     1       6.219  -1.357  -2.472  1.00  0.00     0.218 C 
HETATM    4  O1  UNL     1       5.672  -0.882  -3.483  1.00  0.00    -0.274 OA
ATOM      5  H1  UNL     1       6.163  -3.044  -1.135  1.00  0.00     0.163 HD
BRANCH   3   6
HETATM    6  C4  UNL     1       7.317  -0.675  -1.800  1.00  0.00     0.108 C 
BRANCH   6   7
HETATM    7  C3  UNL     1       8.689  -0.898  -2.322  1.00  0.00     0.088 C 
BRANCH   7   8
HETATM    8  C2  UNL     1       9.482  -2.013  -1.729  1.00  0.00     0.240 C 
HETATM    9  C1  UNL     1      10.955  -1.750  -2.122  1.00  0.00     0.090 C 
HETATM   10  F1  UNL     1       9.366  -2.136  -0.398  1.00  0.00    -0.207 F 
HETATM   11  F2  UNL     1       9.186  -3.235  -2.338  1.00  0.00    -0.207 F 
ENDBRANCH   7   8
ENDBRANCH   6   7
ENDBRANCH   3   6
ENDBRANCH   1   2
BRANCH   1  12
HETATM   12  C7  UNL     1       3.390  -2.558  -2.346  1.00  0.00     0.254 C 
HETATM   13  O2  UNL     1       2.874  -2.656  -1.206  1.00  0.00    -0.270 OA
HETATM   14  N2  UNL     1       2.770  -1.725  -3.298  1.00  0.00    -0.252 N 
ATOM     15  H2  UNL     1       3.169  -1.621  -4.231  1.00  0.00     0.181 HD
BRANCH  14  16
HETATM   16  S1  UNL     1       1.327  -0.882  -2.868  1.00  0.00     0.237 S 
HETATM   17  O3  UNL     1       0.239  -1.897  -2.581  1.00  0.00    -0.205 OA
HETATM   18  O4  UNL     1       0.838  -0.084  -4.053  1.00  0.00    -0.205 OA
BRANCH  16  19
HETATM   19  C8  UNL     1       1.534   0.191  -1.494  1.00  0.00     0.130 A 
HETATM   20  C9  UNL     1       1.404   1.656  -1.668  1.00  0.00     0.023 A 
HETATM   21  C10 UNL     1       2.754   1.014  -1.324  1.00  0.00     0.023 A 
ENDBRANCH  16  19
ENDBRANCH  14  16
ENDBRANCH   1  12
BRANCH   1  22
HETATM   22  C11 UNL     1       4.676  -4.706  -2.194  1.00  0.00     0.056 C 
HETATM   23  C12 UNL     1       4.384  -5.686  -3.314  1.00  0.00     0.014 C 
HETATM   24  C13 UNL     1       4.144  -6.973  -2.584  1.00  0.00     0.027 C 
HETATM   25  C14 UNL     1       5.231  -7.432  -1.662  1.00  0.00     0.092 C 
HETATM   26  N3  UNL     1       6.030  -6.435  -1.112  1.00  0.00    -0.369 N 
HETATM   27  C22 UNL     1       4.485  -8.335  -0.678  1.00  0.00    -0.027 C 
HETATM   28  C15 UNL     1       6.050  -5.157  -1.699  1.00  0.00     0.067 C 
HETATM   29  C16 UNL     1       7.123  -6.760  -0.326  1.00  0.00     0.117 C 
HETATM   30  C17 UNL     1       6.771  -6.417   1.141  1.00  0.00     0.050 C 
HETATM   31  C19 UNL     1       7.603  -8.197  -0.406  1.00  0.00     0.042 C 
HETATM   32  C20 UNL     1       6.678  -9.289  -0.310  1.00  0.00     0.004 C 
HETATM   33  C21 UNL     1       5.342  -9.069   0.279  1.00  0.00     0.011 C 
HETATM   34  C23 UNL     1       3.858  -9.398  -1.608  1.00  0.00     0.017 C 
HETATM   35  C24 UNL     1       3.321  -7.660  -0.023  1.00  0.00     0.017 C 
BRANCH  29  36
HETATM   36  C18 UNL     1       8.388  -6.024  -0.576  1.00  0.00     0.202 C 
HETATM   37  O5  UNL     1       9.212  -6.221  -1.475  1.00  0.00    -0.646 OA
HETATM   38  O6  UNL     1       8.762  -4.951   0.281  1.00  0.00    -0.646 OA
ENDBRANCH  29  36
ENDBRANCH   1  22
TORSDOF 9
ENDMDL
MODEL 2
REMARK VINA RESULT: -8.811732580      3.494      7.801
REMARK  9 active torsions:
REMARK  status: ('A' for Active; 'I' for Inactive)
REMARK    1  A    between atoms: C2_2  and  C3_5 
REMARK    2  A    between atoms: C3_5  and  C4_6 
REMARK    3  A    between atoms: C4_6  and  C5_7 
REMARK       I    between atoms: C5_7  and  N1_9 
REMARK    4  A    between atoms: N1_9  and  C6_11 
REMARK    5  A    between atoms: C6_11  and  C7_12 
REMARK    6  A    between atoms: C6_11  and  C11_22 
REMARK       I    between atoms: C7_12  and  N2_14 
REMARK    7  A    between atoms: N2_14  and  S1_16 
REMARK    8  A    between atoms: S1_16  and  C8_19 
REMARK    9  A    between atoms: C16_28  and  C18_30 
ROOT
HETATM    1  C6  UNL     1       5.372  -5.353  -2.165  1.00  0.00     0.186 C 
ENDROOT
BRANCH   1   2
HETATM    2  N1  UNL     1       4.645  -6.339  -1.328  1.00  0.00    -0.347 N 
HETATM    3  C5  UNL     1       4.197  -7.578  -1.927  1.00  0.00     0.218 C 
HETATM    4  O1  UNL     1       4.439  -7.772  -3.132  1.00  0.00    -0.274 OA
ATOM      5  H1  UNL     1       4.465  -6.147  -0.342  1.00  0.00     0.163 HD
BRANCH   3   6
HETATM    6  C4  UNL     1       3.482  -8.558  -1.120  1.00  0.00     0.108 C 
BRANCH   6   7
HETATM    7  C3  UNL     1       2.020  -8.698  -1.343  1.00  0.00     0.088 C 
BRANCH   7   8
HETATM    8  C2  UNL     1       1.187  -7.463  -1.269  1.00  0.00     0.240 C 
HETATM    9  C1  UNL     1      -0.285  -7.938  -1.237  1.00  0.00     0.090 C 
HETATM   10  F1  UNL     1       1.449  -6.674  -0.217  1.00  0.00    -0.207 F 
HETATM   11  F2  UNL     1       1.273  -6.715  -2.446  1.00  0.00    -0.207 F 
ENDBRANCH   7   8
ENDBRANCH   6   7
ENDBRANCH   3   6
ENDBRANCH   1   2
BRANCH   1  12
HETATM   12  C7  UNL     1       6.694  -5.146  -1.548  1.00  0.00     0.254 C 
HETATM   13  O2  UNL     1       6.874  -5.448  -0.343  1.00  0.00    -0.270 OA
HETATM   14  N2  UNL     1       7.774  -4.615  -2.280  1.00  0.00    -0.252 N 
ATOM     15  H2  UNL     1       7.659  -4.365  -3.262  1.00  0.00     0.181 HD
BRANCH  14  16
HETATM   16  S1  UNL     1       9.294  -4.390  -1.496  1.00  0.00     0.237 S 
HETATM   17  O3  UNL     1      10.163  -5.602  -1.767  1.00  0.00    -0.205 OA
HETATM   18  O4  UNL     1       9.090  -4.361   0.000  1.00  0.00    -0.205 OA
BRANCH  16  19
HETATM   19  C8  UNL     1      10.122  -2.925  -1.996  1.00  0.00     0.130 A 
HETATM   20  C9  UNL     1      11.482  -2.629  -1.487  1.00  0.00     0.023 A 
HETATM   21  C10 UNL     1      10.279  -1.768  -1.084  1.00  0.00     0.023 A 
ENDBRANCH  16  19
ENDBRANCH  14  16
ENDBRANCH   1  12
BRANCH   1  22
HETATM   22  C11 UNL     1       4.482  -4.176  -2.225  1.00  0.00     0.056 C 
HETATM   23  C12 UNL     1       3.465  -4.180  -1.100  1.00  0.00     0.014 C 
HETATM   24  C13 UNL     1       2.475  -3.142  -1.534  1.00  0.00     0.027 C 
HETATM   25  C14 UNL     1       3.022  -1.780  -1.835  1.00  0.00     0.092 C 
HETATM   26  N3  UNL     1       4.345  -1.732  -2.262  1.00  0.00    -0.369 N 
HETATM   27  C22 UNL     1       1.972  -1.192  -2.780  1.00  0.00    -0.027 C 
HETATM   28  C15 UNL     1       5.189  -2.833  -2.037  1.00  0.00     0.067 C 
HETATM   29  C16 UNL     1       4.975  -0.516  -2.471  1.00  0.00     0.117 C 
HETATM   30  C17 UNL     1       5.130  -0.320  -3.998  1.00  0.00     0.050 C 
HETATM   31  C19 UNL     1       4.297   0.702  -1.873  1.00  0.00     0.042 C 
HETATM   32  C20 UNL     1       2.891   0.923  -2.046  1.00  0.00     0.004 C 
HETATM   33  C21 UNL     1       2.169   0.232  -3.133  1.00  0.00     0.011 C 
HETATM   34  C23 UNL     1       0.682  -1.258  -1.932  1.00  0.00     0.017 C 
HETATM   35  C24 UNL     1       1.698  -2.058  -3.970  1.00  0.00     0.017 C 
BRANCH  29  36
HETATM   36  C18 UNL     1       6.354  -0.361  -1.945  1.00  0.00     0.202 C 
HETATM   37  O5  UNL     1       6.703   0.166  -0.883  1.00  0.00    -0.646 OA
HETATM   38  O6  UNL     1       7.456  -0.855  -2.698  1.00  0.00    -0.646 OA
ENDBRANCH  29  36
ENDBRANCH   1  22
TORSDOF 9
ENDMDL
MODEL 3
REMARK VINA RESULT: -8.749716843      2.357      3.428
REMARK  9 active torsions:
REMARK  status: ('A' for Active; 'I' for Inactive)
REMARK    1  A    between atoms: C2_2  and  C3_5 
REMARK    2  A    between atoms: C3_5  and  C4_6 
REMARK    3  A    between atoms: C4_6  and  C5_7 
REMARK       I    between atoms: C5_7  and  N1_9 
REMARK    4  A    between atoms: N1_9  and  C6_11 
REMARK    5  A    between atoms: C6_11  and  C7_12 
REMARK    6  A    between atoms: C6_11  and  C11_22 
REMARK       I    between atoms: C7_12  and  N2_14 
REMARK    7  A    between atoms: N2_14  and  S1_16 
REMARK    8  A    between atoms: S1_16  and  C8_19 
REMARK    9  A    between atoms: C16_28  and  C18_30 
ROOT
HETATM    1  C6  UNL     1       3.977  -4.679  -2.327  1.00  0.00     0.186 C 
ENDROOT
BRANCH   1   2
HETATM    2  N1  UNL     1       5.174  -4.772  -1.455  1.00  0.00    -0.347 N 
HETATM    3  C5  UNL     1       6.481  -4.896  -2.064  1.00  0.00     0.218 C 
HETATM    4  O1  UNL     1       6.553  -4.921  -3.306  1.00  0.00    -0.274 OA
ATOM      5  H1  UNL     1       5.077  -4.747  -0.440  1.00  0.00     0.163 HD
BRANCH   3   6
HETATM    6  C4  UNL     1       7.668  -4.989  -1.223  1.00  0.00     0.108 C 
BRANCH   6   7
HETATM    7  C3  UNL     1       8.967  -4.593  -1.822  1.00  0.00     0.088 C 
BRANCH   7   8
HETATM    8  C2  UNL     1       9.617  -3.352  -1.308  1.00  0.00     0.240 C 
HETATM    9  C1  UNL     1       8.821  -2.169  -1.907  1.00  0.00     0.090 C 
HETATM   10  F1  UNL     1       9.663  -3.258   0.030  1.00  0.00    -0.207 F 
HETATM   11  F2  UNL     1      10.902  -3.192  -1.831  1.00  0.00    -0.207 F 
ENDBRANCH   7   8
ENDBRANCH   6   7
ENDBRANCH   3   6
ENDBRANCH   1   2
BRANCH   1  12
HETATM   12  C7  UNL     1       3.435  -3.316  -2.181  1.00  0.00     0.254 C 
HETATM   13  O2  UNL     1       2.658  -3.052  -1.231  1.00  0.00    -0.270 OA
HETATM   14  N2  UNL     1       3.769  -2.289  -3.086  1.00  0.00    -0.252 N 
ATOM     15  H2  UNL     1       4.403  -2.473  -3.864  1.00  0.00     0.181 HD
BRANCH  14  16
HETATM   16  S1  UNL     1       3.095  -0.717  -2.863  1.00  0.00     0.237 S 
HETATM   17  O3  UNL     1       1.613  -0.776  -3.174  1.00  0.00    -0.205 OA
HETATM   18  O4  UNL     1       3.688   0.234  -3.876  1.00  0.00    -0.205 OA
BRANCH  16  19
HETATM   19  C8  UNL     1       3.351  -0.076  -1.248  1.00  0.00     0.130 A 
HETATM   20  C9  UNL     1       2.834   1.266  -0.891  1.00  0.00     0.023 A 
HETATM   21  C10 UNL     1       4.340   0.994  -0.982  1.00  0.00     0.023 A 
ENDBRANCH  16  19
ENDBRANCH  14  16
ENDBRANCH   1  12
BRANCH   1  22
HETATM   22  C11 UNL     1       3.101  -5.785  -1.890  1.00  0.00     0.056 C 
HETATM   23  C12 UNL     1       1.855  -5.891  -2.748  1.00  0.00     0.014 C 
HETATM   24  C13 UNL     1       0.969  -6.799  -1.950  1.00  0.00     0.027 C 
HETATM   25  C14 UNL     1       1.543  -8.129  -1.571  1.00  0.00     0.092 C 
HETATM   26  N3  UNL     1       2.928  -8.186  -1.445  1.00  0.00    -0.369 N 
HETATM   27  C22 UNL     1       0.725  -8.514  -0.337  1.00  0.00    -0.027 C 
HETATM   28  C15 UNL     1       3.720  -7.177  -2.019  1.00  0.00     0.067 C 
HETATM   29  C16 UNL     1       3.564  -9.391  -1.195  1.00  0.00     0.117 C 
HETATM   30  C17 UNL     1       4.058  -9.369   0.271  1.00  0.00     0.050 C 
HETATM   31  C19 UNL     1       2.744 -10.645  -1.432  1.00  0.00     0.042 C 
HETATM   32  C20 UNL     1       1.410 -10.761  -0.918  1.00  0.00     0.004 C 
HETATM   33  C21 UNL     1       0.968  -9.880   0.181  1.00  0.00     0.011 C 
HETATM   34  C23 UNL     1      -0.723  -8.503  -0.877  1.00  0.00     0.017 C 
HETATM   35  C24 UNL     1       0.746  -7.470   0.735  1.00  0.00     0.017 C 
BRANCH  29  36
HETATM   36  C18 UNL     1       4.784  -9.695  -1.983  1.00  0.00     0.202 C 
HETATM   37  O5  UNL     1       4.855 -10.269  -3.075  1.00  0.00    -0.646 OA
HETATM   38  O6  UNL     1       6.061  -9.311  -1.486  1.00  0.00    -0.646 OA
ENDBRANCH  29  36
ENDBRANCH   1  22
TORSDOF 9
ENDMDL
MODEL 4
REMARK VINA RESULT: -8.747785880      1.536      1.950
REMARK  9 active torsions:
REMARK  status: ('A' for Active; 'I' for Inactive)
REMARK    1  A    between atoms: C2_2  and  C3_5 
REMARK    2  A    between atoms: C3_5  and  C4_6 
REMARK    3  A    between atoms: C4_6  and  C5_7 
REMARK       I    between atoms: C5_7  and  N1_9 
REMARK    4  A    between atoms: N1_9  and  C6_11 
REMARK    5  A    between atoms: C6_11  and  C7_12 
REMARK    6  A    between atoms: C6_11  and  C11_22 
REMARK       I    between atoms: C7_12  and  N2_14 
REMARK    7  A    between atoms: N2_14  and  S1_16 
REMARK    8  A    between atoms: S1_16  and  C8_19 
REMARK    9  A    between atoms: C16_28  and  C18_30 
ROOT
HETATM    1  C6  UNL     1       5.155  -4.258  -2.485  1.00  0.00     0.186 C 
ENDROOT
BRANCH   1   2
HETATM    2  N1  UNL     1       6.376  -3.884  -1.729  1.00  0.00    -0.347 N 
HETATM    3  C5  UNL     1       7.439  -3.176  -2.412  1.00  0.00     0.218 C 
HETATM    4  O1  UNL     1       7.288  -2.905  -3.616  1.00  0.00    -0.274 OA
ATOM      5  H1  UNL     1       6.465  -4.122  -0.741  1.00  0.00     0.163 HD
BRANCH   3   6
HETATM    6  C4  UNL     1       8.645  -2.802  -1.685  1.00  0.00     0.108 C 
BRANCH   6   7
HETATM    7  C3  UNL     1       9.120  -1.401  -1.816  1.00  0.00     0.088 C 
BRANCH   7   8
HETATM    8  C2  UNL     1       8.163  -0.310  -1.472  1.00  0.00     0.240 C 
HETATM    9  C1  UNL     1       8.261   0.725  -2.617  1.00  0.00     0.090 C 
HETATM   10  F1  UNL     1       6.893  -0.711  -1.308  1.00  0.00    -0.207 F 
HETATM   11  F2  UNL     1       8.578   0.398  -0.342  1.00  0.00    -0.207 F 
ENDBRANCH   7   8
ENDBRANCH   6   7
ENDBRANCH   3   6
ENDBRANCH   1   2
BRANCH   1  12
HETATM   12  C7  UNL     1       4.203  -3.140  -2.358  1.00  0.00     0.254 C 
HETATM   13  O2  UNL     1       3.295  -3.189  -1.493  1.00  0.00    -0.270 OA
HETATM   14  N2  UNL     1       4.287  -2.003  -3.185  1.00  0.00    -0.252 N 
ATOM     15  H2  UNL     1       5.018  -1.932  -3.893  1.00  0.00     0.181 HD
BRANCH  14  16
HETATM   16  S1  UNL     1       3.138  -0.732  -2.989  1.00  0.00     0.237 S 
HETATM   17  O3  UNL     1       1.769  -1.248  -3.387  1.00  0.00    -0.205 OA
HETATM   18  O4  UNL     1       3.449   0.384  -3.958  1.00  0.00    -0.205 OA
BRANCH  16  19
HETATM   19  C8  UNL     1       3.091  -0.084  -1.357  1.00  0.00     0.130 A 
HETATM   20  C9  UNL     1       2.578   1.284  -1.115  1.00  0.00     0.023 A 
HETATM   21  C10 UNL     1       4.057   0.941  -0.898  1.00  0.00     0.023 A 
ENDBRANCH  16  19
ENDBRANCH  14  16
ENDBRANCH   1  12
BRANCH   1  22
HETATM   22  C11 UNL     1       4.732  -5.551  -1.910  1.00  0.00     0.056 C 
HETATM   23  C12 UNL     1       3.986  -6.401  -2.921  1.00  0.00     0.014 C 
HETATM   24  C13 UNL     1       3.358  -7.464  -2.072  1.00  0.00     0.027 C 
HETATM   25  C14 UNL     1       4.281  -8.254  -1.198  1.00  0.00     0.092 C 
HETATM   26  N3  UNL     1       5.444  -7.608  -0.791  1.00  0.00    -0.369 N 
HETATM   27  C22 UNL     1       3.353  -8.759  -0.091  1.00  0.00    -0.027 C 
HETATM   28  C15 UNL     1       5.880  -6.464  -1.481  1.00  0.00     0.067 C 
HETATM   29  C16 UNL     1       6.409  -8.285  -0.064  1.00  0.00     0.117 C 
HETATM   30  C17 UNL     1       6.357  -7.762   1.392  1.00  0.00     0.050 C 
HETATM   31  C19 UNL     1       6.309  -9.798  -0.060  1.00  0.00     0.042 C 
HETATM   32  C20 UNL     1       5.058 -10.453   0.193  1.00  0.00     0.004 C 
HETATM   33  C21 UNL     1       3.966  -9.716   0.859  1.00  0.00     0.011 C 
HETATM   34  C23 UNL     1       2.287  -9.550  -0.881  1.00  0.00     0.017 C 
HETATM   35  C24 UNL     1       2.596  -7.663   0.590  1.00  0.00     0.017 C 
BRANCH  29  36
HETATM   36  C18 UNL     1       7.826  -8.094  -0.465  1.00  0.00     0.202 C 
HETATM   37  O5  UNL     1       8.551  -8.887  -1.075  1.00  0.00    -0.646 OA
HETATM   38  O6  UNL     1       8.494  -6.880  -0.143  1.00  0.00    -0.646 OA
ENDBRANCH  29  36
ENDBRANCH   1  22
TORSDOF 9
ENDMDL
MODEL 5
REMARK VINA RESULT: -8.741604416      1.025      1.135
REMARK  9 active torsions:
REMARK  status: ('A' for Active; 'I' for Inactive)
REMARK    1  A    between atoms: C2_2  and  C3_5 
REMARK    2  A    between atoms: C3_5  and  C4_6 
REMARK    3  A    between atoms: C4_6  and  C5_7 
REMARK       I    between atoms: C5_7  and  N1_9 
REMARK    4  A    between atoms: N1_9  and  C6_11 
REMARK    5  A    between atoms: C6_11  and  C7_12 
REMARK    6  A    between atoms: C6_11  and  C11_22 
REMARK       I    between atoms: C7_12  and  N2_14 
REMARK    7  A    between atoms: N2_14  and  S1_16 
REMARK    8  A    between atoms: S1_16  and  C8_19 
REMARK    9  A    between atoms: C16_28  and  C18_30 
ROOT
HETATM    1  C6  UNL     1       4.579  -3.342  -2.554  1.00  0.00     0.186 C 
ENDROOT
BRANCH   1   2
HETATM    2  N1  UNL     1       5.744  -2.712  -1.884  1.00  0.00    -0.347 N 
HETATM    3  C5  UNL     1       6.304  -1.498  -2.440  1.00  0.00     0.218 C 
HETATM    4  O1  UNL     1       5.785  -1.026  -3.467  1.00  0.00    -0.274 OA
ATOM      5  H1  UNL     1       6.144  -3.128  -1.043  1.00  0.00     0.163 HD
BRANCH   3   6
HETATM    6  C4  UNL     1       7.449  -0.866  -1.796  1.00  0.00     0.108 C 
BRANCH   6   7
HETATM    7  C3  UNL     1       8.792  -1.124  -2.374  1.00  0.00     0.088 C 
BRANCH   7   8
HETATM    8  C2  UNL     1       9.633  -2.174  -1.729  1.00  0.00     0.240 C 
HETATM    9  C1  UNL     1      11.099  -1.828  -2.082  1.00  0.00     0.090 C 
HETATM   10  F1  UNL     1       9.481  -2.275  -0.400  1.00  0.00    -0.207 F 
HETATM   11  F2  UNL     1       9.432  -3.424  -2.317  1.00  0.00    -0.207 F 
ENDBRANCH   7   8
ENDBRANCH   6   7
ENDBRANCH   3   6
ENDBRANCH   1   2
BRANCH   1  12
HETATM   12  C7  UNL     1       3.388  -2.552  -2.194  1.00  0.00     0.254 C 
HETATM   13  O2  UNL     1       2.774  -2.800  -1.128  1.00  0.00    -0.270 OA
HETATM   14  N2  UNL     1       2.917  -1.512  -3.019  1.00  0.00    -0.252 N 
ATOM     15  H2  UNL     1       3.399  -1.284  -3.888  1.00  0.00     0.181 HD
BRANCH  14  16
HETATM   16  S1  UNL     1       1.513  -0.630  -2.543  1.00  0.00     0.237 S 
HETATM   17  O3  UNL     1       1.718  -0.115  -1.133  1.00  0.00    -0.205 OA
HETATM   18  O4  UNL     1       0.330  -1.567  -2.467  1.00  0.00    -0.205 OA
BRANCH  16  19
HETATM   19  C8  UNL     1       1.130   0.699  -3.625  1.00  0.00     0.130 A 
HETATM   20  C9  UNL     1      -0.085   0.643  -4.470  1.00  0.00     0.023 A 
HETATM   21  C10 UNL     1       1.316   0.590  -5.090  1.00  0.00     0.023 A 
ENDBRANCH  16  19
ENDBRANCH  14  16
ENDBRANCH   1  12
BRANCH   1  22
HETATM   22  C11 UNL     1       4.596  -4.749  -2.103  1.00  0.00     0.056 C 
HETATM   23  C12 UNL     1       4.265  -5.707  -3.231  1.00  0.00     0.014 C 
HETATM   24  C13 UNL     1       3.991  -6.994  -2.514  1.00  0.00     0.027 C 
HETATM   25  C14 UNL     1       5.071  -7.496  -1.606  1.00  0.00     0.092 C 
HETATM   26  N3  UNL     1       5.905  -6.530  -1.051  1.00  0.00    -0.369 N 
HETATM   27  C22 UNL     1       4.305  -8.387  -0.626  1.00  0.00    -0.027 C 
HETATM   28  C15 UNL     1       5.959  -5.247  -1.624  1.00  0.00     0.067 C 
HETATM   29  C16 UNL     1       6.993  -6.898  -0.277  1.00  0.00     0.117 C 
HETATM   30  C17 UNL     1       6.662  -6.560   1.196  1.00  0.00     0.050 C 
HETATM   31  C19 UNL     1       7.428  -8.348  -0.377  1.00  0.00     0.042 C 
HETATM   32  C20 UNL     1       6.471  -9.412  -0.286  1.00  0.00     0.004 C 
HETATM   33  C21 UNL     1       5.147  -9.158   0.317  1.00  0.00     0.011 C 
HETATM   34  C23 UNL     1       3.639  -9.420  -1.562  1.00  0.00     0.017 C 
HETATM   35  C24 UNL     1       3.168  -7.684   0.046  1.00  0.00     0.017 C 
BRANCH  29  36
HETATM   36  C18 UNL     1       8.278  -6.198  -0.529  1.00  0.00     0.202 C 
HETATM   37  O5  UNL     1       9.114  -6.444  -1.405  1.00  0.00    -0.646 OA
HETATM   38  O6  UNL     1       8.659  -5.103   0.296  1.00  0.00    -0.646 OA
ENDBRANCH  29  36
ENDBRANCH   1  22
TORSDOF 9
ENDMDL
