MODEL 1
REMARK VINA RESULT: -8.341528522      0.000      0.000
REMARK  13 active torsions:
REMARK  status: ('A' for Active; 'I' for Inactive)
REMARK    1  A    between atoms: C2_2  and  C3_3 
REMARK    2  A    between atoms: C2_2  and  N3_33 
REMARK    3  A    between atoms: C3_3  and  O1_4 
REMARK    4  A    between atoms: C3_3  and  C4_6 
REMARK    5  A    between atoms: C4_6  and  C5_8 
REMARK    6  A    between atoms: C5_8  and  C6_9 
REMARK    7  A    between atoms: C6_9  and  C7_10 
REMARK    8  A    between atoms: C6_9  and  C20_29 
REMARK    9  A    between atoms: C7_10  and  C8_12 
REMARK   10  A    between atoms: C8_12  and  N1_13 
REMARK   11  A    between atoms: C8_12  and  C16_25 
REMARK   12  A    between atoms: C10_15  and  C11_16 
REMARK       I    between atoms: C11_16  and  N2_18 
REMARK   13  A    between atoms: N2_18  and  C12_20 
ROOT
HETATM    1  C6  UNL     1       5.960  -6.080  -1.882  1.00  0.00     0.075 C 
ENDROOT
BRANCH   1   2
HETATM    2  C5  UNL     1       6.097  -4.654  -1.490  1.00  0.00     0.094 C 
BRANCH   2   3
HETATM    3  C4  UNL     1       6.952  -3.741  -2.249  1.00  0.00     0.158 C 
HETATM    4  O2  UNL     1       6.781  -3.760  -3.491  1.00  0.00    -0.295 OA
BRANCH   3   5
HETATM    5  C3  UNL     1       7.974  -2.809  -1.740  1.00  0.00     0.209 C 
BRANCH   5   6
HETATM    6  C2  UNL     1       7.838  -1.465  -2.356  1.00  0.00     0.111 C 
HETATM    7  C1  UNL     1       9.136  -0.690  -2.221  1.00  0.00     0.035 C 
BRANCH   6   8
HETATM    8  N3  UNL     1       6.767  -0.679  -1.894  1.00  0.00    -0.400 N 
HETATM    9  C24 UNL     1       7.036   0.411  -1.035  1.00  0.00     0.123 C 
HETATM   10  C25 UNL     1       5.748   1.225  -1.039  1.00  0.00     0.100 C 
HETATM   11  C26 UNL     1       4.741   0.352  -1.789  1.00  0.00     0.260 C 
HETATM   12  F1  UNL     1       4.166  -0.576  -0.976  1.00  0.00    -0.204 F 
HETATM   13  F2  UNL     1       3.809   1.059  -2.470  1.00  0.00    -0.204 F 
HETATM   14  C27 UNL     1       5.726  -0.318  -2.785  1.00  0.00     0.196 C 
ENDBRANCH   6   8
ENDBRANCH   5   6
BRANCH   5  15
HETATM   15  O1  UNL     1       9.242  -3.322  -2.130  1.00  0.00    -0.386 OA
ATOM     16  H1  UNL     1       9.094  -4.189  -2.491  1.00  0.00     0.210 HD
ENDBRANCH   5  15
ENDBRANCH   3   5
ENDBRANCH   2   3
ENDBRANCH   1   2
BRANCH   1  17
HETATM   17  C7  UNL     1       4.517  -6.320  -2.210  1.00  0.00     0.172 C 
HETATM   18  O3  UNL     1       4.348  -6.591  -3.390  1.00  0.00    -0.291 OA
BRANCH  17  19
HETATM   19  C8  UNL     1       3.360  -6.275  -1.315  1.00  0.00     0.043 C 
BRANCH  19  20
HETATM   20  N1  UNL     1       2.584  -5.081  -1.420  1.00  0.00    -0.266 NA
HETATM   21  C9  UNL     1       2.761  -3.959  -0.577  1.00  0.00     0.126 A 
HETATM   22  C10 UNL     1       2.931  -3.910  -2.090  1.00  0.00     0.168 A 
BRANCH  22  23
HETATM   23  C11 UNL     1       1.926  -2.977  -2.691  1.00  0.00     0.237 C 
HETATM   24  O4  UNL     1       0.685  -3.326  -2.783  1.00  0.00    -0.272 OA
HETATM   25  N2  UNL     1       2.226  -1.699  -3.196  1.00  0.00    -0.353 N 
ATOM     26  H2  UNL     1       3.186  -1.365  -3.110  1.00  0.00     0.163 HD
BRANCH  25  27
HETATM   27  C12 UNL     1       1.275  -0.840  -3.820  1.00  0.00     0.110 C 
HETATM   28  C13 UNL     1       0.669   0.208  -2.872  1.00  0.00     0.053 C 
HETATM   29  C14 UNL     1      -0.044   1.046  -3.963  1.00  0.00     0.169 C 
HETATM   30  O5  UNL     1       1.006   1.227  -4.846  1.00  0.00    -0.389 OA
HETATM   31  C15 UNL     1       1.733   0.028  -4.926  1.00  0.00     0.192 C 
ENDBRANCH  25  27
ENDBRANCH  22  23
ENDBRANCH  19  20
BRANCH  19  32
HETATM   32  C16 UNL     1       2.590  -7.562  -1.165  1.00  0.00    -0.010 C 
HETATM   33  C17 UNL     1       3.227  -8.786  -1.730  1.00  0.00     0.021 C 
HETATM   34  C18 UNL     1       2.482  -7.887   0.363  1.00  0.00     0.021 C 
HETATM   35  C19 UNL     1       1.148  -7.339  -1.595  1.00  0.00     0.021 C 
ENDBRANCH  19  32
ENDBRANCH  17  19
ENDBRANCH   1  17
BRANCH   1  36
HETATM   36  C20 UNL     1       6.519  -7.125  -1.006  1.00  0.00    -0.040 C 
HETATM   37  C21 UNL     1       8.034  -6.859  -0.805  1.00  0.00     0.015 C 
HETATM   38  C22 UNL     1       5.972  -6.980   0.413  1.00  0.00     0.015 C 
HETATM   39  C23 UNL     1       6.398  -8.528  -1.439  1.00  0.00     0.015 C 
ENDBRANCH   1  36
TORSDOF 13
ENDMDL
MODEL 2
REMARK VINA RESULT: -8.112294427      1.905      2.578
REMARK  13 active torsions:
REMARK  status: ('A' for Active; 'I' for Inactive)
REMARK    1  A    between atoms: C2_2  and  C3_3 
REMARK    2  A    between atoms: C2_2  and  N3_33 
REMARK    3  A    between atoms: C3_3  and  O1_4 
REMARK    4  A    between atoms: C3_3  and  C4_6 
REMARK    5  A    between atoms: C4_6  and  C5_8 
REMARK    6  A    between atoms: C5_8  and  C6_9 
REMARK    7  A    between atoms: C6_9  and  C7_10 
REMARK    8  A    between atoms: C6_9  and  C20_29 
REMARK    9  A    between atoms: C7_10  and  C8_12 
REMARK   10  A    between atoms: C8_12  and  N1_13 
REMARK   11  A    between atoms: C8_12  and  C16_25 
REMARK   12  A    between atoms: C10_15  and  C11_16 
REMARK       I    between atoms: C11_16  and  N2_18 
REMARK   13  A    between atoms: N2_18  and  C12_20 
ROOT
HETATM    1  C6  UNL     1       5.729  -7.123  -1.603  1.00  0.00     0.075 C 
ENDROOT
BRANCH   1   2
HETATM    2  C5  UNL     1       6.138  -6.174  -0.535  1.00  0.00     0.094 C 
BRANCH   2   3
HETATM    3  C4  UNL     1       7.546  -5.834  -0.327  1.00  0.00     0.158 C 
HETATM    4  O2  UNL     1       8.098  -6.418   0.635  1.00  0.00    -0.295 OA
BRANCH   3   5
HETATM    5  C3  UNL     1       8.386  -4.905  -1.104  1.00  0.00     0.209 C 
BRANCH   5   6
HETATM    6  C2  UNL     1       7.581  -3.804  -1.690  1.00  0.00     0.111 C 
HETATM    7  C1  UNL     1       7.246  -4.108  -3.138  1.00  0.00     0.035 C 
BRANCH   6   8
HETATM    8  N3  UNL     1       8.134  -2.515  -1.591  1.00  0.00    -0.400 N 
HETATM    9  C24 UNL     1       9.495  -2.378  -1.233  1.00  0.00     0.123 C 
HETATM   10  C25 UNL     1       9.834  -0.933  -1.576  1.00  0.00     0.100 C 
HETATM   11  C26 UNL     1       8.491  -0.293  -1.929  1.00  0.00     0.260 C 
HETATM   12  F1  UNL     1       7.814   0.116  -0.822  1.00  0.00    -0.204 F 
HETATM   13  F2  UNL     1       8.584   0.698  -2.846  1.00  0.00    -0.204 F 
HETATM   14  C27 UNL     1       7.813  -1.537  -2.565  1.00  0.00     0.196 C 
ENDBRANCH   6   8
ENDBRANCH   5   6
BRANCH   5  15
HETATM   15  O1  UNL     1       8.935  -5.644  -2.189  1.00  0.00    -0.386 OA
ATOM     16  H1  UNL     1       8.288  -6.293  -2.442  1.00  0.00     0.210 HD
ENDBRANCH   5  15
ENDBRANCH   3   5
ENDBRANCH   2   3
ENDBRANCH   1   2
BRANCH   1  17
HETATM   17  C7  UNL     1       4.412  -6.652  -2.143  1.00  0.00     0.172 C 
HETATM   18  O3  UNL     1       4.364  -6.708  -3.363  1.00  0.00    -0.291 OA
BRANCH  17  19
HETATM   19  C8  UNL     1       3.245  -6.171  -1.404  1.00  0.00     0.043 C 
BRANCH  19  20
HETATM   20  N1  UNL     1       3.007  -4.769  -1.532  1.00  0.00    -0.266 NA
HETATM   21  C9  UNL     1       2.787  -3.911  -0.428  1.00  0.00     0.126 A 
HETATM   22  C10 UNL     1       3.943  -3.744  -1.405  1.00  0.00     0.168 A 
BRANCH  22  23
HETATM   23  C11 UNL     1       3.829  -2.432  -2.119  1.00  0.00     0.237 C 
HETATM   24  O4  UNL     1       4.631  -1.461  -1.831  1.00  0.00    -0.272 OA
HETATM   25  N2  UNL     1       2.878  -2.146  -3.115  1.00  0.00    -0.353 N 
ATOM     26  H2  UNL     1       2.248  -2.895  -3.402  1.00  0.00     0.163 HD
BRANCH  25  27
HETATM   27  C12 UNL     1       2.738  -0.877  -3.749  1.00  0.00     0.110 C 
HETATM   28  C13 UNL     1       3.400  -0.799  -5.134  1.00  0.00     0.053 C 
HETATM   29  C14 UNL     1       2.795   0.568  -5.545  1.00  0.00     0.169 C 
HETATM   30  O5  UNL     1       1.460   0.327  -5.270  1.00  0.00    -0.389 OA
HETATM   31  C15 UNL     1       1.376  -0.401  -4.072  1.00  0.00     0.192 C 
ENDBRANCH  25  27
ENDBRANCH  22  23
ENDBRANCH  19  20
BRANCH  19  32
HETATM   32  C16 UNL     1       2.028  -7.060  -1.437  1.00  0.00    -0.010 C 
HETATM   33  C17 UNL     1       2.266  -8.498  -1.750  1.00  0.00     0.021 C 
HETATM   34  C18 UNL     1       1.419  -7.103   0.005  1.00  0.00     0.021 C 
HETATM   35  C19 UNL     1       0.943  -6.398  -2.274  1.00  0.00     0.021 C 
ENDBRANCH  19  32
ENDBRANCH  17  19
ENDBRANCH   1  17
BRANCH   1  36
HETATM   36  C20 UNL     1       5.737  -8.569  -1.321  1.00  0.00    -0.040 C 
HETATM   37  C21 UNL     1       7.202  -9.077  -1.325  1.00  0.00     0.015 C 
HETATM   38  C22 UNL     1       5.303  -8.836   0.118  1.00  0.00     0.015 C 
HETATM   39  C23 UNL     1       4.989  -9.454  -2.233  1.00  0.00     0.015 C 
ENDBRANCH   1  36
TORSDOF 13
ENDMDL
MODEL 3
REMARK VINA RESULT: -8.042834157      1.296      1.443
REMARK  13 active torsions:
REMARK  status: ('A' for Active; 'I' for Inactive)
REMARK    1  A    between atoms: C2_2  and  C3_3 
REMARK    2  A    between atoms: C2_2  and  N3_33 
REMARK    3  A    between atoms: C3_3  and  O1_4 
REMARK    4  A    between atoms: C3_3  and  C4_6 
REMARK    5  A    between atoms: C4_6  and  C5_8 
REMARK    6  A    between atoms: C5_8  and  C6_9 
REMARK    7  A    between atoms: C6_9  and  C7_10 
REMARK    8  A    between atoms: C6_9  and  C20_29 
REMARK    9  A    between atoms: C7_10  and  C8_12 
REMARK   10  A    between atoms: C8_12  and  N1_13 
REMARK   11  A    between atoms: C8_12  and  C16_25 
REMARK   12  A    between atoms: C10_15  and  C11_16 
REMARK       I    between atoms: C11_16  and  N2_18 
REMARK   13  A    between atoms: N2_18  and  C12_20 
ROOT
HETATM    1  C6  UNL     1       5.915  -6.778  -1.700  1.00  0.00     0.075 C 
ENDROOT
BRANCH   1   2
HETATM    2  C5  UNL     1       6.348  -5.482  -1.116  1.00  0.00     0.094 C 
BRANCH   2   3
HETATM    3  C4  UNL     1       7.348  -4.649  -1.785  1.00  0.00     0.158 C 
HETATM    4  O2  UNL     1       7.314  -4.678  -3.038  1.00  0.00    -0.295 OA
BRANCH   3   5
HETATM    5  C3  UNL     1       8.375  -3.786  -1.174  1.00  0.00     0.209 C 
BRANCH   5   6
HETATM    6  C2  UNL     1       8.688  -2.620  -2.038  1.00  0.00     0.111 C 
HETATM    7  C1  UNL     1      10.121  -2.171  -1.819  1.00  0.00     0.035 C 
BRANCH   6   8
HETATM    8  N3  UNL     1       7.823  -1.517  -1.924  1.00  0.00    -0.400 N 
HETATM    9  C24 UNL     1       8.361  -0.256  -1.577  1.00  0.00     0.123 C 
HETATM   10  C25 UNL     1       7.248   0.733  -1.900  1.00  0.00     0.100 C 
HETATM   11  C26 UNL     1       6.037  -0.140  -2.229  1.00  0.00     0.260 C 
HETATM   12  F1  UNL     1       5.375  -0.537  -1.108  1.00  0.00    -0.204 F 
HETATM   13  F2  UNL     1       5.193   0.416  -3.130  1.00  0.00    -0.204 F 
HETATM   14  C27 UNL     1       6.792  -1.332  -2.877  1.00  0.00     0.196 C 
ENDBRANCH   6   8
ENDBRANCH   5   6
BRANCH   5  15
HETATM   15  O1  UNL     1       9.564  -4.559  -1.068  1.00  0.00    -0.386 OA
ATOM     16  H1  UNL     1       9.555  -5.185  -1.783  1.00  0.00     0.210 HD
ENDBRANCH   5  15
ENDBRANCH   3   5
ENDBRANCH   2   3
ENDBRANCH   1   2
BRANCH   1  17
HETATM   17  C7  UNL     1       4.483  -6.628  -2.115  1.00  0.00     0.172 C 
HETATM   18  O3  UNL     1       4.328  -6.783  -3.318  1.00  0.00    -0.291 OA
BRANCH  17  19
HETATM   19  C8  UNL     1       3.317  -6.342  -1.278  1.00  0.00     0.043 C 
BRANCH  19  20
HETATM   20  N1  UNL     1       2.854  -4.994  -1.358  1.00  0.00    -0.266 NA
HETATM   21  C9  UNL     1       2.842  -4.106  -0.256  1.00  0.00     0.126 A 
HETATM   22  C10 UNL     1       3.629  -3.849  -1.534  1.00  0.00     0.168 A 
BRANCH  22  23
HETATM   23  C11 UNL     1       3.127  -2.610  -2.209  1.00  0.00     0.237 C 
HETATM   24  O4  UNL     1       3.354  -2.414  -3.466  1.00  0.00    -0.272 OA
HETATM   25  N2  UNL     1       2.403  -1.589  -1.567  1.00  0.00    -0.353 N 
ATOM     26  H2  UNL     1       2.167  -1.718  -0.583  1.00  0.00     0.163 HD
BRANCH  25  27
HETATM   27  C12 UNL     1       1.979  -0.386  -2.202  1.00  0.00     0.110 C 
HETATM   28  C13 UNL     1       0.498  -0.393  -2.618  1.00  0.00     0.053 C 
HETATM   29  C14 UNL     1       0.407   1.110  -2.983  1.00  0.00     0.169 C 
HETATM   30  O5  UNL     1       0.949   1.664  -1.837  1.00  0.00    -0.389 OA
HETATM   31  C15 UNL     1       2.037   0.873  -1.431  1.00  0.00     0.192 C 
ENDBRANCH  25  27
ENDBRANCH  22  23
ENDBRANCH  19  20
BRANCH  19  32
HETATM   32  C16 UNL     1       2.256  -7.411  -1.234  1.00  0.00    -0.010 C 
HETATM   33  C17 UNL     1       2.659  -8.766  -1.706  1.00  0.00     0.021 C 
HETATM   34  C18 UNL     1       1.873  -7.653   0.266  1.00  0.00     0.021 C 
HETATM   35  C19 UNL     1       0.975  -6.876  -1.858  1.00  0.00     0.021 C 
ENDBRANCH  19  32
ENDBRANCH  17  19
ENDBRANCH   1  17
BRANCH   1  36
HETATM   36  C20 UNL     1       6.156  -8.022  -0.949  1.00  0.00    -0.040 C 
HETATM   37  C21 UNL     1       7.674  -8.148  -0.654  1.00  0.00     0.015 C 
HETATM   38  C22 UNL     1       5.559  -7.923   0.453  1.00  0.00     0.015 C 
HETATM   39  C23 UNL     1       5.747  -9.294  -1.570  1.00  0.00     0.015 C 
ENDBRANCH   1  36
TORSDOF 13
ENDMDL
MODEL 4
REMARK VINA RESULT: -7.789797183      2.757      7.008
REMARK  13 active torsions:
REMARK  status: ('A' for Active; 'I' for Inactive)
REMARK    1  A    between atoms: C2_2  and  C3_3 
REMARK    2  A    between atoms: C2_2  and  N3_33 
REMARK    3  A    between atoms: C3_3  and  O1_4 
REMARK    4  A    between atoms: C3_3  and  C4_6 
REMARK    5  A    between atoms: C4_6  and  C5_8 
REMARK    6  A    between atoms: C5_8  and  C6_9 
REMARK    7  A    between atoms: C6_9  and  C7_10 
REMARK    8  A    between atoms: C6_9  and  C20_29 
REMARK    9  A    between atoms: C7_10  and  C8_12 
REMARK   10  A    between atoms: C8_12  and  N1_13 
REMARK   11  A    between atoms: C8_12  and  C16_25 
REMARK   12  A    between atoms: C10_15  and  C11_16 
REMARK       I    between atoms: C11_16  and  N2_18 
REMARK   13  A    between atoms: N2_18  and  C12_20 
ROOT
HETATM    1  C6  UNL     1       4.997  -3.779  -2.048  1.00  0.00     0.075 C 
ENDROOT
BRANCH   1   2
HETATM    2  C5  UNL     1       4.944  -2.690  -3.058  1.00  0.00     0.094 C 
BRANCH   2   3
HETATM    3  C4  UNL     1       5.362  -1.329  -2.721  1.00  0.00     0.158 C 
HETATM    4  O2  UNL     1       6.069  -0.760  -3.586  1.00  0.00    -0.295 OA
BRANCH   3   5
HETATM    5  C3  UNL     1       5.053  -0.551  -1.508  1.00  0.00     0.209 C 
BRANCH   5   6
HETATM    6  C2  UNL     1       3.960   0.423  -1.751  1.00  0.00     0.111 C 
HETATM    7  C1  UNL     1       3.460   0.994  -0.437  1.00  0.00     0.035 C 
BRANCH   6   8
HETATM    8  N3  UNL     1       2.872  -0.046  -2.508  1.00  0.00    -0.400 N 
HETATM    9  C24 UNL     1       1.656  -0.343  -1.851  1.00  0.00     0.123 C 
HETATM   10  C25 UNL     1       0.634  -0.458  -2.975  1.00  0.00     0.100 C 
HETATM   11  C26 UNL     1       1.464  -0.411  -4.259  1.00  0.00     0.260 C 
HETATM   12  F1  UNL     1       1.974  -1.632  -4.581  1.00  0.00    -0.204 F 
HETATM   13  F2  UNL     1       0.815   0.146  -5.308  1.00  0.00    -0.204 F 
HETATM   14  C27 UNL     1       2.585   0.543  -3.765  1.00  0.00     0.196 C 
ENDBRANCH   6   8
ENDBRANCH   5   6
BRANCH   5  15
HETATM   15  O1  UNL     1       6.218   0.199  -1.182  1.00  0.00    -0.386 OA
ATOM     16  H1  UNL     1       6.674  -0.277  -0.498  1.00  0.00     0.210 HD
ENDBRANCH   5  15
ENDBRANCH   3   5
ENDBRANCH   2   3
ENDBRANCH   1   2
BRANCH   1  17
HETATM   17  C7  UNL     1       6.266  -4.544  -2.277  1.00  0.00     0.172 C 
HETATM   18  O3  UNL     1       6.374  -4.929  -3.433  1.00  0.00    -0.291 OA
BRANCH  17  19
HETATM   19  C8  UNL     1       7.330  -4.850  -1.321  1.00  0.00     0.043 C 
BRANCH  19  20
HETATM   20  N1  UNL     1       7.446  -6.236  -0.997  1.00  0.00    -0.266 NA
HETATM   21  C9  UNL     1       7.656  -6.716   0.318  1.00  0.00     0.126 A 
HETATM   22  C10 UNL     1       6.439  -7.076  -0.525  1.00  0.00     0.168 A 
BRANCH  22  23
HETATM   23  C11 UNL     1       6.409  -8.551  -0.783  1.00  0.00     0.237 C 
HETATM   24  O4  UNL     1       5.885  -9.354   0.084  1.00  0.00    -0.272 OA
HETATM   25  N2  UNL     1       6.930  -9.171  -1.932  1.00  0.00    -0.353 N 
ATOM     26  H2  UNL     1       7.319  -8.573  -2.662  1.00  0.00     0.163 HD
BRANCH  25  27
HETATM   27  C12 UNL     1       6.950 -10.580  -2.145  1.00  0.00     0.110 C 
HETATM   28  C13 UNL     1       5.625 -11.145  -2.683  1.00  0.00     0.053 C 
HETATM   29  C14 UNL     1       6.156 -12.563  -3.012  1.00  0.00     0.169 C 
HETATM   30  O5  UNL     1       7.280 -12.230  -3.746  1.00  0.00    -0.389 OA
HETATM   31  C15 UNL     1       7.900 -11.127  -3.136  1.00  0.00     0.192 C 
ENDBRANCH  25  27
ENDBRANCH  22  23
ENDBRANCH  19  20
BRANCH  19  32
HETATM   32  C16 UNL     1       8.622  -4.096  -1.504  1.00  0.00    -0.010 C 
HETATM   33  C17 UNL     1       8.532  -2.788  -2.214  1.00  0.00     0.021 C 
HETATM   34  C18 UNL     1       9.157  -3.698  -0.087  1.00  0.00     0.021 C 
HETATM   35  C19 UNL     1       9.684  -5.041  -2.045  1.00  0.00     0.021 C 
ENDBRANCH  19  32
ENDBRANCH  17  19
ENDBRANCH   1  17
BRANCH   1  36
HETATM   36  C20 UNL     1       3.830  -4.662  -1.882  1.00  0.00    -0.040 C 
HETATM   37  C21 UNL     1       3.665  -5.005  -0.378  1.00  0.00     0.015 C 
HETATM   38  C22 UNL     1       2.539  -3.906  -2.187  1.00  0.00     0.015 C 
HETATM   39  C23 UNL     1       3.828  -5.948  -2.602  1.00  0.00     0.015 C 
ENDBRANCH   1  36
TORSDOF 13
ENDMDL
MODEL 5
REMARK VINA RESULT: -7.705956630      1.538      2.288
REMARK  13 active torsions:
REMARK  status: ('A' for Active; 'I' for Inactive)
REMARK    1  A    between atoms: C2_2  and  C3_3 
REMARK    2  A    between atoms: C2_2  and  N3_33 
REMARK    3  A    between atoms: C3_3  and  O1_4 
REMARK    4  A    between atoms: C3_3  and  C4_6 
REMARK    5  A    between atoms: C4_6  and  C5_8 
REMARK    6  A    between atoms: C5_8  and  C6_9 
REMARK    7  A    between atoms: C6_9  and  C7_10 
REMARK    8  A    between atoms: C6_9  and  C20_29 
REMARK    9  A    between atoms: C7_10  and  C8_12 
REMARK   10  A    between atoms: C8_12  and  N1_13 
REMARK   11  A    between atoms: C8_12  and  C16_25 
REMARK   12  A    between atoms: C10_15  and  C11_16 
REMARK       I    between atoms: C11_16  and  N2_18 
REMARK   13  A    between atoms: N2_18  and  C12_20 
ROOT
HETATM    1  C6  UNL     1       5.501  -7.761  -1.203  1.00  0.00     0.075 C 
ENDROOT
BRANCH   1   2
HETATM    2  C5  UNL     1       5.939  -6.794  -0.163  1.00  0.00     0.094 C 
BRANCH   2   3
HETATM    3  C4  UNL     1       7.250  -6.150  -0.237  1.00  0.00     0.158 C 
HETATM    4  O2  UNL     1       8.106  -6.590   0.567  1.00  0.00    -0.295 OA
BRANCH   3   5
HETATM    5  C3  UNL     1       7.686  -5.063  -1.133  1.00  0.00     0.209 C 
BRANCH   5   6
HETATM    6  C2  UNL     1       6.548  -4.508  -1.907  1.00  0.00     0.111 C 
HETATM    7  C1  UNL     1       6.480  -5.152  -3.280  1.00  0.00     0.035 C 
BRANCH   6   8
HETATM    8  N3  UNL     1       6.514  -3.108  -2.037  1.00  0.00    -0.400 N 
HETATM    9  C24 UNL     1       7.732  -2.402  -2.169  1.00  0.00     0.123 C 
HETATM   10  C25 UNL     1       7.317  -1.016  -2.645  1.00  0.00     0.100 C 
HETATM   11  C26 UNL     1       5.792  -1.008  -2.536  1.00  0.00     0.260 C 
HETATM   12  F1  UNL     1       5.373  -0.714  -1.276  1.00  0.00    -0.204 F 
HETATM   13  F2  UNL     1       5.184  -0.223  -3.456  1.00  0.00    -0.204 F 
HETATM   14  C27 UNL     1       5.538  -2.504  -2.868  1.00  0.00     0.196 C 
ENDBRANCH   6   8
ENDBRANCH   5   6
BRANCH   5  15
HETATM   15  O1  UNL     1       8.593  -5.632  -2.071  1.00  0.00    -0.386 OA
ATOM     16  H1  UNL     1       9.228  -6.135  -1.575  1.00  0.00     0.210 HD
ENDBRANCH   5  15
ENDBRANCH   3   5
ENDBRANCH   2   3
ENDBRANCH   1   2
BRANCH   1  17
HETATM   17  C7  UNL     1       4.047  -7.510  -1.467  1.00  0.00     0.172 C 
HETATM   18  O3  UNL     1       3.757  -7.652  -2.646  1.00  0.00    -0.291 OA
BRANCH  17  19
HETATM   19  C8  UNL     1       2.998  -7.145  -0.514  1.00  0.00     0.043 C 
BRANCH  19  20
HETATM   20  N1  UNL     1       2.439  -5.848  -0.727  1.00  0.00    -0.266 NA
HETATM   21  C9  UNL     1       2.934  -4.673  -0.113  1.00  0.00     0.126 A 
HETATM   22  C10 UNL     1       2.885  -4.877  -1.622  1.00  0.00     0.168 A 
BRANCH  22  23
HETATM   23  C11 UNL     1       1.984  -3.860  -2.250  1.00  0.00     0.237 C 
HETATM   24  O4  UNL     1       0.898  -4.231  -2.846  1.00  0.00    -0.272 OA
HETATM   25  N2  UNL     1       2.227  -2.475  -2.259  1.00  0.00    -0.353 N 
ATOM     26  H2  UNL     1       3.053  -2.133  -1.768  1.00  0.00     0.163 HD
BRANCH  25  27
HETATM   27  C12 UNL     1       1.394  -1.519  -2.910  1.00  0.00     0.110 C 
HETATM   28  C13 UNL     1       1.185  -0.227  -2.102  1.00  0.00     0.053 C 
HETATM   29  C14 UNL     1       0.502   0.582  -3.234  1.00  0.00     0.169 C 
HETATM   30  O5  UNL     1       1.412   0.375  -4.254  1.00  0.00    -0.389 OA
HETATM   31  C15 UNL     1       1.845  -0.960  -4.202  1.00  0.00     0.192 C 
ENDBRANCH  25  27
ENDBRANCH  22  23
ENDBRANCH  19  20
BRANCH  19  32
HETATM   32  C16 UNL     1       2.029  -8.238  -0.145  1.00  0.00    -0.010 C 
HETATM   33  C17 UNL     1       2.509  -9.243   0.846  1.00  0.00     0.021 C 
HETATM   34  C18 UNL     1       0.806  -7.578   0.578  1.00  0.00     0.021 C 
HETATM   35  C19 UNL     1       1.431  -8.830  -1.412  1.00  0.00     0.021 C 
ENDBRANCH  19  32
ENDBRANCH  17  19
ENDBRANCH   1  17
BRANCH   1  36
HETATM   36  C20 UNL     1       5.802  -9.192  -1.026  1.00  0.00    -0.040 C 
HETATM   37  C21 UNL     1       7.220  -9.483  -1.584  1.00  0.00     0.015 C 
HETATM   38  C22 UNL     1       5.959  -9.526   0.455  1.00  0.00     0.015 C 
HETATM   39  C23 UNL     1       4.900 -10.171  -1.658  1.00  0.00     0.015 C 
ENDBRANCH   1  36
TORSDOF 13
ENDMDL
