MODEL 1
REMARK VINA RESULT: -10.105975813      0.000      0.000
REMARK  10 active torsions:
REMARK  status: ('A' for Active; 'I' for Inactive)
REMARK    1  A    between atoms: C2_2  and  C3_3 
REMARK    2  A    between atoms: C2_2  and  C4_6 
REMARK    3  A    between atoms: C4_6  and  O2_7 
REMARK    4  A    between atoms: C4_6  and  C5_9 
REMARK    5  A    between atoms: C5_9  and  C6_10 
REMARK    6  A    between atoms: C6_10  and  C7_11 
REMARK    7  A    between atoms: C12_17  and  O4_18 
REMARK    8  A    between atoms: O4_18  and  C13_19 
REMARK    9  A    between atoms: C13_19  and  C14_21 
REMARK   10  A    between atoms: C21_31  and  O9_32 
ROOT
HETATM    1  C7  UNL     1     -20.828   0.249   2.382  1.00  0.00     0.064 C 
HETATM    2  C8  UNL     1     -22.253  -0.073   2.582  1.00  0.00     0.132 C 
HETATM    3  O3  UNL     1     -22.803  -1.140   2.491  1.00  0.00    -0.298 OA
HETATM    4  C9  UNL     1     -23.018   1.184   2.943  1.00  0.00     0.084 C 
HETATM    5  C10 UNL     1     -22.043   2.242   2.484  1.00  0.00     0.004 C 
HETATM    6  C11 UNL     1     -22.220   3.579   3.085  1.00  0.00     0.038 C 
HETATM    7  C12 UNL     1     -21.053   4.493   2.979  1.00  0.00     0.132 C 
HETATM    8  C23 UNL     1     -19.718   3.899   2.834  1.00  0.00     0.033 C 
HETATM    9  C24 UNL     1     -19.633   2.461   2.491  1.00  0.00     0.013 C 
HETATM   10  C25 UNL     1     -20.742   1.630   3.021  1.00  0.00    -0.029 C 
HETATM   11  C26 UNL     1     -20.754   1.453   4.494  1.00  0.00     0.016 C 
ENDROOT
BRANCH   7  12
HETATM   12  O4  UNL     1     -21.286   5.342   1.856  1.00  0.00    -0.316 OA
BRANCH  12  13
HETATM   13  C13 UNL     1     -20.505   6.420   1.517  1.00  0.00     0.265 C 
HETATM   14  O5  UNL     1     -21.086   7.492   1.204  1.00  0.00    -0.265 OA
BRANCH  13  15
HETATM   15  C14 UNL     1     -19.005   6.326   1.520  1.00  0.00     0.114 C 
HETATM   16  C15 UNL     1     -18.464   7.499   2.289  1.00  0.00     0.186 C 
HETATM   17  O6  UNL     1     -17.767   8.376   1.451  1.00  0.00    -0.350 OA
HETATM   18  C16 UNL     1     -16.643   7.762   0.943  1.00  0.00     0.220 C 
HETATM   19  C17 UNL     1     -15.807   8.834   0.265  1.00  0.00     0.085 C 
HETATM   20  O7  UNL     1     -15.918   7.050   1.869  1.00  0.00    -0.315 OA
HETATM   21  C21 UNL     1     -17.077   6.697  -0.030  1.00  0.00     0.223 C 
HETATM   22  C18 UNL     1     -15.383   5.940   1.219  1.00  0.00     0.164 C 
HETATM   23  C19 UNL     1     -15.411   4.787   2.200  1.00  0.00     0.078 C 
HETATM   24  C20 UNL     1     -13.974   6.149   0.768  1.00  0.00     0.078 C 
HETATM   25  O8  UNL     1     -16.247   5.621   0.186  1.00  0.00    -0.314 OA
HETATM   26  C22 UNL     1     -18.531   6.350   0.091  1.00  0.00     0.091 C 
BRANCH  21  27
HETATM   27  O9  UNL     1     -16.806   7.176  -1.323  1.00  0.00    -0.361 OA
ATOM     28  H9  UNL     1     -17.636   7.429  -1.710  1.00  0.00     0.213 HD
ENDBRANCH  21  27
ENDBRANCH  13  15
ENDBRANCH  12  13
ENDBRANCH   7  12
BRANCH   1  29
HETATM   29  C6  UNL     1     -19.844  -0.682   2.984  1.00  0.00     0.015 C 
BRANCH  29  30
HETATM   30  C5  UNL     1     -18.624  -0.872   2.159  1.00  0.00     0.033 C 
BRANCH  30  31
HETATM   31  C4  UNL     1     -17.346  -0.730   3.003  1.00  0.00     0.130 C 
BRANCH  31  32
HETATM   32  C2  UNL     1     -16.520   0.433   2.492  1.00  0.00     0.099 C 
HETATM   33  C1  UNL     1     -16.467   1.519   3.529  1.00  0.00     0.022 C 
BRANCH  32  34
HETATM   34  C3  UNL     1     -15.129   0.028   2.194  1.00  0.00     0.237 C 
HETATM   35  N1  UNL     1     -14.081   0.660   2.915  1.00  0.00    -0.062 NA
HETATM   36  O1  UNL     1     -14.810  -0.840   1.344  1.00  0.00    -0.276 OA
ENDBRANCH  32  34
ENDBRANCH  31  32
BRANCH  31  37
HETATM   37  O2  UNL     1     -16.605  -1.906   3.004  1.00  0.00    -0.395 OA
ATOM     38  H2  UNL     1     -17.168  -2.664   3.106  1.00  0.00     0.210 HD
ENDBRANCH  31  37
ENDBRANCH  30  31
ENDBRANCH  29  30
ENDBRANCH   1  29
TORSDOF 10
ENDMDL
MODEL 2
REMARK VINA RESULT: -10.001166007      1.956      4.098
REMARK  10 active torsions:
REMARK  status: ('A' for Active; 'I' for Inactive)
REMARK    1  A    between atoms: C2_2  and  C3_3 
REMARK    2  A    between atoms: C2_2  and  C4_6 
REMARK    3  A    between atoms: C4_6  and  O2_7 
REMARK    4  A    between atoms: C4_6  and  C5_9 
REMARK    5  A    between atoms: C5_9  and  C6_10 
REMARK    6  A    between atoms: C6_10  and  C7_11 
REMARK    7  A    between atoms: C12_17  and  O4_18 
REMARK    8  A    between atoms: O4_18  and  C13_19 
REMARK    9  A    between atoms: C13_19  and  C14_21 
REMARK   10  A    between atoms: C21_31  and  O9_32 
ROOT
HETATM    1  C7  UNL     1     -17.326   0.248   2.289  1.00  0.00     0.064 C 
HETATM    2  C8  UNL     1     -17.769  -1.089   1.855  1.00  0.00     0.132 C 
HETATM    3  O3  UNL     1     -17.105  -2.001   1.431  1.00  0.00    -0.298 OA
HETATM    4  C9  UNL     1     -19.271  -1.209   2.008  1.00  0.00     0.084 C 
HETATM    5  C10 UNL     1     -19.655   0.248   2.106  1.00  0.00     0.004 C 
HETATM    6  C11 UNL     1     -20.967   0.525   2.725  1.00  0.00     0.038 C 
HETATM    7  C12 UNL     1     -21.173   1.916   3.204  1.00  0.00     0.132 C 
HETATM    8  C23 UNL     1     -19.989   2.712   3.551  1.00  0.00     0.033 C 
HETATM    9  C24 UNL     1     -18.666   2.211   3.117  1.00  0.00     0.013 C 
HETATM   10  C25 UNL     1     -18.551   0.733   3.055  1.00  0.00    -0.029 C 
HETATM   11  C26 UNL     1     -18.574   0.040   4.366  1.00  0.00     0.016 C 
ENDROOT
BRANCH   7  12
HETATM   12  O4  UNL     1     -21.891   2.609   2.185  1.00  0.00    -0.316 OA
BRANCH  12  13
HETATM   13  C13 UNL     1     -22.361   3.895   2.297  1.00  0.00     0.265 C 
HETATM   14  O5  UNL     1     -23.339   4.099   3.063  1.00  0.00    -0.265 OA
BRANCH  13  15
HETATM   15  C14 UNL     1     -21.729   5.023   1.532  1.00  0.00     0.114 C 
HETATM   16  C15 UNL     1     -20.866   4.433   0.453  1.00  0.00     0.186 C 
HETATM   17  O6  UNL     1     -19.512   4.686   0.690  1.00  0.00    -0.350 OA
HETATM   18  C16 UNL     1     -19.257   6.039   0.619  1.00  0.00     0.220 C 
HETATM   19  C17 UNL     1     -17.749   6.218   0.625  1.00  0.00     0.085 C 
HETATM   20  O7  UNL     1     -19.848   6.671  -0.448  1.00  0.00    -0.315 OA
HETATM   21  C21 UNL     1     -19.902   6.710   1.803  1.00  0.00     0.223 C 
HETATM   22  C18 UNL     1     -20.203   7.953  -0.032  1.00  0.00     0.164 C 
HETATM   23  C19 UNL     1     -21.516   8.297  -0.701  1.00  0.00     0.078 C 
HETATM   24  C20 UNL     1     -19.192   8.989  -0.404  1.00  0.00     0.078 C 
HETATM   25  O8  UNL     1     -20.440   7.884   1.329  1.00  0.00    -0.314 OA
HETATM   26  C22 UNL     1     -20.908   5.840   2.495  1.00  0.00     0.091 C 
BRANCH  21  27
HETATM   27  O9  UNL     1     -18.874   7.058   2.697  1.00  0.00    -0.361 OA
ATOM     28  H9  UNL     1     -18.990   7.975   2.917  1.00  0.00     0.213 HD
ENDBRANCH  21  27
ENDBRANCH  13  15
ENDBRANCH  12  13
ENDBRANCH   7  12
BRANCH   1  29
HETATM   29  C6  UNL     1     -16.109   0.305   3.133  1.00  0.00     0.015 C 
BRANCH  29  30
HETATM   30  C5  UNL     1     -14.877   0.646   2.376  1.00  0.00     0.033 C 
BRANCH  30  31
HETATM   31  C4  UNL     1     -14.317   2.015   2.800  1.00  0.00     0.130 C 
BRANCH  31  32
HETATM   32  C2  UNL     1     -15.113   3.121   2.137  1.00  0.00     0.099 C 
HETATM   33  C1  UNL     1     -15.806   3.950   3.183  1.00  0.00     0.022 C 
BRANCH  32  34
HETATM   34  C3  UNL     1     -14.247   4.025   1.351  1.00  0.00     0.237 C 
HETATM   35  N1  UNL     1     -13.608   5.097   2.030  1.00  0.00    -0.062 NA
HETATM   36  O1  UNL     1     -14.035   3.909   0.118  1.00  0.00    -0.276 OA
ENDBRANCH  32  34
ENDBRANCH  31  32
BRANCH  31  37
HETATM   37  O2  UNL     1     -12.964   2.126   2.499  1.00  0.00    -0.395 OA
ATOM     38  H2  UNL     1     -12.530   1.283   2.567  1.00  0.00     0.210 HD
ENDBRANCH  31  37
ENDBRANCH  30  31
ENDBRANCH  29  30
ENDBRANCH   1  29
TORSDOF 10
ENDMDL
MODEL 3
REMARK VINA RESULT: -9.989143361      2.033      4.030
REMARK  10 active torsions:
REMARK  status: ('A' for Active; 'I' for Inactive)
REMARK    1  A    between atoms: C2_2  and  C3_3 
REMARK    2  A    between atoms: C2_2  and  C4_6 
REMARK    3  A    between atoms: C4_6  and  O2_7 
REMARK    4  A    between atoms: C4_6  and  C5_9 
REMARK    5  A    between atoms: C5_9  and  C6_10 
REMARK    6  A    between atoms: C6_10  and  C7_11 
REMARK    7  A    between atoms: C12_17  and  O4_18 
REMARK    8  A    between atoms: O4_18  and  C13_19 
REMARK    9  A    between atoms: C13_19  and  C14_21 
REMARK   10  A    between atoms: C21_31  and  O9_32 
ROOT
HETATM    1  C7  UNL     1     -17.310   0.203   2.276  1.00  0.00     0.064 C 
HETATM    2  C8  UNL     1     -17.754  -1.117   1.793  1.00  0.00     0.132 C 
HETATM    3  O3  UNL     1     -17.090  -2.019   1.351  1.00  0.00    -0.298 OA
HETATM    4  C9  UNL     1     -19.260  -1.230   1.918  1.00  0.00     0.084 C 
HETATM    5  C10 UNL     1     -19.635   0.226   2.055  1.00  0.00     0.004 C 
HETATM    6  C11 UNL     1     -20.955   0.493   2.660  1.00  0.00     0.038 C 
HETATM    7  C12 UNL     1     -21.159   1.870   3.180  1.00  0.00     0.132 C 
HETATM    8  C23 UNL     1     -19.976   2.647   3.571  1.00  0.00     0.033 C 
HETATM    9  C24 UNL     1     -18.649   2.150   3.143  1.00  0.00     0.013 C 
HETATM   10  C25 UNL     1     -18.544   0.673   3.036  1.00  0.00    -0.029 C 
HETATM   11  C26 UNL     1     -18.593  -0.061   4.325  1.00  0.00     0.016 C 
ENDROOT
BRANCH   7  12
HETATM   12  O4  UNL     1     -21.856   2.600   2.171  1.00  0.00    -0.316 OA
BRANCH  12  13
HETATM   13  C13 UNL     1     -22.329   3.881   2.320  1.00  0.00     0.265 C 
HETATM   14  O5  UNL     1     -23.348   4.052   3.039  1.00  0.00    -0.265 OA
BRANCH  13  15
HETATM   15  C14 UNL     1     -21.653   5.043   1.649  1.00  0.00     0.114 C 
HETATM   16  C15 UNL     1     -20.859   4.516   0.486  1.00  0.00     0.186 C 
HETATM   17  O6  UNL     1     -19.486   4.666   0.699  1.00  0.00    -0.350 OA
HETATM   18  C16 UNL     1     -19.152   6.002   0.753  1.00  0.00     0.220 C 
HETATM   19  C17 UNL     1     -17.636   6.093   0.724  1.00  0.00     0.085 C 
HETATM   20  O7  UNL     1     -19.735   6.772  -0.225  1.00  0.00    -0.315 OA
HETATM   21  C21 UNL     1     -19.720   6.587   2.020  1.00  0.00     0.223 C 
HETATM   22  C18 UNL     1     -19.999   8.024   0.329  1.00  0.00     0.164 C 
HETATM   23  C19 UNL     1     -21.309   8.508  -0.257  1.00  0.00     0.078 C 
HETATM   24  C20 UNL     1     -18.939   9.032   0.025  1.00  0.00     0.078 C 
HETATM   25  O8  UNL     1     -20.200   7.831   1.684  1.00  0.00    -0.314 OA
HETATM   26  C22 UNL     1     -20.755   5.710   2.657  1.00  0.00     0.091 C 
BRANCH  21  27
HETATM   27  O9  UNL     1     -18.647   6.783   2.907  1.00  0.00    -0.361 OA
ATOM     28  H9  UNL     1     -18.990   7.237   3.668  1.00  0.00     0.213 HD
ENDBRANCH  21  27
ENDBRANCH  13  15
ENDBRANCH  12  13
ENDBRANCH   7  12
BRANCH   1  29
HETATM   29  C6  UNL     1     -16.106   0.225   3.141  1.00  0.00     0.015 C 
BRANCH  29  30
HETATM   30  C5  UNL     1     -15.308   1.471   3.018  1.00  0.00     0.033 C 
BRANCH  30  31
HETATM   31  C4  UNL     1     -13.951   1.206   2.345  1.00  0.00     0.130 C 
BRANCH  31  32
HETATM   32  C2  UNL     1     -13.524   2.424   1.551  1.00  0.00     0.099 C 
HETATM   33  C1  UNL     1     -14.411   3.590   1.887  1.00  0.00     0.022 C 
BRANCH  32  34
HETATM   34  C3  UNL     1     -12.132   2.817   1.856  1.00  0.00     0.237 C 
HETATM   35  N1  UNL     1     -11.215   1.797   2.225  1.00  0.00    -0.062 NA
HETATM   36  O1  UNL     1     -11.702   3.997   1.811  1.00  0.00    -0.276 OA
ENDBRANCH  32  34
ENDBRANCH  31  32
BRANCH  31  37
HETATM   37  O2  UNL     1     -13.997   0.075   1.536  1.00  0.00    -0.395 OA
ATOM     38  H2  UNL     1     -13.464  -0.624   1.897  1.00  0.00     0.210 HD
ENDBRANCH  31  37
ENDBRANCH  30  31
ENDBRANCH  29  30
ENDBRANCH   1  29
TORSDOF 10
ENDMDL
MODEL 4
REMARK VINA RESULT: -9.851138612      2.874      8.789
REMARK  10 active torsions:
REMARK  status: ('A' for Active; 'I' for Inactive)
REMARK    1  A    between atoms: C2_2  and  C3_3 
REMARK    2  A    between atoms: C2_2  and  C4_6 
REMARK    3  A    between atoms: C4_6  and  O2_7 
REMARK    4  A    between atoms: C4_6  and  C5_9 
REMARK    5  A    between atoms: C5_9  and  C6_10 
REMARK    6  A    between atoms: C6_10  and  C7_11 
REMARK    7  A    between atoms: C12_17  and  O4_18 
REMARK    8  A    between atoms: O4_18  and  C13_19 
REMARK    9  A    between atoms: C13_19  and  C14_21 
REMARK   10  A    between atoms: C21_31  and  O9_32 
ROOT
HETATM    1  C7  UNL     1     -18.142   7.530  -0.213  1.00  0.00     0.064 C 
HETATM    2  C8  UNL     1     -16.868   7.613  -0.950  1.00  0.00     0.132 C 
HETATM    3  O3  UNL     1     -16.601   8.277  -1.918  1.00  0.00    -0.298 OA
HETATM    4  C9  UNL     1     -15.844   6.696  -0.313  1.00  0.00     0.084 C 
HETATM    5  C10 UNL     1     -16.746   5.797   0.498  1.00  0.00     0.004 C 
HETATM    6  C11 UNL     1     -16.099   5.078   1.614  1.00  0.00     0.038 C 
HETATM    7  C12 UNL     1     -17.016   4.540   2.652  1.00  0.00     0.132 C 
HETATM    8  C23 UNL     1     -18.324   5.184   2.824  1.00  0.00     0.033 C 
HETATM    9  C24 UNL     1     -18.782   6.115   1.768  1.00  0.00     0.013 C 
HETATM   10  C25 UNL     1     -17.695   6.854   1.078  1.00  0.00    -0.029 C 
HETATM   11  C26 UNL     1     -16.993   7.867   1.904  1.00  0.00     0.016 C 
ENDROOT
BRANCH   7  12
HETATM   12  O4  UNL     1     -17.236   3.164   2.345  1.00  0.00    -0.316 OA
BRANCH  12  13
HETATM   13  C13 UNL     1     -17.182   2.141   3.259  1.00  0.00     0.265 C 
HETATM   14  O5  UNL     1     -16.084   1.925   3.836  1.00  0.00    -0.265 OA
BRANCH  13  15
HETATM   15  C14 UNL     1     -18.393   1.306   3.565  1.00  0.00     0.114 C 
HETATM   16  C15 UNL     1     -18.061  -0.129   3.263  1.00  0.00     0.186 C 
HETATM   17  O6  UNL     1     -18.801  -0.603   2.176  1.00  0.00    -0.350 OA
HETATM   18  C16 UNL     1     -20.144  -0.628   2.484  1.00  0.00     0.220 C 
HETATM   19  C17 UNL     1     -20.851  -1.387   1.374  1.00  0.00     0.085 C 
HETATM   20  O7  UNL     1     -20.431  -1.143   3.726  1.00  0.00    -0.315 OA
HETATM   21  C21 UNL     1     -20.638   0.791   2.589  1.00  0.00     0.223 C 
HETATM   22  C18 UNL     1     -21.532  -0.448   4.223  1.00  0.00     0.164 C 
HETATM   23  C19 UNL     1     -21.326  -0.285   5.714  1.00  0.00     0.078 C 
HETATM   24  C20 UNL     1     -22.825  -1.161   3.995  1.00  0.00     0.078 C 
HETATM   25  O8  UNL     1     -21.497   0.817   3.663  1.00  0.00    -0.314 OA
HETATM   26  C22 UNL     1     -19.527   1.791   2.701  1.00  0.00     0.091 C 
BRANCH  21  27
HETATM   27  O9  UNL     1     -21.404   1.053   1.440  1.00  0.00    -0.361 OA
ATOM     28  H9  UNL     1     -21.282   1.970   1.223  1.00  0.00     0.213 HD
ENDBRANCH  21  27
ENDBRANCH  13  15
ENDBRANCH  12  13
ENDBRANCH   7  12
BRANCH   1  29
HETATM   29  C6  UNL     1     -18.835   8.811   0.065  1.00  0.00     0.015 C 
BRANCH  29  30
HETATM   30  C5  UNL     1     -20.173   8.913  -0.571  1.00  0.00     0.033 C 
BRANCH  30  31
HETATM   31  C4  UNL     1     -21.255   8.231   0.284  1.00  0.00     0.130 C 
BRANCH  31  32
HETATM   32  C2  UNL     1     -22.141   7.375  -0.597  1.00  0.00     0.099 C 
HETATM   33  C1  UNL     1     -21.528   6.014  -0.772  1.00  0.00     0.022 C 
BRANCH  32  34
HETATM   34  C3  UNL     1     -23.485   7.189  -0.008  1.00  0.00     0.237 C 
HETATM   35  N1  UNL     1     -23.599   6.379   1.154  1.00  0.00    -0.062 NA
HETATM   36  O1  UNL     1     -24.537   7.700  -0.466  1.00  0.00    -0.276 OA
ENDBRANCH  32  34
ENDBRANCH  31  32
BRANCH  31  37
HETATM   37  O2  UNL     1     -22.006   9.163   0.991  1.00  0.00    -0.395 OA
ATOM     38  H2  UNL     1     -21.752   9.182   1.906  1.00  0.00     0.210 HD
ENDBRANCH  31  37
ENDBRANCH  30  31
ENDBRANCH  29  30
ENDBRANCH   1  29
TORSDOF 10
ENDMDL
MODEL 5
REMARK VINA RESULT: -9.698861514      1.974      3.127
REMARK  10 active torsions:
REMARK  status: ('A' for Active; 'I' for Inactive)
REMARK    1  A    between atoms: C2_2  and  C3_3 
REMARK    2  A    between atoms: C2_2  and  C4_6 
REMARK    3  A    between atoms: C4_6  and  O2_7 
REMARK    4  A    between atoms: C4_6  and  C5_9 
REMARK    5  A    between atoms: C5_9  and  C6_10 
REMARK    6  A    between atoms: C6_10  and  C7_11 
REMARK    7  A    between atoms: C12_17  and  O4_18 
REMARK    8  A    between atoms: O4_18  and  C13_19 
REMARK    9  A    between atoms: C13_19  and  C14_21 
REMARK   10  A    between atoms: C21_31  and  O9_32 
ROOT
HETATM    1  C7  UNL     1     -19.574   0.365   2.502  1.00  0.00     0.064 C 
HETATM    2  C8  UNL     1     -20.782  -0.480   2.497  1.00  0.00     0.132 C 
HETATM    3  O3  UNL     1     -20.859  -1.681   2.465  1.00  0.00    -0.298 OA
HETATM    4  C9  UNL     1     -22.020   0.392   2.538  1.00  0.00     0.084 C 
HETATM    5  C10 UNL     1     -21.438   1.717   2.109  1.00  0.00     0.004 C 
HETATM    6  C11 UNL     1     -22.227   2.911   2.473  1.00  0.00     0.038 C 
HETATM    7  C12 UNL     1     -21.494   4.203   2.441  1.00  0.00     0.132 C 
HETATM    8  C23 UNL     1     -20.036   4.178   2.615  1.00  0.00     0.033 C 
HETATM    9  C24 UNL     1     -19.348   2.872   2.500  1.00  0.00     0.013 C 
HETATM   10  C25 UNL     1     -20.150   1.705   2.944  1.00  0.00    -0.029 C 
HETATM   11  C26 UNL     1     -20.411   1.633   4.402  1.00  0.00     0.016 C 
ENDROOT
BRANCH   7  12
HETATM   12  O4  UNL     1     -21.780   4.817   1.185  1.00  0.00    -0.316 OA
BRANCH  12  13
HETATM   13  C13 UNL     1     -22.223   6.108   1.030  1.00  0.00     0.265 C 
HETATM   14  O5  UNL     1     -23.429   6.353   1.297  1.00  0.00    -0.265 OA
BRANCH  13  15
HETATM   15  C14 UNL     1     -21.299   7.196   0.560  1.00  0.00     0.114 C 
HETATM   16  C15 UNL     1     -20.127   6.551  -0.127  1.00  0.00     0.186 C 
HETATM   17  O6  UNL     1     -18.947   6.744   0.596  1.00  0.00    -0.350 OA
HETATM   18  C16 UNL     1     -18.618   8.082   0.631  1.00  0.00     0.220 C 
HETATM   19  C17 UNL     1     -17.213   8.190   1.197  1.00  0.00     0.085 C 
HETATM   20  O7  UNL     1     -18.742   8.727  -0.576  1.00  0.00    -0.315 OA
HETATM   21  C21 UNL     1     -19.622   8.799   1.496  1.00  0.00     0.223 C 
HETATM   22  C18 UNL     1     -19.162  10.030  -0.313  1.00  0.00     0.164 C 
HETATM   23  C19 UNL     1     -20.117  10.426  -1.420  1.00  0.00     0.078 C 
HETATM   24  C20 UNL     1     -18.037  11.012  -0.280  1.00  0.00     0.078 C 
HETATM   25  O8  UNL     1     -19.890   9.990   0.863  1.00  0.00    -0.314 OA
HETATM   26  C22 UNL     1     -20.853   7.985   1.762  1.00  0.00     0.091 C 
BRANCH  21  27
HETATM   27  O9  UNL     1     -18.983   9.109   2.709  1.00  0.00    -0.361 OA
ATOM     28  H9  UNL     1     -19.099   8.365   3.287  1.00  0.00     0.213 HD
ENDBRANCH  21  27
ENDBRANCH  13  15
ENDBRANCH  12  13
ENDBRANCH   7  12
BRANCH   1  29
HETATM   29  C6  UNL     1     -18.467  -0.061   3.392  1.00  0.00     0.015 C 
BRANCH  29  30
HETATM   30  C5  UNL     1     -17.167  -0.212   2.690  1.00  0.00     0.033 C 
BRANCH  30  31
HETATM   31  C4  UNL     1     -16.299   1.050   2.835  1.00  0.00     0.130 C 
BRANCH  31  32
HETATM   32  C2  UNL     1     -14.833   0.680   2.722  1.00  0.00     0.099 C 
HETATM   33  C1  UNL     1     -14.660  -0.425   1.718  1.00  0.00     0.022 C 
BRANCH  32  34
HETATM   34  C3  UNL     1     -14.012   1.825   2.275  1.00  0.00     0.237 C 
HETATM   35  N1  UNL     1     -14.635   3.099   2.184  1.00  0.00    -0.062 NA
HETATM   36  O1  UNL     1     -12.796   1.749   1.968  1.00  0.00    -0.276 OA
ENDBRANCH  32  34
ENDBRANCH  31  32
BRANCH  31  37
HETATM   37  O2  UNL     1     -16.556   1.708   4.033  1.00  0.00    -0.395 OA
ATOM     38  H2  UNL     1     -16.127   2.556   4.054  1.00  0.00     0.210 HD
ENDBRANCH  31  37
ENDBRANCH  30  31
ENDBRANCH  29  30
ENDBRANCH   1  29
TORSDOF 10
ENDMDL
