MODEL 1
REMARK VINA RESULT: -7.893176699      0.000      0.000
REMARK  11 active torsions:
REMARK  status: ('A' for Active; 'I' for Inactive)
REMARK    1  A    between atoms: N1_2  and  C2_5 
REMARK    2  A    between atoms: C3_6  and  O1_7 
REMARK    3  A    between atoms: C4_9  and  C6_11 
REMARK    4  A    between atoms: C7_12  and  C8_13 
REMARK    5  A    between atoms: C9_15  and  C10_16 
REMARK    6  A    between atoms: C10_16  and  O4_18 
REMARK    7  A    between atoms: C13_21  and  O5_22 
REMARK    8  A    between atoms: C20_31  and  C22_33 
REMARK    9  A    between atoms: C22_33  and  C23_34 
REMARK   10  A    between atoms: C23_34  and  C24_35 
REMARK   11  A    between atoms: C26_37  and  O7_38 
ROOT
HETATM    1  C2  UNL     1     -18.346   7.433   0.065  1.00  0.00     0.235 C 
HETATM    2  C3  UNL     1     -17.997   6.334   0.963  1.00  0.00     0.167 C 
HETATM    3  C4  UNL     1     -19.049   5.724   1.836  1.00  0.00     0.059 C 
HETATM    4  C5  UNL     1     -18.723   6.193   3.286  1.00  0.00     0.028 C 
HETATM    5  C14 UNL     1     -20.428   6.114   1.560  1.00  0.00     0.193 C 
HETATM    6  O6  UNL     1     -21.390   5.131   1.357  1.00  0.00    -0.314 OA
HETATM    7  C15 UNL     1     -22.277   5.905   2.103  1.00  0.00     0.186 C 
HETATM    8  C16 UNL     1     -23.242   5.141   2.945  1.00  0.00     0.084 C 
HETATM    9  C17 UNL     1     -22.898   7.000   1.280  1.00  0.00     0.037 C 
HETATM   10  C18 UNL     1     -22.052   7.609   0.459  1.00  0.00    -0.014 C 
HETATM   11  C19 UNL     1     -20.649   7.121   0.481  1.00  0.00     0.094 C 
HETATM   12  C20 UNL     1     -19.626   8.203   0.351  1.00  0.00     0.055 C 
HETATM   13  C21 UNL     1     -19.431   9.011   1.636  1.00  0.00     0.031 C 
HETATM   14  O8  UNL     1     -21.184   6.469   2.718  1.00  0.00    -0.314 OA
ENDROOT
BRANCH   3  15
HETATM   15  C6  UNL     1     -18.831   4.276   1.899  1.00  0.00    -0.011 C 
HETATM   16  C7  UNL     1     -18.643   3.406   2.835  1.00  0.00     0.004 C 
BRANCH  16  17
HETATM   17  C8  UNL     1     -18.445   1.947   2.449  1.00  0.00     0.174 C 
HETATM   18  O2  UNL     1     -19.352   1.099   2.997  1.00  0.00    -0.364 OA
HETATM   19  C9  UNL     1     -18.705  -0.116   3.213  1.00  0.00     0.224 C 
HETATM   20  C12 UNL     1     -17.266   0.209   3.525  1.00  0.00     0.077 C 
HETATM   21  C13 UNL     1     -17.049   1.514   2.854  1.00  0.00     0.153 C 
BRANCH  19  22
HETATM   22  C10 UNL     1     -18.804  -0.916   1.952  1.00  0.00     0.287 C 
HETATM   23  O3  UNL     1     -17.789  -1.419   1.417  1.00  0.00    -0.262 OA
BRANCH  22  24
HETATM   24  O4  UNL     1     -20.058  -1.120   1.352  1.00  0.00    -0.324 OA
HETATM   25  C11 UNL     1     -21.117  -1.628   2.132  1.00  0.00     0.213 C 
ENDBRANCH  22  24
ENDBRANCH  19  22
BRANCH  21  26
HETATM   26  O5  UNL     1     -16.445   2.470   3.681  1.00  0.00    -0.393 OA
ATOM     27  H5  UNL     1     -17.048   2.776   4.347  1.00  0.00     0.210 HD
ENDBRANCH  21  26
ENDBRANCH  16  17
ENDBRANCH   3  15
BRANCH   2  28
HETATM   28  O1  UNL     1     -17.435   5.312   0.143  1.00  0.00    -0.392 OA
ATOM     29  H1  UNL     1     -17.514   4.503   0.635  1.00  0.00     0.210 HD
ENDBRANCH   2  28
BRANCH   1  30
HETATM   30  N1  UNL     1     -17.270   8.377  -0.050  1.00  0.00    -0.071 N 
HETATM   31  C1  UNL     1     -16.586   8.320  -1.315  1.00  0.00     0.267 C 
ATOM     32  H12 UNL     1     -16.611   8.268   0.721  1.00  0.00     0.277 HD
ATOM     33  H11 UNL     1     -17.599   9.324   0.139  1.00  0.00     0.277 HD
ENDBRANCH   1  30
BRANCH  12  34
HETATM   34  C22 UNL     1     -19.966   9.103  -0.724  1.00  0.00    -0.142 C 
BRANCH  34  35
HETATM   35  C23 UNL     1     -20.256   9.886  -1.653  1.00  0.00     0.060 C 
BRANCH  35  36
HETATM   36  C24 UNL     1     -21.634  10.214  -2.119  1.00  0.00    -0.033 C 
HETATM   37  C25 UNL     1     -21.860  10.542  -3.526  1.00  0.00     0.050 C 
HETATM   38  C26 UNL     1     -22.646  10.267  -1.279  1.00  0.00     0.141 C 
BRANCH  38  39
HETATM   39  O7  UNL     1     -23.943  10.538  -1.489  1.00  0.00    -0.367 OA
HETATM   40  C27 UNL     1     -25.015  10.727  -0.671  1.00  0.00     0.208 C 
ENDBRANCH  38  39
ENDBRANCH  35  36
ENDBRANCH  34  35
ENDBRANCH  12  34
TORSDOF 11
ENDMDL
MODEL 2
REMARK VINA RESULT: -7.886646440      2.088      9.143
REMARK  11 active torsions:
REMARK  status: ('A' for Active; 'I' for Inactive)
REMARK    1  A    between atoms: N1_2  and  C2_5 
REMARK    2  A    between atoms: C3_6  and  O1_7 
REMARK    3  A    between atoms: C4_9  and  C6_11 
REMARK    4  A    between atoms: C7_12  and  C8_13 
REMARK    5  A    between atoms: C9_15  and  C10_16 
REMARK    6  A    between atoms: C10_16  and  O4_18 
REMARK    7  A    between atoms: C13_21  and  O5_22 
REMARK    8  A    between atoms: C20_31  and  C22_33 
REMARK    9  A    between atoms: C22_33  and  C23_34 
REMARK   10  A    between atoms: C23_34  and  C24_35 
REMARK   11  A    between atoms: C26_37  and  O7_38 
ROOT
HETATM    1  C2  UNL     1     -18.778   6.323   0.613  1.00  0.00     0.235 C 
HETATM    2  C3  UNL     1     -19.583   7.200  -0.233  1.00  0.00     0.167 C 
HETATM    3  C4  UNL     1     -21.073   7.219  -0.080  1.00  0.00     0.059 C 
HETATM    4  C5  UNL     1     -21.639   6.505  -1.345  1.00  0.00     0.028 C 
HETATM    5  C14 UNL     1     -21.615   6.524   1.083  1.00  0.00     0.193 C 
HETATM    6  O6  UNL     1     -22.482   7.195   1.938  1.00  0.00    -0.314 OA
HETATM    7  C15 UNL     1     -23.235   6.025   2.022  1.00  0.00     0.186 C 
HETATM    8  C16 UNL     1     -24.709   6.221   2.139  1.00  0.00     0.084 C 
HETATM    9  C17 UNL     1     -22.654   5.051   3.010  1.00  0.00     0.037 C 
HETATM   10  C18 UNL     1     -21.332   4.958   2.967  1.00  0.00    -0.014 C 
HETATM   11  C19 UNL     1     -20.644   5.817   1.969  1.00  0.00     0.094 C 
HETATM   12  C20 UNL     1     -19.479   5.161   1.300  1.00  0.00     0.055 C 
HETATM   13  C21 UNL     1     -19.885   4.141   0.235  1.00  0.00     0.031 C 
HETATM   14  O8  UNL     1     -22.723   5.670   0.797  1.00  0.00    -0.314 OA
ENDROOT
BRANCH   3  15
HETATM   15  C6  UNL     1     -21.547   8.597  -0.238  1.00  0.00    -0.011 C 
HETATM   16  C7  UNL     1     -22.187   9.261  -1.142  1.00  0.00     0.004 C 
BRANCH  16  17
HETATM   17  C8  UNL     1     -22.483  10.734  -0.898  1.00  0.00     0.174 C 
HETATM   18  O2  UNL     1     -23.615  10.964  -0.187  1.00  0.00    -0.364 OA
HETATM   19  C9  UNL     1     -24.154  12.165  -0.644  1.00  0.00     0.224 C 
HETATM   20  C12 UNL     1     -23.808  12.266  -2.108  1.00  0.00     0.077 C 
HETATM   21  C13 UNL     1     -22.578  11.446  -2.234  1.00  0.00     0.153 C 
BRANCH  19  22
HETATM   22  C10 UNL     1     -23.513  13.275   0.129  1.00  0.00     0.287 C 
HETATM   23  O3  UNL     1     -23.200  14.357  -0.420  1.00  0.00    -0.262 OA
BRANCH  22  24
HETATM   24  O4  UNL     1     -23.259  13.114   1.501  1.00  0.00    -0.324 OA
HETATM   25  C11 UNL     1     -21.934  13.217   1.971  1.00  0.00     0.213 C 
ENDBRANCH  22  24
ENDBRANCH  19  22
BRANCH  21  26
HETATM   26  O5  UNL     1     -22.628  10.530  -3.292  1.00  0.00    -0.393 OA
ATOM     27  H5  UNL     1     -22.996  10.928  -4.071  1.00  0.00     0.210 HD
ENDBRANCH  21  26
ENDBRANCH  16  17
ENDBRANCH   3  15
BRANCH   2  28
HETATM   28  O1  UNL     1     -19.086   8.520  -0.027  1.00  0.00    -0.392 OA
ATOM     29  H1  UNL     1     -19.481   9.061  -0.701  1.00  0.00     0.210 HD
ENDBRANCH   2  28
BRANCH   1  30
HETATM   30  N1  UNL     1     -17.643   5.806  -0.098  1.00  0.00    -0.071 N 
HETATM   31  C1  UNL     1     -16.412   6.484   0.208  1.00  0.00     0.267 C 
ATOM     32  H12 UNL     1     -17.816   5.810  -1.104  1.00  0.00     0.277 HD
ATOM     33  H11 UNL     1     -17.549   4.802   0.054  1.00  0.00     0.277 HD
ENDBRANCH   1  30
BRANCH  12  34
HETATM   34  C22 UNL     1     -18.629   4.516   2.271  1.00  0.00    -0.142 C 
BRANCH  34  35
HETATM   35  C23 UNL     1     -17.889   3.956   3.107  1.00  0.00     0.060 C 
BRANCH  35  36
HETATM   36  C24 UNL     1     -17.542   2.506   3.131  1.00  0.00    -0.033 C 
HETATM   37  C25 UNL     1     -18.611   1.508   3.149  1.00  0.00     0.050 C 
HETATM   38  C26 UNL     1     -16.290   2.102   3.191  1.00  0.00     0.141 C 
BRANCH  38  39
HETATM   39  O7  UNL     1     -15.771   0.866   3.221  1.00  0.00    -0.367 OA
HETATM   40  C27 UNL     1     -14.816   0.222   2.494  1.00  0.00     0.208 C 
ENDBRANCH  38  39
ENDBRANCH  35  36
ENDBRANCH  34  35
ENDBRANCH  12  34
TORSDOF 11
ENDMDL
MODEL 3
REMARK VINA RESULT: -7.884019508      1.974      9.037
REMARK  11 active torsions:
REMARK  status: ('A' for Active; 'I' for Inactive)
REMARK    1  A    between atoms: N1_2  and  C2_5 
REMARK    2  A    between atoms: C3_6  and  O1_7 
REMARK    3  A    between atoms: C4_9  and  C6_11 
REMARK    4  A    between atoms: C7_12  and  C8_13 
REMARK    5  A    between atoms: C9_15  and  C10_16 
REMARK    6  A    between atoms: C10_16  and  O4_18 
REMARK    7  A    between atoms: C13_21  and  O5_22 
REMARK    8  A    between atoms: C20_31  and  C22_33 
REMARK    9  A    between atoms: C22_33  and  C23_34 
REMARK   10  A    between atoms: C23_34  and  C24_35 
REMARK   11  A    between atoms: C26_37  and  O7_38 
ROOT
HETATM    1  C2  UNL     1     -18.776   6.305   0.622  1.00  0.00     0.235 C 
HETATM    2  C3  UNL     1     -19.566   7.190  -0.232  1.00  0.00     0.167 C 
HETATM    3  C4  UNL     1     -21.056   7.224  -0.091  1.00  0.00     0.059 C 
HETATM    4  C5  UNL     1     -21.620   6.516  -1.359  1.00  0.00     0.028 C 
HETATM    5  C14 UNL     1     -21.615   6.536   1.069  1.00  0.00     0.193 C 
HETATM    6  O6  UNL     1     -22.481   7.216   1.917  1.00  0.00    -0.314 OA
HETATM    7  C15 UNL     1     -23.247   6.054   1.996  1.00  0.00     0.186 C 
HETATM    8  C16 UNL     1     -24.720   6.264   2.101  1.00  0.00     0.084 C 
HETATM    9  C17 UNL     1     -22.684   5.074   2.988  1.00  0.00     0.037 C 
HETATM   10  C18 UNL     1     -21.362   4.968   2.956  1.00  0.00    -0.014 C 
HETATM   11  C19 UNL     1     -20.658   5.819   1.963  1.00  0.00     0.094 C 
HETATM   12  C20 UNL     1     -19.495   5.151   1.304  1.00  0.00     0.055 C 
HETATM   13  C21 UNL     1     -19.903   4.134   0.236  1.00  0.00     0.031 C 
HETATM   14  O8  UNL     1     -22.729   5.693   0.774  1.00  0.00    -0.314 OA
ENDROOT
BRANCH   3  15
HETATM   15  C6  UNL     1     -21.515   8.607  -0.252  1.00  0.00    -0.011 C 
HETATM   16  C7  UNL     1     -22.211   9.258  -1.124  1.00  0.00     0.004 C 
BRANCH  16  17
HETATM   17  C8  UNL     1     -22.458  10.744  -0.903  1.00  0.00     0.174 C 
HETATM   18  O2  UNL     1     -23.599  11.022  -0.223  1.00  0.00    -0.364 OA
HETATM   19  C9  UNL     1     -24.082  12.237  -0.705  1.00  0.00     0.224 C 
HETATM   20  C12 UNL     1     -23.697  12.309  -2.161  1.00  0.00     0.077 C 
HETATM   21  C13 UNL     1     -22.495  11.444  -2.248  1.00  0.00     0.153 C 
BRANCH  19  22
HETATM   22  C10 UNL     1     -23.421  13.331   0.072  1.00  0.00     0.287 C 
HETATM   23  O3  UNL     1     -23.087  14.409  -0.473  1.00  0.00    -0.262 OA
BRANCH  22  24
HETATM   24  O4  UNL     1     -23.170  13.160   1.443  1.00  0.00    -0.324 OA
HETATM   25  C11 UNL     1     -21.842  13.233   1.913  1.00  0.00     0.213 C 
ENDBRANCH  22  24
ENDBRANCH  19  22
BRANCH  21  26
HETATM   26  O5  UNL     1     -22.552  10.518  -3.297  1.00  0.00    -0.393 OA
ATOM     27  H5  UNL     1     -21.758   9.999  -3.338  1.00  0.00     0.210 HD
ENDBRANCH  21  26
ENDBRANCH  16  17
ENDBRANCH   3  15
BRANCH   2  28
HETATM   28  O1  UNL     1     -19.057   8.505  -0.022  1.00  0.00    -0.392 OA
ATOM     29  H1  UNL     1     -19.671   8.938   0.559  1.00  0.00     0.210 HD
ENDBRANCH   2  28
BRANCH   1  30
HETATM   30  N1  UNL     1     -17.641   5.776  -0.081  1.00  0.00    -0.071 N 
HETATM   31  C1  UNL     1     -16.403   6.432   0.247  1.00  0.00     0.267 C 
ATOM     32  H12 UNL     1     -17.802   5.791  -1.088  1.00  0.00     0.277 HD
ATOM     33  H11 UNL     1     -17.565   4.769   0.064  1.00  0.00     0.277 HD
ENDBRANCH   1  30
BRANCH  12  34
HETATM   34  C22 UNL     1     -18.659   4.498   2.281  1.00  0.00    -0.142 C 
BRANCH  34  35
HETATM   35  C23 UNL     1     -17.932   3.929   3.123  1.00  0.00     0.060 C 
BRANCH  35  36
HETATM   36  C24 UNL     1     -17.592   2.477   3.143  1.00  0.00    -0.033 C 
HETATM   37  C25 UNL     1     -16.190   2.065   3.191  1.00  0.00     0.050 C 
HETATM   38  C26 UNL     1     -18.527   1.554   3.063  1.00  0.00     0.141 C 
BRANCH  38  39
HETATM   39  O7  UNL     1     -18.437   0.216   3.065  1.00  0.00    -0.367 OA
HETATM   40  C27 UNL     1     -18.924  -0.766   2.257  1.00  0.00     0.208 C 
ENDBRANCH  38  39
ENDBRANCH  35  36
ENDBRANCH  34  35
ENDBRANCH  12  34
TORSDOF 11
ENDMDL
MODEL 4
REMARK VINA RESULT: -7.880008037      4.291      9.597
REMARK  11 active torsions:
REMARK  status: ('A' for Active; 'I' for Inactive)
REMARK    1  A    between atoms: N1_2  and  C2_5 
REMARK    2  A    between atoms: C3_6  and  O1_7 
REMARK    3  A    between atoms: C4_9  and  C6_11 
REMARK    4  A    between atoms: C7_12  and  C8_13 
REMARK    5  A    between atoms: C9_15  and  C10_16 
REMARK    6  A    between atoms: C10_16  and  O4_18 
REMARK    7  A    between atoms: C13_21  and  O5_22 
REMARK    8  A    between atoms: C20_31  and  C22_33 
REMARK    9  A    between atoms: C22_33  and  C23_34 
REMARK   10  A    between atoms: C23_34  and  C24_35 
REMARK   11  A    between atoms: C26_37  and  O7_38 
ROOT
HETATM    1  C2  UNL     1     -15.108   6.249   1.501  1.00  0.00     0.235 C 
HETATM    2  C3  UNL     1     -15.118   7.535   0.807  1.00  0.00     0.167 C 
HETATM    3  C4  UNL     1     -16.419   8.225   0.537  1.00  0.00     0.059 C 
HETATM    4  C5  UNL     1     -16.658   8.095  -0.998  1.00  0.00     0.028 C 
HETATM    5  C14 UNL     1     -17.596   7.674   1.202  1.00  0.00     0.193 C 
HETATM    6  O6  UNL     1     -18.411   8.512   1.954  1.00  0.00    -0.314 OA
HETATM    7  C15 UNL     1     -19.514   7.839   1.431  1.00  0.00     0.186 C 
HETATM    8  C16 UNL     1     -20.722   8.680   1.191  1.00  0.00     0.084 C 
HETATM    9  C17 UNL     1     -19.785   6.550   2.157  1.00  0.00     0.037 C 
HETATM   10  C18 UNL     1     -18.694   5.856   2.456  1.00  0.00    -0.014 C 
HETATM   11  C19 UNL     1     -17.400   6.451   2.034  1.00  0.00     0.094 C 
HETATM   12  C20 UNL     1     -16.403   5.454   1.537  1.00  0.00     0.055 C 
HETATM   13  C21 UNL     1     -16.703   4.948   0.125  1.00  0.00     0.031 C 
HETATM   14  O8  UNL     1     -18.730   7.506   0.351  1.00  0.00    -0.314 OA
ENDROOT
BRANCH   3  15
HETATM   15  C6  UNL     1     -16.239   9.667   0.722  1.00  0.00    -0.011 C 
HETATM   16  C7  UNL     1     -16.519  10.732   0.048  1.00  0.00     0.004 C 
BRANCH  16  17
HETATM   17  C8  UNL     1     -16.136  12.088   0.626  1.00  0.00     0.174 C 
HETATM   18  O2  UNL     1     -17.005  12.562   1.554  1.00  0.00    -0.364 OA
HETATM   19  C9  UNL     1     -17.010  13.951   1.445  1.00  0.00     0.224 C 
HETATM   20  C12 UNL     1     -16.765  14.272  -0.008  1.00  0.00     0.077 C 
HETATM   21  C13 UNL     1     -16.018  13.091  -0.506  1.00  0.00     0.153 C 
BRANCH  19  22
HETATM   22  C10 UNL     1     -15.899  14.479   2.297  1.00  0.00     0.287 C 
HETATM   23  O3  UNL     1     -15.127  15.374   1.882  1.00  0.00    -0.262 OA
BRANCH  22  24
HETATM   24  O4  UNL     1     -15.714  13.974   3.595  1.00  0.00    -0.324 OA
HETATM   25  C11 UNL     1     -14.475  13.392   3.934  1.00  0.00     0.213 C 
ENDBRANCH  22  24
ENDBRANCH  19  22
BRANCH  21  26
HETATM   26  O5  UNL     1     -16.536  12.569  -1.698  1.00  0.00    -0.393 OA
ATOM     27  H5  UNL     1     -16.766  13.264  -2.304  1.00  0.00     0.210 HD
ENDBRANCH  21  26
ENDBRANCH  16  17
ENDBRANCH   3  15
BRANCH   2  28
HETATM   28  O1  UNL     1     -14.289   8.408   1.571  1.00  0.00    -0.392 OA
ATOM     29  H1  UNL     1     -13.728   8.855   0.949  1.00  0.00     0.210 HD
ENDBRANCH   2  28
BRANCH   1  30
HETATM   30  N1  UNL     1     -14.068   5.394   1.003  1.00  0.00    -0.071 N 
HETATM   31  C1  UNL     1     -12.953   5.258   1.903  1.00  0.00     0.267 C 
ATOM     32  H12 UNL     1     -13.754   5.706   0.085  1.00  0.00     0.277 HD
ATOM     33  H11 UNL     1     -14.443   4.479   0.754  1.00  0.00     0.277 HD
ENDBRANCH   1  30
BRANCH  12  34
HETATM   34  C22 UNL     1     -16.319   4.326   2.433  1.00  0.00    -0.142 C 
BRANCH  34  35
HETATM   35  C23 UNL     1     -16.246   3.345   3.203  1.00  0.00     0.060 C 
BRANCH  35  36
HETATM   36  C24 UNL     1     -17.054   2.097   3.104  1.00  0.00    -0.033 C 
HETATM   37  C25 UNL     1     -18.514   2.176   3.158  1.00  0.00     0.050 C 
HETATM   38  C26 UNL     1     -16.481   0.914   3.023  1.00  0.00     0.141 C 
BRANCH  38  39
HETATM   39  O7  UNL     1     -17.016  -0.312   2.928  1.00  0.00    -0.367 OA
HETATM   40  C27 UNL     1     -17.274  -1.154   1.888  1.00  0.00     0.208 C 
ENDBRANCH  38  39
ENDBRANCH  35  36
ENDBRANCH  34  35
ENDBRANCH  12  34
TORSDOF 11
ENDMDL
MODEL 5
REMARK VINA RESULT: -7.834020870      2.499      4.179
REMARK  11 active torsions:
REMARK  status: ('A' for Active; 'I' for Inactive)
REMARK    1  A    between atoms: N1_2  and  C2_5 
REMARK    2  A    between atoms: C3_6  and  O1_7 
REMARK    3  A    between atoms: C4_9  and  C6_11 
REMARK    4  A    between atoms: C7_12  and  C8_13 
REMARK    5  A    between atoms: C9_15  and  C10_16 
REMARK    6  A    between atoms: C10_16  and  O4_18 
REMARK    7  A    between atoms: C13_21  and  O5_22 
REMARK    8  A    between atoms: C20_31  and  C22_33 
REMARK    9  A    between atoms: C22_33  and  C23_34 
REMARK   10  A    between atoms: C23_34  and  C24_35 
REMARK   11  A    between atoms: C26_37  and  O7_38 
ROOT
HETATM    1  C2  UNL     1     -22.539   6.723   1.315  1.00  0.00     0.235 C 
HETATM    2  C3  UNL     1     -22.311   5.283   1.229  1.00  0.00     0.167 C 
HETATM    3  C4  UNL     1     -20.912   4.752   1.181  1.00  0.00     0.059 C 
HETATM    4  C5  UNL     1     -20.699   4.247  -0.279  1.00  0.00     0.028 C 
HETATM    5  C14 UNL     1     -19.845   5.708   1.463  1.00  0.00     0.193 C 
HETATM    6  O6  UNL     1     -18.899   5.409   2.437  1.00  0.00    -0.314 OA
HETATM    7  C15 UNL     1     -17.928   5.953   1.599  1.00  0.00     0.186 C 
HETATM    8  C16 UNL     1     -16.594   5.287   1.649  1.00  0.00     0.084 C 
HETATM    9  C17 UNL     1     -17.879   7.454   1.691  1.00  0.00     0.037 C 
HETATM   10  C18 UNL     1     -19.072   8.032   1.749  1.00  0.00    -0.014 C 
HETATM   11  C19 UNL     1     -20.246   7.123   1.713  1.00  0.00     0.094 C 
HETATM   12  C20 UNL     1     -21.398   7.646   0.917  1.00  0.00     0.055 C 
HETATM   13  C21 UNL     1     -21.190   7.537  -0.595  1.00  0.00     0.031 C 
HETATM   14  O8  UNL     1     -18.757   5.667   0.540  1.00  0.00    -0.314 OA
ENDROOT
BRANCH   3  15
HETATM   15  C6  UNL     1     -20.845   3.520   1.970  1.00  0.00    -0.011 C 
HETATM   16  C7  UNL     1     -21.091   2.269   1.762  1.00  0.00     0.004 C 
BRANCH  16  17
HETATM   17  C8  UNL     1     -20.886   1.282   2.903  1.00  0.00     0.174 C 
HETATM   18  O2  UNL     1     -19.718   1.444   3.575  1.00  0.00    -0.364 OA
HETATM   19  C9  UNL     1     -19.309   0.182   4.003  1.00  0.00     0.224 C 
HETATM   20  C12 UNL     1     -19.781  -0.802   2.963  1.00  0.00     0.077 C 
HETATM   21  C13 UNL     1     -20.953  -0.130   2.352  1.00  0.00     0.153 C 
BRANCH  19  22
HETATM   22  C10 UNL     1     -19.964  -0.086   5.322  1.00  0.00     0.287 C 
HETATM   23  O3  UNL     1     -19.610   0.518   6.361  1.00  0.00    -0.262 OA
BRANCH  22  24
HETATM   24  O4  UNL     1     -21.004  -1.027   5.406  1.00  0.00    -0.324 OA
HETATM   25  C11 UNL     1     -22.315  -0.579   5.665  1.00  0.00     0.213 C 
ENDBRANCH  22  24
ENDBRANCH  19  22
BRANCH  21  26
HETATM   26  O5  UNL     1     -20.924  -0.127   0.951  1.00  0.00    -0.393 OA
ATOM     27  H5  UNL     1     -21.802  -0.157   0.591  1.00  0.00     0.210 HD
ENDBRANCH  21  26
ENDBRANCH  16  17
ENDBRANCH   3  15
BRANCH   2  28
HETATM   28  O1  UNL     1     -22.979   4.705   2.349  1.00  0.00    -0.392 OA
ATOM     29  H1  UNL     1     -22.309   4.540   3.002  1.00  0.00     0.210 HD
ENDBRANCH   2  28
BRANCH   1  30
HETATM   30  N1  UNL     1     -23.710   7.113   0.580  1.00  0.00    -0.071 N 
HETATM   31  C1  UNL     1     -24.899   7.188   1.387  1.00  0.00     0.267 C 
ATOM     32  H12 UNL     1     -23.855   6.496  -0.219  1.00  0.00     0.277 HD
ATOM     33  H11 UNL     1     -23.551   7.993   0.090  1.00  0.00     0.277 HD
ENDBRANCH   1  30
BRANCH  12  34
HETATM   34  C22 UNL     1     -21.673   9.021   1.256  1.00  0.00    -0.142 C 
BRANCH  34  35
HETATM   35  C23 UNL     1     -21.914  10.213   1.545  1.00  0.00     0.060 C 
BRANCH  35  36
HETATM   36  C24 UNL     1     -23.253  10.866   1.503  1.00  0.00    -0.033 C 
HETATM   37  C25 UNL     1     -24.097  10.707   0.319  1.00  0.00     0.050 C 
HETATM   38  C26 UNL     1     -23.674  11.630   2.489  1.00  0.00     0.141 C 
BRANCH  38  39
HETATM   39  O7  UNL     1     -24.825  12.299   2.646  1.00  0.00    -0.367 OA
HETATM   40  C27 UNL     1     -25.205  13.591   2.441  1.00  0.00     0.208 C 
ENDBRANCH  38  39
ENDBRANCH  35  36
ENDBRANCH  34  35
ENDBRANCH  12  34
TORSDOF 11
ENDMDL
