MODEL 1
REMARK VINA RESULT: -8.942194638      0.000      0.000
REMARK  12 active torsions:
REMARK  status: ('A' for Active; 'I' for Inactive)
REMARK    1  A    between atoms: O1_2  and  C2_3 
REMARK    2  A    between atoms: C8_9  and  O2_10 
REMARK    3  A    between atoms: O2_10  and  C9_11 
REMARK    4  A    between atoms: C9_11  and  C10_13 
REMARK    5  A    between atoms: C10_13  and  C12_15 
REMARK    6  A    between atoms: C13_16  and  C14_17 
REMARK    7  A    between atoms: N1_18  and  O4_20 
REMARK    8  A    between atoms: C15_22  and  O5_23 
REMARK    9  A    between atoms: C24_36  and  O6_37 
REMARK   10  A    between atoms: O6_37  and  C25_38 
REMARK   11  A    between atoms: C25_38  and  C26_40 
REMARK   12  A    between atoms: C26_40  and  N3_41 
ROOT
HETATM    1  C2  UNL     1     -19.059   0.323   3.045  1.00  0.00     0.155 C 
HETATM    2  C3  UNL     1     -18.802   1.372   4.106  1.00  0.00     0.023 C 
HETATM    3  C4  UNL     1     -20.232   1.916   4.300  1.00  0.00     0.022 C 
HETATM    4  C5  UNL     1     -19.956   2.467   2.893  1.00  0.00     0.023 C 
HETATM    5  C6  UNL     1     -18.586   2.675   3.386  1.00  0.00     0.008 C 
HETATM    6  C7  UNL     1     -17.525   2.789   2.371  1.00  0.00     0.041 C 
HETATM    7  C8  UNL     1     -17.569   4.259   1.900  1.00  0.00     0.161 C 
HETATM    8  C15 UNL     1     -18.773   4.403   1.038  1.00  0.00     0.158 C 
HETATM    9  C16 UNL     1     -20.032   4.738   1.804  1.00  0.00     0.017 C 
HETATM   10  C17 UNL     1     -19.776   5.837   2.786  1.00  0.00     0.020 C 
HETATM   11  C18 UNL     1     -20.998   5.362   0.780  1.00  0.00    -0.004 C 
HETATM   12  C19 UNL     1     -21.144   4.542  -0.443  1.00  0.00     0.011 C 
HETATM   13  C20 UNL     1     -22.327   5.659   1.413  1.00  0.00     0.037 C 
HETATM   14  C21 UNL     1     -22.793   4.674   2.421  1.00  0.00     0.182 C 
HETATM   15  C22 UNL     1     -23.820   5.323   3.328  1.00  0.00     0.040 C 
HETATM   16  N2  UNL     1     -21.790   4.080   3.245  1.00  0.00    -0.065 N 
ATOM     17  H21 UNL     1     -22.167   3.378   3.882  1.00  0.00     0.278 HD
ATOM     18  H22 UNL     1     -21.425   4.721   3.949  1.00  0.00     0.278 HD
HETATM   19  C23 UNL     1     -20.738   3.543   2.365  1.00  0.00     0.208 C 
HETATM   20  C24 UNL     1     -19.946   1.131   2.128  1.00  0.00     0.172 C 
ENDROOT
BRANCH   7  21
HETATM   21  O2  UNL     1     -16.357   4.656   1.311  1.00  0.00    -0.313 OA
BRANCH  21  22
HETATM   22  C9  UNL     1     -15.460   5.522   1.857  1.00  0.00     0.266 C 
HETATM   23  O3  UNL     1     -15.843   6.639   2.269  1.00  0.00    -0.265 OA
BRANCH  22  24
HETATM   24  C10 UNL     1     -14.035   5.140   1.959  1.00  0.00     0.104 C 
HETATM   25  C11 UNL     1     -13.336   5.281   0.622  1.00  0.00     0.025 C 
BRANCH  24  26
HETATM   26  C12 UNL     1     -13.859   3.752   2.429  1.00  0.00    -0.011 C 
HETATM   27  C13 UNL     1     -13.663   2.786   1.570  1.00  0.00     0.016 C 
BRANCH  27  28
HETATM   28  C14 UNL     1     -13.485   1.384   2.007  1.00  0.00     0.113 C 
HETATM   29  N1  UNL     1     -14.453   0.546   1.994  1.00  0.00    -0.281 N 
ATOM     30  H1  UNL     1     -15.360   0.880   1.670  1.00  0.00     0.193 HD
BRANCH  29  31
HETATM   31  O4  UNL     1     -14.365  -0.747   2.377  1.00  0.00    -0.290 OA
ATOM     32  H4  UNL     1     -15.031  -1.218   2.865  1.00  0.00     0.244 HD
ENDBRANCH  29  31
ENDBRANCH  27  28
ENDBRANCH  24  26
ENDBRANCH  22  24
ENDBRANCH  21  22
ENDBRANCH   7  21
BRANCH   8  33
HETATM   33  O5  UNL     1     -18.618   5.396   0.047  1.00  0.00    -0.392 OA
ATOM     34  H5  UNL     1     -19.440   5.634  -0.365  1.00  0.00     0.210 HD
ENDBRANCH   8  33
BRANCH   1  35
HETATM   35  O1  UNL     1     -17.837   0.015   2.519  1.00  0.00    -0.388 OA
HETATM   36  C1  UNL     1     -17.750  -1.179   1.855  1.00  0.00     0.202 C 
ENDBRANCH   1  35
BRANCH  20  37
HETATM   37  O6  UNL     1     -21.274   0.754   2.105  1.00  0.00    -0.311 OA
BRANCH  37  38
HETATM   38  C25 UNL     1     -21.676  -0.558   2.248  1.00  0.00     0.284 C 
HETATM   39  O7  UNL     1     -21.293  -1.308   1.333  1.00  0.00    -0.263 OA
BRANCH  38  40
HETATM   40  C26 UNL     1     -22.495  -1.040   3.396  1.00  0.00     0.340 C 
BRANCH  40  41
HETATM   41  N3  UNL     1     -23.245   0.058   3.929  1.00  0.00    -0.070 N 
ATOM     42  H33 UNL     1     -22.717   0.591   4.619  1.00  0.00     0.274 HD
ATOM     43  H32 UNL     1     -23.381   0.803   3.246  1.00  0.00     0.274 HD
ATOM     44  H31 UNL     1     -24.128  -0.292   4.303  1.00  0.00     0.274 HD
ENDBRANCH  40  41
ENDBRANCH  38  40
ENDBRANCH  37  38
ENDBRANCH  20  37
TORSDOF 12
ENDMDL
MODEL 2
REMARK VINA RESULT: -7.938918253      1.724      2.650
REMARK  12 active torsions:
REMARK  status: ('A' for Active; 'I' for Inactive)
REMARK    1  A    between atoms: O1_2  and  C2_3 
REMARK    2  A    between atoms: C8_9  and  O2_10 
REMARK    3  A    between atoms: O2_10  and  C9_11 
REMARK    4  A    between atoms: C9_11  and  C10_13 
REMARK    5  A    between atoms: C10_13  and  C12_15 
REMARK    6  A    between atoms: C13_16  and  C14_17 
REMARK    7  A    between atoms: N1_18  and  O4_20 
REMARK    8  A    between atoms: C15_22  and  O5_23 
REMARK    9  A    between atoms: C24_36  and  O6_37 
REMARK   10  A    between atoms: O6_37  and  C25_38 
REMARK   11  A    between atoms: C25_38  and  C26_40 
REMARK   12  A    between atoms: C26_40  and  N3_41 
ROOT
HETATM    1  C2  UNL     1     -19.107  -0.086   3.274  1.00  0.00     0.155 C 
HETATM    2  C3  UNL     1     -18.960   0.881   4.429  1.00  0.00     0.023 C 
HETATM    3  C4  UNL     1     -20.362   1.523   4.425  1.00  0.00     0.022 C 
HETATM    4  C5  UNL     1     -19.820   2.126   3.120  1.00  0.00     0.023 C 
HETATM    5  C6  UNL     1     -18.540   2.200   3.840  1.00  0.00     0.008 C 
HETATM    6  C7  UNL     1     -17.320   2.287   3.020  1.00  0.00     0.041 C 
HETATM    7  C8  UNL     1     -17.186   3.779   2.645  1.00  0.00     0.161 C 
HETATM    8  C15 UNL     1     -18.219   4.061   1.611  1.00  0.00     0.158 C 
HETATM    9  C16 UNL     1     -19.561   4.450   2.184  1.00  0.00     0.017 C 
HETATM   10  C17 UNL     1     -19.399   5.472   3.265  1.00  0.00     0.020 C 
HETATM   11  C18 UNL     1     -20.301   5.201   1.061  1.00  0.00    -0.004 C 
HETATM   12  C19 UNL     1     -20.297   4.461  -0.221  1.00  0.00     0.011 C 
HETATM   13  C20 UNL     1     -21.693   5.565   1.489  1.00  0.00     0.037 C 
HETATM   14  C21 UNL     1     -22.385   4.567   2.343  1.00  0.00     0.182 C 
HETATM   15  C22 UNL     1     -23.502   5.243   3.112  1.00  0.00     0.040 C 
HETATM   16  N2  UNL     1     -21.574   3.853   3.276  1.00  0.00    -0.065 N 
ATOM     17  H21 UNL     1     -22.098   3.150   3.797  1.00  0.00     0.278 HD
ATOM     18  H22 UNL     1     -21.289   4.426   4.070  1.00  0.00     0.278 HD
HETATM   19  C23 UNL     1     -20.430   3.285   2.544  1.00  0.00     0.208 C 
HETATM   20  C24 UNL     1     -19.773   0.835   2.281  1.00  0.00     0.172 C 
ENDROOT
BRANCH   7  21
HETATM   21  O2  UNL     1     -15.870   4.112   2.286  1.00  0.00    -0.313 OA
BRANCH  21  22
HETATM   22  C9  UNL     1     -14.830   3.238   2.197  1.00  0.00     0.266 C 
HETATM   23  O3  UNL     1     -14.910   2.117   2.746  1.00  0.00    -0.265 OA
BRANCH  22  24
HETATM   24  C10 UNL     1     -13.610   3.618   1.453  1.00  0.00     0.104 C 
HETATM   25  C11 UNL     1     -12.433   2.756   1.862  1.00  0.00     0.025 C 
BRANCH  24  26
HETATM   26  C12 UNL     1     -13.243   5.032   1.663  1.00  0.00    -0.011 C 
HETATM   27  C13 UNL     1     -12.057   5.462   1.321  1.00  0.00     0.016 C 
BRANCH  27  28
HETATM   28  C14 UNL     1     -11.656   6.872   1.518  1.00  0.00     0.113 C 
HETATM   29  N1  UNL     1     -12.504   7.772   1.853  1.00  0.00    -0.281 N 
ATOM     30  H1  UNL     1     -13.473   7.482   1.981  1.00  0.00     0.193 HD
BRANCH  29  31
HETATM   31  O4  UNL     1     -12.213   9.077   2.051  1.00  0.00    -0.290 OA
ATOM     32  H4  UNL     1     -12.855   9.767   2.170  1.00  0.00     0.244 HD
ENDBRANCH  29  31
ENDBRANCH  27  28
ENDBRANCH  24  26
ENDBRANCH  22  24
ENDBRANCH  21  22
ENDBRANCH   7  21
BRANCH   8  33
HETATM   33  O5  UNL     1     -17.835   5.091   0.725  1.00  0.00    -0.392 OA
ATOM     34  H5  UNL     1     -17.120   4.836   0.155  1.00  0.00     0.210 HD
ENDBRANCH   8  33
BRANCH   1  35
HETATM   35  O1  UNL     1     -17.838  -0.459   2.933  1.00  0.00    -0.388 OA
HETATM   36  C1  UNL     1     -17.724  -1.283   1.845  1.00  0.00     0.202 C 
ENDBRANCH   1  35
BRANCH  20  37
HETATM   37  O6  UNL     1     -21.102   0.563   2.019  1.00  0.00    -0.311 OA
BRANCH  37  38
HETATM   38  C25 UNL     1     -21.631  -0.707   2.109  1.00  0.00     0.284 C 
HETATM   39  O7  UNL     1     -21.209  -1.494   1.242  1.00  0.00    -0.263 OA
BRANCH  38  40
HETATM   40  C26 UNL     1     -22.620  -1.108   3.149  1.00  0.00     0.340 C 
BRANCH  40  41
HETATM   41  N3  UNL     1     -23.347   0.050   3.575  1.00  0.00    -0.070 N 
ATOM     42  H33 UNL     1     -22.862   0.918   3.348  1.00  0.00     0.274 HD
ATOM     43  H32 UNL     1     -24.188   0.206   3.018  1.00  0.00     0.274 HD
ATOM     44  H31 UNL     1     -23.550  -0.032   4.571  1.00  0.00     0.274 HD
ENDBRANCH  40  41
ENDBRANCH  38  40
ENDBRANCH  37  38
ENDBRANCH  20  37
TORSDOF 12
ENDMDL
MODEL 3
REMARK VINA RESULT: -7.929825594      1.696      2.658
REMARK  12 active torsions:
REMARK  status: ('A' for Active; 'I' for Inactive)
REMARK    1  A    between atoms: O1_2  and  C2_3 
REMARK    2  A    between atoms: C8_9  and  O2_10 
REMARK    3  A    between atoms: O2_10  and  C9_11 
REMARK    4  A    between atoms: C9_11  and  C10_13 
REMARK    5  A    between atoms: C10_13  and  C12_15 
REMARK    6  A    between atoms: C13_16  and  C14_17 
REMARK    7  A    between atoms: N1_18  and  O4_20 
REMARK    8  A    between atoms: C15_22  and  O5_23 
REMARK    9  A    between atoms: C24_36  and  O6_37 
REMARK   10  A    between atoms: O6_37  and  C25_38 
REMARK   11  A    between atoms: C25_38  and  C26_40 
REMARK   12  A    between atoms: C26_40  and  N3_41 
ROOT
HETATM    1  C2  UNL     1     -19.104  -0.070   3.260  1.00  0.00     0.155 C 
HETATM    2  C3  UNL     1     -19.007   0.876   4.437  1.00  0.00     0.023 C 
HETATM    3  C4  UNL     1     -20.428   1.475   4.421  1.00  0.00     0.022 C 
HETATM    4  C5  UNL     1     -19.881   2.122   3.139  1.00  0.00     0.023 C 
HETATM    5  C6  UNL     1     -18.617   2.219   3.885  1.00  0.00     0.008 C 
HETATM    6  C7  UNL     1     -17.386   2.360   3.089  1.00  0.00     0.041 C 
HETATM    7  C8  UNL     1     -17.290   3.863   2.748  1.00  0.00     0.161 C 
HETATM    8  C15 UNL     1     -18.312   4.136   1.700  1.00  0.00     0.158 C 
HETATM    9  C16 UNL     1     -19.676   4.473   2.257  1.00  0.00     0.017 C 
HETATM   10  C17 UNL     1     -19.564   5.475   3.361  1.00  0.00     0.020 C 
HETATM   11  C18 UNL     1     -20.417   5.225   1.136  1.00  0.00    -0.004 C 
HETATM   12  C19 UNL     1     -20.368   4.513  -0.161  1.00  0.00     0.011 C 
HETATM   13  C20 UNL     1     -21.827   5.538   1.545  1.00  0.00     0.037 C 
HETATM   14  C21 UNL     1     -22.504   4.501   2.365  1.00  0.00     0.182 C 
HETATM   15  C22 UNL     1     -23.655   5.127   3.127  1.00  0.00     0.040 C 
HETATM   16  N2  UNL     1     -21.689   3.792   3.298  1.00  0.00    -0.065 N 
ATOM     17  H21 UNL     1     -22.201   3.063   3.794  1.00  0.00     0.278 HD
ATOM     18  H22 UNL     1     -21.436   4.356   4.109  1.00  0.00     0.278 HD
HETATM   19  C23 UNL     1     -20.515   3.275   2.576  1.00  0.00     0.208 C 
HETATM   20  C24 UNL     1     -19.780   0.852   2.274  1.00  0.00     0.172 C 
ENDROOT
BRANCH   7  21
HETATM   21  O2  UNL     1     -15.978   4.243   2.421  1.00  0.00    -0.313 OA
BRANCH  21  22
HETATM   22  C9  UNL     1     -14.968   3.392   2.093  1.00  0.00     0.266 C 
HETATM   23  O3  UNL     1     -14.849   2.303   2.697  1.00  0.00    -0.265 OA
BRANCH  22  24
HETATM   24  C10 UNL     1     -14.013   3.758   1.024  1.00  0.00     0.104 C 
HETATM   25  C11 UNL     1     -12.669   4.146   1.605  1.00  0.00     0.025 C 
BRANCH  24  26
HETATM   26  C12 UNL     1     -14.501   4.880   0.197  1.00  0.00    -0.011 C 
HETATM   27  C13 UNL     1     -14.671   6.063   0.727  1.00  0.00     0.016 C 
BRANCH  27  28
HETATM   28  C14 UNL     1     -15.159   7.208  -0.072  1.00  0.00     0.113 C 
HETATM   29  N1  UNL     1     -16.154   7.096  -0.871  1.00  0.00    -0.281 N 
ATOM     30  H1  UNL     1     -16.603   6.183  -0.938  1.00  0.00     0.193 HD
BRANCH  29  31
HETATM   31  O4  UNL     1     -16.654   8.095  -1.631  1.00  0.00    -0.290 OA
ATOM     32  H4  UNL     1     -16.166   8.579  -2.287  1.00  0.00     0.244 HD
ENDBRANCH  29  31
ENDBRANCH  27  28
ENDBRANCH  24  26
ENDBRANCH  22  24
ENDBRANCH  21  22
ENDBRANCH   7  21
BRANCH   8  33
HETATM   33  O5  UNL     1     -17.944   5.196   0.844  1.00  0.00    -0.392 OA
ATOM     34  H5  UNL     1     -17.606   5.947   1.317  1.00  0.00     0.210 HD
ENDBRANCH   8  33
BRANCH   1  35
HETATM   35  O1  UNL     1     -17.819  -0.398   2.935  1.00  0.00    -0.388 OA
HETATM   36  C1  UNL     1     -17.661  -1.220   1.851  1.00  0.00     0.202 C 
ENDBRANCH   1  35
BRANCH  20  37
HETATM   37  O6  UNL     1     -21.094   0.546   1.982  1.00  0.00    -0.311 OA
BRANCH  37  38
HETATM   38  C25 UNL     1     -21.598  -0.735   2.078  1.00  0.00     0.284 C 
HETATM   39  O7  UNL     1     -21.145  -1.522   1.228  1.00  0.00    -0.263 OA
BRANCH  38  40
HETATM   40  C26 UNL     1     -22.594  -1.145   3.107  1.00  0.00     0.340 C 
BRANCH  40  41
HETATM   41  N3  UNL     1     -23.355   0.002   3.505  1.00  0.00    -0.070 N 
ATOM     42  H33 UNL     1     -23.524   0.025   4.511  1.00  0.00     0.274 HD
ATOM     43  H32 UNL     1     -22.821   0.867   3.429  1.00  0.00     0.274 HD
ATOM     44  H31 UNL     1     -24.221   0.031   2.966  1.00  0.00     0.274 HD
ENDBRANCH  40  41
ENDBRANCH  38  40
ENDBRANCH  37  38
ENDBRANCH  20  37
TORSDOF 12
ENDMDL
MODEL 4
REMARK VINA RESULT: -7.919001498      2.949      5.106
REMARK  12 active torsions:
REMARK  status: ('A' for Active; 'I' for Inactive)
REMARK    1  A    between atoms: O1_2  and  C2_3 
REMARK    2  A    between atoms: C8_9  and  O2_10 
REMARK    3  A    between atoms: O2_10  and  C9_11 
REMARK    4  A    between atoms: C9_11  and  C10_13 
REMARK    5  A    between atoms: C10_13  and  C12_15 
REMARK    6  A    between atoms: C13_16  and  C14_17 
REMARK    7  A    between atoms: N1_18  and  O4_20 
REMARK    8  A    between atoms: C15_22  and  O5_23 
REMARK    9  A    between atoms: C24_36  and  O6_37 
REMARK   10  A    between atoms: O6_37  and  C25_38 
REMARK   11  A    between atoms: C25_38  and  C26_40 
REMARK   12  A    between atoms: C26_40  and  N3_41 
ROOT
HETATM    1  C2  UNL     1     -20.539   5.013   1.349  1.00  0.00     0.155 C 
HETATM    2  C3  UNL     1     -19.800   5.476   2.586  1.00  0.00     0.023 C 
HETATM    3  C4  UNL     1     -19.979   7.002   2.452  1.00  0.00     0.022 C 
HETATM    4  C5  UNL     1     -19.014   6.772   1.280  1.00  0.00     0.023 C 
HETATM    5  C6  UNL     1     -18.388   5.775   2.162  1.00  0.00     0.008 C 
HETATM    6  C7  UNL     1     -17.575   4.732   1.515  1.00  0.00     0.041 C 
HETATM    7  C8  UNL     1     -16.193   5.378   1.279  1.00  0.00     0.161 C 
HETATM    8  C15 UNL     1     -16.347   6.331   0.146  1.00  0.00     0.158 C 
HETATM    9  C16 UNL     1     -16.787   7.713   0.571  1.00  0.00     0.017 C 
HETATM   10  C17 UNL     1     -15.984   8.188   1.740  1.00  0.00     0.020 C 
HETATM   11  C18 UNL     1     -16.381   8.658  -0.576  1.00  0.00    -0.004 C 
HETATM   12  C19 UNL     1     -16.833   8.178  -1.901  1.00  0.00     0.011 C 
HETATM   13  C20 UNL     1     -16.848  10.059  -0.303  1.00  0.00     0.037 C 
HETATM   14  C21 UNL     1     -18.165  10.177   0.373  1.00  0.00     0.182 C 
HETATM   15  C22 UNL     1     -18.271  11.533   1.043  1.00  0.00     0.040 C 
HETATM   16  N2  UNL     1     -18.476   9.178   1.344  1.00  0.00    -0.065 N 
ATOM     17  H21 UNL     1     -19.412   9.287   1.736  1.00  0.00     0.278 HD
ATOM     18  H22 UNL     1     -17.951   9.293   2.211  1.00  0.00     0.278 HD
HETATM   19  C23 UNL     1     -18.269   7.860   0.723  1.00  0.00     0.208 C 
HETATM   20  C24 UNL     1     -19.969   5.995   0.354  1.00  0.00     0.172 C 
ENDROOT
BRANCH   7  21
HETATM   21  O2  UNL     1     -15.184   4.414   1.120  1.00  0.00    -0.313 OA
BRANCH  21  22
HETATM   22  C9  UNL     1     -14.116   4.246   1.946  1.00  0.00     0.266 C 
HETATM   23  O3  UNL     1     -13.363   5.212   2.196  1.00  0.00    -0.265 OA
BRANCH  22  24
HETATM   24  C10 UNL     1     -13.849   2.920   2.545  1.00  0.00     0.104 C 
HETATM   25  C11 UNL     1     -12.736   2.204   1.807  1.00  0.00     0.025 C 
BRANCH  24  26
HETATM   26  C12 UNL     1     -15.042   2.051   2.538  1.00  0.00    -0.011 C 
HETATM   27  C13 UNL     1     -14.910   0.751   2.565  1.00  0.00     0.016 C 
BRANCH  27  28
HETATM   28  C14 UNL     1     -16.085  -0.148   2.558  1.00  0.00     0.113 C 
HETATM   29  N1  UNL     1     -15.957  -1.422   2.535  1.00  0.00    -0.281 N 
ATOM     30  H1  UNL     1     -15.010  -1.800   2.521  1.00  0.00     0.193 HD
BRANCH  29  31
HETATM   31  O4  UNL     1     -16.981  -2.305   2.528  1.00  0.00    -0.290 OA
ATOM     32  H4  UNL     1     -17.213  -2.865   1.797  1.00  0.00     0.244 HD
ENDBRANCH  29  31
ENDBRANCH  27  28
ENDBRANCH  24  26
ENDBRANCH  22  24
ENDBRANCH  21  22
ENDBRANCH   7  21
BRANCH   8  33
HETATM   33  O5  UNL     1     -15.159   6.488  -0.599  1.00  0.00    -0.392 OA
ATOM     34  H5  UNL     1     -14.735   7.324  -0.440  1.00  0.00     0.210 HD
ENDBRANCH   8  33
BRANCH   1  35
HETATM   35  O1  UNL     1     -20.154   3.718   1.146  1.00  0.00    -0.388 OA
HETATM   36  C1  UNL     1     -21.047   2.756   1.537  1.00  0.00     0.202 C 
ENDBRANCH   1  35
BRANCH  20  37
HETATM   37  O6  UNL     1     -20.848   6.959  -0.097  1.00  0.00    -0.311 OA
BRANCH  37  38
HETATM   38  C25 UNL     1     -22.037   6.646  -0.723  1.00  0.00     0.284 C 
HETATM   39  O7  UNL     1     -21.906   5.913  -1.719  1.00  0.00    -0.263 OA
BRANCH  38  40
HETATM   40  C26 UNL     1     -23.362   7.137  -0.251  1.00  0.00     0.340 C 
BRANCH  40  41
HETATM   41  N3  UNL     1     -23.825   6.289   0.808  1.00  0.00    -0.070 N 
ATOM     42  H33 UNL     1     -24.713   5.840   0.585  1.00  0.00     0.274 HD
ATOM     43  H32 UNL     1     -23.259   5.446   0.905  1.00  0.00     0.274 HD
ATOM     44  H31 UNL     1     -23.870   6.830   1.672  1.00  0.00     0.274 HD
ENDBRANCH  40  41
ENDBRANCH  38  40
ENDBRANCH  37  38
ENDBRANCH  20  37
TORSDOF 12
ENDMDL
MODEL 5
REMARK VINA RESULT: -7.835079161      1.896      3.500
REMARK  12 active torsions:
REMARK  status: ('A' for Active; 'I' for Inactive)
REMARK    1  A    between atoms: O1_2  and  C2_3 
REMARK    2  A    between atoms: C8_9  and  O2_10 
REMARK    3  A    between atoms: O2_10  and  C9_11 
REMARK    4  A    between atoms: C9_11  and  C10_13 
REMARK    5  A    between atoms: C10_13  and  C12_15 
REMARK    6  A    between atoms: C13_16  and  C14_17 
REMARK    7  A    between atoms: N1_18  and  O4_20 
REMARK    8  A    between atoms: C15_22  and  O5_23 
REMARK    9  A    between atoms: C24_36  and  O6_37 
REMARK   10  A    between atoms: O6_37  and  C25_38 
REMARK   11  A    between atoms: C25_38  and  C26_40 
REMARK   12  A    between atoms: C26_40  and  N3_41 
ROOT
HETATM    1  C2  UNL     1     -19.108   0.272   3.078  1.00  0.00     0.155 C 
HETATM    2  C3  UNL     1     -18.839   1.324   4.133  1.00  0.00     0.023 C 
HETATM    3  C4  UNL     1     -20.262   1.890   4.319  1.00  0.00     0.022 C 
HETATM    4  C5  UNL     1     -19.974   2.427   2.909  1.00  0.00     0.023 C 
HETATM    5  C6  UNL     1     -18.602   2.619   3.406  1.00  0.00     0.008 C 
HETATM    6  C7  UNL     1     -17.536   2.711   2.394  1.00  0.00     0.041 C 
HETATM    7  C8  UNL     1     -17.557   4.179   1.913  1.00  0.00     0.161 C 
HETATM    8  C15 UNL     1     -18.757   4.333   1.045  1.00  0.00     0.158 C 
HETATM    9  C16 UNL     1     -20.013   4.691   1.804  1.00  0.00     0.017 C 
HETATM   10  C17 UNL     1     -19.746   5.793   2.780  1.00  0.00     0.020 C 
HETATM   11  C18 UNL     1     -20.967   5.322   0.773  1.00  0.00    -0.004 C 
HETATM   12  C19 UNL     1     -21.121   4.495  -0.445  1.00  0.00     0.011 C 
HETATM   13  C20 UNL     1     -22.294   5.642   1.399  1.00  0.00     0.037 C 
HETATM   14  C21 UNL     1     -22.777   4.671   2.412  1.00  0.00     0.182 C 
HETATM   15  C22 UNL     1     -23.798   5.340   3.311  1.00  0.00     0.040 C 
HETATM   16  N2  UNL     1     -21.785   4.068   3.243  1.00  0.00    -0.065 N 
ATOM     17  H21 UNL     1     -22.175   3.376   3.883  1.00  0.00     0.278 HD
ATOM     18  H22 UNL     1     -21.414   4.709   3.944  1.00  0.00     0.278 HD
HETATM   19  C23 UNL     1     -20.738   3.510   2.371  1.00  0.00     0.208 C 
HETATM   20  C24 UNL     1     -19.980   1.086   2.153  1.00  0.00     0.172 C 
ENDROOT
BRANCH   7  21
HETATM   21  O2  UNL     1     -16.338   4.554   1.325  1.00  0.00    -0.313 OA
BRANCH  21  22
HETATM   22  C9  UNL     1     -15.563   5.602   1.717  1.00  0.00     0.266 C 
HETATM   23  O3  UNL     1     -14.658   5.426   2.562  1.00  0.00    -0.265 OA
BRANCH  22  24
HETATM   24  C10 UNL     1     -15.794   6.946   1.143  1.00  0.00     0.104 C 
HETATM   25  C11 UNL     1     -14.493   7.706   0.996  1.00  0.00     0.025 C 
BRANCH  24  26
HETATM   26  C12 UNL     1     -16.714   7.755   1.966  1.00  0.00    -0.011 C 
HETATM   27  C13 UNL     1     -17.609   8.519   1.396  1.00  0.00     0.016 C 
BRANCH  27  28
HETATM   28  C14 UNL     1     -18.544   9.343   2.191  1.00  0.00     0.113 C 
HETATM   29  N1  UNL     1     -19.811   9.293   2.005  1.00  0.00    -0.281 N 
ATOM     30  H1  UNL     1     -20.156   8.660   1.284  1.00  0.00     0.193 HD
BRANCH  29  31
HETATM   31  O4  UNL     1     -20.725  10.015   2.691  1.00  0.00    -0.290 OA
ATOM     32  H4  UNL     1     -21.205  10.758   2.345  1.00  0.00     0.244 HD
ENDBRANCH  29  31
ENDBRANCH  27  28
ENDBRANCH  24  26
ENDBRANCH  22  24
ENDBRANCH  21  22
ENDBRANCH   7  21
BRANCH   8  33
HETATM   33  O5  UNL     1     -18.584   5.318   0.048  1.00  0.00    -0.392 OA
ATOM     34  H5  UNL     1     -18.016   5.030  -0.656  1.00  0.00     0.210 HD
ENDBRANCH   8  33
BRANCH   1  35
HETATM   35  O1  UNL     1     -17.888  -0.057   2.559  1.00  0.00    -0.388 OA
HETATM   36  C1  UNL     1     -17.825  -1.238   1.869  1.00  0.00     0.202 C 
ENDBRANCH   1  35
BRANCH  20  37
HETATM   37  O6  UNL     1     -21.313   0.727   2.128  1.00  0.00    -0.311 OA
BRANCH  37  38
HETATM   38  C25 UNL     1     -21.735  -0.576   2.295  1.00  0.00     0.284 C 
HETATM   39  O7  UNL     1     -21.374  -1.345   1.386  1.00  0.00    -0.263 OA
BRANCH  38  40
HETATM   40  C26 UNL     1     -22.548  -1.027   3.459  1.00  0.00     0.340 C 
BRANCH  40  41
HETATM   41  N3  UNL     1     -23.291   0.086   3.971  1.00  0.00    -0.070 N 
ATOM     42  H33 UNL     1     -23.722   0.638   3.230  1.00  0.00     0.274 HD
ATOM     43  H32 UNL     1     -24.144  -0.205   4.448  1.00  0.00     0.274 HD
ATOM     44  H31 UNL     1     -22.682   0.645   4.568  1.00  0.00     0.274 HD
ENDBRANCH  40  41
ENDBRANCH  38  40
ENDBRANCH  37  38
ENDBRANCH  20  37
TORSDOF 12
ENDMDL
