MODEL 1
REMARK VINA RESULT: -7.600675302      0.000      0.000
REMARK  10 active torsions:
REMARK  status: ('A' for Active; 'I' for Inactive)
REMARK    1  A    between atoms: C2_2  and  N1_3 
REMARK    2  A    between atoms: N1_3  and  C4_5 
REMARK    3  A    between atoms: C4_5  and  C5_6 
REMARK    4  A    between atoms: C5_6  and  C6_7 
REMARK    5  A    between atoms: C6_7  and  C7_8 
REMARK    6  A    between atoms: C7_8  and  C8_9 
REMARK    7  A    between atoms: C9_10  and  O1_11 
REMARK    8  A    between atoms: C15_19  and  O3_20 
REMARK    9  A    between atoms: C16_22  and  O4_23 
REMARK   10  A    between atoms: C25_36  and  O8_37 
ROOT
HETATM    1  C8  UNL     1     -16.833   2.967   3.293  1.00  0.00     0.044 C 
HETATM    2  C9  UNL     1     -16.907   4.369   2.864  1.00  0.00     0.127 C 
HETATM    3  C10 UNL     1     -18.286   5.001   2.782  1.00  0.00     0.073 C 
HETATM    4  C11 UNL     1     -19.052   4.358   1.733  1.00  0.00     0.096 A 
HETATM    5  O2  UNL     1     -18.386   4.353   0.564  1.00  0.00    -0.368 OA
HETATM    6  C12 UNL     1     -19.487   5.024   0.413  1.00  0.00     0.164 A 
HETATM    7  C13 UNL     1     -20.076   6.282   0.856  1.00  0.00     0.045 C 
HETATM    8  C14 UNL     1     -20.354   7.152  -0.380  1.00  0.00     0.015 C 
HETATM    9  C15 UNL     1     -21.411   5.916   1.463  1.00  0.00     0.153 C 
HETATM   10  C16 UNL     1     -21.479   4.665   2.222  1.00  0.00     0.154 C 
HETATM   11  C17 UNL     1     -20.270   3.752   2.219  1.00  0.00     0.055 C 
HETATM   12  C18 UNL     1     -20.232   3.152   3.598  1.00  0.00     0.023 C 
HETATM   13  C19 UNL     1     -19.178   2.218   3.926  1.00  0.00     0.083 C 
HETATM   14  C20 UNL     1     -17.999   2.064   3.030  1.00  0.00     0.141 C 
HETATM   15  O5  UNL     1     -17.518   0.800   3.509  1.00  0.00    -0.349 OA
HETATM   16  C21 UNL     1     -18.619  -0.028   3.501  1.00  0.00     0.326 C 
HETATM   17  O6  UNL     1     -18.884  -0.606   2.290  1.00  0.00    -0.320 OA
HETATM   18  C22 UNL     1     -20.262  -0.493   2.170  1.00  0.00     0.164 C 
HETATM   19  C23 UNL     1     -20.989  -1.644   2.829  1.00  0.00     0.078 C 
HETATM   20  C24 UNL     1     -20.691  -0.486   0.712  1.00  0.00     0.078 C 
HETATM   21  O7  UNL     1     -20.631   0.692   2.794  1.00  0.00    -0.314 OA
HETATM   22  C25 UNL     1     -19.779   0.798   3.909  1.00  0.00     0.223 C 
ENDROOT
BRANCH   1  23
HETATM   23  C7  UNL     1     -15.649   2.302   2.624  1.00  0.00     0.010 C 
BRANCH  23  24
HETATM   24  C6  UNL     1     -14.379   3.041   2.578  1.00  0.00     0.006 C 
BRANCH  24  25
HETATM   25  C5  UNL     1     -13.690   3.121   1.241  1.00  0.00     0.044 C 
BRANCH  25  26
HETATM   26  C4  UNL     1     -14.237   4.253   0.392  1.00  0.00     0.062 C 
BRANCH  26  27
HETATM   27  N1  UNL     1     -13.708   5.524   0.656  1.00  0.00    -0.379 N 
HETATM   28  C3  UNL     1     -12.330   5.655   0.925  1.00  0.00     0.154 C 
BRANCH  27  29
HETATM   29  C2  UNL     1     -14.570   6.593   0.971  1.00  0.00     0.058 C 
HETATM   30  C1  UNL     1     -15.819   6.709   0.151  1.00  0.00     0.055 C 
ENDBRANCH  27  29
ENDBRANCH  26  27
ENDBRANCH  25  26
ENDBRANCH  24  25
ENDBRANCH  23  24
ENDBRANCH   1  23
BRANCH   2  31
HETATM   31  O1  UNL     1     -16.228   5.166   3.788  1.00  0.00    -0.395 OA
ATOM     32  H1  UNL     1     -15.540   5.644   3.340  1.00  0.00     0.210 HD
ENDBRANCH   2  31
BRANCH  22  33
HETATM   33  O8  UNL     1     -20.455   0.443   5.017  1.00  0.00    -0.356 OA
HETATM   34  C26 UNL     1     -19.812  -0.209   6.016  1.00  0.00     0.205 C 
ENDBRANCH  22  33
BRANCH  10  35
HETATM   35  O4  UNL     1     -22.599   3.917   1.771  1.00  0.00    -0.393 OA
ATOM     36  H4  UNL     1     -23.163   3.732   2.513  1.00  0.00     0.210 HD
ENDBRANCH  10  35
BRANCH   9  37
HETATM   37  O3  UNL     1     -21.813   7.044   2.218  1.00  0.00    -0.393 OA
ATOM     38  H3  UNL     1     -22.424   7.518   1.668  1.00  0.00     0.210 HD
ENDBRANCH   9  37
TORSDOF 10
ENDMDL
MODEL 2
REMARK VINA RESULT: -7.541080645      1.437      2.172
REMARK  10 active torsions:
REMARK  status: ('A' for Active; 'I' for Inactive)
REMARK    1  A    between atoms: C2_2  and  N1_3 
REMARK    2  A    between atoms: N1_3  and  C4_5 
REMARK    3  A    between atoms: C4_5  and  C5_6 
REMARK    4  A    between atoms: C5_6  and  C6_7 
REMARK    5  A    between atoms: C6_7  and  C7_8 
REMARK    6  A    between atoms: C7_8  and  C8_9 
REMARK    7  A    between atoms: C9_10  and  O1_11 
REMARK    8  A    between atoms: C15_19  and  O3_20 
REMARK    9  A    between atoms: C16_22  and  O4_23 
REMARK   10  A    between atoms: C25_36  and  O8_37 
ROOT
HETATM    1  C8  UNL     1     -16.816   3.060   3.348  1.00  0.00     0.044 C 
HETATM    2  C9  UNL     1     -16.907   4.461   2.920  1.00  0.00     0.127 C 
HETATM    3  C10 UNL     1     -18.295   5.068   2.811  1.00  0.00     0.073 C 
HETATM    4  C11 UNL     1     -19.028   4.413   1.745  1.00  0.00     0.096 A 
HETATM    5  O2  UNL     1     -18.338   4.422   0.590  1.00  0.00    -0.368 OA
HETATM    6  C12 UNL     1     -19.448   5.073   0.418  1.00  0.00     0.164 A 
HETATM    7  C13 UNL     1     -20.069   6.320   0.850  1.00  0.00     0.045 C 
HETATM    8  C14 UNL     1     -20.338   7.187  -0.391  1.00  0.00     0.015 C 
HETATM    9  C15 UNL     1     -21.409   5.929   1.430  1.00  0.00     0.153 C 
HETATM   10  C16 UNL     1     -21.470   4.674   2.185  1.00  0.00     0.154 C 
HETATM   11  C17 UNL     1     -20.244   3.784   2.205  1.00  0.00     0.055 C 
HETATM   12  C18 UNL     1     -20.223   3.182   3.584  1.00  0.00     0.023 C 
HETATM   13  C19 UNL     1     -19.159   2.268   3.932  1.00  0.00     0.083 C 
HETATM   14  C20 UNL     1     -17.960   2.137   3.060  1.00  0.00     0.141 C 
HETATM   15  O5  UNL     1     -17.465   0.880   3.547  1.00  0.00    -0.349 OA
HETATM   16  C21 UNL     1     -18.551   0.033   3.515  1.00  0.00     0.326 C 
HETATM   17  O6  UNL     1     -18.780  -0.548   2.299  1.00  0.00    -0.320 OA
HETATM   18  C22 UNL     1     -20.158  -0.461   2.151  1.00  0.00     0.164 C 
HETATM   19  C23 UNL     1     -20.877  -1.625   2.793  1.00  0.00     0.078 C 
HETATM   20  C24 UNL     1     -20.557  -0.458   0.684  1.00  0.00     0.078 C 
HETATM   21  O7  UNL     1     -20.561   0.717   2.769  1.00  0.00    -0.314 OA
HETATM   22  C25 UNL     1     -19.734   0.837   3.900  1.00  0.00     0.223 C 
ENDROOT
BRANCH   1  23
HETATM   23  C7  UNL     1     -15.607   2.418   2.702  1.00  0.00     0.010 C 
BRANCH  23  24
HETATM   24  C6  UNL     1     -14.499   3.292   2.292  1.00  0.00     0.006 C 
BRANCH  24  25
HETATM   25  C5  UNL     1     -13.445   2.680   1.407  1.00  0.00     0.044 C 
BRANCH  25  26
HETATM   26  C4  UNL     1     -12.382   1.959   2.214  1.00  0.00     0.062 C 
BRANCH  26  27
HETATM   27  N1  UNL     1     -11.096   2.517   2.167  1.00  0.00    -0.379 N 
HETATM   28  C3  UNL     1     -10.946   3.873   1.812  1.00  0.00     0.154 C 
BRANCH  27  29
HETATM   29  C2  UNL     1      -9.965   1.678   2.149  1.00  0.00     0.058 C 
HETATM   30  C1  UNL     1      -9.401   1.288   3.482  1.00  0.00     0.055 C 
ENDBRANCH  27  29
ENDBRANCH  26  27
ENDBRANCH  25  26
ENDBRANCH  24  25
ENDBRANCH  23  24
ENDBRANCH   1  23
BRANCH   2  31
HETATM   31  O1  UNL     1     -16.261   5.269   3.858  1.00  0.00    -0.395 OA
ATOM     32  H1  UNL     1     -15.427   4.876   4.085  1.00  0.00     0.210 HD
ENDBRANCH   2  31
BRANCH  22  33
HETATM   33  O8  UNL     1     -20.426   0.467   4.995  1.00  0.00    -0.356 OA
HETATM   34  C26 UNL     1     -19.792  -0.178   6.003  1.00  0.00     0.205 C 
ENDBRANCH  22  33
BRANCH  10  35
HETATM   35  O4  UNL     1     -22.566   3.908   1.710  1.00  0.00    -0.393 OA
ATOM     36  H4  UNL     1     -23.179   4.488   1.274  1.00  0.00     0.210 HD
ENDBRANCH  10  35
BRANCH   9  37
HETATM   37  O3  UNL     1     -21.847   7.047   2.178  1.00  0.00    -0.393 OA
ATOM     38  H3  UNL     1     -22.323   7.596   1.567  1.00  0.00     0.210 HD
ENDBRANCH   9  37
TORSDOF 10
ENDMDL
MODEL 3
REMARK VINA RESULT: -7.537012230      2.837      6.855
REMARK  10 active torsions:
REMARK  status: ('A' for Active; 'I' for Inactive)
REMARK    1  A    between atoms: C2_2  and  N1_3 
REMARK    2  A    between atoms: N1_3  and  C4_5 
REMARK    3  A    between atoms: C4_5  and  C5_6 
REMARK    4  A    between atoms: C5_6  and  C6_7 
REMARK    5  A    between atoms: C6_7  and  C7_8 
REMARK    6  A    between atoms: C7_8  and  C8_9 
REMARK    7  A    between atoms: C9_10  and  O1_11 
REMARK    8  A    between atoms: C15_19  and  O3_20 
REMARK    9  A    between atoms: C16_22  and  O4_23 
REMARK   10  A    between atoms: C25_36  and  O8_37 
ROOT
HETATM    1  C8  UNL     1     -19.433   4.266   1.535  1.00  0.00     0.044 C 
HETATM    2  C9  UNL     1     -20.826   3.803   1.563  1.00  0.00     0.127 C 
HETATM    3  C10 UNL     1     -21.859   4.655   0.847  1.00  0.00     0.073 C 
HETATM    4  C11 UNL     1     -21.988   5.931   1.524  1.00  0.00     0.096 A 
HETATM    5  O2  UNL     1     -22.228   5.773   2.838  1.00  0.00    -0.368 OA
HETATM    6  C12 UNL     1     -23.229   6.404   2.303  1.00  0.00     0.164 A 
HETATM    7  C13 UNL     1     -24.323   6.142   1.374  1.00  0.00     0.045 C 
HETATM    8  C14 UNL     1     -25.653   6.363   2.112  1.00  0.00     0.015 C 
HETATM    9  C15 UNL     1     -24.214   7.207   0.306  1.00  0.00     0.153 C 
HETATM   10  C16 UNL     1     -22.865   7.607  -0.103  1.00  0.00     0.154 C 
HETATM   11  C17 UNL     1     -21.683   7.054   0.667  1.00  0.00     0.055 C 
HETATM   12  C18 UNL     1     -20.606   6.854  -0.365  1.00  0.00     0.023 C 
HETATM   13  C19 UNL     1     -19.326   6.328   0.053  1.00  0.00     0.083 C 
HETATM   14  C20 UNL     1     -19.159   5.733   1.407  1.00  0.00     0.141 C 
HETATM   15  O5  UNL     1     -17.727   5.783   1.499  1.00  0.00    -0.349 OA
HETATM   16  C21 UNL     1     -17.393   7.078   1.168  1.00  0.00     0.326 C 
HETATM   17  O6  UNL     1     -17.473   7.966   2.205  1.00  0.00    -0.320 OA
HETATM   18  C22 UNL     1     -18.079   9.078   1.634  1.00  0.00     0.164 C 
HETATM   19  C23 UNL     1     -17.076  10.001   0.979  1.00  0.00     0.078 C 
HETATM   20  C24 UNL     1     -18.812   9.903   2.678  1.00  0.00     0.078 C 
HETATM   21  O7  UNL     1     -18.963   8.611   0.669  1.00  0.00    -0.314 OA
HETATM   22  C25 UNL     1     -18.322   7.499   0.094  1.00  0.00     0.223 C 
ENDROOT
BRANCH   1  23
HETATM   23  C7  UNL     1     -18.738   3.835   2.809  1.00  0.00     0.010 C 
BRANCH  23  24
HETATM   24  C6  UNL     1     -18.040   2.542   2.809  1.00  0.00     0.006 C 
BRANCH  24  25
HETATM   25  C5  UNL     1     -18.773   1.376   3.418  1.00  0.00     0.044 C 
BRANCH  25  26
HETATM   26  C4  UNL     1     -17.983   0.086   3.291  1.00  0.00     0.062 C 
BRANCH  26  27
HETATM   27  N1  UNL     1     -18.344  -0.748   2.224  1.00  0.00    -0.379 N 
HETATM   28  C3  UNL     1     -19.701  -1.083   2.040  1.00  0.00     0.154 C 
BRANCH  27  29
HETATM   29  C2  UNL     1     -17.359  -1.498   1.553  1.00  0.00     0.058 C 
HETATM   30  C1  UNL     1     -15.933  -1.124   1.825  1.00  0.00     0.055 C 
ENDBRANCH  27  29
ENDBRANCH  26  27
ENDBRANCH  25  26
ENDBRANCH  24  25
ENDBRANCH  23  24
ENDBRANCH   1  23
BRANCH   2  31
HETATM   31  O1  UNL     1     -20.909   2.566   0.919  1.00  0.00    -0.395 OA
ATOM     32  H1  UNL     1     -21.106   2.706   0.001  1.00  0.00     0.210 HD
ENDBRANCH   2  31
BRANCH  22  33
HETATM   33  O8  UNL     1     -17.801   7.856  -1.095  1.00  0.00    -0.356 OA
HETATM   34  C26 UNL     1     -16.501   7.586  -1.366  1.00  0.00     0.205 C 
ENDBRANCH  22  33
BRANCH  10  35
HETATM   35  O4  UNL     1     -22.783   9.024  -0.082  1.00  0.00    -0.393 OA
ATOM     36  H4  UNL     1     -21.962   9.277   0.325  1.00  0.00     0.210 HD
ENDBRANCH  10  35
BRANCH   9  37
HETATM   37  O3  UNL     1     -25.007   6.752  -0.773  1.00  0.00    -0.393 OA
ATOM     38  H3  UNL     1     -25.469   7.516  -1.095  1.00  0.00     0.210 HD
ENDBRANCH   9  37
TORSDOF 10
ENDMDL
MODEL 4
REMARK VINA RESULT: -7.492048330      1.671      5.424
REMARK  10 active torsions:
REMARK  status: ('A' for Active; 'I' for Inactive)
REMARK    1  A    between atoms: C2_2  and  N1_3 
REMARK    2  A    between atoms: N1_3  and  C4_5 
REMARK    3  A    between atoms: C4_5  and  C5_6 
REMARK    4  A    between atoms: C5_6  and  C6_7 
REMARK    5  A    between atoms: C6_7  and  C7_8 
REMARK    6  A    between atoms: C7_8  and  C8_9 
REMARK    7  A    between atoms: C9_10  and  O1_11 
REMARK    8  A    between atoms: C15_19  and  O3_20 
REMARK    9  A    between atoms: C16_22  and  O4_23 
REMARK   10  A    between atoms: C25_36  and  O8_37 
ROOT
HETATM    1  C8  UNL     1     -18.163   3.700   2.549  1.00  0.00     0.044 C 
HETATM    2  C9  UNL     1     -17.951   2.391   3.178  1.00  0.00     0.127 C 
HETATM    3  C10 UNL     1     -19.013   1.329   2.954  1.00  0.00     0.073 C 
HETATM    4  C11 UNL     1     -20.249   1.737   3.594  1.00  0.00     0.096 A 
HETATM    5  O2  UNL     1     -20.057   2.051   4.889  1.00  0.00    -0.368 OA
HETATM    6  C12 UNL     1     -20.885   1.053   4.819  1.00  0.00     0.164 A 
HETATM    7  C13 UNL     1     -20.876  -0.358   4.452  1.00  0.00     0.045 C 
HETATM    8  C14 UNL     1     -21.282  -1.185   5.682  1.00  0.00     0.015 C 
HETATM    9  C15 UNL     1     -21.967  -0.518   3.417  1.00  0.00     0.153 C 
HETATM   10  C16 UNL     1     -22.147   0.580   2.463  1.00  0.00     0.154 C 
HETATM   11  C17 UNL     1     -21.350   1.852   2.666  1.00  0.00     0.055 C 
HETATM   12  C18 UNL     1     -21.026   2.333   1.278  1.00  0.00     0.023 C 
HETATM   13  C19 UNL     1     -20.260   3.549   1.120  1.00  0.00     0.083 C 
HETATM   14  C20 UNL     1     -19.564   4.161   2.285  1.00  0.00     0.141 C 
HETATM   15  O5  UNL     1     -19.356   5.478   1.756  1.00  0.00    -0.349 OA
HETATM   16  C21 UNL     1     -20.590   5.873   1.286  1.00  0.00     0.326 C 
HETATM   17  O6  UNL     1     -21.414   6.405   2.239  1.00  0.00    -0.320 OA
HETATM   18  C22 UNL     1     -22.647   5.832   1.958  1.00  0.00     0.164 C 
HETATM   19  C23 UNL     1     -23.417   6.613   0.918  1.00  0.00     0.078 C 
HETATM   20  C24 UNL     1     -23.525   5.775   3.198  1.00  0.00     0.078 C 
HETATM   21  O7  UNL     1     -22.402   4.552   1.474  1.00  0.00    -0.314 OA
HETATM   22  C25 UNL     1     -21.231   4.672   0.704  1.00  0.00     0.223 C 
ENDROOT
BRANCH   1  23
HETATM   23  C7  UNL     1     -17.541   4.776   3.413  1.00  0.00     0.010 C 
BRANCH  23  24
HETATM   24  C6  UNL     1     -16.233   5.312   3.010  1.00  0.00     0.006 C 
BRANCH  24  25
HETATM   25  C5  UNL     1     -15.776   5.001   1.608  1.00  0.00     0.044 C 
BRANCH  25  26
HETATM   26  C4  UNL     1     -14.337   5.423   1.379  1.00  0.00     0.062 C 
BRANCH  26  27
HETATM   27  N1  UNL     1     -13.371   4.424   1.561  1.00  0.00    -0.379 N 
HETATM   28  C3  UNL     1     -12.036   4.796   1.822  1.00  0.00     0.154 C 
BRANCH  27  29
HETATM   29  C2  UNL     1     -13.646   3.099   1.171  1.00  0.00     0.058 C 
HETATM   30  C1  UNL     1     -13.364   2.031   2.184  1.00  0.00     0.055 C 
ENDBRANCH  27  29
ENDBRANCH  26  27
ENDBRANCH  25  26
ENDBRANCH  24  25
ENDBRANCH  23  24
ENDBRANCH   1  23
BRANCH   2  31
HETATM   31  O1  UNL     1     -16.789   1.817   2.658  1.00  0.00    -0.395 OA
ATOM     32  H1  UNL     1     -16.483   1.142   3.251  1.00  0.00     0.210 HD
ENDBRANCH   2  31
BRANCH  22  33
HETATM   33  O8  UNL     1     -21.561   4.697  -0.602  1.00  0.00    -0.356 OA
HETATM   34  C26 UNL     1     -21.426   5.846  -1.307  1.00  0.00     0.205 C 
ENDBRANCH  22  33
BRANCH  10  35
HETATM   35  O4  UNL     1     -23.524   0.923   2.417  1.00  0.00    -0.393 OA
ATOM     36  H4  UNL     1     -23.824   1.101   3.301  1.00  0.00     0.210 HD
ENDBRANCH  10  35
BRANCH   9  37
HETATM   37  O3  UNL     1     -21.724  -1.762   2.790  1.00  0.00    -0.393 OA
ATOM     38  H3  UNL     1     -21.627  -1.571   1.865  1.00  0.00     0.210 HD
ENDBRANCH   9  37
TORSDOF 10
ENDMDL
MODEL 5
REMARK VINA RESULT: -7.475152271      1.841      5.408
REMARK  10 active torsions:
REMARK  status: ('A' for Active; 'I' for Inactive)
REMARK    1  A    between atoms: C2_2  and  N1_3 
REMARK    2  A    between atoms: N1_3  and  C4_5 
REMARK    3  A    between atoms: C4_5  and  C5_6 
REMARK    4  A    between atoms: C5_6  and  C6_7 
REMARK    5  A    between atoms: C6_7  and  C7_8 
REMARK    6  A    between atoms: C7_8  and  C8_9 
REMARK    7  A    between atoms: C9_10  and  O1_11 
REMARK    8  A    between atoms: C15_19  and  O3_20 
REMARK    9  A    between atoms: C16_22  and  O4_23 
REMARK   10  A    between atoms: C25_36  and  O8_37 
ROOT
HETATM    1  C8  UNL     1     -18.163   3.761   2.523  1.00  0.00     0.044 C 
HETATM    2  C9  UNL     1     -17.937   2.455   3.153  1.00  0.00     0.127 C 
HETATM    3  C10 UNL     1     -18.991   1.384   2.935  1.00  0.00     0.073 C 
HETATM    4  C11 UNL     1     -20.227   1.782   3.578  1.00  0.00     0.096 A 
HETATM    5  O2  UNL     1     -20.034   2.100   4.872  1.00  0.00    -0.368 OA
HETATM    6  C12 UNL     1     -20.853   1.094   4.807  1.00  0.00     0.164 A 
HETATM    7  C13 UNL     1     -20.833  -0.318   4.442  1.00  0.00     0.045 C 
HETATM    8  C14 UNL     1     -21.227  -1.146   5.675  1.00  0.00     0.015 C 
HETATM    9  C15 UNL     1     -21.926  -0.488   3.411  1.00  0.00     0.153 C 
HETATM   10  C16 UNL     1     -22.120   0.606   2.455  1.00  0.00     0.154 C 
HETATM   11  C17 UNL     1     -21.333   1.886   2.654  1.00  0.00     0.055 C 
HETATM   12  C18 UNL     1     -21.018   2.367   1.264  1.00  0.00     0.023 C 
HETATM   13  C19 UNL     1     -20.263   3.589   1.101  1.00  0.00     0.083 C 
HETATM   14  C20 UNL     1     -19.569   4.209   2.263  1.00  0.00     0.141 C 
HETATM   15  O5  UNL     1     -19.374   5.527   1.731  1.00  0.00    -0.349 OA
HETATM   16  C21 UNL     1     -20.613   5.911   1.265  1.00  0.00     0.326 C 
HETATM   17  O6  UNL     1     -21.438   6.437   2.220  1.00  0.00    -0.320 OA
HETATM   18  C22 UNL     1     -22.667   5.853   1.944  1.00  0.00     0.164 C 
HETATM   19  C23 UNL     1     -23.448   6.626   0.906  1.00  0.00     0.078 C 
HETATM   20  C24 UNL     1     -23.540   5.791   3.187  1.00  0.00     0.078 C 
HETATM   21  O7  UNL     1     -22.412   4.575   1.461  1.00  0.00    -0.314 OA
HETATM   22  C25 UNL     1     -21.246   4.704   0.687  1.00  0.00     0.223 C 
ENDROOT
BRANCH   1  23
HETATM   23  C7  UNL     1     -17.547   4.844   3.382  1.00  0.00     0.010 C 
BRANCH  23  24
HETATM   24  C6  UNL     1     -16.250   5.398   2.968  1.00  0.00     0.006 C 
BRANCH  24  25
HETATM   25  C5  UNL     1     -15.794   5.082   1.568  1.00  0.00     0.044 C 
BRANCH  25  26
HETATM   26  C4  UNL     1     -14.990   6.220   0.967  1.00  0.00     0.062 C 
BRANCH  26  27
HETATM   27  N1  UNL     1     -15.735   7.244   0.367  1.00  0.00    -0.379 N 
HETATM   28  C3  UNL     1     -15.554   8.573   0.800  1.00  0.00     0.154 C 
BRANCH  27  29
HETATM   29  C2  UNL     1     -16.866   6.928  -0.411  1.00  0.00     0.058 C 
HETATM   30  C1  UNL     1     -17.944   7.968  -0.476  1.00  0.00     0.055 C 
ENDBRANCH  27  29
ENDBRANCH  26  27
ENDBRANCH  25  26
ENDBRANCH  24  25
ENDBRANCH  23  24
ENDBRANCH   1  23
BRANCH   2  31
HETATM   31  O1  UNL     1     -16.772   1.890   2.630  1.00  0.00    -0.395 OA
ATOM     32  H1  UNL     1     -16.743   0.969   2.859  1.00  0.00     0.210 HD
ENDBRANCH   2  31
BRANCH  22  33
HETATM   33  O8  UNL     1     -21.581   4.723  -0.617  1.00  0.00    -0.356 OA
HETATM   34  C26 UNL     1     -21.420   5.861  -1.335  1.00  0.00     0.205 C 
ENDBRANCH  22  33
BRANCH  10  35
HETATM   35  O4  UNL     1     -23.499   0.937   2.414  1.00  0.00    -0.393 OA
ATOM     36  H4  UNL     1     -23.664   1.641   3.031  1.00  0.00     0.210 HD
ENDBRANCH  10  35
BRANCH   9  37
HETATM   37  O3  UNL     1     -21.674  -1.732   2.785  1.00  0.00    -0.393 OA
ATOM     38  H3  UNL     1     -22.103  -1.687   1.939  1.00  0.00     0.210 HD
ENDBRANCH   9  37
TORSDOF 10
ENDMDL
