MODEL 1
REMARK VINA RESULT: -9.690215311      0.000      0.000
REMARK  9 active torsions:
REMARK  status: ('A' for Active; 'I' for Inactive)
REMARK    1  A    between atoms: O1_2  and  C2_3 
REMARK    2  A    between atoms: C4_5  and  C17_21 
REMARK    3  A    between atoms: C5_6  and  C6_7 
REMARK    4  A    between atoms: C6_7  and  O2_8 
REMARK    5  A    between atoms: C12_15  and  C13_16 
REMARK    6  A    between atoms: C21_25  and  O5_26 
REMARK    7  A    between atoms: C22_28  and  O6_29 
REMARK    8  A    between atoms: C22_28  and  C23_31 
REMARK    9  A    between atoms: C23_31  and  O7_32 
ROOT
HETATM    1  C13 UNL     1       4.114  -3.714  -2.591  1.00  0.00     0.015 C 
HETATM    2  C14 UNL     1       2.695  -3.633  -3.031  1.00  0.00     0.084 C 
HETATM    3  C15 UNL     1       1.701  -4.164  -2.090  1.00  0.00     0.128 C 
HETATM    4  O4  UNL     1       0.556  -3.799  -2.165  1.00  0.00    -0.298 OA
HETATM    5  C16 UNL     1       2.101  -5.128  -1.071  1.00  0.00     0.089 C 
HETATM    6  C17 UNL     1       3.542  -5.250  -0.778  1.00  0.00    -0.015 C 
HETATM    7  C18 UNL     1       3.937  -6.715  -1.032  1.00  0.00     0.008 C 
HETATM    8  C19 UNL     1       3.931  -6.285  -2.514  1.00  0.00     0.020 C 
HETATM    9  C20 UNL     1       4.460  -5.009  -1.958  1.00  0.00     0.003 C 
HETATM   10  C21 UNL     1       5.922  -5.119  -1.702  1.00  0.00     0.165 C 
HETATM   11  C22 UNL     1       6.413  -6.497  -1.312  1.00  0.00     0.113 C 
HETATM   12  C24 UNL     1       5.289  -7.150  -0.598  1.00  0.00    -0.000 A 
HETATM   13  C25 UNL     1       5.406  -8.673  -0.441  1.00  0.00     0.014 A 
HETATM   14  C26 UNL     1       5.412  -7.801   0.735  1.00  0.00     0.014 A 
ENDROOT
BRANCH  11  15
HETATM   15  O6  UNL     1       6.858  -7.195  -2.460  1.00  0.00    -0.384 OA
ATOM     16  H6  UNL     1       6.153  -7.725  -2.812  1.00  0.00     0.210 HD
ENDBRANCH  11  15
BRANCH  11  17
HETATM   17  C23 UNL     1       7.706  -6.404  -0.503  1.00  0.00     0.205 C 
BRANCH  17  18
HETATM   18  O7  UNL     1       8.806  -6.538  -1.309  1.00  0.00    -0.398 OA
ATOM     19  H7  UNL     1       9.365  -7.247  -1.014  1.00  0.00     0.209 HD
ENDBRANCH  17  18
ENDBRANCH  11  17
BRANCH  10  20
HETATM   20  O5  UNL     1       6.579  -4.808  -2.906  1.00  0.00    -0.392 OA
ATOM     21  H5  UNL     1       6.430  -3.886  -3.076  1.00  0.00     0.210 HD
ENDBRANCH  10  20
BRANCH   1  22
HETATM   22  C12 UNL     1       4.701  -2.601  -1.855  1.00  0.00     0.057 C 
HETATM   23  C6  UNL     1       4.367  -1.182  -2.093  1.00  0.00     0.138 C 
HETATM   24  C8  UNL     1       5.269  -0.847  -3.234  1.00  0.00     0.190 C 
HETATM   25  O3  UNL     1       5.162  -0.143  -4.217  1.00  0.00    -0.289 OA
HETATM   26  C9  UNL     1       6.488  -1.603  -2.951  1.00  0.00    -0.016 C 
HETATM   27  C10 UNL     1       7.866  -1.315  -3.460  1.00  0.00     0.052 C 
HETATM   28  C11 UNL     1       6.178  -2.628  -2.148  1.00  0.00    -0.008 C 
BRANCH  23  29
HETATM   29  C5  UNL     1       2.999  -0.735  -2.134  1.00  0.00     0.063 C 
HETATM   30  C2  UNL     1       2.595   0.686  -1.848  1.00  0.00     0.129 C 
HETATM   31  C3  UNL     1       1.397   0.456  -2.784  1.00  0.00     0.038 C 
HETATM   32  C4  UNL     1       2.143  -0.748  -3.312  1.00  0.00     0.008 C 
BRANCH  30  33
HETATM   33  O1  UNL     1       2.052   0.940  -0.580  1.00  0.00    -0.390 OA
HETATM   34  C1  UNL     1       1.197   2.020  -0.652  1.00  0.00     0.202 C 
ENDBRANCH  30  33
ENDBRANCH  23  29
BRANCH  23  35
HETATM   35  O2  UNL     1       5.091  -0.514  -1.087  1.00  0.00    -0.376 OA
HETATM   36  C7  UNL     1       5.503   0.737  -1.254  1.00  0.00     0.203 C 
ENDBRANCH  23  35
ENDBRANCH   1  22
TORSDOF 9
ENDMDL
MODEL 2
REMARK VINA RESULT: -8.876499936      1.721      6.972
REMARK  9 active torsions:
REMARK  status: ('A' for Active; 'I' for Inactive)
REMARK    1  A    between atoms: O1_2  and  C2_3 
REMARK    2  A    between atoms: C4_5  and  C17_21 
REMARK    3  A    between atoms: C5_6  and  C6_7 
REMARK    4  A    between atoms: C6_7  and  O2_8 
REMARK    5  A    between atoms: C12_15  and  C13_16 
REMARK    6  A    between atoms: C21_25  and  O5_26 
REMARK    7  A    between atoms: C22_28  and  O6_29 
REMARK    8  A    between atoms: C22_28  and  C23_31 
REMARK    9  A    between atoms: C23_31  and  O7_32 
ROOT
HETATM    1  C13 UNL     1       4.127  -4.135  -2.588  1.00  0.00     0.015 C 
HETATM    2  C14 UNL     1       5.023  -4.936  -3.465  1.00  0.00     0.084 C 
HETATM    3  C15 UNL     1       6.459  -4.828  -3.183  1.00  0.00     0.128 C 
HETATM    4  O4  UNL     1       7.205  -5.700  -3.549  1.00  0.00    -0.298 OA
HETATM    5  C16 UNL     1       6.978  -3.670  -2.462  1.00  0.00     0.089 C 
HETATM    6  C17 UNL     1       6.010  -2.842  -1.719  1.00  0.00    -0.015 C 
HETATM    7  C18 UNL     1       6.114  -1.411  -2.273  1.00  0.00     0.008 C 
HETATM    8  C19 UNL     1       5.257  -1.974  -3.426  1.00  0.00     0.020 C 
HETATM    9  C20 UNL     1       4.628  -2.763  -2.331  1.00  0.00     0.003 C 
HETATM   10  C21 UNL     1       3.621  -1.940  -1.608  1.00  0.00     0.165 C 
HETATM   11  C22 UNL     1       3.921  -0.457  -1.538  1.00  0.00     0.113 C 
HETATM   12  C24 UNL     1       5.399  -0.334  -1.541  1.00  0.00    -0.000 A 
HETATM   13  C25 UNL     1       5.942   1.067  -1.857  1.00  0.00     0.014 A 
HETATM   14  C26 UNL     1       6.173   0.459  -0.546  1.00  0.00     0.014 A 
ENDROOT
BRANCH  11  15
HETATM   15  O6  UNL     1       3.278   0.218  -2.602  1.00  0.00    -0.384 OA
ATOM     16  H6  UNL     1       2.415  -0.151  -2.747  1.00  0.00     0.210 HD
ENDBRANCH  11  15
BRANCH  11  17
HETATM   17  C23 UNL     1       3.237   0.178  -0.328  1.00  0.00     0.205 C 
BRANCH  17  18
HETATM   18  O7  UNL     1       2.022   0.712  -0.669  1.00  0.00    -0.398 OA
ATOM     19  H7  UNL     1       1.339   0.052  -0.649  1.00  0.00     0.209 HD
ENDBRANCH  17  18
ENDBRANCH  11  17
BRANCH  10  20
HETATM   20  O5  UNL     1       2.410  -2.049  -2.315  1.00  0.00    -0.392 OA
ATOM     21  H5  UNL     1       1.849  -1.342  -2.019  1.00  0.00     0.210 HD
ENDBRANCH  10  20
BRANCH   1  22
HETATM   22  C12 UNL     1       3.597  -4.732  -1.368  1.00  0.00     0.057 C 
HETATM   23  C6  UNL     1       3.805  -6.141  -0.978  1.00  0.00     0.138 C 
HETATM   24  C8  UNL     1       2.718  -6.829  -1.736  1.00  0.00     0.190 C 
HETATM   25  O3  UNL     1       2.629  -7.899  -2.301  1.00  0.00    -0.289 OA
HETATM   26  C9  UNL     1       1.605  -5.882  -1.689  1.00  0.00    -0.016 C 
HETATM   27  C10 UNL     1       0.150  -6.193  -1.855  1.00  0.00     0.052 C 
HETATM   28  C11 UNL     1       2.096  -4.656  -1.474  1.00  0.00    -0.008 C 
BRANCH  23  29
HETATM   29  C5  UNL     1       5.121  -6.725  -0.967  1.00  0.00     0.063 C 
HETATM   30  C2  UNL     1       5.820  -7.141   0.299  1.00  0.00     0.129 C 
HETATM   31  C3  UNL     1       6.554  -8.199  -0.540  1.00  0.00     0.038 C 
HETATM   32  C4  UNL     1       5.488  -7.988  -1.592  1.00  0.00     0.008 C 
BRANCH  30  33
HETATM   33  O1  UNL     1       6.812  -6.274   0.783  1.00  0.00    -0.390 OA
HETATM   34  C1  UNL     1       7.851  -6.213  -0.121  1.00  0.00     0.202 C 
ENDBRANCH  30  33
ENDBRANCH  23  29
BRANCH  23  35
HETATM   35  O2  UNL     1       3.208  -6.208   0.295  1.00  0.00    -0.376 OA
HETATM   36  C7  UNL     1       2.844  -7.370   0.823  1.00  0.00     0.203 C 
ENDBRANCH  23  35
ENDBRANCH   1  22
TORSDOF 9
ENDMDL
MODEL 3
REMARK VINA RESULT: -8.565998587      1.793      7.133
REMARK  9 active torsions:
REMARK  status: ('A' for Active; 'I' for Inactive)
REMARK    1  A    between atoms: O1_2  and  C2_3 
REMARK    2  A    between atoms: C4_5  and  C17_21 
REMARK    3  A    between atoms: C5_6  and  C6_7 
REMARK    4  A    between atoms: C6_7  and  O2_8 
REMARK    5  A    between atoms: C12_15  and  C13_16 
REMARK    6  A    between atoms: C21_25  and  O5_26 
REMARK    7  A    between atoms: C22_28  and  O6_29 
REMARK    8  A    between atoms: C22_28  and  C23_31 
REMARK    9  A    between atoms: C23_31  and  O7_32 
ROOT
HETATM    1  C13 UNL     1       5.805  -4.209  -2.625  1.00  0.00     0.015 C 
HETATM    2  C14 UNL     1       6.971  -5.042  -3.028  1.00  0.00     0.084 C 
HETATM    3  C15 UNL     1       8.239  -4.734  -2.356  1.00  0.00     0.128 C 
HETATM    4  O4  UNL     1       9.106  -5.569  -2.312  1.00  0.00    -0.298 OA
HETATM    5  C16 UNL     1       8.447  -3.425  -1.747  1.00  0.00     0.089 C 
HETATM    6  C17 UNL     1       7.253  -2.595  -1.496  1.00  0.00    -0.015 C 
HETATM    7  C18 UNL     1       7.450  -1.271  -2.255  1.00  0.00     0.008 C 
HETATM    8  C19 UNL     1       7.026  -2.105  -3.482  1.00  0.00     0.020 C 
HETATM    9  C20 UNL     1       6.128  -2.767  -2.496  1.00  0.00     0.003 C 
HETATM   10  C21 UNL     1       4.905  -1.950  -2.274  1.00  0.00     0.165 C 
HETATM   11  C22 UNL     1       5.091  -0.452  -2.400  1.00  0.00     0.113 C 
HETATM   12  C24 UNL     1       6.487  -0.173  -1.987  1.00  0.00    -0.000 A 
HETATM   13  C25 UNL     1       7.027   1.208  -2.386  1.00  0.00     0.014 A 
HETATM   14  C26 UNL     1       6.869   0.851  -0.976  1.00  0.00     0.014 A 
ENDROOT
BRANCH  11  15
HETATM   15  O6  UNL     1       4.778  -0.035  -3.715  1.00  0.00    -0.384 OA
ATOM     16  H6  UNL     1       3.974   0.472  -3.713  1.00  0.00     0.210 HD
ENDBRANCH  11  15
BRANCH  11  17
HETATM   17  C23 UNL     1       4.031   0.296  -1.592  1.00  0.00     0.205 C 
BRANCH  17  18
HETATM   18  O7  UNL     1       3.248  -0.573  -0.877  1.00  0.00    -0.398 OA
ATOM     19  H7  UNL     1       2.773  -0.121  -0.190  1.00  0.00     0.209 HD
ENDBRANCH  17  18
ENDBRANCH  11  17
BRANCH  10  20
HETATM   20  O5  UNL     1       3.983  -2.303  -3.275  1.00  0.00    -0.392 OA
ATOM     21  H5  UNL     1       3.627  -3.153  -3.041  1.00  0.00     0.210 HD
ENDBRANCH  10  20
BRANCH   1  22
HETATM   22  C12 UNL     1       4.953  -4.652  -1.528  1.00  0.00     0.057 C 
HETATM   23  C6  UNL     1       4.782  -6.063  -1.130  1.00  0.00     0.138 C 
HETATM   24  C8  UNL     1       3.723  -6.519  -2.079  1.00  0.00     0.190 C 
HETATM   25  O3  UNL     1       3.508  -7.558  -2.669  1.00  0.00    -0.289 OA
HETATM   26  C9  UNL     1       2.849  -5.355  -2.215  1.00  0.00    -0.016 C 
HETATM   27  C10 UNL     1       1.414  -5.351  -2.641  1.00  0.00     0.052 C 
HETATM   28  C11 UNL     1       3.546  -4.258  -1.897  1.00  0.00    -0.008 C 
BRANCH  23  29
HETATM   29  C5  UNL     1       5.919  -6.914  -0.895  1.00  0.00     0.063 C 
HETATM   30  C2  UNL     1       5.920  -8.011   0.135  1.00  0.00     0.129 C 
HETATM   31  C3  UNL     1       6.938  -8.744  -0.753  1.00  0.00     0.038 C 
HETATM   32  C4  UNL     1       6.508  -7.822  -1.871  1.00  0.00     0.008 C 
BRANCH  30  33
HETATM   33  O1  UNL     1       6.583  -7.738   1.341  1.00  0.00    -0.390 OA
HETATM   34  C1  UNL     1       6.788  -8.914   2.031  1.00  0.00     0.202 C 
ENDBRANCH  30  33
ENDBRANCH  23  29
BRANCH  23  35
HETATM   35  O2  UNL     1       3.969  -5.972   0.016  1.00  0.00    -0.376 OA
HETATM   36  C7  UNL     1       3.229  -6.998   0.416  1.00  0.00     0.203 C 
ENDBRANCH  23  35
ENDBRANCH   1  22
TORSDOF 9
ENDMDL
MODEL 4
REMARK VINA RESULT: -8.274312300      6.747      9.448
REMARK  9 active torsions:
REMARK  status: ('A' for Active; 'I' for Inactive)
REMARK    1  A    between atoms: O1_2  and  C2_3 
REMARK    2  A    between atoms: C4_5  and  C17_21 
REMARK    3  A    between atoms: C5_6  and  C6_7 
REMARK    4  A    between atoms: C6_7  and  O2_8 
REMARK    5  A    between atoms: C12_15  and  C13_16 
REMARK    6  A    between atoms: C21_25  and  O5_26 
REMARK    7  A    between atoms: C22_28  and  O6_29 
REMARK    8  A    between atoms: C22_28  and  C23_31 
REMARK    9  A    between atoms: C23_31  and  O7_32 
ROOT
HETATM    1  C13 UNL     1      -1.011  -9.717  -1.531  1.00  0.00     0.015 C 
HETATM    2  C14 UNL     1      -1.856 -10.762  -2.168  1.00  0.00     0.084 C 
HETATM    3  C15 UNL     1      -2.130 -11.950  -1.351  1.00  0.00     0.128 C 
HETATM    4  O4  UNL     1      -3.086 -12.638  -1.602  1.00  0.00    -0.298 OA
HETATM    5  C16 UNL     1      -1.248 -12.293  -0.240  1.00  0.00     0.089 C 
HETATM    6  C17 UNL     1      -0.339 -11.242   0.256  1.00  0.00    -0.015 C 
HETATM    7  C18 UNL     1       1.095 -11.784   0.131  1.00  0.00     0.008 C 
HETATM    8  C19 UNL     1       0.929 -11.407  -1.356  1.00  0.00     0.020 C 
HETATM    9  C20 UNL     1       0.152 -10.268  -0.794  1.00  0.00     0.003 C 
HETATM   10  C21 UNL     1       1.068  -9.191  -0.331  1.00  0.00     0.165 C 
HETATM   11  C22 UNL     1       2.411  -9.657   0.189  1.00  0.00     0.113 C 
HETATM   12  C24 UNL     1       2.185 -11.003   0.769  1.00  0.00    -0.000 A 
HETATM   13  C25 UNL     1       3.453 -11.834   1.015  1.00  0.00     0.014 A 
HETATM   14  C26 UNL     1       2.616 -11.405   2.137  1.00  0.00     0.014 A 
ENDROOT
BRANCH  11  15
HETATM   15  O6  UNL     1       3.371  -9.624  -0.851  1.00  0.00    -0.384 OA
ATOM     16  H6  UNL     1       3.273 -10.388  -1.407  1.00  0.00     0.210 HD
ENDBRANCH  11  15
BRANCH  11  17
HETATM   17  C23 UNL     1       2.998  -8.638   1.165  1.00  0.00     0.205 C 
BRANCH  17  18
HETATM   18  O7  UNL     1       2.278  -7.472   1.158  1.00  0.00    -0.398 OA
ATOM     19  H7  UNL     1       2.314  -7.051   0.307  1.00  0.00     0.209 HD
ENDBRANCH  17  18
ENDBRANCH  11  17
BRANCH  10  20
HETATM   20  O5  UNL     1       1.352  -8.381  -1.445  1.00  0.00    -0.392 OA
ATOM     21  H5  UNL     1       2.116  -8.751  -1.873  1.00  0.00     0.210 HD
ENDBRANCH  10  20
BRANCH   1  22
HETATM   22  C12 UNL     1      -1.646  -8.644  -0.775  1.00  0.00     0.057 C 
HETATM   23  C6  UNL     1      -3.081  -8.610  -0.431  1.00  0.00     0.138 C 
HETATM   24  C8  UNL     1      -3.675  -8.028  -1.672  1.00  0.00     0.190 C 
HETATM   25  O3  UNL     1      -4.708  -8.213  -2.281  1.00  0.00    -0.289 OA
HETATM   26  C9  UNL     1      -2.679  -7.052  -2.112  1.00  0.00    -0.016 C 
HETATM   27  C10 UNL     1      -2.911  -5.864  -2.993  1.00  0.00     0.052 C 
HETATM   28  C11 UNL     1      -1.491  -7.392  -1.599  1.00  0.00    -0.008 C 
BRANCH  23  29
HETATM   29  C5  UNL     1      -3.727  -9.740   0.184  1.00  0.00     0.063 C 
HETATM   30  C2  UNL     1      -3.912  -9.865   1.672  1.00  0.00     0.129 C 
HETATM   31  C3  UNL     1      -5.163 -10.706   1.373  1.00  0.00     0.038 C 
HETATM   32  C4  UNL     1      -5.112 -10.137  -0.027  1.00  0.00     0.008 C 
BRANCH  30  33
HETATM   33  O1  UNL     1      -3.024 -10.718   2.345  1.00  0.00    -0.390 OA
HETATM   34  C1  UNL     1      -3.732 -11.547   3.189  1.00  0.00     0.202 C 
ENDBRANCH  30  33
ENDBRANCH  23  29
BRANCH  23  35
HETATM   35  O2  UNL     1      -3.186  -7.461   0.375  1.00  0.00    -0.376 OA
HETATM   36  C7  UNL     1      -4.359  -6.877   0.588  1.00  0.00     0.203 C 
ENDBRANCH  23  35
ENDBRANCH   1  22
TORSDOF 9
ENDMDL
MODEL 5
REMARK VINA RESULT: -8.266028253      0.930      1.128
REMARK  9 active torsions:
REMARK  status: ('A' for Active; 'I' for Inactive)
REMARK    1  A    between atoms: O1_2  and  C2_3 
REMARK    2  A    between atoms: C4_5  and  C17_21 
REMARK    3  A    between atoms: C5_6  and  C6_7 
REMARK    4  A    between atoms: C6_7  and  O2_8 
REMARK    5  A    between atoms: C12_15  and  C13_16 
REMARK    6  A    between atoms: C21_25  and  O5_26 
REMARK    7  A    between atoms: C22_28  and  O6_29 
REMARK    8  A    between atoms: C22_28  and  C23_31 
REMARK    9  A    between atoms: C23_31  and  O7_32 
ROOT
HETATM    1  C13 UNL     1       4.185  -3.413  -2.564  1.00  0.00     0.015 C 
HETATM    2  C14 UNL     1       2.743  -3.241  -2.886  1.00  0.00     0.084 C 
HETATM    3  C15 UNL     1       1.798  -3.778  -1.900  1.00  0.00     0.128 C 
HETATM    4  O4  UNL     1       0.670  -3.357  -1.866  1.00  0.00    -0.298 OA
HETATM    5  C16 UNL     1       2.224  -4.817  -0.969  1.00  0.00     0.089 C 
HETATM    6  C17 UNL     1       3.675  -5.022  -0.797  1.00  0.00    -0.015 C 
HETATM    7  C18 UNL     1       3.974  -6.488  -1.159  1.00  0.00     0.008 C 
HETATM    8  C19 UNL     1       3.878  -5.973  -2.611  1.00  0.00     0.020 C 
HETATM    9  C20 UNL     1       4.513  -4.757  -2.030  1.00  0.00     0.003 C 
HETATM   10  C21 UNL     1       5.982  -4.950  -1.895  1.00  0.00     0.165 C 
HETATM   11  C22 UNL     1       6.430  -6.370  -1.620  1.00  0.00     0.113 C 
HETATM   12  C24 UNL     1       5.331  -7.009  -0.857  1.00  0.00    -0.000 A 
HETATM   13  C25 UNL     1       5.382  -8.542  -0.790  1.00  0.00     0.014 A 
HETATM   14  C26 UNL     1       5.522  -7.741   0.426  1.00  0.00     0.014 A 
ENDROOT
BRANCH  11  15
HETATM   15  O6  UNL     1       6.751  -7.020  -2.835  1.00  0.00    -0.384 OA
ATOM     16  H6  UNL     1       5.963  -7.163  -3.346  1.00  0.00     0.210 HD
ENDBRANCH  11  15
BRANCH  11  17
HETATM   17  C23 UNL     1       7.784  -6.384  -0.911  1.00  0.00     0.205 C 
BRANCH  17  18
HETATM   18  O7  UNL     1       8.632  -7.297  -1.480  1.00  0.00    -0.398 OA
ATOM     19  H7  UNL     1       9.363  -6.866  -1.910  1.00  0.00     0.209 HD
ENDBRANCH  17  18
ENDBRANCH  11  17
BRANCH  10  20
HETATM   20  O5  UNL     1       6.561  -4.602  -3.129  1.00  0.00    -0.392 OA
ATOM     21  H5  UNL     1       7.336  -5.140  -3.236  1.00  0.00     0.210 HD
ENDBRANCH  10  20
BRANCH   1  22
HETATM   22  C12 UNL     1       4.882  -2.373  -1.817  1.00  0.00     0.057 C 
HETATM   23  C6  UNL     1       4.701  -0.926  -2.047  1.00  0.00     0.138 C 
HETATM   24  C8  UNL     1       5.640  -0.680  -3.182  1.00  0.00     0.190 C 
HETATM   25  O3  UNL     1       5.614   0.037  -4.161  1.00  0.00    -0.289 OA
HETATM   26  C9  UNL     1       6.771  -1.563  -2.898  1.00  0.00    -0.016 C 
HETATM   27  C10 UNL     1       8.174  -1.418  -3.398  1.00  0.00     0.052 C 
HETATM   28  C11 UNL     1       6.350  -2.554  -2.103  1.00  0.00    -0.008 C 
BRANCH  23  29
HETATM   29  C5  UNL     1       3.388  -0.336  -2.093  1.00  0.00     0.063 C 
HETATM   30  C2  UNL     1       2.397  -0.632  -3.186  1.00  0.00     0.129 C 
HETATM   31  C3  UNL     1       1.290  -0.348  -2.158  1.00  0.00     0.038 C 
HETATM   32  C4  UNL     1       2.347  -0.520  -1.091  1.00  0.00     0.008 C 
BRANCH  30  33
HETATM   33  O1  UNL     1       2.257   0.343  -4.185  1.00  0.00    -0.390 OA
HETATM   34  C1  UNL     1       0.943   0.757  -4.244  1.00  0.00     0.202 C 
ENDBRANCH  30  33
ENDBRANCH  23  29
BRANCH  23  35
HETATM   35  O2  UNL     1       5.486  -0.344  -1.034  1.00  0.00    -0.376 OA
HETATM   36  C7  UNL     1       5.762   0.955  -1.040  1.00  0.00     0.203 C 
ENDBRANCH  23  35
ENDBRANCH   1  22
TORSDOF 9
ENDMDL
