MODEL 1
REMARK VINA RESULT: -10.748154523      0.000      0.000
REMARK  9 active torsions:
REMARK  status: ('A' for Active; 'I' for Inactive)
REMARK    1  A    between atoms: N1_1  and  C1_5 
REMARK    2  A    between atoms: C3_7  and  O1_8 
REMARK    3  A    between atoms: C4_10  and  O2_11 
REMARK    4  A    between atoms: C5_13  and  O3_14 
REMARK    5  A    between atoms: O3_14  and  C6_15 
REMARK    6  A    between atoms: C6_15  and  C7_17 
REMARK    7  A    between atoms: C9_19  and  C10_20 
REMARK    8  A    between atoms: C10_20  and  C11_21 
REMARK    9  A    between atoms: C10_20  and  C16_29 
REMARK       I    between atoms: C11_21  and  N2_23 
ROOT
HETATM    1  C7  UNL     1       3.312  -4.838  -1.537  1.00  0.00     0.014 C 
HETATM    2  C8  UNL     1       4.073  -3.768  -1.440  1.00  0.00    -0.008 C 
HETATM    3  C9  UNL     1       3.788  -2.867  -2.605  1.00  0.00     0.022 C 
HETATM    4  C24 UNL     1       2.371  -3.242  -2.874  1.00  0.00     0.014 C 
HETATM    5  C25 UNL     1       2.419  -4.790  -2.734  1.00  0.00     0.045 C 
ENDROOT
BRANCH   3   6
HETATM    6  C10 UNL     1       4.194  -1.493  -2.441  1.00  0.00     0.090 C 
BRANCH   6   7
HETATM    7  C11 UNL     1       3.237  -0.683  -3.303  1.00  0.00     0.225 C 
HETATM    8  O5  UNL     1       3.321  -0.889  -4.552  1.00  0.00    -0.273 OA
HETATM    9  N2  UNL     1       2.308   0.232  -2.823  1.00  0.00    -0.348 N 
HETATM   10  C12 UNL     1       2.156   0.533  -1.424  1.00  0.00     0.152 C 
HETATM   11  C15 UNL     1       1.436   0.931  -3.742  1.00  0.00     0.152 C 
HETATM   12  C13 UNL     1       1.344   1.829  -1.367  1.00  0.00     0.187 C 
HETATM   13  O6  UNL     1       0.088   1.704  -1.902  1.00  0.00    -0.388 OA
HETATM   14  C14 UNL     1       0.049   1.022  -3.107  1.00  0.00     0.187 C 
ENDBRANCH   6   7
BRANCH   6  15
HETATM   15  C16 UNL     1       5.525  -0.930  -2.546  1.00  0.00     0.004 C 
HETATM   16  C17 UNL     1       5.831  -0.097  -1.241  1.00  0.00     0.006 C 
HETATM   17  C18 UNL     1       7.335   0.233  -1.519  1.00  0.00     0.005 C 
HETATM   18  C19 UNL     1       7.713  -1.174  -1.615  1.00  0.00    -0.010 C 
HETATM   19  C20 UNL     1       8.969  -1.609  -2.243  1.00  0.00     0.005 C 
HETATM   20  C23 UNL     1       6.752  -1.637  -2.752  1.00  0.00    -0.006 C 
HETATM   21  C21 UNL     1       8.582  -3.080  -2.520  1.00  0.00     0.001 C 
HETATM   22  C22 UNL     1       7.023  -3.068  -2.572  1.00  0.00     0.005 C 
ENDBRANCH   6  15
ENDBRANCH   3   6
BRANCH   1  23
HETATM   23  C6  UNL     1       3.300  -5.964  -0.582  1.00  0.00     0.289 C 
HETATM   24  O4  UNL     1       2.188  -6.431  -0.180  1.00  0.00    -0.260 OA
BRANCH  23  25
HETATM   25  O3  UNL     1       4.440  -6.539  -0.099  1.00  0.00    -0.307 OA
BRANCH  25  26
HETATM   26  C5  UNL     1       4.885  -7.797  -0.556  1.00  0.00     0.194 C 
HETATM   27  C1  UNL     1       5.660  -8.473   0.543  1.00  0.00     0.218 C 
HETATM   28  C2  UNL     1       6.536  -9.443  -0.223  1.00  0.00     0.070 C 
HETATM   29  C3  UNL     1       6.770  -8.855  -1.583  1.00  0.00     0.151 C 
HETATM   30  C4  UNL     1       5.826  -7.680  -1.734  1.00  0.00     0.178 C 
BRANCH  27  31
HETATM   31  N1  UNL     1       6.472  -7.539   1.308  1.00  0.00    -0.072 N 
ATOM     32  H13 UNL     1       7.425  -7.880   1.429  1.00  0.00     0.274 HD
ATOM     33  H12 UNL     1       6.678  -6.693   0.776  1.00  0.00     0.274 HD
ATOM     34  H11 UNL     1       6.031  -7.325   2.202  1.00  0.00     0.274 HD
ENDBRANCH  27  31
BRANCH  29  35
HETATM   35  O1  UNL     1       8.100  -8.483  -1.699  1.00  0.00    -0.393 OA
ATOM     36  H1  UNL     1       8.186  -7.839  -2.391  1.00  0.00     0.210 HD
ENDBRANCH  29  35
BRANCH  30  37
HETATM   37  O2  UNL     1       6.505  -6.487  -1.759  1.00  0.00    -0.390 OA
ATOM     38  H2  UNL     1       6.009  -5.813  -2.209  1.00  0.00     0.210 HD
ENDBRANCH  30  37
ENDBRANCH  25  26
ENDBRANCH  23  25
ENDBRANCH   1  23
TORSDOF 9
ENDMDL
MODEL 2
REMARK VINA RESULT: -10.513961585      1.357      1.405
REMARK  9 active torsions:
REMARK  status: ('A' for Active; 'I' for Inactive)
REMARK    1  A    between atoms: N1_1  and  C1_5 
REMARK    2  A    between atoms: C3_7  and  O1_8 
REMARK    3  A    between atoms: C4_10  and  O2_11 
REMARK    4  A    between atoms: C5_13  and  O3_14 
REMARK    5  A    between atoms: O3_14  and  C6_15 
REMARK    6  A    between atoms: C6_15  and  C7_17 
REMARK    7  A    between atoms: C9_19  and  C10_20 
REMARK    8  A    between atoms: C10_20  and  C11_21 
REMARK    9  A    between atoms: C10_20  and  C16_29 
REMARK       I    between atoms: C11_21  and  N2_23 
ROOT
HETATM    1  C7  UNL     1       3.795  -4.994  -1.818  1.00  0.00     0.014 C 
HETATM    2  C8  UNL     1       4.474  -3.869  -1.755  1.00  0.00    -0.008 C 
HETATM    3  C9  UNL     1       3.857  -2.879  -2.699  1.00  0.00     0.022 C 
HETATM    4  C24 UNL     1       2.449  -3.368  -2.692  1.00  0.00     0.014 C 
HETATM    5  C25 UNL     1       2.645  -4.909  -2.769  1.00  0.00     0.045 C 
ENDROOT
BRANCH   3   6
HETATM    6  C10 UNL     1       4.184  -1.498  -2.452  1.00  0.00     0.090 C 
BRANCH   6   7
HETATM    7  C11 UNL     1       3.187  -0.692  -3.272  1.00  0.00     0.225 C 
HETATM    8  O5  UNL     1       3.219  -0.897  -4.524  1.00  0.00    -0.273 OA
HETATM    9  N2  UNL     1       2.273   0.217  -2.752  1.00  0.00    -0.348 N 
HETATM   10  C12 UNL     1       2.180   0.515  -1.347  1.00  0.00     0.152 C 
HETATM   11  C15 UNL     1       1.359   0.910  -3.632  1.00  0.00     0.152 C 
HETATM   12  C13 UNL     1       1.363   1.807  -1.254  1.00  0.00     0.187 C 
HETATM   13  O6  UNL     1       0.086   1.674  -1.735  1.00  0.00    -0.388 OA
HETATM   14  C14 UNL     1      -0.000   0.993  -2.938  1.00  0.00     0.187 C 
ENDBRANCH   6   7
BRANCH   6  15
HETATM   15  C16 UNL     1       5.483  -0.856  -2.515  1.00  0.00     0.004 C 
HETATM   16  C17 UNL     1       5.729  -0.069  -1.170  1.00  0.00     0.006 C 
HETATM   17  C18 UNL     1       7.214   0.358  -1.414  1.00  0.00     0.005 C 
HETATM   18  C19 UNL     1       7.673  -1.020  -1.570  1.00  0.00    -0.010 C 
HETATM   19  C20 UNL     1       8.957  -1.353  -2.203  1.00  0.00     0.005 C 
HETATM   20  C23 UNL     1       6.749  -1.482  -2.739  1.00  0.00    -0.006 C 
HETATM   21  C21 UNL     1       8.657  -2.829  -2.553  1.00  0.00     0.001 C 
HETATM   22  C22 UNL     1       7.100  -2.902  -2.623  1.00  0.00     0.005 C 
ENDBRANCH   6  15
ENDBRANCH   3   6
BRANCH   1  23
HETATM   23  C6  UNL     1       4.092  -6.213  -1.039  1.00  0.00     0.289 C 
HETATM   24  O4  UNL     1       3.493  -6.412   0.063  1.00  0.00    -0.260 OA
BRANCH  23  25
HETATM   25  O3  UNL     1       4.993  -7.154  -1.449  1.00  0.00    -0.307 OA
BRANCH  25  26
HETATM   26  C5  UNL     1       4.994  -8.459  -0.914  1.00  0.00     0.194 C 
HETATM   27  C1  UNL     1       6.416  -8.936  -0.787  1.00  0.00     0.218 C 
HETATM   28  C2  UNL     1       6.258 -10.443  -0.798  1.00  0.00     0.070 C 
HETATM   29  C3  UNL     1       5.020 -10.756  -1.586  1.00  0.00     0.151 C 
HETATM   30  C4  UNL     1       4.289  -9.449  -1.815  1.00  0.00     0.178 C 
BRANCH  27  31
HETATM   31  N1  UNL     1       7.252  -8.498  -1.893  1.00  0.00    -0.072 N 
ATOM     32  H13 UNL     1       7.384  -7.487  -1.890  1.00  0.00     0.274 HD
ATOM     33  H12 UNL     1       8.225  -8.780  -1.767  1.00  0.00     0.274 HD
ATOM     34  H11 UNL     1       6.877  -8.826  -2.783  1.00  0.00     0.274 HD
ENDBRANCH  27  31
BRANCH  29  35
HETATM   35  O1  UNL     1       5.377 -11.377  -2.772  1.00  0.00    -0.393 OA
ATOM     36  H1  UNL     1       4.593 -11.669  -3.221  1.00  0.00     0.210 HD
ENDBRANCH  29  35
BRANCH  30  37
HETATM   37  O2  UNL     1       4.315  -9.082  -3.137  1.00  0.00    -0.390 OA
ATOM     38  H2  UNL     1       4.557  -9.810  -3.697  1.00  0.00     0.210 HD
ENDBRANCH  30  37
ENDBRANCH  25  26
ENDBRANCH  23  25
ENDBRANCH   1  23
TORSDOF 9
ENDMDL
MODEL 3
REMARK VINA RESULT: -10.326136775      2.058      3.029
REMARK  9 active torsions:
REMARK  status: ('A' for Active; 'I' for Inactive)
REMARK    1  A    between atoms: N1_1  and  C1_5 
REMARK    2  A    between atoms: C3_7  and  O1_8 
REMARK    3  A    between atoms: C4_10  and  O2_11 
REMARK    4  A    between atoms: C5_13  and  O3_14 
REMARK    5  A    between atoms: O3_14  and  C6_15 
REMARK    6  A    between atoms: C6_15  and  C7_17 
REMARK    7  A    between atoms: C9_19  and  C10_20 
REMARK    8  A    between atoms: C10_20  and  C11_21 
REMARK    9  A    between atoms: C10_20  and  C16_29 
REMARK       I    between atoms: C11_21  and  N2_23 
ROOT
HETATM    1  C7  UNL     1       3.593  -4.956  -1.572  1.00  0.00     0.014 C 
HETATM    2  C8  UNL     1       4.294  -3.843  -1.505  1.00  0.00    -0.008 C 
HETATM    3  C9  UNL     1       3.829  -2.915  -2.588  1.00  0.00     0.022 C 
HETATM    4  C24 UNL     1       2.417  -3.371  -2.724  1.00  0.00     0.014 C 
HETATM    5  C25 UNL     1       2.574  -4.917  -2.663  1.00  0.00     0.045 C 
ENDROOT
BRANCH   3   6
HETATM    6  C10 UNL     1       4.166  -1.526  -2.402  1.00  0.00     0.090 C 
BRANCH   6   7
HETATM    7  C11 UNL     1       3.173  -0.751  -3.255  1.00  0.00     0.225 C 
HETATM    8  O5  UNL     1       3.203  -1.009  -4.497  1.00  0.00    -0.273 OA
HETATM    9  N2  UNL     1       2.264   0.185  -2.774  1.00  0.00    -0.348 N 
HETATM   10  C12 UNL     1       2.173   0.543  -1.383  1.00  0.00     0.152 C 
HETATM   11  C15 UNL     1       1.354   0.845  -3.682  1.00  0.00     0.152 C 
HETATM   12  C13 UNL     1       1.364   1.842  -1.345  1.00  0.00     0.187 C 
HETATM   13  O6  UNL     1       0.086   1.696  -1.820  1.00  0.00    -0.388 OA
HETATM   14  C14 UNL     1      -0.005   0.965  -2.992  1.00  0.00     0.187 C 
ENDBRANCH   6   7
BRANCH   6  15
HETATM   15  C16 UNL     1       5.469  -0.896  -2.494  1.00  0.00     0.004 C 
HETATM   16  C17 UNL     1       5.741  -0.091  -1.165  1.00  0.00     0.006 C 
HETATM   17  C18 UNL     1       7.226   0.319  -1.438  1.00  0.00     0.005 C 
HETATM   18  C19 UNL     1       7.671  -1.064  -1.580  1.00  0.00    -0.010 C 
HETATM   19  C20 UNL     1       8.943  -1.417  -2.228  1.00  0.00     0.005 C 
HETATM   20  C23 UNL     1       6.726  -1.536  -2.728  1.00  0.00    -0.006 C 
HETATM   21  C21 UNL     1       8.626  -2.896  -2.550  1.00  0.00     0.001 C 
HETATM   22  C22 UNL     1       7.068  -2.957  -2.595  1.00  0.00     0.005 C 
ENDBRANCH   6  15
ENDBRANCH   3   6
BRANCH   1  23
HETATM   23  C6  UNL     1       3.753  -6.118  -0.676  1.00  0.00     0.289 C 
HETATM   24  O4  UNL     1       4.914  -6.589  -0.464  1.00  0.00    -0.260 OA
BRANCH  23  25
HETATM   25  O3  UNL     1       2.700  -6.725  -0.053  1.00  0.00    -0.307 OA
BRANCH  25  26
HETATM   26  C5  UNL     1       2.378  -8.077  -0.295  1.00  0.00     0.194 C 
HETATM   27  C1  UNL     1       1.167  -8.142  -1.185  1.00  0.00     0.218 C 
HETATM   28  C2  UNL     1       0.603  -9.514  -0.873  1.00  0.00     0.070 C 
HETATM   29  C3  UNL     1       0.997  -9.848   0.535  1.00  0.00     0.151 C 
HETATM   30  C4  UNL     1       2.015  -8.816   0.975  1.00  0.00     0.178 C 
BRANCH  27  31
HETATM   31  N1  UNL     1       0.194  -7.104  -0.881  1.00  0.00    -0.072 N 
ATOM     32  H13 UNL     1      -0.567  -7.458  -0.302  1.00  0.00     0.274 HD
ATOM     33  H12 UNL     1       0.570  -6.411  -0.234  1.00  0.00     0.274 HD
ATOM     34  H11 UNL     1      -0.153  -6.672  -1.737  1.00  0.00     0.274 HD
ENDBRANCH  27  31
BRANCH  29  35
HETATM   35  O1  UNL     1      -0.132  -9.852   1.337  1.00  0.00    -0.393 OA
ATOM     36  H1  UNL     1      -0.042  -9.188   2.010  1.00  0.00     0.210 HD
ENDBRANCH  29  35
BRANCH  30  37
HETATM   37  O2  UNL     1       1.508  -7.990   1.948  1.00  0.00    -0.390 OA
ATOM     38  H2  UNL     1       1.230  -7.156   1.587  1.00  0.00     0.210 HD
ENDBRANCH  30  37
ENDBRANCH  25  26
ENDBRANCH  23  25
ENDBRANCH   1  23
TORSDOF 9
ENDMDL
MODEL 4
REMARK VINA RESULT: -10.323500012      1.025      1.147
REMARK  9 active torsions:
REMARK  status: ('A' for Active; 'I' for Inactive)
REMARK    1  A    between atoms: N1_1  and  C1_5 
REMARK    2  A    between atoms: C3_7  and  O1_8 
REMARK    3  A    between atoms: C4_10  and  O2_11 
REMARK    4  A    between atoms: C5_13  and  O3_14 
REMARK    5  A    between atoms: O3_14  and  C6_15 
REMARK    6  A    between atoms: C6_15  and  C7_17 
REMARK    7  A    between atoms: C9_19  and  C10_20 
REMARK    8  A    between atoms: C10_20  and  C11_21 
REMARK    9  A    between atoms: C10_20  and  C16_29 
REMARK       I    between atoms: C11_21  and  N2_23 
ROOT
HETATM    1  C7  UNL     1       3.155  -4.747  -1.539  1.00  0.00     0.014 C 
HETATM    2  C8  UNL     1       3.930  -3.692  -1.404  1.00  0.00    -0.008 C 
HETATM    3  C9  UNL     1       3.757  -2.809  -2.604  1.00  0.00     0.022 C 
HETATM    4  C24 UNL     1       2.357  -3.161  -2.977  1.00  0.00     0.014 C 
HETATM    5  C25 UNL     1       2.359  -4.706  -2.804  1.00  0.00     0.045 C 
ENDROOT
BRANCH   3   6
HETATM    6  C10 UNL     1       4.179  -1.441  -2.435  1.00  0.00     0.090 C 
BRANCH   6   7
HETATM    7  C11 UNL     1       3.227  -0.615  -3.288  1.00  0.00     0.225 C 
HETATM    8  O5  UNL     1       3.325  -0.792  -4.541  1.00  0.00    -0.273 OA
HETATM    9  N2  UNL     1       2.288   0.284  -2.796  1.00  0.00    -0.348 N 
HETATM   10  C12 UNL     1       2.120   0.550  -1.393  1.00  0.00     0.152 C 
HETATM   11  C15 UNL     1       1.423   0.999  -3.708  1.00  0.00     0.152 C 
HETATM   12  C13 UNL     1       1.301   1.841  -1.314  1.00  0.00     0.187 C 
HETATM   13  O6  UNL     1       0.051   1.722  -1.865  1.00  0.00    -0.388 OA
HETATM   14  C14 UNL     1       0.028   1.069  -3.086  1.00  0.00     0.187 C 
ENDBRANCH   6   7
BRANCH   6  15
HETATM   15  C16 UNL     1       5.516  -0.893  -2.544  1.00  0.00     0.004 C 
HETATM   16  C17 UNL     1       5.833  -0.059  -1.242  1.00  0.00     0.006 C 
HETATM   17  C18 UNL     1       7.340   0.254  -1.523  1.00  0.00     0.005 C 
HETATM   18  C19 UNL     1       7.703  -1.158  -1.616  1.00  0.00    -0.010 C 
HETATM   19  C20 UNL     1       8.953  -1.607  -2.245  1.00  0.00     0.005 C 
HETATM   20  C23 UNL     1       6.734  -1.613  -2.750  1.00  0.00    -0.006 C 
HETATM   21  C21 UNL     1       8.550  -3.075  -2.518  1.00  0.00     0.001 C 
HETATM   22  C22 UNL     1       6.991  -3.046  -2.567  1.00  0.00     0.005 C 
ENDBRANCH   6  15
ENDBRANCH   3   6
BRANCH   1  23
HETATM   23  C6  UNL     1       3.043  -5.853  -0.567  1.00  0.00     0.289 C 
HETATM   24  O4  UNL     1       1.895  -6.301  -0.260  1.00  0.00    -0.260 OA
BRANCH  23  25
HETATM   25  O3  UNL     1       4.128  -6.428   0.031  1.00  0.00    -0.307 OA
BRANCH  25  26
HETATM   26  C5  UNL     1       5.125  -7.084  -0.721  1.00  0.00     0.194 C 
HETATM   27  C1  UNL     1       4.577  -8.390  -1.228  1.00  0.00     0.218 C 
HETATM   28  C2  UNL     1       5.834  -9.206  -1.457  1.00  0.00     0.070 C 
HETATM   29  C3  UNL     1       6.872  -8.705  -0.498  1.00  0.00     0.151 C 
HETATM   30  C4  UNL     1       6.341  -7.424   0.113  1.00  0.00     0.178 C 
BRANCH  27  31
HETATM   31  N1  UNL     1       3.709  -9.044  -0.261  1.00  0.00    -0.072 N 
ATOM     32  H13 UNL     1       3.435  -8.410   0.489  1.00  0.00     0.274 HD
ATOM     33  H12 UNL     1       2.785  -9.233  -0.649  1.00  0.00     0.274 HD
ATOM     34  H11 UNL     1       4.146  -9.892   0.102  1.00  0.00     0.274 HD
ENDBRANCH  27  31
BRANCH  29  35
HETATM   35  O1  UNL     1       7.125  -9.679   0.454  1.00  0.00    -0.393 OA
ATOM     36  H1  UNL     1       7.885  -9.429   0.965  1.00  0.00     0.210 HD
ENDBRANCH  29  35
BRANCH  30  37
HETATM   37  O2  UNL     1       6.049  -7.583   1.444  1.00  0.00    -0.390 OA
ATOM     38  H2  UNL     1       6.593  -7.027   1.990  1.00  0.00     0.210 HD
ENDBRANCH  30  37
ENDBRANCH  25  26
ENDBRANCH  23  25
ENDBRANCH   1  23
TORSDOF 9
ENDMDL
MODEL 5
REMARK VINA RESULT: -10.151564577      2.569      3.739
REMARK  9 active torsions:
REMARK  status: ('A' for Active; 'I' for Inactive)
REMARK    1  A    between atoms: N1_1  and  C1_5 
REMARK    2  A    between atoms: C3_7  and  O1_8 
REMARK    3  A    between atoms: C4_10  and  O2_11 
REMARK    4  A    between atoms: C5_13  and  O3_14 
REMARK    5  A    between atoms: O3_14  and  C6_15 
REMARK    6  A    between atoms: C6_15  and  C7_17 
REMARK    7  A    between atoms: C9_19  and  C10_20 
REMARK    8  A    between atoms: C10_20  and  C11_21 
REMARK    9  A    between atoms: C10_20  and  C16_29 
REMARK       I    between atoms: C11_21  and  N2_23 
ROOT
HETATM    1  C7  UNL     1       2.769  -5.212  -1.417  1.00  0.00     0.014 C 
HETATM    2  C8  UNL     1       3.681  -4.265  -1.357  1.00  0.00    -0.008 C 
HETATM    3  C9  UNL     1       3.537  -3.381  -2.560  1.00  0.00     0.022 C 
HETATM    4  C24 UNL     1       2.081  -3.552  -2.828  1.00  0.00     0.014 C 
HETATM    5  C25 UNL     1       1.897  -5.083  -2.623  1.00  0.00     0.045 C 
ENDROOT
BRANCH   3   6
HETATM    6  C10 UNL     1       4.143  -2.078  -2.450  1.00  0.00     0.090 C 
BRANCH   6   7
HETATM    7  C11 UNL     1       3.198  -1.129  -3.173  1.00  0.00     0.225 C 
HETATM    8  O5  UNL     1       3.142  -1.272  -4.433  1.00  0.00    -0.273 OA
HETATM    9  N2  UNL     1       2.418  -0.156  -2.560  1.00  0.00    -0.348 N 
HETATM   10  C12 UNL     1       2.431   0.078  -1.141  1.00  0.00     0.152 C 
HETATM   11  C15 UNL     1       1.540   0.676  -3.354  1.00  0.00     0.152 C 
HETATM   12  C13 UNL     1       1.766   1.443  -0.942  1.00  0.00     0.187 C 
HETATM   13  O6  UNL     1       0.459   1.472  -1.355  1.00  0.00    -0.388 OA
HETATM   14  C14 UNL     1       0.236   0.867  -2.580  1.00  0.00     0.187 C 
ENDBRANCH   6   7
BRANCH   6  15
HETATM   15  C16 UNL     1       5.512  -1.695  -2.732  1.00  0.00     0.004 C 
HETATM   16  C17 UNL     1       5.986  -0.654  -1.645  1.00  0.00     0.006 C 
HETATM   17  C18 UNL     1       7.492  -0.552  -2.056  1.00  0.00     0.005 C 
HETATM   18  C19 UNL     1       7.725  -1.982  -1.875  1.00  0.00    -0.010 C 
HETATM   19  C20 UNL     1       8.887  -2.669  -2.458  1.00  0.00     0.005 C 
HETATM   20  C23 UNL     1       6.648  -2.558  -2.845  1.00  0.00    -0.006 C 
HETATM   21  C21 UNL     1       8.342  -4.115  -2.405  1.00  0.00     0.001 C 
HETATM   22  C22 UNL     1       6.792  -3.944  -2.385  1.00  0.00     0.005 C 
ENDBRANCH   6  15
ENDBRANCH   3   6
BRANCH   1  23
HETATM   23  C6  UNL     1       2.586  -6.282  -0.416  1.00  0.00     0.289 C 
HETATM   24  O4  UNL     1       3.605  -6.839   0.098  1.00  0.00    -0.260 OA
BRANCH  23  25
HETATM   25  O3  UNL     1       1.355  -6.713  -0.008  1.00  0.00    -0.307 OA
BRANCH  25  26
HETATM   26  C5  UNL     1       1.003  -8.078  -0.038  1.00  0.00     0.194 C 
HETATM   27  C1  UNL     1       0.105  -8.327  -1.219  1.00  0.00     0.218 C 
HETATM   28  C2  UNL     1      -0.642  -9.579  -0.805  1.00  0.00     0.070 C 
HETATM   29  C3  UNL     1      -0.708  -9.584   0.693  1.00  0.00     0.151 C 
HETATM   30  C4  UNL     1       0.221  -8.496   1.189  1.00  0.00     0.178 C 
BRANCH  27  31
HETATM   31  N1  UNL     1      -0.821  -7.231  -1.458  1.00  0.00    -0.072 N 
ATOM     32  H13 UNL     1      -1.339  -6.984  -0.615  1.00  0.00     0.274 HD
ATOM     33  H12 UNL     1      -0.331  -6.347  -1.601  1.00  0.00     0.274 HD
ATOM     34  H11 UNL     1      -1.444  -7.447  -2.235  1.00  0.00     0.274 HD
ENDBRANCH  27  31
BRANCH  29  35
HETATM   35  O1  UNL     1      -2.019  -9.383   1.094  1.00  0.00    -0.393 OA
ATOM     36  H1  UNL     1      -2.595  -9.926   0.568  1.00  0.00     0.210 HD
ENDBRANCH  29  35
BRANCH  30  37
HETATM   37  O2  UNL     1      -0.475  -7.459   1.758  1.00  0.00    -0.390 OA
ATOM     38  H2  UNL     1       0.012  -7.062   2.472  1.00  0.00     0.210 HD
ENDBRANCH  30  37
ENDBRANCH  25  26
ENDBRANCH  23  25
ENDBRANCH   1  23
TORSDOF 9
ENDMDL
