MODEL 1
REMARK VINA RESULT: -7.112994602      0.000      0.000
REMARK  10 active torsions:
REMARK  status: ('A' for Active; 'I' for Inactive)
REMARK    1  A    between atoms: C2_2  and  C3_3 
REMARK    2  A    between atoms: C3_3  and  O2_5 
REMARK    3  A    between atoms: O2_5  and  C4_6 
REMARK    4  A    between atoms: C8_10  and  O3_11 
REMARK    5  A    between atoms: C14_18  and  C26_36 
REMARK    6  A    between atoms: C18_22  and  O4_23 
REMARK    7  A    between atoms: C19_25  and  C20_26 
REMARK    8  A    between atoms: C20_26  and  C22_28 
REMARK    9  A    between atoms: C22_28  and  O6_30 
REMARK   10  A    between atoms: C24_32  and  O7_33 
ROOT
HETATM    1  C4  UNL     1       3.539 -11.170   1.810  1.00  0.00     0.138 C 
HETATM    2  C5  UNL     1       4.928 -10.810   1.416  1.00  0.00     0.040 C 
HETATM    3  C6  UNL     1       5.165 -10.425  -0.015  1.00  0.00     0.020 C 
HETATM    4  C7  UNL     1       6.320  -9.481  -0.088  1.00  0.00     0.013 C 
HETATM    5  C8  UNL     1       3.984 -10.182  -0.840  1.00  0.00     0.080 C 
HETATM    6  C9  UNL     1       3.111 -11.429  -0.633  1.00  0.00    -0.005 C 
HETATM    7  C10 UNL     1       3.875 -12.716  -0.742  1.00  0.00     0.019 C 
HETATM    8  C11 UNL     1       2.096 -11.470  -1.733  1.00  0.00     0.013 C 
HETATM    9  C12 UNL     1       1.172 -10.297  -1.697  1.00  0.00     0.007 C 
HETATM   10  C13 UNL     1       1.635  -9.398  -0.626  1.00  0.00     0.005 C 
HETATM   11  C14 UNL     1       1.471 -10.189   0.690  1.00  0.00    -0.002 C 
HETATM   12  C15 UNL     1       1.400  -9.116   1.703  1.00  0.00     0.006 C 
HETATM   13  C16 UNL     1       2.182  -7.896   1.334  1.00  0.00     0.009 C 
HETATM   14  C17 UNL     1       3.330  -8.063   0.394  1.00  0.00     0.029 C 
HETATM   15  C18 UNL     1       3.582  -6.657  -0.209  1.00  0.00     0.130 C 
HETATM   16  C19 UNL     1       2.800  -6.698  -1.483  1.00  0.00     0.058 C 
HETATM   17  C24 UNL     1       3.121  -8.118  -1.965  1.00  0.00     0.138 C 
HETATM   18  C25 UNL     1       3.123  -8.996  -0.734  1.00  0.00     0.028 C 
HETATM   19  C26 UNL     1       2.495 -11.230   0.750  1.00  0.00     0.031 C 
ENDROOT
BRANCH  16  20
HETATM   20  C20 UNL     1       3.192  -5.692  -2.495  1.00  0.00     0.090 C 
HETATM   21  C21 UNL     1       2.061  -4.804  -2.949  1.00  0.00     0.021 C 
BRANCH  20  22
HETATM   22  C22 UNL     1       4.303  -4.847  -2.033  1.00  0.00     0.262 C 
HETATM   23  O5  UNL     1       4.016  -3.667  -1.613  1.00  0.00    -0.265 OA
BRANCH  22  24
HETATM   24  O6  UNL     1       5.630  -5.171  -1.998  1.00  0.00    -0.326 OA
HETATM   25  C23 UNL     1       6.405  -5.145  -3.178  1.00  0.00     0.213 C 
ENDBRANCH  22  24
ENDBRANCH  20  22
ENDBRANCH  16  20
BRANCH  15  26
HETATM   26  O4  UNL     1       3.000  -5.706   0.635  1.00  0.00    -0.395 OA
ATOM     27  H4  UNL     1       3.446  -4.877   0.506  1.00  0.00     0.210 HD
ENDBRANCH  15  26
BRANCH  17  28
HETATM   28  O7  UNL     1       4.317  -8.007  -2.629  1.00  0.00    -0.394 OA
ATOM     29  H7  UNL     1       4.783  -8.812  -2.433  1.00  0.00     0.210 HD
ENDBRANCH  17  28
BRANCH   5  30
HETATM   30  O3  UNL     1       4.374 -10.315  -2.199  1.00  0.00    -0.388 OA
ATOM     31  H3  UNL     1       3.919 -11.070  -2.556  1.00  0.00     0.210 HD
ENDBRANCH   5  30
BRANCH   1  32
HETATM   32  O2  UNL     1       3.540 -12.333   2.635  1.00  0.00    -0.312 OA
BRANCH  32  33
HETATM   33  C3  UNL     1       2.503 -12.696   3.472  1.00  0.00     0.282 C 
HETATM   34  O1  UNL     1       2.250 -11.957   4.459  1.00  0.00    -0.260 OA
BRANCH  33  35
HETATM   35  C2  UNL     1       1.722 -13.915   3.211  1.00  0.00     0.072 C 
HETATM   36  C1  UNL     1       0.474 -13.802   2.817  1.00  0.00     0.017 C 
ENDBRANCH  33  35
ENDBRANCH  32  33
ENDBRANCH   1  32
TORSDOF 10
ENDMDL
MODEL 2
REMARK VINA RESULT: -6.996597004      1.848      2.614
REMARK  10 active torsions:
REMARK  status: ('A' for Active; 'I' for Inactive)
REMARK    1  A    between atoms: C2_2  and  C3_3 
REMARK    2  A    between atoms: C3_3  and  O2_5 
REMARK    3  A    between atoms: O2_5  and  C4_6 
REMARK    4  A    between atoms: C8_10  and  O3_11 
REMARK    5  A    between atoms: C14_18  and  C26_36 
REMARK    6  A    between atoms: C18_22  and  O4_23 
REMARK    7  A    between atoms: C19_25  and  C20_26 
REMARK    8  A    between atoms: C20_26  and  C22_28 
REMARK    9  A    between atoms: C22_28  and  O6_30 
REMARK   10  A    between atoms: C24_32  and  O7_33 
ROOT
HETATM    1  C4  UNL     1       5.376  -9.960   1.463  1.00  0.00     0.138 C 
HETATM    2  C5  UNL     1       6.334  -8.822   1.527  1.00  0.00     0.040 C 
HETATM    3  C6  UNL     1       6.631  -8.095   0.249  1.00  0.00     0.020 C 
HETATM    4  C7  UNL     1       6.988  -6.678   0.559  1.00  0.00     0.013 C 
HETATM    5  C8  UNL     1       5.770  -8.385  -0.895  1.00  0.00     0.080 C 
HETATM    6  C9  UNL     1       5.778  -9.919  -0.998  1.00  0.00    -0.005 C 
HETATM    7  C10 UNL     1       7.151 -10.516  -0.895  1.00  0.00     0.019 C 
HETATM    8  C11 UNL     1       5.278 -10.292  -2.359  1.00  0.00     0.013 C 
HETATM    9  C12 UNL     1       3.866  -9.860  -2.584  1.00  0.00     0.007 C 
HETATM   10  C13 UNL     1       3.442  -9.091  -1.402  1.00  0.00     0.005 C 
HETATM   11  C14 UNL     1       3.466 -10.085  -0.220  1.00  0.00    -0.002 C 
HETATM   12  C15 UNL     1       2.541  -9.458   0.746  1.00  0.00     0.006 C 
HETATM   13  C16 UNL     1       2.518  -7.965   0.666  1.00  0.00     0.009 C 
HETATM   14  C17 UNL     1       3.728  -7.278   0.124  1.00  0.00     0.029 C 
HETATM   15  C18 UNL     1       3.240  -5.881  -0.339  1.00  0.00     0.130 C 
HETATM   16  C19 UNL     1       2.962  -6.091  -1.793  1.00  0.00     0.058 C 
HETATM   17  C24 UNL     1       4.159  -6.968  -2.184  1.00  0.00     0.138 C 
HETATM   18  C25 UNL     1       4.383  -7.922  -1.034  1.00  0.00     0.028 C 
HETATM   19  C26 UNL     1       4.855 -10.373   0.130  1.00  0.00     0.031 C 
ENDROOT
BRANCH  16  20
HETATM   20  C20 UNL     1       2.916  -4.859  -2.610  1.00  0.00     0.090 C 
HETATM   21  C21 UNL     1       1.561  -4.565  -3.203  1.00  0.00     0.021 C 
BRANCH  20  22
HETATM   22  C22 UNL     1       3.371  -3.679  -1.858  1.00  0.00     0.262 C 
HETATM   23  O5  UNL     1       4.573  -3.273  -2.064  1.00  0.00    -0.265 OA
BRANCH  22  24
HETATM   24  O6  UNL     1       2.657  -2.952  -0.950  1.00  0.00    -0.326 OA
HETATM   25  C23 UNL     1       2.684  -1.539  -0.983  1.00  0.00     0.213 C 
ENDBRANCH  22  24
ENDBRANCH  20  22
ENDBRANCH  16  20
BRANCH  15  26
HETATM   26  O4  UNL     1       2.031  -5.601   0.305  1.00  0.00    -0.395 OA
ATOM     27  H4  UNL     1       1.709  -4.766  -0.012  1.00  0.00     0.210 HD
ENDBRANCH  15  26
BRANCH  17  28
HETATM   28  O7  UNL     1       5.178  -6.084  -2.443  1.00  0.00    -0.394 OA
ATOM     29  H7  UNL     1       5.638  -5.990  -1.617  1.00  0.00     0.210 HD
ENDBRANCH  17  28
BRANCH   5  30
HETATM   30  O3  UNL     1       6.474  -8.006  -2.069  1.00  0.00    -0.388 OA
ATOM     31  H3  UNL     1       6.809  -8.800  -2.472  1.00  0.00     0.210 HD
ENDBRANCH   5  30
BRANCH   1  32
HETATM   32  O2  UNL     1       5.863 -11.065   2.220  1.00  0.00    -0.312 OA
BRANCH  32  33
HETATM   33  C3  UNL     1       5.307 -12.330   2.200  1.00  0.00     0.282 C 
HETATM   34  O1  UNL     1       6.006 -13.278   1.756  1.00  0.00    -0.260 OA
BRANCH  33  35
HETATM   35  C2  UNL     1       3.938 -12.553   2.685  1.00  0.00     0.072 C 
HETATM   36  C1  UNL     1       3.087 -13.203   1.924  1.00  0.00     0.017 C 
ENDBRANCH  33  35
ENDBRANCH  32  33
ENDBRANCH   1  32
TORSDOF 10
ENDMDL
MODEL 3
REMARK VINA RESULT: -6.599463044      2.475      3.412
REMARK  10 active torsions:
REMARK  status: ('A' for Active; 'I' for Inactive)
REMARK    1  A    between atoms: C2_2  and  C3_3 
REMARK    2  A    between atoms: C3_3  and  O2_5 
REMARK    3  A    between atoms: O2_5  and  C4_6 
REMARK    4  A    between atoms: C8_10  and  O3_11 
REMARK    5  A    between atoms: C14_18  and  C26_36 
REMARK    6  A    between atoms: C18_22  and  O4_23 
REMARK    7  A    between atoms: C19_25  and  C20_26 
REMARK    8  A    between atoms: C20_26  and  C22_28 
REMARK    9  A    between atoms: C22_28  and  O6_30 
REMARK   10  A    between atoms: C24_32  and  O7_33 
ROOT
HETATM    1  C4  UNL     1       6.130  -8.844   1.111  1.00  0.00     0.138 C 
HETATM    2  C5  UNL     1       6.855  -7.624   0.663  1.00  0.00     0.040 C 
HETATM    3  C6  UNL     1       6.636  -7.169  -0.751  1.00  0.00     0.020 C 
HETATM    4  C7  UNL     1       6.820  -5.688  -0.827  1.00  0.00     0.013 C 
HETATM    5  C8  UNL     1       5.541  -7.796  -1.487  1.00  0.00     0.080 C 
HETATM    6  C9  UNL     1       5.781  -9.304  -1.315  1.00  0.00    -0.005 C 
HETATM    7  C10 UNL     1       7.205  -9.712  -1.555  1.00  0.00     0.019 C 
HETATM    8  C11 UNL     1       4.976 -10.021  -2.354  1.00  0.00     0.013 C 
HETATM    9  C12 UNL     1       3.509  -9.804  -2.186  1.00  0.00     0.007 C 
HETATM   10  C13 UNL     1       3.323  -8.843  -1.086  1.00  0.00     0.005 C 
HETATM   11  C14 UNL     1       3.862  -9.543   0.181  1.00  0.00    -0.002 C 
HETATM   12  C15 UNL     1       3.167  -8.821   1.267  1.00  0.00     0.006 C 
HETATM   13  C16 UNL     1       2.866  -7.395   0.936  1.00  0.00     0.009 C 
HETATM   14  C17 UNL     1       3.728  -6.718  -0.077  1.00  0.00     0.029 C 
HETATM   15  C18 UNL     1       2.895  -5.518  -0.598  1.00  0.00     0.130 C 
HETATM   16  C19 UNL     1       2.244  -6.073  -1.824  1.00  0.00     0.058 C 
HETATM   17  C24 UNL     1       3.406  -6.880  -2.419  1.00  0.00     0.138 C 
HETATM   18  C25 UNL     1       4.116  -7.527  -1.252  1.00  0.00     0.028 C 
HETATM   19  C26 UNL     1       5.321  -9.595   0.112  1.00  0.00     0.031 C 
ENDROOT
BRANCH  16  20
HETATM   20  C20 UNL     1       1.751  -5.064  -2.787  1.00  0.00     0.090 C 
HETATM   21  C21 UNL     1       0.258  -5.095  -2.998  1.00  0.00     0.021 C 
BRANCH  20  22
HETATM   22  C22 UNL     1       2.149  -3.699  -2.410  1.00  0.00     0.262 C 
HETATM   23  O5  UNL     1       1.270  -2.965  -1.828  1.00  0.00    -0.265 OA
BRANCH  22  24
HETATM   24  O6  UNL     1       3.363  -3.107  -2.610  1.00  0.00    -0.326 OA
HETATM   25  C23 UNL     1       3.690  -1.901  -1.951  1.00  0.00     0.213 C 
ENDBRANCH  22  24
ENDBRANCH  20  22
ENDBRANCH  16  20
BRANCH  15  26
HETATM   26  O4  UNL     1       1.898  -5.235   0.341  1.00  0.00    -0.395 OA
ATOM     27  H4  UNL     1       1.422  -4.466   0.049  1.00  0.00     0.210 HD
ENDBRANCH  15  26
BRANCH  17  28
HETATM   28  O7  UNL     1       4.137  -5.971  -3.142  1.00  0.00    -0.394 OA
ATOM     29  H7  UNL     1       4.824  -6.481  -3.555  1.00  0.00     0.210 HD
ENDBRANCH  17  28
BRANCH   5  30
HETATM   30  O3  UNL     1       5.795  -7.612  -2.873  1.00  0.00    -0.388 OA
ATOM     31  H3  UNL     1       5.766  -6.679  -3.049  1.00  0.00     0.210 HD
ENDBRANCH   5  30
BRANCH   1  32
HETATM   32  O2  UNL     1       6.999  -9.696   1.854  1.00  0.00    -0.312 OA
BRANCH  32  33
HETATM   33  C3  UNL     1       6.940 -11.076   1.837  1.00  0.00     0.282 C 
HETATM   34  O1  UNL     1       5.908 -11.632   2.295  1.00  0.00    -0.260 OA
BRANCH  33  35
HETATM   35  C2  UNL     1       8.058 -11.865   1.299  1.00  0.00     0.072 C 
HETATM   36  C1  UNL     1       7.799 -12.917   0.556  1.00  0.00     0.017 C 
ENDBRANCH  33  35
ENDBRANCH  32  33
ENDBRANCH   1  32
TORSDOF 10
ENDMDL
MODEL 4
REMARK VINA RESULT: -6.376834777      2.508      3.738
REMARK  10 active torsions:
REMARK  status: ('A' for Active; 'I' for Inactive)
REMARK    1  A    between atoms: C2_2  and  C3_3 
REMARK    2  A    between atoms: C3_3  and  O2_5 
REMARK    3  A    between atoms: O2_5  and  C4_6 
REMARK    4  A    between atoms: C8_10  and  O3_11 
REMARK    5  A    between atoms: C14_18  and  C26_36 
REMARK    6  A    between atoms: C18_22  and  O4_23 
REMARK    7  A    between atoms: C19_25  and  C20_26 
REMARK    8  A    between atoms: C20_26  and  C22_28 
REMARK    9  A    between atoms: C22_28  and  O6_30 
REMARK   10  A    between atoms: C24_32  and  O7_33 
ROOT
HETATM    1  C4  UNL     1       6.935 -11.654   0.726  1.00  0.00     0.138 C 
HETATM    2  C5  UNL     1       7.316 -11.792  -0.706  1.00  0.00     0.040 C 
HETATM    3  C6  UNL     1       6.315 -11.352  -1.734  1.00  0.00     0.020 C 
HETATM    4  C7  UNL     1       7.034 -10.904  -2.964  1.00  0.00     0.013 C 
HETATM    5  C8  UNL     1       5.165 -10.589  -1.256  1.00  0.00     0.080 C 
HETATM    6  C9  UNL     1       4.595 -11.438  -0.108  1.00  0.00    -0.005 C 
HETATM    7  C10 UNL     1       4.466 -12.893  -0.451  1.00  0.00     0.019 C 
HETATM    8  C11 UNL     1       3.202 -10.964   0.168  1.00  0.00     0.013 C 
HETATM    9  C12 UNL     1       3.165  -9.546   0.633  1.00  0.00     0.007 C 
HETATM   10  C13 UNL     1       4.539  -9.020   0.567  1.00  0.00     0.005 C 
HETATM   11  C14 UNL     1       5.356  -9.847   1.584  1.00  0.00    -0.002 C 
HETATM   12  C15 UNL     1       6.498  -8.956   1.880  1.00  0.00     0.006 C 
HETATM   13  C16 UNL     1       6.881  -8.079   0.731  1.00  0.00     0.009 C 
HETATM   14  C17 UNL     1       6.540  -8.546  -0.646  1.00  0.00     0.029 C 
HETATM   15  C18 UNL     1       6.544  -7.272  -1.530  1.00  0.00     0.130 C 
HETATM   16  C19 UNL     1       5.106  -6.864  -1.534  1.00  0.00     0.058 C 
HETATM   17  C24 UNL     1       4.426  -8.233  -1.670  1.00  0.00     0.138 C 
HETATM   18  C25 UNL     1       5.219  -9.190  -0.809  1.00  0.00     0.028 C 
HETATM   19  C26 UNL     1       5.557 -11.192   1.052  1.00  0.00     0.031 C 
ENDROOT
BRANCH  16  20
HETATM   20  C20 UNL     1       4.709  -5.962  -2.638  1.00  0.00     0.090 C 
HETATM   21  C21 UNL     1       3.371  -5.297  -2.437  1.00  0.00     0.021 C 
BRANCH  20  22
HETATM   22  C22 UNL     1       5.721  -4.926  -2.895  1.00  0.00     0.262 C 
HETATM   23  O5  UNL     1       6.617  -5.179  -3.780  1.00  0.00    -0.265 OA
BRANCH  22  24
HETATM   24  O6  UNL     1       5.824  -3.704  -2.293  1.00  0.00    -0.326 OA
HETATM   25  C23 UNL     1       6.849  -2.806  -2.667  1.00  0.00     0.213 C 
ENDBRANCH  22  24
ENDBRANCH  20  22
ENDBRANCH  16  20
BRANCH  15  26
HETATM   26  O4  UNL     1       7.281  -6.282  -0.872  1.00  0.00    -0.395 OA
ATOM     27  H4  UNL     1       8.094  -6.150  -1.345  1.00  0.00     0.210 HD
ENDBRANCH  15  26
BRANCH  17  28
HETATM   28  O7  UNL     1       4.420  -8.495  -3.017  1.00  0.00    -0.394 OA
ATOM     29  H7  UNL     1       4.135  -9.399  -3.091  1.00  0.00     0.210 HD
ENDBRANCH  17  28
BRANCH   5  30
HETATM   30  O3  UNL     1       4.142 -10.693  -2.237  1.00  0.00    -0.388 OA
ATOM     31  H3  UNL     1       4.499 -11.176  -2.973  1.00  0.00     0.210 HD
ENDBRANCH   5  30
BRANCH   1  32
HETATM   32  O2  UNL     1       7.300 -12.824   1.454  1.00  0.00    -0.312 OA
BRANCH  32  33
HETATM   33  C3  UNL     1       8.516 -13.469   1.336  1.00  0.00     0.282 C 
HETATM   34  O1  UNL     1       9.563 -12.806   1.551  1.00  0.00    -0.260 OA
BRANCH  33  35
HETATM   35  C2  UNL     1       8.575 -14.891   0.967  1.00  0.00     0.072 C 
HETATM   36  C1  UNL     1       7.588 -15.415   0.275  1.00  0.00     0.017 C 
ENDBRANCH  33  35
ENDBRANCH  32  33
ENDBRANCH   1  32
TORSDOF 10
ENDMDL
MODEL 5
REMARK VINA RESULT: -6.254216524      2.575      4.104
REMARK  10 active torsions:
REMARK  status: ('A' for Active; 'I' for Inactive)
REMARK    1  A    between atoms: C2_2  and  C3_3 
REMARK    2  A    between atoms: C3_3  and  O2_5 
REMARK    3  A    between atoms: O2_5  and  C4_6 
REMARK    4  A    between atoms: C8_10  and  O3_11 
REMARK    5  A    between atoms: C14_18  and  C26_36 
REMARK    6  A    between atoms: C18_22  and  O4_23 
REMARK    7  A    between atoms: C19_25  and  C20_26 
REMARK    8  A    between atoms: C20_26  and  C22_28 
REMARK    9  A    between atoms: C22_28  and  O6_30 
REMARK   10  A    between atoms: C24_32  and  O7_33 
ROOT
HETATM    1  C4  UNL     1       7.120 -12.378   0.411  1.00  0.00     0.138 C 
HETATM    2  C5  UNL     1       7.293 -12.162  -1.052  1.00  0.00     0.040 C 
HETATM    3  C6  UNL     1       6.106 -11.665  -1.824  1.00  0.00     0.020 C 
HETATM    4  C7  UNL     1       6.578 -10.875  -3.001  1.00  0.00     0.013 C 
HETATM    5  C8  UNL     1       4.964 -11.186  -1.048  1.00  0.00     0.080 C 
HETATM    6  C9  UNL     1       4.671 -12.326  -0.059  1.00  0.00    -0.005 C 
HETATM    7  C10 UNL     1       4.653 -13.682  -0.701  1.00  0.00     0.019 C 
HETATM    8  C11 UNL     1       3.291 -12.120   0.486  1.00  0.00     0.013 C 
HETATM    9  C12 UNL     1       3.169 -10.848   1.257  1.00  0.00     0.007 C 
HETATM   10  C13 UNL     1       4.451 -10.132   1.143  1.00  0.00     0.005 C 
HETATM   11  C14 UNL     1       5.498 -11.027   1.840  1.00  0.00    -0.002 C 
HETATM   12  C15 UNL     1       6.565 -10.065   2.185  1.00  0.00     0.006 C 
HETATM   13  C16 UNL     1       6.671  -8.925   1.223  1.00  0.00     0.009 C 
HETATM   14  C17 UNL     1       6.180  -9.140  -0.170  1.00  0.00     0.029 C 
HETATM   15  C18 UNL     1       5.910  -7.724  -0.740  1.00  0.00     0.130 C 
HETATM   16  C19 UNL     1       4.451  -7.531  -0.475  1.00  0.00     0.058 C 
HETATM   17  C24 UNL     1       3.915  -8.924  -0.830  1.00  0.00     0.138 C 
HETATM   18  C25 UNL     1       4.930  -9.917  -0.310  1.00  0.00     0.028 C 
HETATM   19  C26 UNL     1       5.764 -12.192   0.999  1.00  0.00     0.031 C 
ENDROOT
BRANCH  16  20
HETATM   20  C20 UNL     1       3.796  -6.485  -1.291  1.00  0.00     0.090 C 
HETATM   21  C21 UNL     1       3.115  -5.411  -0.481  1.00  0.00     0.021 C 
BRANCH  20  22
HETATM   22  C22 UNL     1       4.731  -5.850  -2.232  1.00  0.00     0.262 C 
HETATM   23  O5  UNL     1       4.794  -6.331  -3.421  1.00  0.00    -0.265 OA
BRANCH  22  24
HETATM   24  O6  UNL     1       5.558  -4.791  -1.987  1.00  0.00    -0.326 OA
HETATM   25  C23 UNL     1       6.595  -4.468  -2.890  1.00  0.00     0.213 C 
ENDBRANCH  22  24
ENDBRANCH  20  22
ENDBRANCH  16  20
BRANCH  15  26
HETATM   26  O4  UNL     1       6.624  -6.798   0.027  1.00  0.00    -0.395 OA
ATOM     27  H4  UNL     1       6.371  -5.924  -0.247  1.00  0.00     0.210 HD
ENDBRANCH  15  26
BRANCH  17  28
HETATM   28  O7  UNL     1       3.735  -8.900  -2.190  1.00  0.00    -0.394 OA
ATOM     29  H7  UNL     1       3.963  -9.774  -2.484  1.00  0.00     0.210 HD
ENDBRANCH  17  28
BRANCH   5  30
HETATM   30  O3  UNL     1       3.823 -11.228  -1.894  1.00  0.00    -0.388 OA
ATOM     31  H3  UNL     1       3.389 -10.385  -1.833  1.00  0.00     0.210 HD
ENDBRANCH   5  30
BRANCH   1  32
HETATM   32  O2  UNL     1       7.717 -13.610   0.807  1.00  0.00    -0.312 OA
BRANCH  32  33
HETATM   33  C3  UNL     1       8.988 -13.726   1.337  1.00  0.00     0.282 C 
HETATM   34  O1  UNL     1       9.288 -14.795   1.931  1.00  0.00    -0.260 OA
BRANCH  33  35
HETATM   35  C2  UNL     1       9.955 -12.627   1.208  1.00  0.00     0.072 C 
HETATM   36  C1  UNL     1      10.961 -12.755   0.373  1.00  0.00     0.017 C 
ENDBRANCH  33  35
ENDBRANCH  32  33
ENDBRANCH   1  32
TORSDOF 10
ENDMDL
