MODEL 1
REMARK VINA RESULT: -9.477361801      0.000      0.000
REMARK  7 active torsions:
REMARK  status: ('A' for Active; 'I' for Inactive)
REMARK    1  A    between atoms: O1_2  and  C2_3 
REMARK    2  A    between atoms: C2_3  and  C3_5 
REMARK    3  A    between atoms: C4_7  and  N1_8 
REMARK       I    between atoms: N1_8  and  C5_10 
REMARK    4  A    between atoms: C5_10  and  C6_12 
REMARK    5  A    between atoms: C9_16  and  N2_17 
REMARK       I    between atoms: N2_17  and  C10_19 
REMARK    6  A    between atoms: C10_19  and  C11_21 
REMARK    7  A    between atoms: C17_27  and  O6_28 
ROOT
HETATM    1  C6  UNL     1       3.704  -7.051  -1.562  1.00  0.00     0.127 C 
HETATM    2  C7  UNL     1       3.693  -6.787  -0.068  1.00  0.00     0.183 C 
HETATM    3  O4  UNL     1       2.494  -6.198   0.233  1.00  0.00    -0.388 OA
HETATM    4  C8  UNL     1       1.678  -6.196  -0.880  1.00  0.00     0.193 C 
HETATM    5  C9  UNL     1       2.707  -5.996  -2.009  1.00  0.00     0.123 C 
ENDROOT
BRANCH   5   6
HETATM    6  N2  UNL     1       3.214  -4.672  -2.031  1.00  0.00    -0.353 N 
HETATM    7  C10 UNL     1       2.489  -3.487  -2.190  1.00  0.00     0.227 C 
HETATM    8  O5  UNL     1       1.241  -3.558  -2.334  1.00  0.00    -0.273 OA
ATOM      9  H2  UNL     1       4.223  -4.572  -1.919  1.00  0.00     0.163 HD
BRANCH   7  10
HETATM   10  C11 UNL     1       3.093  -2.133  -2.201  1.00  0.00     0.044 C 
HETATM   11  C12 UNL     1       2.598  -1.313  -3.371  1.00  0.00     0.024 C 
HETATM   12  C13 UNL     1       3.304   0.003  -3.419  1.00  0.00    -0.010 C 
HETATM   13  C14 UNL     1       3.087   0.809  -2.153  1.00  0.00     0.009 C 
HETATM   14  C18 UNL     1       4.802  -0.200  -3.591  1.00  0.00     0.042 C 
HETATM   15  C15 UNL     1       3.513  -0.063  -0.968  1.00  0.00    -0.010 C 
HETATM   16  C16 UNL     1       4.998  -0.257  -1.091  1.00  0.00     0.042 C 
HETATM   17  C20 UNL     1       2.752  -1.354  -0.951  1.00  0.00     0.024 C 
HETATM   18  C17 UNL     1       5.289  -0.954  -2.392  1.00  0.00     0.060 C 
HETATM   19  C19 UNL     1       4.583  -2.289  -2.363  1.00  0.00     0.057 C 
BRANCH  18  20
HETATM   20  O6  UNL     1       6.648  -1.218  -2.554  1.00  0.00    -0.390 OA
ATOM     21  H6  UNL     1       6.893  -1.283  -3.470  1.00  0.00     0.210 HD
ENDBRANCH  18  20
ENDBRANCH   7  10
ENDBRANCH   5   6
BRANCH   1  22
HETATM   22  C5  UNL     1       5.011  -6.905  -2.185  1.00  0.00     0.232 C 
HETATM   23  N1  UNL     1       6.183  -7.165  -1.451  1.00  0.00    -0.307 N 
ATOM     24  H1  UNL     1       6.880  -6.426  -1.355  1.00  0.00     0.171 HD
HETATM   25  O3  UNL     1       5.184  -6.548  -3.393  1.00  0.00    -0.273 OA
BRANCH  23  26
HETATM   26  C4  UNL     1       6.406  -8.329  -0.885  1.00  0.00     0.152 A 
HETATM   27  S1  UNL     1       6.595  -8.762   0.751  1.00  0.00    -0.046 SA
HETATM   28  C3  UNL     1       6.840 -10.437   0.540  1.00  0.00     0.105 A 
HETATM   29  C21 UNL     1       6.759 -10.566  -0.821  1.00  0.00     0.030 A 
HETATM   30  N3  UNL     1       6.540  -9.493  -1.523  1.00  0.00    -0.339 N 
HETATM   31  C22 UNL     1       6.926 -11.954  -1.429  1.00  0.00     0.070 C 
ATOM     32  H3  UNL     1       6.472  -9.541  -2.539  1.00  0.00     0.168 HD
BRANCH  28  33
HETATM   33  C2  UNL     1       7.081 -11.472   1.571  1.00  0.00     0.301 C 
HETATM   34  O2  UNL     1       8.172 -11.515   2.175  1.00  0.00    -0.259 OA
BRANCH  33  35
HETATM   35  O1  UNL     1       6.042 -12.367   1.816  1.00  0.00    -0.322 OA
HETATM   36  C1  UNL     1       4.790 -11.778   2.167  1.00  0.00     0.213 C 
ENDBRANCH  33  35
ENDBRANCH  28  33
ENDBRANCH  23  26
ENDBRANCH   1  22
TORSDOF 7
ENDMDL
MODEL 2
REMARK VINA RESULT: -9.440423219      0.881      1.604
REMARK  7 active torsions:
REMARK  status: ('A' for Active; 'I' for Inactive)
REMARK    1  A    between atoms: O1_2  and  C2_3 
REMARK    2  A    between atoms: C2_3  and  C3_5 
REMARK    3  A    between atoms: C4_7  and  N1_8 
REMARK       I    between atoms: N1_8  and  C5_10 
REMARK    4  A    between atoms: C5_10  and  C6_12 
REMARK    5  A    between atoms: C9_16  and  N2_17 
REMARK       I    between atoms: N2_17  and  C10_19 
REMARK    6  A    between atoms: C10_19  and  C11_21 
REMARK    7  A    between atoms: C17_27  and  O6_28 
ROOT
HETATM    1  C6  UNL     1       3.716  -7.164  -1.483  1.00  0.00     0.127 C 
HETATM    2  C7  UNL     1       3.787  -6.858   0.001  1.00  0.00     0.183 C 
HETATM    3  O4  UNL     1       2.617  -6.235   0.345  1.00  0.00    -0.388 OA
HETATM    4  C8  UNL     1       1.746  -6.247  -0.725  1.00  0.00     0.193 C 
HETATM    5  C9  UNL     1       2.719  -6.100  -1.909  1.00  0.00     0.123 C 
ENDROOT
BRANCH   5   6
HETATM    6  N2  UNL     1       3.251  -4.789  -1.996  1.00  0.00    -0.353 N 
HETATM    7  C10 UNL     1       2.575  -3.621  -2.363  1.00  0.00     0.227 C 
HETATM    8  O5  UNL     1       1.355  -3.697  -2.660  1.00  0.00    -0.273 OA
ATOM      9  H2  UNL     1       4.239  -4.685  -1.764  1.00  0.00     0.163 HD
BRANCH   7  10
HETATM   10  C11 UNL     1       3.203  -2.279  -2.429  1.00  0.00     0.044 C 
HETATM   11  C12 UNL     1       4.711  -2.368  -2.381  1.00  0.00     0.024 C 
HETATM   12  C13 UNL     1       5.311  -1.000  -2.340  1.00  0.00    -0.010 C 
HETATM   13  C14 UNL     1       4.926  -0.174  -3.552  1.00  0.00     0.009 C 
HETATM   14  C18 UNL     1       4.848  -0.251  -1.099  1.00  0.00     0.042 C 
HETATM   15  C15 UNL     1       3.397  -0.161  -3.639  1.00  0.00    -0.010 C 
HETATM   16  C16 UNL     1       2.906   0.601  -2.439  1.00  0.00     0.042 C 
HETATM   17  C20 UNL     1       2.851  -1.556  -3.710  1.00  0.00     0.024 C 
HETATM   18  C17 UNL     1       3.360  -0.111  -1.194  1.00  0.00     0.060 C 
HETATM   19  C19 UNL     1       2.762  -1.498  -1.218  1.00  0.00     0.057 C 
BRANCH  18  20
HETATM   20  O6  UNL     1       2.896   0.510  -0.036  1.00  0.00    -0.390 OA
ATOM     21  H6  UNL     1       3.138   0.030   0.748  1.00  0.00     0.210 HD
ENDBRANCH  18  20
ENDBRANCH   7  10
ENDBRANCH   5   6
BRANCH   1  22
HETATM   22  C5  UNL     1       4.992  -7.064  -2.176  1.00  0.00     0.232 C 
HETATM   23  N1  UNL     1       6.194  -7.336  -1.497  1.00  0.00    -0.307 N 
ATOM     24  H1  UNL     1       6.912  -6.613  -1.454  1.00  0.00     0.171 HD
HETATM   25  O3  UNL     1       5.111  -6.737  -3.399  1.00  0.00    -0.273 OA
BRANCH  23  26
HETATM   26  C4  UNL     1       6.419  -8.493  -0.917  1.00  0.00     0.152 A 
HETATM   27  S1  UNL     1       6.596  -8.907   0.726  1.00  0.00    -0.046 SA
HETATM   28  C3  UNL     1       6.853 -10.582   0.535  1.00  0.00     0.105 A 
HETATM   29  C21 UNL     1       6.785 -10.727  -0.825  1.00  0.00     0.030 A 
HETATM   30  N3  UNL     1       6.566  -9.662  -1.541  1.00  0.00    -0.339 N 
HETATM   31  C22 UNL     1       6.966 -12.120  -1.417  1.00  0.00     0.070 C 
ATOM     32  H3  UNL     1       6.508  -9.721  -2.557  1.00  0.00     0.168 HD
BRANCH  28  33
HETATM   33  C2  UNL     1       7.091 -11.605   1.580  1.00  0.00     0.301 C 
HETATM   34  O2  UNL     1       8.185 -11.651   2.175  1.00  0.00    -0.259 OA
BRANCH  33  35
HETATM   35  O1  UNL     1       6.044 -12.484   1.846  1.00  0.00    -0.322 OA
HETATM   36  C1  UNL     1       4.803 -11.877   2.206  1.00  0.00     0.213 C 
ENDBRANCH  33  35
ENDBRANCH  28  33
ENDBRANCH  23  26
ENDBRANCH   1  22
TORSDOF 7
ENDMDL
MODEL 3
REMARK VINA RESULT: -9.369742280      0.801      1.464
REMARK  7 active torsions:
REMARK  status: ('A' for Active; 'I' for Inactive)
REMARK    1  A    between atoms: O1_2  and  C2_3 
REMARK    2  A    between atoms: C2_3  and  C3_5 
REMARK    3  A    between atoms: C4_7  and  N1_8 
REMARK       I    between atoms: N1_8  and  C5_10 
REMARK    4  A    between atoms: C5_10  and  C6_12 
REMARK    5  A    between atoms: C9_16  and  N2_17 
REMARK       I    between atoms: N2_17  and  C10_19 
REMARK    6  A    between atoms: C10_19  and  C11_21 
REMARK    7  A    between atoms: C17_27  and  O6_28 
ROOT
HETATM    1  C6  UNL     1       3.697  -7.101  -1.542  1.00  0.00     0.127 C 
HETATM    2  C7  UNL     1       3.759  -6.907  -0.040  1.00  0.00     0.183 C 
HETATM    3  O4  UNL     1       2.609  -6.265   0.337  1.00  0.00    -0.388 OA
HETATM    4  C8  UNL     1       1.753  -6.165  -0.741  1.00  0.00     0.193 C 
HETATM    5  C9  UNL     1       2.747  -5.971  -1.900  1.00  0.00     0.123 C 
ENDROOT
BRANCH   5   6
HETATM    6  N2  UNL     1       3.330  -4.679  -1.885  1.00  0.00    -0.353 N 
HETATM    7  C10 UNL     1       2.718  -3.467  -2.220  1.00  0.00     0.227 C 
HETATM    8  O5  UNL     1       1.514  -3.479  -2.584  1.00  0.00    -0.273 OA
ATOM      9  H2  UNL     1       4.307  -4.627  -1.597  1.00  0.00     0.163 HD
BRANCH   7  10
HETATM   10  C11 UNL     1       3.397  -2.149  -2.178  1.00  0.00     0.044 C 
HETATM   11  C12 UNL     1       2.905  -1.308  -1.021  1.00  0.00     0.024 C 
HETATM   12  C13 UNL     1       3.525   0.051  -1.067  1.00  0.00    -0.010 C 
HETATM   13  C14 UNL     1       5.038  -0.013  -0.994  1.00  0.00     0.009 C 
HETATM   14  C18 UNL     1       3.150   0.765  -2.357  1.00  0.00     0.042 C 
HETATM   15  C15 UNL     1       5.519  -0.935  -2.118  1.00  0.00    -0.010 C 
HETATM   16  C16 UNL     1       5.191  -0.241  -3.411  1.00  0.00     0.042 C 
HETATM   17  C20 UNL     1       4.892  -2.291  -2.006  1.00  0.00     0.024 C 
HETATM   18  C17 UNL     1       3.702  -0.043  -3.490  1.00  0.00     0.060 C 
HETATM   19  C19 UNL     1       3.057  -1.408  -3.445  1.00  0.00     0.057 C 
BRANCH  18  20
HETATM   20  O6  UNL     1       3.314   0.549  -4.690  1.00  0.00    -0.390 OA
ATOM     21  H6  UNL     1       2.419   0.332  -4.923  1.00  0.00     0.210 HD
ENDBRANCH  18  20
ENDBRANCH   7  10
ENDBRANCH   5   6
BRANCH   1  22
HETATM   22  C5  UNL     1       4.985  -7.001  -2.212  1.00  0.00     0.232 C 
HETATM   23  N1  UNL     1       6.175  -7.280  -1.513  1.00  0.00    -0.307 N 
ATOM     24  H1  UNL     1       6.894  -6.560  -1.454  1.00  0.00     0.171 HD
HETATM   25  O3  UNL     1       5.126  -6.669  -3.431  1.00  0.00    -0.273 OA
BRANCH  23  26
HETATM   26  C4  UNL     1       6.386  -8.441  -0.936  1.00  0.00     0.152 A 
HETATM   27  S1  UNL     1       6.633  -8.850   0.699  1.00  0.00    -0.046 SA
HETATM   28  C3  UNL     1       6.816 -10.535   0.511  1.00  0.00     0.105 A 
HETATM   29  C21 UNL     1       6.672 -10.686  -0.843  1.00  0.00     0.030 A 
HETATM   30  N3  UNL     1       6.456  -9.619  -1.556  1.00  0.00    -0.339 N 
HETATM   31  C22 UNL     1       6.770 -12.090  -1.431  1.00  0.00     0.070 C 
ATOM     32  H3  UNL     1       6.343  -9.683  -2.567  1.00  0.00     0.168 HD
BRANCH  28  33
HETATM   33  C2  UNL     1       7.070 -11.559   1.550  1.00  0.00     0.301 C 
HETATM   34  O2  UNL     1       8.170 -11.600   2.135  1.00  0.00    -0.259 OA
BRANCH  33  35
HETATM   35  O1  UNL     1       6.031 -12.445   1.824  1.00  0.00    -0.322 OA
HETATM   36  C1  UNL     1       4.784 -11.845   2.177  1.00  0.00     0.213 C 
ENDBRANCH  33  35
ENDBRANCH  28  33
ENDBRANCH  23  26
ENDBRANCH   1  22
TORSDOF 7
ENDMDL
MODEL 4
REMARK VINA RESULT: -9.264143624      1.027      1.530
REMARK  7 active torsions:
REMARK  status: ('A' for Active; 'I' for Inactive)
REMARK    1  A    between atoms: O1_2  and  C2_3 
REMARK    2  A    between atoms: C2_3  and  C3_5 
REMARK    3  A    between atoms: C4_7  and  N1_8 
REMARK       I    between atoms: N1_8  and  C5_10 
REMARK    4  A    between atoms: C5_10  and  C6_12 
REMARK    5  A    between atoms: C9_16  and  N2_17 
REMARK       I    between atoms: N2_17  and  C10_19 
REMARK    6  A    between atoms: C10_19  and  C11_21 
REMARK    7  A    between atoms: C17_27  and  O6_28 
ROOT
HETATM    1  C6  UNL     1       3.724  -7.062  -1.538  1.00  0.00     0.127 C 
HETATM    2  C7  UNL     1       3.742  -6.807  -0.043  1.00  0.00     0.183 C 
HETATM    3  O4  UNL     1       2.551  -6.215   0.284  1.00  0.00    -0.388 OA
HETATM    4  C8  UNL     1       1.715  -6.203  -0.814  1.00  0.00     0.193 C 
HETATM    5  C9  UNL     1       2.724  -6.000  -1.960  1.00  0.00     0.123 C 
ENDROOT
BRANCH   5   6
HETATM    6  N2  UNL     1       3.236  -4.678  -1.983  1.00  0.00    -0.353 N 
HETATM    7  C10 UNL     1       2.526  -3.496  -2.218  1.00  0.00     0.227 C 
HETATM    8  O5  UNL     1       1.290  -3.569  -2.439  1.00  0.00    -0.273 OA
ATOM      9  H2  UNL     1       4.236  -4.577  -1.810  1.00  0.00     0.163 HD
BRANCH   7  10
HETATM   10  C11 UNL     1       3.135  -2.144  -2.226  1.00  0.00     0.044 C 
HETATM   11  C12 UNL     1       2.635  -1.316  -3.387  1.00  0.00     0.024 C 
HETATM   12  C13 UNL     1       3.345  -0.001  -3.432  1.00  0.00    -0.010 C 
HETATM   13  C14 UNL     1       3.139   0.798  -2.159  1.00  0.00     0.009 C 
HETATM   14  C18 UNL     1       4.841  -0.208  -3.615  1.00  0.00     0.042 C 
HETATM   15  C15 UNL     1       3.570  -0.082  -0.982  1.00  0.00    -0.010 C 
HETATM   16  C16 UNL     1       5.054  -0.281  -1.117  1.00  0.00     0.042 C 
HETATM   17  C20 UNL     1       2.805  -1.372  -0.968  1.00  0.00     0.024 C 
HETATM   18  C17 UNL     1       5.334  -0.971  -2.424  1.00  0.00     0.060 C 
HETATM   19  C19 UNL     1       4.624  -2.304  -2.398  1.00  0.00     0.057 C 
BRANCH  18  20
HETATM   20  O6  UNL     1       6.690  -1.238  -2.597  1.00  0.00    -0.390 OA
ATOM     21  H6  UNL     1       7.049  -0.791  -3.355  1.00  0.00     0.210 HD
ENDBRANCH  18  20
ENDBRANCH   7  10
ENDBRANCH   5   6
BRANCH   1  22
HETATM   22  C5  UNL     1       5.021  -6.918  -2.184  1.00  0.00     0.232 C 
HETATM   23  N1  UNL     1       6.206  -7.150  -1.463  1.00  0.00    -0.307 N 
ATOM     24  H1  UNL     1       6.897  -6.403  -1.394  1.00  0.00     0.171 HD
HETATM   25  O3  UNL     1       5.172  -6.585  -3.402  1.00  0.00    -0.273 OA
BRANCH  23  26
HETATM   26  C4  UNL     1       6.449  -8.299  -0.875  1.00  0.00     0.152 A 
HETATM   27  S1  UNL     1       6.634  -9.867  -1.514  1.00  0.00    -0.046 SA
HETATM   28  C3  UNL     1       6.915 -10.702  -0.053  1.00  0.00     0.105 A 
HETATM   29  C21 UNL     1       6.847  -9.690   0.868  1.00  0.00     0.030 A 
HETATM   30  N3  UNL     1       6.612  -8.486   0.435  1.00  0.00    -0.339 N 
HETATM   31  C22 UNL     1       7.055 -10.034   2.339  1.00  0.00     0.070 C 
ATOM     32  H3  UNL     1       6.552  -7.702   1.084  1.00  0.00     0.168 HD
BRANCH  28  33
HETATM   33  C2  UNL     1       7.163 -12.147   0.152  1.00  0.00     0.301 C 
HETATM   34  O2  UNL     1       6.217 -12.913   0.426  1.00  0.00    -0.259 OA
BRANCH  33  35
HETATM   35  O1  UNL     1       8.479 -12.582   0.023  1.00  0.00    -0.322 OA
HETATM   36  C1  UNL     1       9.177 -12.812   1.247  1.00  0.00     0.213 C 
ENDBRANCH  33  35
ENDBRANCH  28  33
ENDBRANCH  23  26
ENDBRANCH   1  22
TORSDOF 7
ENDMDL
MODEL 5
REMARK VINA RESULT: -9.222547192      1.346      2.213
REMARK  7 active torsions:
REMARK  status: ('A' for Active; 'I' for Inactive)
REMARK    1  A    between atoms: O1_2  and  C2_3 
REMARK    2  A    between atoms: C2_3  and  C3_5 
REMARK    3  A    between atoms: C4_7  and  N1_8 
REMARK       I    between atoms: N1_8  and  C5_10 
REMARK    4  A    between atoms: C5_10  and  C6_12 
REMARK    5  A    between atoms: C9_16  and  N2_17 
REMARK       I    between atoms: N2_17  and  C10_19 
REMARK    6  A    between atoms: C10_19  and  C11_21 
REMARK    7  A    between atoms: C17_27  and  O6_28 
ROOT
HETATM    1  C6  UNL     1       3.780  -7.153  -1.483  1.00  0.00     0.127 C 
HETATM    2  C7  UNL     1       3.894  -6.853  -0.001  1.00  0.00     0.183 C 
HETATM    3  O4  UNL     1       2.734  -6.230   0.379  1.00  0.00    -0.388 OA
HETATM    4  C8  UNL     1       1.833  -6.238  -0.666  1.00  0.00     0.193 C 
HETATM    5  C9  UNL     1       2.772  -6.087  -1.877  1.00  0.00     0.123 C 
ENDROOT
BRANCH   5   6
HETATM    6  N2  UNL     1       3.302  -4.776  -1.973  1.00  0.00    -0.353 N 
HETATM    7  C10 UNL     1       2.618  -3.607  -2.324  1.00  0.00     0.227 C 
HETATM    8  O5  UNL     1       1.392  -3.683  -2.593  1.00  0.00    -0.273 OA
ATOM      9  H2  UNL     1       4.295  -4.673  -1.764  1.00  0.00     0.163 HD
BRANCH   7  10
HETATM   10  C11 UNL     1       3.245  -2.265  -2.402  1.00  0.00     0.044 C 
HETATM   11  C12 UNL     1       4.753  -2.354  -2.383  1.00  0.00     0.024 C 
HETATM   12  C13 UNL     1       5.355  -0.986  -2.353  1.00  0.00    -0.010 C 
HETATM   13  C14 UNL     1       4.946  -0.161  -3.558  1.00  0.00     0.009 C 
HETATM   14  C18 UNL     1       4.914  -0.237  -1.104  1.00  0.00     0.042 C 
HETATM   15  C15 UNL     1       3.416  -0.148  -3.616  1.00  0.00    -0.010 C 
HETATM   16  C16 UNL     1       2.948   0.614  -2.408  1.00  0.00     0.042 C 
HETATM   17  C20 UNL     1       2.869  -1.543  -3.676  1.00  0.00     0.024 C 
HETATM   18  C17 UNL     1       3.425  -0.097  -1.171  1.00  0.00     0.060 C 
HETATM   19  C19 UNL     1       2.827  -1.484  -1.183  1.00  0.00     0.057 C 
BRANCH  18  20
HETATM   20  O6  UNL     1       2.983   0.524  -0.005  1.00  0.00    -0.390 OA
ATOM     21  H6  UNL     1       3.567   0.366   0.728  1.00  0.00     0.210 HD
ENDBRANCH  18  20
ENDBRANCH   7  10
ENDBRANCH   5   6
BRANCH   1  22
HETATM   22  C5  UNL     1       5.036  -7.051  -2.212  1.00  0.00     0.232 C 
HETATM   23  N1  UNL     1       6.256  -7.336  -1.571  1.00  0.00    -0.307 N 
ATOM     24  H1  UNL     1       6.979  -6.617  -1.541  1.00  0.00     0.171 HD
HETATM   25  O3  UNL     1       5.120  -6.711  -3.434  1.00  0.00    -0.273 OA
BRANCH  23  26
HETATM   26  C4  UNL     1       6.492  -8.500  -1.011  1.00  0.00     0.152 A 
HETATM   27  S1  UNL     1       6.687 -10.051  -1.688  1.00  0.00    -0.046 SA
HETATM   28  C3  UNL     1       6.949 -10.923  -0.245  1.00  0.00     0.105 A 
HETATM   29  C21 UNL     1       6.868  -9.936   0.701  1.00  0.00     0.030 A 
HETATM   30  N3  UNL     1       6.637  -8.721   0.297  1.00  0.00    -0.339 N 
HETATM   31  C22 UNL     1       7.055 -10.318   2.165  1.00  0.00     0.070 C 
ATOM     32  H3  UNL     1       6.567  -7.954   0.965  1.00  0.00     0.168 HD
BRANCH  28  33
HETATM   33  C2  UNL     1       7.195 -12.373  -0.074  1.00  0.00     0.301 C 
HETATM   34  O2  UNL     1       6.238 -13.172  -0.029  1.00  0.00    -0.259 OA
BRANCH  33  35
HETATM   35  O1  UNL     1       8.524 -12.776   0.029  1.00  0.00    -0.322 OA
HETATM   36  C1  UNL     1       8.881 -13.422   1.251  1.00  0.00     0.213 C 
ENDBRANCH  33  35
ENDBRANCH  28  33
ENDBRANCH  23  26
ENDBRANCH   1  22
TORSDOF 7
ENDMDL
