MODEL 1
REMARK VINA RESULT: -8.827880464      0.000      0.000
REMARK  7 active torsions:
REMARK  status: ('A' for Active; 'I' for Inactive)
REMARK    1  A    between atoms: C2_2  and  C3_3 
REMARK    2  A    between atoms: C3_3  and  C5_5 
REMARK    3  A    between atoms: C5_5  and  N1_6 
REMARK    4  A    between atoms: C7_9  and  C8_10 
REMARK    5  A    between atoms: N4_17  and  C13_19 
REMARK    6  A    between atoms: C15_21  and  O1_22 
REMARK    7  A    between atoms: N5_31  and  C21_32 
ROOT
HETATM    1  C8  UNL     1      -4.671   6.379   9.662  1.00  0.00     0.027 A 
HETATM    2  C9  UNL     1      -5.851   7.092   9.589  1.00  0.00     0.018 A 
HETATM    3  C10 UNL     1      -5.967   8.158   8.720  1.00  0.00     0.018 A 
HETATM    4  C11 UNL     1      -4.912   8.529   7.912  1.00  0.00     0.090 A 
HETATM    5  N3  UNL     1      -3.763   7.835   7.985  1.00  0.00    -0.352 N 
ATOM      6  H3  UNL     1      -2.974   8.099   7.393  1.00  0.00     0.166 HD
HETATM    7  C12 UNL     1      -3.644   6.794   8.831  1.00  0.00     0.117 A 
HETATM    8  N4  UNL     1      -2.539   6.105   8.917  1.00  0.00    -0.340 N 
ATOM      9  H4  UNL     1      -2.496   5.325   9.573  1.00  0.00     0.167 HD
ENDROOT
BRANCH   1  10
HETATM   10  C7  UNL     1      -4.496   5.244  10.563  1.00  0.00     0.090 A 
HETATM   11  C6  UNL     1      -4.112   3.942  10.266  1.00  0.00     0.150 A 
HETATM   12  N1  UNL     1      -4.089   3.252  11.419  1.00  0.00    -0.272 N 
HETATM   13  N2  UNL     1      -3.816   3.550   8.935  1.00  0.00    -0.080 NA
HETATM   14  N5  UNL     1      -4.433   4.022  12.447  1.00  0.00    -0.239 N 
HETATM   15  C20 UNL     1      -4.681   5.235  11.930  1.00  0.00     0.277 A 
HETATM   16  O2  UNL     1      -5.041   6.269  12.569  1.00  0.00    -0.265 OA
BRANCH  12  17
HETATM   17  C5  UNL     1      -3.752   1.859  11.553  1.00  0.00     0.155 C 
BRANCH  17  18
HETATM   18  C3  UNL     1      -2.296   1.554  11.590  1.00  0.00     0.001 C 
HETATM   19  C4  UNL     1      -1.954   0.642  12.747  1.00  0.00     0.011 C 
BRANCH  18  20
HETATM   20  C2  UNL     1      -1.837   0.821  10.334  1.00  0.00     0.001 C 
HETATM   21  C1  UNL     1      -2.351  -0.586  10.298  1.00  0.00     0.005 C 
ENDBRANCH  18  20
ENDBRANCH  17  18
ENDBRANCH  12  17
BRANCH  14  22
HETATM   22  C21 UNL     1      -4.524   3.636  13.858  1.00  0.00     0.267 C 
HETATM   23 CL3  UNL     1      -2.845   3.428  14.468  1.00  0.00    -0.107 Cl
ENDBRANCH  14  22
ENDBRANCH   1  10
BRANCH   8  24
HETATM   24  C13 UNL     1      -1.398   6.401   8.137  1.00  0.00     0.058 A 
HETATM   25  C14 UNL     1      -1.194   7.600   7.491  1.00  0.00     0.069 A 
HETATM   26  C15 UNL     1      -0.066   7.849   6.738  1.00  0.00     0.092 A 
HETATM   27  C17 UNL     1       0.910   6.887   6.607  1.00  0.00     0.069 A 
HETATM   28 CL1  UNL     1       2.342   7.206   5.650  1.00  0.00    -0.081 Cl
HETATM   29  C18 UNL     1       0.721   5.662   7.255  1.00  0.00     0.052 A 
HETATM   30  C19 UNL     1      -0.413   5.427   8.005  1.00  0.00     0.062 A 
HETATM   31 CL2  UNL     1      -0.618   3.883   8.804  1.00  0.00    -0.082 Cl
BRANCH  26  32
HETATM   32  O1  UNL     1       0.082   9.075   6.113  1.00  0.00    -0.354 OA
HETATM   33  C16 UNL     1      -0.423   9.349   4.841  1.00  0.00     0.210 C 
ENDBRANCH  26  32
ENDBRANCH   8  24
TORSDOF 7
ENDMDL
MODEL 2
REMARK VINA RESULT: -8.485494627      2.217      5.005
REMARK  7 active torsions:
REMARK  status: ('A' for Active; 'I' for Inactive)
REMARK    1  A    between atoms: C2_2  and  C3_3 
REMARK    2  A    between atoms: C3_3  and  C5_5 
REMARK    3  A    between atoms: C5_5  and  N1_6 
REMARK    4  A    between atoms: C7_9  and  C8_10 
REMARK    5  A    between atoms: N4_17  and  C13_19 
REMARK    6  A    between atoms: C15_21  and  O1_22 
REMARK    7  A    between atoms: N5_31  and  C21_32 
ROOT
HETATM    1  C8  UNL     1      -1.409   2.090   9.631  1.00  0.00     0.027 A 
HETATM    2  C9  UNL     1      -1.173   0.730   9.690  1.00  0.00     0.018 A 
HETATM    3  C10 UNL     1      -0.112   0.178   9.002  1.00  0.00     0.018 A 
HETATM    4  C11 UNL     1       0.728   0.969   8.246  1.00  0.00     0.090 A 
HETATM    5  N3  UNL     1       0.497   2.293   8.189  1.00  0.00    -0.352 N 
ATOM      6  H3  UNL     1       1.111   2.891   7.634  1.00  0.00     0.166 HD
HETATM    7  C12 UNL     1      -0.537   2.837   8.859  1.00  0.00     0.117 A 
HETATM    8  N4  UNL     1      -0.780   4.119   8.819  1.00  0.00    -0.340 N 
ATOM      9  H4  UNL     1      -1.575   4.485   9.343  1.00  0.00     0.167 HD
ENDROOT
BRANCH   1  10
HETATM   10  C7  UNL     1      -2.517   2.724  10.340  1.00  0.00     0.090 A 
HETATM   11  C6  UNL     1      -3.521   3.542   9.839  1.00  0.00     0.150 A 
HETATM   12  N1  UNL     1      -4.316   3.887  10.866  1.00  0.00    -0.272 N 
HETATM   13  N2  UNL     1      -3.582   3.869   8.459  1.00  0.00    -0.080 NA
HETATM   14  N5  UNL     1      -3.893   3.344  12.004  1.00  0.00    -0.239 N 
HETATM   15  C20 UNL     1      -2.798   2.635  11.687  1.00  0.00     0.277 A 
HETATM   16  O2  UNL     1      -2.082   1.957  12.483  1.00  0.00    -0.265 OA
BRANCH  12  17
HETATM   17  C5  UNL     1      -5.473   4.739  10.780  1.00  0.00     0.155 C 
BRANCH  17  18
HETATM   18  C3  UNL     1      -5.188   6.199  10.732  1.00  0.00     0.001 C 
HETATM   19  C4  UNL     1      -5.172   6.710   9.308  1.00  0.00     0.011 C 
BRANCH  18  20
HETATM   20  C2  UNL     1      -6.259   7.011  11.453  1.00  0.00     0.001 C 
HETATM   21  C1  UNL     1      -7.231   7.621  10.488  1.00  0.00     0.005 C 
ENDBRANCH  18  20
ENDBRANCH  17  18
ENDBRANCH  12  17
BRANCH  14  22
HETATM   22  C21 UNL     1      -4.492   3.483  13.335  1.00  0.00     0.267 C 
HETATM   23 CL3  UNL     1      -3.151   3.446  14.534  1.00  0.00    -0.107 Cl
ENDBRANCH  14  22
ENDBRANCH   1  10
BRANCH   8  24
HETATM   24  C13 UNL     1       0.018   5.019   8.075  1.00  0.00     0.058 A 
HETATM   25  C14 UNL     1       1.125   4.647   7.344  1.00  0.00     0.069 A 
HETATM   26  C15 UNL     1       1.877   5.557   6.632  1.00  0.00     0.092 A 
HETATM   27  C17 UNL     1       1.537   6.891   6.630  1.00  0.00     0.069 A 
HETATM   28 CL1  UNL     1       2.495   8.045   5.725  1.00  0.00    -0.081 Cl
HETATM   29  C18 UNL     1       0.417   7.289   7.367  1.00  0.00     0.052 A 
HETATM   30  C19 UNL     1      -0.326   6.367   8.075  1.00  0.00     0.062 A 
HETATM   31 CL2  UNL     1      -1.723   6.897   8.986  1.00  0.00    -0.082 Cl
BRANCH  26  32
HETATM   32  O1  UNL     1       2.979   5.122   5.916  1.00  0.00    -0.354 OA
HETATM   33  C16 UNL     1       3.921   4.232   6.432  1.00  0.00     0.210 C 
ENDBRANCH  26  32
ENDBRANCH   8  24
TORSDOF 7
ENDMDL
MODEL 3
REMARK VINA RESULT: -8.389486276      2.677      3.626
REMARK  7 active torsions:
REMARK  status: ('A' for Active; 'I' for Inactive)
REMARK    1  A    between atoms: C2_2  and  C3_3 
REMARK    2  A    between atoms: C3_3  and  C5_5 
REMARK    3  A    between atoms: C5_5  and  N1_6 
REMARK    4  A    between atoms: C7_9  and  C8_10 
REMARK    5  A    between atoms: N4_17  and  C13_19 
REMARK    6  A    between atoms: C15_21  and  O1_22 
REMARK    7  A    between atoms: N5_31  and  C21_32 
ROOT
HETATM    1  C8  UNL     1      -2.390   6.351   7.455  1.00  0.00     0.027 A 
HETATM    2  C9  UNL     1      -2.926   7.302   6.609  1.00  0.00     0.018 A 
HETATM    3  C10 UNL     1      -2.229   7.708   5.489  1.00  0.00     0.018 A 
HETATM    4  C11 UNL     1      -0.991   7.175   5.196  1.00  0.00     0.090 A 
HETATM    5  N3  UNL     1      -0.470   6.250   6.021  1.00  0.00    -0.352 N 
ATOM      6  H3  UNL     1       0.446   5.848   5.817  1.00  0.00     0.166 HD
HETATM    7  C12 UNL     1      -1.145   5.850   7.115  1.00  0.00     0.117 A 
HETATM    8  N4  UNL     1      -0.660   4.953   7.930  1.00  0.00    -0.340 N 
ATOM      9  H4  UNL     1      -1.209   4.682   8.745  1.00  0.00     0.167 HD
ENDROOT
BRANCH   1  10
HETATM   10  C7  UNL     1      -3.086   5.887   8.652  1.00  0.00     0.090 A 
HETATM   11  C6  UNL     1      -3.432   4.592   9.015  1.00  0.00     0.150 A 
HETATM   12  N1  UNL     1      -4.060   4.656  10.201  1.00  0.00    -0.272 N 
HETATM   13  N2  UNL     1      -3.109   3.486   8.187  1.00  0.00    -0.080 NA
HETATM   14  N5  UNL     1      -4.144   5.911  10.633  1.00  0.00    -0.239 N 
HETATM   15  C20 UNL     1      -3.552   6.663   9.693  1.00  0.00     0.277 A 
HETATM   16  O2  UNL     1      -3.413   7.923   9.711  1.00  0.00    -0.265 OA
BRANCH  12  17
HETATM   17  C5  UNL     1      -4.594   3.533  10.927  1.00  0.00     0.155 C 
BRANCH  17  18
HETATM   18  C3  UNL     1      -3.625   2.819  11.801  1.00  0.00     0.001 C 
HETATM   19  C4  UNL     1      -3.991   2.964  13.262  1.00  0.00     0.011 C 
BRANCH  18  20
HETATM   20  C2  UNL     1      -3.607   1.319  11.525  1.00  0.00     0.001 C 
HETATM   21  C1  UNL     1      -2.322   0.691  11.973  1.00  0.00     0.005 C 
ENDBRANCH  18  20
ENDBRANCH  17  18
ENDBRANCH  12  17
BRANCH  14  22
HETATM   22  C21 UNL     1      -4.755   6.385  11.879  1.00  0.00     0.267 C 
HETATM   23 CL3  UNL     1      -6.404   6.979  11.476  1.00  0.00    -0.107 Cl
ENDBRANCH  14  22
ENDBRANCH   1  10
BRANCH   8  24
HETATM   24  C13 UNL     1       0.599   4.345   7.723  1.00  0.00     0.058 A 
HETATM   25  C14 UNL     1       1.710   5.008   7.250  1.00  0.00     0.069 A 
HETATM   26  C15 UNL     1       2.921   4.377   7.063  1.00  0.00     0.092 A 
HETATM   27  C17 UNL     1       3.060   3.037   7.348  1.00  0.00     0.069 A 
HETATM   28 CL1  UNL     1       4.599   2.238   7.109  1.00  0.00    -0.081 Cl
HETATM   29  C18 UNL     1       1.943   2.345   7.829  1.00  0.00     0.052 A 
HETATM   30  C19 UNL     1       0.737   2.991   8.011  1.00  0.00     0.062 A 
HETATM   31 CL2  UNL     1      -0.641   2.095   8.615  1.00  0.00    -0.082 Cl
BRANCH  26  32
HETATM   32  O1  UNL     1       4.002   5.098   6.585  1.00  0.00    -0.354 OA
HETATM   33  C16 UNL     1       3.986   5.779   5.367  1.00  0.00     0.210 C 
ENDBRANCH  26  32
ENDBRANCH   8  24
TORSDOF 7
ENDMDL
MODEL 4
REMARK VINA RESULT: -8.306676573      2.805      5.752
REMARK  7 active torsions:
REMARK  status: ('A' for Active; 'I' for Inactive)
REMARK    1  A    between atoms: C2_2  and  C3_3 
REMARK    2  A    between atoms: C3_3  and  C5_5 
REMARK    3  A    between atoms: C5_5  and  N1_6 
REMARK    4  A    between atoms: C7_9  and  C8_10 
REMARK    5  A    between atoms: N4_17  and  C13_19 
REMARK    6  A    between atoms: C15_21  and  O1_22 
REMARK    7  A    between atoms: N5_31  and  C21_32 
ROOT
HETATM    1  C8  UNL     1      -2.177   1.924  10.021  1.00  0.00     0.027 A 
HETATM    2  C9  UNL     1      -2.545   0.681  10.498  1.00  0.00     0.018 A 
HETATM    3  C10 UNL     1      -1.685  -0.392  10.376  1.00  0.00     0.018 A 
HETATM    4  C11 UNL     1      -0.450  -0.244   9.780  1.00  0.00     0.090 A 
HETATM    5  N3  UNL     1      -0.094   0.967   9.316  1.00  0.00    -0.352 N 
ATOM      6  H3  UNL     1       0.817   1.091   8.872  1.00  0.00     0.166 HD
HETATM    7  C12 UNL     1      -0.928   2.017   9.431  1.00  0.00     0.117 A 
HETATM    8  N4  UNL     1      -0.604   3.201   8.988  1.00  0.00    -0.340 N 
ATOM      9  H4  UNL     1      -1.269   3.966   9.099  1.00  0.00     0.167 HD
ENDROOT
BRANCH   1  10
HETATM   10  C7  UNL     1      -3.049   3.091  10.124  1.00  0.00     0.090 A 
HETATM   11  C6  UNL     1      -3.515   3.925   9.116  1.00  0.00     0.150 A 
HETATM   12  N1  UNL     1      -4.287   4.864   9.689  1.00  0.00    -0.272 N 
HETATM   13  N2  UNL     1      -3.165   3.703   7.758  1.00  0.00    -0.080 NA
HETATM   14  N5  UNL     1      -4.353   4.693  11.006  1.00  0.00    -0.239 N 
HETATM   15  C20 UNL     1      -3.600   3.614  11.274  1.00  0.00     0.277 A 
HETATM   16  O2  UNL     1      -3.392   3.104  12.416  1.00  0.00    -0.265 OA
BRANCH  12  17
HETATM   17  C5  UNL     1      -4.957   5.933   8.997  1.00  0.00     0.155 C 
BRANCH  17  18
HETATM   18  C3  UNL     1      -4.238   7.236   8.986  1.00  0.00     0.001 C 
HETATM   19  C4  UNL     1      -3.359   7.369   7.761  1.00  0.00     0.011 C 
BRANCH  18  20
HETATM   20  C2  UNL     1      -5.201   8.417   8.936  1.00  0.00     0.001 C 
HETATM   21  C1  UNL     1      -6.568   8.035   9.418  1.00  0.00     0.005 C 
ENDBRANCH  18  20
ENDBRANCH  17  18
ENDBRANCH  12  17
BRANCH  14  22
HETATM   22  C21 UNL     1      -5.093   5.507  11.975  1.00  0.00     0.267 C 
HETATM   23 CL3  UNL     1      -6.073   4.385  12.983  1.00  0.00    -0.107 Cl
ENDBRANCH  14  22
ENDBRANCH   1  10
BRANCH   8  24
HETATM   24  C13 UNL     1       0.636   3.462   8.361  1.00  0.00     0.058 A 
HETATM   25  C14 UNL     1       1.574   2.496   8.073  1.00  0.00     0.069 A 
HETATM   26  C15 UNL     1       2.773   2.792   7.460  1.00  0.00     0.092 A 
HETATM   27  C17 UNL     1       3.074   4.090   7.110  1.00  0.00     0.069 A 
HETATM   28 CL1  UNL     1       4.598   4.464   6.331  1.00  0.00    -0.081 Cl
HETATM   29  C18 UNL     1       2.134   5.086   7.395  1.00  0.00     0.052 A 
HETATM   30  C19 UNL     1       0.939   4.773   8.010  1.00  0.00     0.062 A 
HETATM   31 CL2  UNL     1      -0.216   6.044   8.352  1.00  0.00    -0.082 Cl
BRANCH  26  32
HETATM   32  O1  UNL     1       3.675   1.777   7.195  1.00  0.00    -0.354 OA
HETATM   33  C16 UNL     1       3.616   0.524   7.808  1.00  0.00     0.210 C 
ENDBRANCH  26  32
ENDBRANCH   8  24
TORSDOF 7
ENDMDL
MODEL 5
REMARK VINA RESULT: -8.149332518      1.618      1.935
REMARK  7 active torsions:
REMARK  status: ('A' for Active; 'I' for Inactive)
REMARK    1  A    between atoms: C2_2  and  C3_3 
REMARK    2  A    between atoms: C3_3  and  C5_5 
REMARK    3  A    between atoms: C5_5  and  N1_6 
REMARK    4  A    between atoms: C7_9  and  C8_10 
REMARK    5  A    between atoms: N4_17  and  C13_19 
REMARK    6  A    between atoms: C15_21  and  O1_22 
REMARK    7  A    between atoms: N5_31  and  C21_32 
ROOT
HETATM    1  C8  UNL     1      -5.045   6.748   9.298  1.00  0.00     0.027 A 
HETATM    2  C9  UNL     1      -6.279   7.290   9.601  1.00  0.00     0.018 A 
HETATM    3  C10 UNL     1      -6.697   8.453   8.985  1.00  0.00     0.018 A 
HETATM    4  C11 UNL     1      -5.896   9.091   8.061  1.00  0.00     0.090 A 
HETATM    5  N3  UNL     1      -4.695   8.562   7.767  1.00  0.00    -0.352 N 
ATOM      6  H3  UNL     1      -4.091   9.024   7.086  1.00  0.00     0.166 HD
HETATM    7  C12 UNL     1      -4.281   7.429   8.365  1.00  0.00     0.117 A 
HETATM    8  N4  UNL     1      -3.120   6.897   8.096  1.00  0.00    -0.340 N 
ATOM      9  H4  UNL     1      -2.850   6.038   8.574  1.00  0.00     0.167 HD
ENDROOT
BRANCH   1  10
HETATM   10  C7  UNL     1      -4.555   5.522   9.921  1.00  0.00     0.090 A 
HETATM   11  C6  UNL     1      -4.103   4.355   9.317  1.00  0.00     0.150 A 
HETATM   12  N1  UNL     1      -3.755   3.500  10.294  1.00  0.00    -0.272 N 
HETATM   13  N2  UNL     1      -4.062   4.228   7.904  1.00  0.00    -0.080 NA
HETATM   14  N5  UNL     1      -3.950   4.037  11.494  1.00  0.00    -0.239 N 
HETATM   15  C20 UNL     1      -4.437   5.268  11.271  1.00  0.00     0.277 A 
HETATM   16  O2  UNL     1      -4.761   6.122  12.150  1.00  0.00    -0.265 OA
BRANCH  12  17
HETATM   17  C5  UNL     1      -3.246   2.169  10.097  1.00  0.00     0.155 C 
BRANCH  17  18
HETATM   18  C3  UNL     1      -1.764   2.039  10.139  1.00  0.00     0.001 C 
HETATM   19  C4  UNL     1      -1.343   0.596  10.316  1.00  0.00     0.011 C 
BRANCH  18  20
HETATM   20  C2  UNL     1      -1.115   2.503   8.839  1.00  0.00     0.001 C 
HETATM   21  C1  UNL     1       0.096   1.686   8.505  1.00  0.00     0.005 C 
ENDBRANCH  18  20
ENDBRANCH  17  18
ENDBRANCH  12  17
BRANCH  14  22
HETATM   22  C21 UNL     1      -3.690   3.421  12.799  1.00  0.00     0.267 C 
HETATM   23 CL3  UNL     1      -5.168   3.642  13.801  1.00  0.00    -0.107 Cl
ENDBRANCH  14  22
ENDBRANCH   1  10
BRANCH   8  24
HETATM   24  C13 UNL     1      -2.222   7.470   7.166  1.00  0.00     0.058 A 
HETATM   25  C14 UNL     1      -2.612   8.132   6.023  1.00  0.00     0.069 A 
HETATM   26  C15 UNL     1      -1.703   8.676   5.141  1.00  0.00     0.092 A 
HETATM   27  C17 UNL     1      -0.351   8.573   5.381  1.00  0.00     0.069 A 
HETATM   28 CL1  UNL     1       0.801   9.265   4.258  1.00  0.00    -0.081 Cl
HETATM   29  C18 UNL     1       0.065   7.903   6.537  1.00  0.00     0.052 A 
HETATM   30  C19 UNL     1      -0.856   7.363   7.410  1.00  0.00     0.062 A 
HETATM   31 CL2  UNL     1      -0.302   6.532   8.848  1.00  0.00    -0.082 Cl
BRANCH  26  32
HETATM   32  O1  UNL     1      -2.156   9.331   4.009  1.00  0.00    -0.354 OA
HETATM   33  C16 UNL     1      -2.647   8.662   2.886  1.00  0.00     0.210 C 
ENDBRANCH  26  32
ENDBRANCH   8  24
TORSDOF 7
ENDMDL
