MODEL 1
REMARK VINA RESULT: -9.712634489      0.000      0.000
REMARK  9 active torsions:
REMARK  status: ('A' for Active; 'I' for Inactive)
REMARK    1  A    between atoms: C2_2  and  O1_3 
REMARK    2  A    between atoms: C2_2  and  C15_31 
REMARK    3  A    between atoms: O1_3  and  C3_4 
REMARK    4  A    between atoms: C6_7  and  C7_8 
REMARK    5  A    between atoms: C8_9  and  O2_10 
REMARK    6  A    between atoms: C9_14  and  O3_15 
REMARK    7  A    between atoms: C10_17  and  N2_18 
REMARK    8  A    between atoms: C11_20  and  N3_21 
REMARK    9  A    between atoms: N3_21  and  S1_23 
ROOT
HETATM    1  C15 UNL     1      -0.188   2.190   8.982  1.00  0.00    -0.028 A 
HETATM    2  C16 UNL     1       0.498   1.097   8.510  1.00  0.00     0.010 A 
HETATM    3  C17 UNL     1       0.180  -0.194   8.896  1.00  0.00     0.002 A 
HETATM    4  C18 UNL     1      -0.856  -0.393   9.780  1.00  0.00     0.022 A 
HETATM    5  C19 UNL     1      -1.568   0.686  10.275  1.00  0.00     0.045 A 
HETATM    6  C20 UNL     1      -2.647   0.458  11.199  1.00  0.00     0.099 C 
HETATM    7  N4  UNL     1      -3.514   0.283  11.958  1.00  0.00    -0.191 NA
HETATM    8  C21 UNL     1      -1.221   1.979   9.865  1.00  0.00     0.032 A 
ENDROOT
BRANCH   1   9
HETATM    9  C2  UNL     1       0.149   3.604   8.568  1.00  0.00     0.158 C 
HETATM   10  C1  UNL     1       1.368   3.474   7.619  1.00  0.00     0.045 C 
BRANCH   9  11
HETATM   11  O1  UNL     1      -0.929   4.145   7.959  1.00  0.00    -0.338 OA
BRANCH  11  12
HETATM   12  C3  UNL     1      -1.956   4.965   8.300  1.00  0.00     0.111 A 
HETATM   13  C4  UNL     1      -3.288   4.540   8.072  1.00  0.00     0.041 A 
HETATM   14  C5  UNL     1      -4.377   5.304   8.386  1.00  0.00     0.018 A 
HETATM   15  C6  UNL     1      -4.226   6.539   8.948  1.00  0.00     0.023 A 
HETATM   16  C13 UNL     1      -2.947   6.980   9.181  1.00  0.00     0.169 A 
HETATM   17  F2  UNL     1      -2.775   8.211   9.741  1.00  0.00    -0.202 F 
HETATM   18  C14 UNL     1      -1.840   6.211   8.865  1.00  0.00     0.189 A 
HETATM   19  F3  UNL     1      -0.589   6.715   9.128  1.00  0.00    -0.200 F 
BRANCH  15  20
HETATM   20  C7  UNL     1      -5.350   7.401   9.305  1.00  0.00     0.059 A 
HETATM   21  C8  UNL     1      -5.851   8.466   8.552  1.00  0.00     0.155 A 
HETATM   22  N1  UNL     1      -6.888   9.017   9.208  1.00  0.00    -0.315 N 
HETATM   23  C9  UNL     1      -7.111   8.376  10.364  1.00  0.00     0.170 A 
ATOM     24  H1  UNL     1      -7.429   9.813   8.873  1.00  0.00     0.170 HD
HETATM   25  C10 UNL     1      -6.146   7.363  10.427  1.00  0.00     0.100 A 
BRANCH  21  26
HETATM   26  O2  UNL     1      -5.324   8.856   7.321  1.00  0.00    -0.345 OA
ATOM     27  H2  UNL     1      -5.844   9.238   6.623  1.00  0.00     0.219 HD
ENDBRANCH  21  26
BRANCH  23  28
HETATM   28  O3  UNL     1      -8.097   8.665  11.305  1.00  0.00    -0.344 OA
ATOM     29  H3  UNL     1      -8.435   8.083  11.975  1.00  0.00     0.219 HD
ENDBRANCH  23  28
BRANCH  25  30
HETATM   30  N2  UNL     1      -6.023   6.452  11.481  1.00  0.00    -0.348 N 
HETATM   31  C11 UNL     1      -4.957   6.393  12.201  1.00  0.00     0.191 C 
ATOM     32  H2  UNL     1      -6.796   5.817  11.683  1.00  0.00     0.167 HD
BRANCH  31  33
HETATM   33  N3  UNL     1      -4.793   5.489  13.273  1.00  0.00    -0.289 N 
ATOM     34  H3  UNL     1      -4.768   5.862  14.222  1.00  0.00     0.178 HD
BRANCH  33  35
HETATM   35  S1  UNL     1      -4.648   3.944  13.077  1.00  0.00     0.180 S 
HETATM   36  C12 UNL     1      -3.406   3.235  14.098  1.00  0.00     0.173 C 
HETATM   37  O4  UNL     1      -4.307   3.665  11.626  1.00  0.00    -0.217 OA
HETATM   38  F1  UNL     1      -6.138   3.263  13.445  1.00  0.00    -0.125 F 
ENDBRANCH  33  35
ENDBRANCH  31  33
ENDBRANCH  25  30
ENDBRANCH  15  20
ENDBRANCH  11  12
ENDBRANCH   9  11
ENDBRANCH   1   9
TORSDOF 9
ENDMDL
MODEL 2
REMARK VINA RESULT: -9.581643474      2.029      2.892
REMARK  9 active torsions:
REMARK  status: ('A' for Active; 'I' for Inactive)
REMARK    1  A    between atoms: C2_2  and  O1_3 
REMARK    2  A    between atoms: C2_2  and  C15_31 
REMARK    3  A    between atoms: O1_3  and  C3_4 
REMARK    4  A    between atoms: C6_7  and  C7_8 
REMARK    5  A    between atoms: C8_9  and  O2_10 
REMARK    6  A    between atoms: C9_14  and  O3_15 
REMARK    7  A    between atoms: C10_17  and  N2_18 
REMARK    8  A    between atoms: C11_20  and  N3_21 
REMARK    9  A    between atoms: N3_21  and  S1_23 
ROOT
HETATM    1  C15 UNL     1       0.647   1.952   8.149  1.00  0.00    -0.028 A 
HETATM    2  C16 UNL     1       1.216   0.710   8.298  1.00  0.00     0.010 A 
HETATM    3  C17 UNL     1       2.560   0.482   8.057  1.00  0.00     0.002 A 
HETATM    4  C18 UNL     1       3.356   1.532   7.656  1.00  0.00     0.022 A 
HETATM    5  C19 UNL     1       2.815   2.796   7.498  1.00  0.00     0.045 A 
HETATM    6  C20 UNL     1       3.663   3.880   7.078  1.00  0.00     0.099 C 
HETATM    7  N4  UNL     1       4.340   4.760   6.725  1.00  0.00    -0.191 NA
HETATM    8  C21 UNL     1       1.452   2.992   7.749  1.00  0.00     0.032 A 
ENDROOT
BRANCH   1   9
HETATM    9  C2  UNL     1      -0.818   2.212   8.410  1.00  0.00     0.158 C 
HETATM   10  C1  UNL     1      -1.016   1.964   9.927  1.00  0.00     0.045 C 
BRANCH   9  11
HETATM   11  O1  UNL     1      -1.102   3.483   8.050  1.00  0.00    -0.338 OA
BRANCH  11  12
HETATM   12  C3  UNL     1      -2.037   4.419   8.358  1.00  0.00     0.111 A 
HETATM   13  C4  UNL     1      -3.408   4.118   8.171  1.00  0.00     0.041 A 
HETATM   14  C5  UNL     1      -4.410   5.003   8.456  1.00  0.00     0.018 A 
HETATM   15  C6  UNL     1      -4.126   6.246   8.947  1.00  0.00     0.023 A 
HETATM   16  C13 UNL     1      -2.806   6.568   9.138  1.00  0.00     0.169 A 
HETATM   17  F2  UNL     1      -2.502   7.804   9.625  1.00  0.00    -0.202 F 
HETATM   18  C14 UNL     1      -1.787   5.676   8.850  1.00  0.00     0.189 A 
HETATM   19  F3  UNL     1      -0.487   6.066   9.068  1.00  0.00    -0.200 F 
BRANCH  15  20
HETATM   20  C7  UNL     1      -5.153   7.234   9.270  1.00  0.00     0.059 A 
HETATM   21  C8  UNL     1      -5.529   8.327   8.484  1.00  0.00     0.155 A 
HETATM   22  N1  UNL     1      -6.504   9.004   9.115  1.00  0.00    -0.315 N 
HETATM   23  C9  UNL     1      -6.804   8.422  10.285  1.00  0.00     0.170 A 
ATOM     24  H1  UNL     1      -6.953   9.845   8.754  1.00  0.00     0.170 HD
HETATM   25  C10 UNL     1      -5.957   7.312  10.383  1.00  0.00     0.100 A 
BRANCH  21  26
HETATM   26  O2  UNL     1      -4.953   8.624   7.249  1.00  0.00    -0.345 OA
ATOM     27  H2  UNL     1      -5.450   8.705   6.443  1.00  0.00     0.219 HD
ENDBRANCH  21  26
BRANCH  23  28
HETATM   28  O3  UNL     1      -7.760   8.841  11.208  1.00  0.00    -0.344 OA
ATOM     29  H3  UNL     1      -7.647   9.489  11.893  1.00  0.00     0.219 HD
ENDBRANCH  23  28
BRANCH  25  30
HETATM   30  N2  UNL     1      -5.941   6.421  11.462  1.00  0.00    -0.348 N 
HETATM   31  C11 UNL     1      -4.907   6.294  12.217  1.00  0.00     0.191 C 
ATOM     32  H2  UNL     1      -6.770   5.858  11.653  1.00  0.00     0.167 HD
BRANCH  31  33
HETATM   33  N3  UNL     1      -4.851   5.407  13.314  1.00  0.00    -0.289 N 
ATOM     34  H3  UNL     1      -4.972   5.788  14.252  1.00  0.00     0.178 HD
BRANCH  33  35
HETATM   35  S1  UNL     1      -4.613   3.869  13.162  1.00  0.00     0.180 S 
HETATM   36  C12 UNL     1      -3.313   3.270  14.183  1.00  0.00     0.173 C 
HETATM   37  O4  UNL     1      -4.277   3.566  11.715  1.00  0.00    -0.217 OA
HETATM   38  F1  UNL     1      -6.051   3.108  13.575  1.00  0.00    -0.125 F 
ENDBRANCH  33  35
ENDBRANCH  31  33
ENDBRANCH  25  30
ENDBRANCH  15  20
ENDBRANCH  11  12
ENDBRANCH   9  11
ENDBRANCH   1   9
TORSDOF 9
ENDMDL
MODEL 3
REMARK VINA RESULT: -9.531677436      3.720      5.936
REMARK  9 active torsions:
REMARK  status: ('A' for Active; 'I' for Inactive)
REMARK    1  A    between atoms: C2_2  and  O1_3 
REMARK    2  A    between atoms: C2_2  and  C15_31 
REMARK    3  A    between atoms: O1_3  and  C3_4 
REMARK    4  A    between atoms: C6_7  and  C7_8 
REMARK    5  A    between atoms: C8_9  and  O2_10 
REMARK    6  A    between atoms: C9_14  and  O3_15 
REMARK    7  A    between atoms: C10_17  and  N2_18 
REMARK    8  A    between atoms: C11_20  and  N3_21 
REMARK    9  A    between atoms: N3_21  and  S1_23 
ROOT
HETATM    1  C15 UNL     1      -3.068   1.157  12.091  1.00  0.00    -0.028 A 
HETATM    2  C16 UNL     1      -2.907   0.447  10.925  1.00  0.00     0.010 A 
HETATM    3  C17 UNL     1      -1.913  -0.505  10.774  1.00  0.00     0.002 A 
HETATM    4  C18 UNL     1      -1.057  -0.752  11.823  1.00  0.00     0.022 A 
HETATM    5  C19 UNL     1      -1.191  -0.054  13.011  1.00  0.00     0.045 A 
HETATM    6  C20 UNL     1      -0.286  -0.327  14.096  1.00  0.00     0.099 C 
HETATM    7  N4  UNL     1       0.452  -0.531  14.975  1.00  0.00    -0.191 NA
HETATM    8  C21 UNL     1      -2.206   0.901  13.132  1.00  0.00     0.032 A 
ENDROOT
BRANCH   1   9
HETATM    9  C2  UNL     1      -4.149   2.197  12.269  1.00  0.00     0.158 C 
HETATM   10  C1  UNL     1      -3.613   3.165  13.355  1.00  0.00     0.045 C 
BRANCH   9  11
HETATM   11  O1  UNL     1      -4.358   2.810  11.083  1.00  0.00    -0.338 OA
BRANCH  11  12
HETATM   12  C3  UNL     1      -3.764   3.788  10.351  1.00  0.00     0.111 A 
HETATM   13  C4  UNL     1      -2.911   3.430   9.278  1.00  0.00     0.041 A 
HETATM   14  C5  UNL     1      -2.276   4.351   8.493  1.00  0.00     0.018 A 
HETATM   15  C6  UNL     1      -2.440   5.689   8.713  1.00  0.00     0.023 A 
HETATM   16  C13 UNL     1      -3.259   6.068   9.746  1.00  0.00     0.169 A 
HETATM   17  F2  UNL     1      -3.435   7.399   9.983  1.00  0.00    -0.202 F 
HETATM   18  C14 UNL     1      -3.905   5.140  10.545  1.00  0.00     0.189 A 
HETATM   19  F3  UNL     1      -4.712   5.591  11.562  1.00  0.00    -0.200 F 
BRANCH  15  20
HETATM   20  C7  UNL     1      -1.788   6.720   7.909  1.00  0.00     0.059 A 
HETATM   21  C8  UNL     1      -2.424   7.696   7.138  1.00  0.00     0.155 A 
HETATM   22  N1  UNL     1      -1.491   8.461   6.543  1.00  0.00    -0.315 N 
HETATM   23  C9  UNL     1      -0.259   8.050   6.876  1.00  0.00     0.170 A 
ATOM     24  H1  UNL     1      -1.693   9.246   5.924  1.00  0.00     0.170 HD
HETATM   25  C10 UNL     1      -0.444   6.957   7.732  1.00  0.00     0.100 A 
BRANCH  21  26
HETATM   26  O2  UNL     1      -3.810   7.816   7.034  1.00  0.00    -0.345 OA
ATOM     27  H2  UNL     1      -4.259   8.646   6.916  1.00  0.00     0.219 HD
ENDBRANCH  21  26
BRANCH  23  28
HETATM   28  O3  UNL     1       0.949   8.598   6.453  1.00  0.00    -0.344 OA
ATOM     29  H3  UNL     1       1.606   9.020   6.994  1.00  0.00     0.219 HD
ENDBRANCH  23  28
BRANCH  25  30
HETATM   30  N2  UNL     1       0.594   6.224   8.315  1.00  0.00    -0.348 N 
HETATM   31  C11 UNL     1       1.061   5.158   7.764  1.00  0.00     0.191 C 
ATOM     32  H2  UNL     1       0.992   6.541   9.199  1.00  0.00     0.167 HD
BRANCH  31  33
HETATM   33  N3  UNL     1       2.107   4.391   8.319  1.00  0.00    -0.289 N 
ATOM     34  H3  UNL     1       2.074   4.175   9.315  1.00  0.00     0.178 HD
BRANCH  33  35
HETATM   35  S1  UNL     1       3.315   3.854   7.483  1.00  0.00     0.180 S 
HETATM   36  C12 UNL     1       3.414   2.099   7.464  1.00  0.00     0.173 C 
HETATM   37  O4  UNL     1       4.599   4.410   8.066  1.00  0.00    -0.217 OA
HETATM   38  F1  UNL     1       3.117   4.425   5.916  1.00  0.00    -0.125 F 
ENDBRANCH  33  35
ENDBRANCH  31  33
ENDBRANCH  25  30
ENDBRANCH  15  20
ENDBRANCH  11  12
ENDBRANCH   9  11
ENDBRANCH   1   9
TORSDOF 9
ENDMDL
MODEL 4
REMARK VINA RESULT: -9.380930907      1.833      2.247
REMARK  9 active torsions:
REMARK  status: ('A' for Active; 'I' for Inactive)
REMARK    1  A    between atoms: C2_2  and  O1_3 
REMARK    2  A    between atoms: C2_2  and  C15_31 
REMARK    3  A    between atoms: O1_3  and  C3_4 
REMARK    4  A    between atoms: C6_7  and  C7_8 
REMARK    5  A    between atoms: C8_9  and  O2_10 
REMARK    6  A    between atoms: C9_14  and  O3_15 
REMARK    7  A    between atoms: C10_17  and  N2_18 
REMARK    8  A    between atoms: C11_20  and  N3_21 
REMARK    9  A    between atoms: N3_21  and  S1_23 
ROOT
HETATM    1  C15 UNL     1       1.324   2.875   8.099  1.00  0.00    -0.028 A 
HETATM    2  C16 UNL     1       2.367   2.068   7.714  1.00  0.00     0.010 A 
HETATM    3  C17 UNL     1       2.345   0.696   7.902  1.00  0.00     0.002 A 
HETATM    4  C18 UNL     1       1.243   0.119   8.494  1.00  0.00     0.022 A 
HETATM    5  C19 UNL     1       0.175   0.904   8.893  1.00  0.00     0.045 A 
HETATM    6  C20 UNL     1      -0.967   0.282   9.510  1.00  0.00     0.099 C 
HETATM    7  N4  UNL     1      -1.889  -0.212  10.023  1.00  0.00    -0.191 NA
HETATM    8  C21 UNL     1       0.229   2.287   8.688  1.00  0.00     0.032 A 
ENDROOT
BRANCH   1   9
HETATM    9  C2  UNL     1       1.336   4.373   7.898  1.00  0.00     0.158 C 
HETATM   10  C1  UNL     1       2.508   4.645   6.920  1.00  0.00     0.045 C 
BRANCH   9  11
HETATM   11  O1  UNL     1       0.141   4.751   7.395  1.00  0.00    -0.338 OA
BRANCH  11  12
HETATM   12  C3  UNL     1      -1.027   5.252   7.876  1.00  0.00     0.111 A 
HETATM   13  C4  UNL     1      -1.015   6.475   8.589  1.00  0.00     0.041 A 
HETATM   14  C5  UNL     1      -2.145   7.047   9.105  1.00  0.00     0.018 A 
HETATM   15  C6  UNL     1      -3.363   6.449   8.951  1.00  0.00     0.023 A 
HETATM   16  C13 UNL     1      -3.407   5.261   8.266  1.00  0.00     0.169 A 
HETATM   17  F2  UNL     1      -4.613   4.648   8.102  1.00  0.00    -0.202 F 
HETATM   18  C14 UNL     1      -2.266   4.677   7.741  1.00  0.00     0.189 A 
HETATM   19  F3  UNL     1      -2.384   3.487   7.065  1.00  0.00    -0.200 F 
BRANCH  15  20
HETATM   20  C7  UNL     1      -4.604   7.010   9.480  1.00  0.00     0.059 A 
HETATM   21  C8  UNL     1      -5.414   7.964   8.857  1.00  0.00     0.155 A 
HETATM   22  N1  UNL     1      -6.466   8.230   9.652  1.00  0.00    -0.315 N 
HETATM   23  C9  UNL     1      -6.406   7.503  10.777  1.00  0.00     0.170 A 
ATOM     24  H1  UNL     1      -7.207   8.894   9.429  1.00  0.00     0.170 HD
HETATM   25  C10 UNL     1      -5.238   6.739  10.670  1.00  0.00     0.100 A 
BRANCH  21  26
HETATM   26  O2  UNL     1      -5.132   8.521   7.610  1.00  0.00    -0.345 OA
ATOM     27  H2  UNL     1      -5.750   8.533   6.887  1.00  0.00     0.219 HD
ENDBRANCH  21  26
BRANCH  23  28
HETATM   28  O3  UNL     1      -7.317   7.514  11.830  1.00  0.00    -0.344 OA
ATOM     29  H3  UNL     1      -7.204   7.122  12.688  1.00  0.00     0.219 HD
ENDBRANCH  23  28
BRANCH  25  30
HETATM   30  N2  UNL     1      -4.793   5.834  11.640  1.00  0.00    -0.348 N 
HETATM   31  C11 UNL     1      -5.196   4.611  11.658  1.00  0.00     0.191 C 
ATOM     32  H2  UNL     1      -4.133   6.151  12.350  1.00  0.00     0.167 HD
BRANCH  31  33
HETATM   33  N3  UNL     1      -4.771   3.668  12.618  1.00  0.00    -0.289 N 
ATOM     34  H3  UNL     1      -5.288   3.602  13.494  1.00  0.00     0.178 HD
BRANCH  33  35
HETATM   35  S1  UNL     1      -3.546   2.719  12.404  1.00  0.00     0.180 S 
HETATM   36  C12 UNL     1      -3.999   1.024  12.301  1.00  0.00     0.173 C 
HETATM   37  O4  UNL     1      -2.581   2.898  13.560  1.00  0.00    -0.217 OA
HETATM   38  F1  UNL     1      -2.804   3.192  10.975  1.00  0.00    -0.125 F 
ENDBRANCH  33  35
ENDBRANCH  31  33
ENDBRANCH  25  30
ENDBRANCH  15  20
ENDBRANCH  11  12
ENDBRANCH   9  11
ENDBRANCH   1   9
TORSDOF 9
ENDMDL
MODEL 5
REMARK VINA RESULT: -9.325122937      4.339      7.903
REMARK  9 active torsions:
REMARK  status: ('A' for Active; 'I' for Inactive)
REMARK    1  A    between atoms: C2_2  and  O1_3 
REMARK    2  A    between atoms: C2_2  and  C15_31 
REMARK    3  A    between atoms: O1_3  and  C3_4 
REMARK    4  A    between atoms: C6_7  and  C7_8 
REMARK    5  A    between atoms: C8_9  and  O2_10 
REMARK    6  A    between atoms: C9_14  and  O3_15 
REMARK    7  A    between atoms: C10_17  and  N2_18 
REMARK    8  A    between atoms: C11_20  and  N3_21 
REMARK    9  A    between atoms: N3_21  and  S1_23 
ROOT
HETATM    1  C15 UNL     1      -2.867   2.213  11.992  1.00  0.00    -0.028 A 
HETATM    2  C16 UNL     1      -2.616   2.143  13.341  1.00  0.00     0.010 A 
HETATM    3  C17 UNL     1      -3.214   3.002  14.248  1.00  0.00     0.002 A 
HETATM    4  C18 UNL     1      -4.090   3.958  13.785  1.00  0.00     0.022 A 
HETATM    5  C19 UNL     1      -4.365   4.056  12.432  1.00  0.00     0.045 A 
HETATM    6  C20 UNL     1      -5.283   5.063  11.969  1.00  0.00     0.099 C 
HETATM    7  N4  UNL     1      -6.015   5.884  11.583  1.00  0.00    -0.191 NA
HETATM    8  C21 UNL     1      -3.743   3.173  11.543  1.00  0.00     0.032 A 
ENDROOT
BRANCH   1   9
HETATM    9  C2  UNL     1      -2.220   1.281  10.994  1.00  0.00     0.158 C 
HETATM   10  C1  UNL     1      -3.223   0.113  10.815  1.00  0.00     0.045 C 
BRANCH   9  11
HETATM   11  O1  UNL     1      -2.002   1.960   9.847  1.00  0.00    -0.338 OA
BRANCH  11  12
HETATM   12  C3  UNL     1      -0.936   2.490   9.193  1.00  0.00     0.111 A 
HETATM   13  C4  UNL     1      -0.827   3.897   9.072  1.00  0.00     0.041 A 
HETATM   14  C5  UNL     1       0.212   4.510   8.430  1.00  0.00     0.018 A 
HETATM   15  C6  UNL     1       1.215   3.776   7.864  1.00  0.00     0.023 A 
HETATM   16  C13 UNL     1       1.137   2.410   7.962  1.00  0.00     0.169 A 
HETATM   17  F2  UNL     1       2.127   1.659   7.403  1.00  0.00    -0.202 F 
HETATM   18  C14 UNL     1       0.087   1.783   8.611  1.00  0.00     0.189 A 
HETATM   19  F3  UNL     1       0.074   0.410   8.674  1.00  0.00    -0.200 F 
BRANCH  15  20
HETATM   20  C7  UNL     1       2.350   4.374   7.165  1.00  0.00     0.059 A 
HETATM   21  C8  UNL     1       3.702   4.104   7.394  1.00  0.00     0.155 A 
HETATM   22  N1  UNL     1       4.445   4.848   6.557  1.00  0.00    -0.315 N 
HETATM   23  C9  UNL     1       3.663   5.605   5.775  1.00  0.00     0.170 A 
ATOM     24  H1  UNL     1       5.464   4.838   6.522  1.00  0.00     0.170 HD
HETATM   25  C10 UNL     1       2.349   5.309   6.156  1.00  0.00     0.100 A 
BRANCH  21  26
HETATM   26  O2  UNL     1       4.156   3.197   8.353  1.00  0.00    -0.345 OA
ATOM     27  H2  UNL     1       5.049   3.178   8.677  1.00  0.00     0.219 HD
ENDBRANCH  21  26
BRANCH  23  28
HETATM   28  O3  UNL     1       4.078   6.499   4.791  1.00  0.00    -0.344 OA
ATOM     29  H3  UNL     1       3.566   6.821   4.058  1.00  0.00     0.219 HD
ENDBRANCH  23  28
BRANCH  25  30
HETATM   30  N2  UNL     1       1.210   5.887   5.584  1.00  0.00    -0.348 N 
HETATM   31  C11 UNL     1       0.897   7.117   5.799  1.00  0.00     0.191 C 
ATOM     32  H2  UNL     1       0.613   5.319   4.983  1.00  0.00     0.167 HD
BRANCH  31  33
HETATM   33  N3  UNL     1      -0.242   7.737   5.242  1.00  0.00    -0.289 N 
ATOM     34  H3  UNL     1      -0.142   8.675   4.854  1.00  0.00     0.178 HD
BRANCH  33  35
HETATM   35  S1  UNL     1      -1.649   7.057   5.190  1.00  0.00     0.180 S 
HETATM   36  C12 UNL     1      -2.970   8.189   5.444  1.00  0.00     0.173 C 
HETATM   37  O4  UNL     1      -1.713   5.983   6.258  1.00  0.00    -0.217 OA
HETATM   38  F1  UNL     1      -1.796   6.350   3.674  1.00  0.00    -0.125 F 
ENDBRANCH  33  35
ENDBRANCH  31  33
ENDBRANCH  25  30
ENDBRANCH  15  20
ENDBRANCH  11  12
ENDBRANCH   9  11
ENDBRANCH   1   9
TORSDOF 9
ENDMDL
