MODEL 1
REMARK VINA RESULT: -8.921393737      0.000      0.000
REMARK  8 active torsions:
REMARK  status: ('A' for Active; 'I' for Inactive)
REMARK    1  A    between atoms: C2_2  and  C3_3 
REMARK    2  A    between atoms: C3_3  and  O1_4 
REMARK    3  A    between atoms: C3_3  and  C12_22 
REMARK    4  A    between atoms: O1_4  and  N1_5 
REMARK    5  A    between atoms: C7_14  and  N4_15 
REMARK    6  A    between atoms: C12_22  and  N5_23 
REMARK    7  A    between atoms: C12_22  and  O3_35 
REMARK    8  A    between atoms: N6_25  and  C13_27 
ROOT
HETATM    1  C3  UNL     1      -3.146   3.834   8.777  1.00  0.00     0.197 C 
ENDROOT
BRANCH   1   2
HETATM    2  C2  UNL     1      -4.204   4.557   7.964  1.00  0.00     0.034 C 
HETATM    3  C1  UNL     1      -3.782   6.021   7.891  1.00  0.00     0.008 C 
ENDBRANCH   1   2
BRANCH   1   4
HETATM    4  O1  UNL     1      -2.050   4.646   8.837  1.00  0.00    -0.288 OA
BRANCH   4   5
HETATM    5  N1  UNL     1      -0.875   4.064   8.910  1.00  0.00    -0.157 NA
HETATM    6  C4  UNL     1      -0.745   2.765   8.384  1.00  0.00     0.121 C 
HETATM    7  C5  UNL     1       0.715   2.629   8.140  1.00  0.00     0.061 A 
HETATM    8  N2  UNL     1       1.561   1.581   8.065  1.00  0.00    -0.307 N 
HETATM    9  C8  UNL     1       1.191   3.910   7.954  1.00  0.00     0.038 A 
HETATM   10  C6  UNL     1       2.872   1.714   7.814  1.00  0.00     0.326 A 
ATOM     11  H2  UNL     1       1.187   0.643   8.206  1.00  0.00     0.170 HD
HETATM   12  O2  UNL     1       3.651   0.717   7.747  1.00  0.00    -0.247 OA
HETATM   13  N3  UNL     1       3.318   2.962   7.635  1.00  0.00    -0.294 N 
HETATM   14  C7  UNL     1       2.530   4.072   7.694  1.00  0.00     0.113 A 
ATOM     15  H3  UNL     1       4.311   3.091   7.442  1.00  0.00     0.172 HD
HETATM   16  C9  UNL     1       0.060   4.869   8.101  1.00  0.00     0.069 C 
HETATM   17  C10 UNL     1      -0.472   5.185   6.748  1.00  0.00     0.040 C 
HETATM   18  C11 UNL     1       0.403   6.087   8.916  1.00  0.00     0.040 C 
BRANCH  14  19
HETATM   19  N4  UNL     1       3.031   5.236   7.504  1.00  0.00    -0.385 N 
ATOM     20  H42 UNL     1       3.631   5.672   8.204  1.00  0.00     0.157 HD
ATOM     21  H41 UNL     1       2.832   5.752   6.647  1.00  0.00     0.157 HD
ENDBRANCH  14  19
ENDBRANCH   4   5
ENDBRANCH   1   4
BRANCH   1  22
HETATM   22  C12 UNL     1      -3.781   3.607  10.155  1.00  0.00     0.289 C 
BRANCH  22  23
HETATM   23  N5  UNL     1      -2.830   2.859  10.939  1.00  0.00    -0.303 N 
HETATM   24  N6  UNL     1      -3.078   1.709  11.414  1.00  0.00    -0.299 N 
ATOM     25  H6  UNL     1      -3.993   1.299  11.229  1.00  0.00     0.186 HD
ATOM     26  H5  UNL     1      -1.916   3.274  11.121  1.00  0.00     0.183 HD
BRANCH  24  27
HETATM   27  C13 UNL     1      -2.163   0.967  12.179  1.00  0.00     0.091 A 
HETATM   28  C14 UNL     1      -1.786   1.371  13.463  1.00  0.00     0.063 A 
HETATM   29 CL1  UNL     1      -2.467   2.842  14.145  1.00  0.00    -0.082 Cl
HETATM   30  C15 UNL     1      -0.892   0.622  14.177  1.00  0.00     0.026 A 
HETATM   31  C16 UNL     1      -0.341  -0.537  13.666  1.00  0.00     0.003 A 
HETATM   32  C17 UNL     1      -0.705  -0.943  12.409  1.00  0.00     0.026 A 
HETATM   33  C18 UNL     1      -1.612  -0.185  11.682  1.00  0.00     0.063 A 
HETATM   34 CL2  UNL     1      -2.052  -0.734  10.077  1.00  0.00    -0.082 Cl
ENDBRANCH  24  27
ENDBRANCH  22  23
BRANCH  22  35
HETATM   35  O3  UNL     1      -4.134   4.810  10.752  1.00  0.00    -0.254 OA
HETATM   36 CL3  UNL     1      -5.050   4.611  12.151  1.00  0.00     0.064 Cl
ENDBRANCH  22  35
ENDBRANCH   1  22
TORSDOF 8
ENDMDL
MODEL 2
REMARK VINA RESULT: -8.844644259      0.084      1.650
REMARK  8 active torsions:
REMARK  status: ('A' for Active; 'I' for Inactive)
REMARK    1  A    between atoms: C2_2  and  C3_3 
REMARK    2  A    between atoms: C3_3  and  O1_4 
REMARK    3  A    between atoms: C3_3  and  C12_22 
REMARK    4  A    between atoms: O1_4  and  N1_5 
REMARK    5  A    between atoms: C7_14  and  N4_15 
REMARK    6  A    between atoms: C12_22  and  N5_23 
REMARK    7  A    between atoms: C12_22  and  O3_35 
REMARK    8  A    between atoms: N6_25  and  C13_27 
ROOT
HETATM    1  C3  UNL     1      -3.189   3.887   8.802  1.00  0.00     0.197 C 
ENDROOT
BRANCH   1   2
HETATM    2  C2  UNL     1      -4.240   4.653   8.020  1.00  0.00     0.034 C 
HETATM    3  C1  UNL     1      -3.791   6.111   7.987  1.00  0.00     0.008 C 
ENDBRANCH   1   2
BRANCH   1   4
HETATM    4  O1  UNL     1      -2.077   4.675   8.875  1.00  0.00    -0.288 OA
BRANCH   4   5
HETATM    5  N1  UNL     1      -0.914   4.069   8.948  1.00  0.00    -0.157 NA
HETATM    6  C4  UNL     1      -0.812   2.767   8.422  1.00  0.00     0.121 C 
HETATM    7  C5  UNL     1       0.645   2.600   8.179  1.00  0.00     0.061 A 
HETATM    8  N2  UNL     1       1.469   1.534   8.103  1.00  0.00    -0.307 N 
HETATM    9  C8  UNL     1       1.148   3.871   7.993  1.00  0.00     0.038 A 
HETATM   10  C6  UNL     1       2.782   1.639   7.852  1.00  0.00     0.326 A 
ATOM     11  H2  UNL     1       1.074   0.604   8.244  1.00  0.00     0.170 HD
HETATM   12  O2  UNL     1       3.539   0.626   7.785  1.00  0.00    -0.247 OA
HETATM   13  N3  UNL     1       3.254   2.878   7.674  1.00  0.00    -0.294 N 
HETATM   14  C7  UNL     1       2.490   4.004   7.733  1.00  0.00     0.113 A 
ATOM     15  H3  UNL     1       4.250   2.986   7.481  1.00  0.00     0.172 HD
HETATM   16  C9  UNL     1       0.037   4.854   8.140  1.00  0.00     0.069 C 
HETATM   17  C10 UNL     1      -0.488   5.181   6.787  1.00  0.00     0.040 C 
HETATM   18  C11 UNL     1       0.407   6.064   8.955  1.00  0.00     0.040 C 
BRANCH  14  19
HETATM   19  N4  UNL     1       3.016   5.158   7.543  1.00  0.00    -0.385 N 
ATOM     20  H42 UNL     1       3.302   5.458   6.611  1.00  0.00     0.157 HD
ATOM     21  H41 UNL     1       3.163   5.795   8.325  1.00  0.00     0.157 HD
ENDBRANCH  14  19
ENDBRANCH   4   5
ENDBRANCH   1   4
BRANCH   1  22
HETATM   22  C12 UNL     1      -3.816   3.632  10.179  1.00  0.00     0.289 C 
BRANCH  22  23
HETATM   23  N5  UNL     1      -2.856   2.880  10.948  1.00  0.00    -0.303 N 
HETATM   24  N6  UNL     1      -3.110   1.744  11.452  1.00  0.00    -0.299 N 
ATOM     25  H6  UNL     1      -4.039   1.350  11.304  1.00  0.00     0.186 HD
ATOM     26  H5  UNL     1      -1.928   3.280  11.092  1.00  0.00     0.183 HD
BRANCH  24  27
HETATM   27  C13 UNL     1      -2.186   0.999  12.203  1.00  0.00     0.091 A 
HETATM   28  C14 UNL     1      -1.599  -0.164  11.695  1.00  0.00     0.063 A 
HETATM   29 CL1  UNL     1      -2.022  -0.715  10.080  1.00  0.00    -0.082 Cl
HETATM   30  C15 UNL     1      -0.704  -0.863  12.457  1.00  0.00     0.026 A 
HETATM   31  C16 UNL     1      -0.354  -0.452  13.729  1.00  0.00     0.003 A 
HETATM   32  C17 UNL     1      -0.923   0.687  14.236  1.00  0.00     0.026 A 
HETATM   33  C18 UNL     1      -1.832   1.397  13.465  1.00  0.00     0.063 A 
HETATM   34 CL2  UNL     1      -2.541   2.848  14.147  1.00  0.00    -0.082 Cl
ENDBRANCH  24  27
ENDBRANCH  22  23
BRANCH  22  35
HETATM   35  O3  UNL     1      -4.177   4.822  10.797  1.00  0.00    -0.254 OA
HETATM   36 CL3  UNL     1      -5.167   4.597  12.140  1.00  0.00     0.064 Cl
ENDBRANCH  22  35
ENDBRANCH   1  22
TORSDOF 8
ENDMDL
MODEL 3
REMARK VINA RESULT: -8.589695032      2.966      6.744
REMARK  8 active torsions:
REMARK  status: ('A' for Active; 'I' for Inactive)
REMARK    1  A    between atoms: C2_2  and  C3_3 
REMARK    2  A    between atoms: C3_3  and  O1_4 
REMARK    3  A    between atoms: C3_3  and  C12_22 
REMARK    4  A    between atoms: O1_4  and  N1_5 
REMARK    5  A    between atoms: C7_14  and  N4_15 
REMARK    6  A    between atoms: C12_22  and  N5_23 
REMARK    7  A    between atoms: C12_22  and  O3_35 
REMARK    8  A    between atoms: N6_25  and  C13_27 
ROOT
HETATM    1  C3  UNL     1      -2.385   0.663  12.086  1.00  0.00     0.197 C 
ENDROOT
BRANCH   1   2
HETATM    2  C2  UNL     1      -1.212   1.576  12.393  1.00  0.00     0.034 C 
HETATM    3  C1  UNL     1      -0.763   1.257  13.815  1.00  0.00     0.008 C 
ENDBRANCH   1   2
BRANCH   1   4
HETATM    4  O1  UNL     1      -3.512   1.433  12.079  1.00  0.00    -0.288 OA
BRANCH   4   5
HETATM    5  N1  UNL     1      -3.407   2.649  11.593  1.00  0.00    -0.157 NA
HETATM    6  C4  UNL     1      -3.786   2.861  10.254  1.00  0.00     0.121 C 
HETATM    7  C5  UNL     1      -4.053   4.322  10.193  1.00  0.00     0.061 A 
HETATM    8  N2  UNL     1      -4.033   5.241   9.204  1.00  0.00    -0.307 N 
HETATM    9  C8  UNL     1      -4.394   4.701  11.474  1.00  0.00     0.038 A 
HETATM   10  C6  UNL     1      -4.333   6.533   9.398  1.00  0.00     0.326 A 
ATOM     11  H2  UNL     1      -3.778   4.937   8.264  1.00  0.00     0.170 HD
HETATM   12  O2  UNL     1      -4.309   7.380   8.456  1.00  0.00    -0.247 OA
HETATM   13  N3  UNL     1      -4.663   6.885  10.645  1.00  0.00    -0.294 N 
HETATM   14  C7  UNL     1      -4.707   6.021  11.697  1.00  0.00     0.113 A 
ATOM     15  H3  UNL     1      -4.896   7.862  10.820  1.00  0.00     0.172 HD
HETATM   16  C9  UNL     1      -4.325   3.507  12.363  1.00  0.00     0.069 C 
HETATM   17  C10 UNL     1      -5.690   2.928  12.485  1.00  0.00     0.040 C 
HETATM   18  C11 UNL     1      -3.662   3.778  13.686  1.00  0.00     0.040 C 
BRANCH  14  19
HETATM   19  N4  UNL     1      -5.040   6.433  12.864  1.00  0.00    -0.385 N 
ATOM     20  H42 UNL     1      -4.367   6.903  13.469  1.00  0.00     0.157 HD
ATOM     21  H41 UNL     1      -5.988   6.291  13.213  1.00  0.00     0.157 HD
ENDBRANCH  14  19
ENDBRANCH   4   5
ENDBRANCH   1   4
BRANCH   1  22
HETATM   22  C12 UNL     1      -2.080   0.063  10.708  1.00  0.00     0.289 C 
BRANCH  22  23
HETATM   23  N5  UNL     1      -0.901   0.726  10.210  1.00  0.00    -0.303 N 
HETATM   24  N6  UNL     1      -0.619   0.801   8.975  1.00  0.00    -0.299 N 
ATOM     25  H6  UNL     1      -1.259   0.371   8.309  1.00  0.00     0.186 HD
ATOM     26  H5  UNL     1      -0.264   1.155  10.882  1.00  0.00     0.183 HD
BRANCH  24  27
HETATM   27  C13 UNL     1       0.526   1.444   8.474  1.00  0.00     0.091 A 
HETATM   28  C14 UNL     1       1.721   0.750   8.262  1.00  0.00     0.063 A 
HETATM   29 CL1  UNL     1       1.804  -0.968   8.627  1.00  0.00    -0.082 Cl
HETATM   30  C15 UNL     1       2.814   1.411   7.773  1.00  0.00     0.026 A 
HETATM   31  C16 UNL     1       2.776   2.760   7.477  1.00  0.00     0.003 A 
HETATM   32  C17 UNL     1       1.610   3.449   7.681  1.00  0.00     0.026 A 
HETATM   33  C18 UNL     1       0.499   2.781   8.177  1.00  0.00     0.063 A 
HETATM   34 CL2  UNL     1      -0.975   3.696   8.427  1.00  0.00    -0.082 Cl
ENDBRANCH  24  27
ENDBRANCH  22  23
BRANCH  22  35
HETATM   35  O3  UNL     1      -1.925  -1.315  10.780  1.00  0.00    -0.254 OA
HETATM   36 CL3  UNL     1      -0.477  -1.782  11.502  1.00  0.00     0.064 Cl
ENDBRANCH  22  35
ENDBRANCH   1  22
TORSDOF 8
ENDMDL
MODEL 4
REMARK VINA RESULT: -8.573773186      3.503      7.213
REMARK  8 active torsions:
REMARK  status: ('A' for Active; 'I' for Inactive)
REMARK    1  A    between atoms: C2_2  and  C3_3 
REMARK    2  A    between atoms: C3_3  and  O1_4 
REMARK    3  A    between atoms: C3_3  and  C12_22 
REMARK    4  A    between atoms: O1_4  and  N1_5 
REMARK    5  A    between atoms: C7_14  and  N4_15 
REMARK    6  A    between atoms: C12_22  and  N5_23 
REMARK    7  A    between atoms: C12_22  and  O3_35 
REMARK    8  A    between atoms: N6_25  and  C13_27 
ROOT
HETATM    1  C3  UNL     1      -4.010   3.264  11.573  1.00  0.00     0.197 C 
ENDROOT
BRANCH   1   2
HETATM    2  C2  UNL     1      -3.110   3.200  12.793  1.00  0.00     0.034 C 
HETATM    3  C1  UNL     1      -3.983   3.515  14.003  1.00  0.00     0.008 C 
ENDBRANCH   1   2
BRANCH   1   4
HETATM    4  O1  UNL     1      -3.819   4.481  10.986  1.00  0.00    -0.288 OA
BRANCH   4   5
HETATM    5  N1  UNL     1      -4.886   5.212  10.756  1.00  0.00    -0.157 NA
HETATM    6  C4  UNL     1      -5.426   5.950  11.826  1.00  0.00     0.121 C 
HETATM    7  C5  UNL     1      -6.220   7.012  11.153  1.00  0.00     0.061 A 
HETATM    8  N2  UNL     1      -7.285   7.759  11.514  1.00  0.00    -0.307 N 
HETATM    9  C8  UNL     1      -5.643   7.192   9.914  1.00  0.00     0.038 A 
HETATM   10  C6  UNL     1      -7.830   8.690  10.717  1.00  0.00     0.326 A 
ATOM     11  H2  UNL     1      -7.694   7.608  12.435  1.00  0.00     0.170 HD
HETATM   12  O2  UNL     1      -8.830   9.381  11.072  1.00  0.00    -0.247 OA
HETATM   13  N3  UNL     1      -7.259   8.853   9.519  1.00  0.00    -0.294 N 
HETATM   14  C7  UNL     1      -6.183   8.141   9.080  1.00  0.00     0.113 A 
ATOM     15  H3  UNL     1      -7.654   9.555   8.893  1.00  0.00     0.172 HD
HETATM   16  C9  UNL     1      -4.504   6.241   9.771  1.00  0.00     0.069 C 
HETATM   17  C10 UNL     1      -3.247   6.950  10.134  1.00  0.00     0.040 C 
HETATM   18  C11 UNL     1      -4.451   5.562   8.429  1.00  0.00     0.040 C 
BRANCH  14  19
HETATM   19  N4  UNL     1      -5.686   8.361   7.919  1.00  0.00    -0.385 N 
ATOM     20  H42 UNL     1      -5.748   9.283   7.486  1.00  0.00     0.157 HD
ATOM     21  H41 UNL     1      -5.224   7.613   7.403  1.00  0.00     0.157 HD
ENDBRANCH  14  19
ENDBRANCH   4   5
ENDBRANCH   1   4
BRANCH   1  22
HETATM   22  C12 UNL     1      -3.556   2.105  10.675  1.00  0.00     0.289 C 
BRANCH  22  23
HETATM   23  N5  UNL     1      -2.211   2.403  10.250  1.00  0.00    -0.303 N 
HETATM   24  N6  UNL     1      -1.897   2.600   9.036  1.00  0.00    -0.299 N 
ATOM     25  H6  UNL     1      -2.634   2.544   8.334  1.00  0.00     0.186 HD
ATOM     26  H5  UNL     1      -1.478   2.458  10.958  1.00  0.00     0.183 HD
BRANCH  24  27
HETATM   27  C13 UNL     1      -0.591   2.891   8.606  1.00  0.00     0.091 A 
HETATM   28  C14 UNL     1      -0.179   4.203   8.358  1.00  0.00     0.063 A 
HETATM   29 CL1  UNL     1      -1.312   5.528   8.587  1.00  0.00    -0.082 Cl
HETATM   30  C15 UNL     1       1.101   4.446   7.939  1.00  0.00     0.026 A 
HETATM   31  C16 UNL     1       2.011   3.424   7.752  1.00  0.00     0.003 A 
HETATM   32  C17 UNL     1       1.617   2.134   7.992  1.00  0.00     0.026 A 
HETATM   33  C18 UNL     1       0.319   1.885   8.417  1.00  0.00     0.063 A 
HETATM   34 CL2  UNL     1      -0.150   0.222   8.713  1.00  0.00    -0.082 Cl
ENDBRANCH  24  27
ENDBRANCH  22  23
BRANCH  22  35
HETATM   35  O3  UNL     1      -3.649   0.888  11.336  1.00  0.00    -0.254 OA
HETATM   36 CL3  UNL     1      -2.935  -0.381  10.491  1.00  0.00     0.064 Cl
ENDBRANCH  22  35
ENDBRANCH   1  22
TORSDOF 8
ENDMDL
MODEL 5
REMARK VINA RESULT: -8.558786277      3.503      7.339
REMARK  8 active torsions:
REMARK  status: ('A' for Active; 'I' for Inactive)
REMARK    1  A    between atoms: C2_2  and  C3_3 
REMARK    2  A    between atoms: C3_3  and  O1_4 
REMARK    3  A    between atoms: C3_3  and  C12_22 
REMARK    4  A    between atoms: O1_4  and  N1_5 
REMARK    5  A    between atoms: C7_14  and  N4_15 
REMARK    6  A    between atoms: C12_22  and  N5_23 
REMARK    7  A    between atoms: C12_22  and  O3_35 
REMARK    8  A    between atoms: N6_25  and  C13_27 
ROOT
HETATM    1  C3  UNL     1      -3.998   3.269  11.581  1.00  0.00     0.197 C 
ENDROOT
BRANCH   1   2
HETATM    2  C2  UNL     1      -3.099   3.191  12.801  1.00  0.00     0.034 C 
HETATM    3  C1  UNL     1      -3.968   3.517  14.012  1.00  0.00     0.008 C 
ENDBRANCH   1   2
BRANCH   1   4
HETATM    4  O1  UNL     1      -3.809   4.494  11.010  1.00  0.00    -0.288 OA
BRANCH   4   5
HETATM    5  N1  UNL     1      -4.878   5.220  10.776  1.00  0.00    -0.157 NA
HETATM    6  C4  UNL     1      -5.422   5.962  11.841  1.00  0.00     0.121 C 
HETATM    7  C5  UNL     1      -6.219   7.017  11.163  1.00  0.00     0.061 A 
HETATM    8  N2  UNL     1      -7.287   7.761  11.519  1.00  0.00    -0.307 N 
HETATM    9  C8  UNL     1      -5.642   7.192   9.922  1.00  0.00     0.038 A 
HETATM   10  C6  UNL     1      -7.836   8.686  10.716  1.00  0.00     0.326 A 
ATOM     11  H2  UNL     1      -7.696   7.615  12.441  1.00  0.00     0.170 HD
HETATM   12  O2  UNL     1      -8.838   9.375  11.068  1.00  0.00    -0.247 OA
HETATM   13  N3  UNL     1      -7.265   8.844   9.517  1.00  0.00    -0.294 N 
HETATM   14  C7  UNL     1      -6.187   8.134   9.083  1.00  0.00     0.113 A 
ATOM     15  H3  UNL     1      -7.663   9.541   8.888  1.00  0.00     0.172 HD
HETATM   16  C9  UNL     1      -4.501   6.244   9.785  1.00  0.00     0.069 C 
HETATM   17  C10 UNL     1      -3.246   6.960  10.144  1.00  0.00     0.040 C 
HETATM   18  C11 UNL     1      -4.445   5.558   8.447  1.00  0.00     0.040 C 
BRANCH  14  19
HETATM   19  N4  UNL     1      -5.690   8.349   7.921  1.00  0.00    -0.385 N 
ATOM     20  H42 UNL     1      -4.681   8.373   7.776  1.00  0.00     0.157 HD
ATOM     21  H41 UNL     1      -6.300   8.508   7.118  1.00  0.00     0.157 HD
ENDBRANCH  14  19
ENDBRANCH   4   5
ENDBRANCH   1   4
BRANCH   1  22
HETATM   22  C12 UNL     1      -3.540   2.123  10.668  1.00  0.00     0.289 C 
BRANCH  22  23
HETATM   23  N5  UNL     1      -2.196   2.432  10.245  1.00  0.00    -0.303 N 
HETATM   24  N6  UNL     1      -1.869   2.569   9.027  1.00  0.00    -0.299 N 
ATOM     25  H6  UNL     1      -2.594   2.454   8.319  1.00  0.00     0.186 HD
ATOM     26  H5  UNL     1      -1.476   2.546  10.958  1.00  0.00     0.183 HD
BRANCH  24  27
HETATM   27  C13 UNL     1      -0.566   2.870   8.598  1.00  0.00     0.091 A 
HETATM   28  C14 UNL     1       0.393   1.870   8.415  1.00  0.00     0.063 A 
HETATM   29 CL1  UNL     1      -0.032   0.192   8.725  1.00  0.00    -0.082 Cl
HETATM   30  C15 UNL     1       1.652   2.203   7.997  1.00  0.00     0.026 A 
HETATM   31  C16 UNL     1       2.013   3.513   7.746  1.00  0.00     0.003 A 
HETATM   32  C17 UNL     1       1.080   4.501   7.922  1.00  0.00     0.026 A 
HETATM   33  C18 UNL     1      -0.198   4.165   8.346  1.00  0.00     0.063 A 
HETATM   34 CL2  UNL     1      -1.364   5.457   8.562  1.00  0.00    -0.082 Cl
ENDBRANCH  24  27
ENDBRANCH  22  23
BRANCH  22  35
HETATM   35  O3  UNL     1      -3.625   0.898  11.315  1.00  0.00    -0.254 OA
HETATM   36 CL3  UNL     1      -2.904  -0.357  10.455  1.00  0.00     0.064 Cl
ENDBRANCH  22  35
ENDBRANCH   1  22
TORSDOF 8
ENDMDL
