MODEL 1
REMARK VINA RESULT: -9.428113827      0.000      0.000
REMARK  8 active torsions:
REMARK  status: ('A' for Active; 'I' for Inactive)
REMARK    1  A    between atoms: O1_2  and  C2_3 
REMARK    2  A    between atoms: C2_3  and  C3_4 
REMARK    3  A    between atoms: C5_10  and  N3_11 
REMARK    4  A    between atoms: C6_16  and  N5_17 
REMARK    5  A    between atoms: N5_17  and  C7_19 
REMARK    6  A    between atoms: C10_22  and  O2_23 
REMARK    7  A    between atoms: O2_23  and  C11_24 
REMARK    8  A    between atoms: C11_24  and  C12_25 
ROOT
HETATM    1  C3  UNL     1      -4.242   3.224  12.827  1.00  0.00     0.125 A 
HETATM    2  N1  UNL     1      -3.667   2.436  13.754  1.00  0.00    -0.327 N 
ATOM      3  H1  UNL     1      -3.886   2.465  14.750  1.00  0.00     0.169 HD
HETATM    4  C4  UNL     1      -2.768   1.606  13.198  1.00  0.00     0.154 A 
HETATM    5  N2  UNL     1      -1.936   0.649  13.634  1.00  0.00    -0.174 N 
ATOM      6  H2  UNL     1      -1.929   0.441  14.632  1.00  0.00     0.186 HD
HETATM    7  C5  UNL     1      -1.111  -0.055  12.839  1.00  0.00     0.679 A 
HETATM    8  N4  UNL     1      -1.102   0.201  11.514  1.00  0.00    -0.174 N 
ATOM      9  H4  UNL     1      -0.484  -0.322  10.894  1.00  0.00     0.186 HD
HETATM   10  C6  UNL     1      -1.915   1.152  11.017  1.00  0.00     0.153 A 
HETATM   11  C20 UNL     1      -2.765   1.874  11.845  1.00  0.00     0.142 A 
HETATM   12  N6  UNL     1      -3.663   2.854  11.651  1.00  0.00    -0.233 N 
HETATM   13 CL3  UNL     1      -4.054   3.571  10.115  1.00  0.00     0.020 Cl
ENDROOT
BRANCH  10  14
HETATM   14  N5  UNL     1      -1.957   1.447   9.765  1.00  0.00    -0.340 N 
ATOM     15  H5  UNL     1      -2.778   1.156   9.234  1.00  0.00     0.167 HD
BRANCH  14  16
HETATM   16  C7  UNL     1      -0.936   2.149   9.078  1.00  0.00     0.035 A 
HETATM   17  C8  UNL     1      -1.173   3.457   8.712  1.00  0.00     0.032 A 
HETATM   18  C9  UNL     1      -0.209   4.192   8.038  1.00  0.00     0.041 A 
HETATM   19  C10 UNL     1       1.013   3.633   7.717  1.00  0.00     0.091 A 
HETATM   20  C18 UNL     1       1.258   2.325   8.080  1.00  0.00     0.069 A 
HETATM   21 CL2  UNL     1       2.811   1.625   7.668  1.00  0.00    -0.081 Cl
HETATM   22  C19 UNL     1       0.289   1.611   8.749  1.00  0.00     0.056 A 
BRANCH  19  23
HETATM   23  O2  UNL     1       2.003   4.342   7.041  1.00  0.00    -0.345 OA
BRANCH  23  24
HETATM   24  C11 UNL     1       1.827   5.740   6.913  1.00  0.00     0.214 C 
BRANCH  24  25
HETATM   25  C12 UNL     1       1.590   6.106   5.492  1.00  0.00    -0.033 A 
HETATM   26  C13 UNL     1       2.680   6.114   4.637  1.00  0.00     0.009 A 
HETATM   27  C14 UNL     1       2.499   6.447   3.319  1.00  0.00     0.002 A 
HETATM   28  C15 UNL     1       1.230   6.769   2.862  1.00  0.00     0.024 A 
HETATM   29  C16 UNL     1       0.141   6.757   3.733  1.00  0.00     0.034 A 
HETATM   30 CL1  UNL     1      -1.469   7.158   3.183  1.00  0.00    -0.084 Cl
HETATM   31  C17 UNL     1       0.313   6.419   5.077  1.00  0.00     0.033 A 
ENDBRANCH  24  25
ENDBRANCH  23  24
ENDBRANCH  19  23
ENDBRANCH  14  16
ENDBRANCH  10  14
BRANCH   7  32
HETATM   32  N3  UNL     1      -0.318  -0.974  13.282  1.00  0.00    -0.234 N 
ATOM     33  H32 UNL     1      -0.687  -1.634  13.967  1.00  0.00     0.174 HD
ATOM     34  H31 UNL     1       0.652  -1.066  12.980  1.00  0.00     0.174 HD
ENDBRANCH   7  32
BRANCH   1  35
HETATM   35  C2  UNL     1      -5.279   4.272  13.011  1.00  0.00     0.245 C 
BRANCH  35  36
HETATM   36  O1  UNL     1      -4.743   5.526  13.093  1.00  0.00    -0.389 OA
HETATM   37  C1  UNL     1      -5.107   6.265  11.987  1.00  0.00     0.202 C 
ENDBRANCH  35  36
ENDBRANCH   1  35
TORSDOF 8
ENDMDL
MODEL 2
REMARK VINA RESULT: -9.399213287      0.992      1.318
REMARK  8 active torsions:
REMARK  status: ('A' for Active; 'I' for Inactive)
REMARK    1  A    between atoms: O1_2  and  C2_3 
REMARK    2  A    between atoms: C2_3  and  C3_4 
REMARK    3  A    between atoms: C5_10  and  N3_11 
REMARK    4  A    between atoms: C6_16  and  N5_17 
REMARK    5  A    between atoms: N5_17  and  C7_19 
REMARK    6  A    between atoms: C10_22  and  O2_23 
REMARK    7  A    between atoms: O2_23  and  C11_24 
REMARK    8  A    between atoms: C11_24  and  C12_25 
ROOT
HETATM    1  C3  UNL     1      -4.243   3.222  12.817  1.00  0.00     0.125 A 
HETATM    2  N1  UNL     1      -3.676   2.436  13.751  1.00  0.00    -0.327 N 
ATOM      3  H1  UNL     1      -3.902   2.467  14.745  1.00  0.00     0.169 HD
HETATM    4  C4  UNL     1      -2.773   1.604  13.203  1.00  0.00     0.154 A 
HETATM    5  N2  UNL     1      -1.945   0.647  13.647  1.00  0.00    -0.174 N 
ATOM      6  H2  UNL     1      -1.945   0.442  14.646  1.00  0.00     0.186 HD
HETATM    7  C5  UNL     1      -1.114  -0.059  12.860  1.00  0.00     0.679 A 
HETATM    8  N4  UNL     1      -1.095   0.195  11.535  1.00  0.00    -0.174 N 
ATOM      9  H4  UNL     1      -0.472  -0.330  10.921  1.00  0.00     0.186 HD
HETATM   10  C6  UNL     1      -1.904   1.145  11.029  1.00  0.00     0.153 A 
HETATM   11  C20 UNL     1      -2.760   1.869  11.850  1.00  0.00     0.142 A 
HETATM   12  N6  UNL     1      -3.656   2.849  11.647  1.00  0.00    -0.233 N 
HETATM   13 CL3  UNL     1      -4.035   3.563  10.106  1.00  0.00     0.020 Cl
ENDROOT
BRANCH  10  14
HETATM   14  N5  UNL     1      -1.937   1.437   9.777  1.00  0.00    -0.340 N 
ATOM     15  H5  UNL     1      -2.761   1.160   9.243  1.00  0.00     0.167 HD
BRANCH  14  16
HETATM   16  C7  UNL     1      -0.900   2.118   9.091  1.00  0.00     0.035 A 
HETATM   17  C8  UNL     1      -1.108   3.431   8.728  1.00  0.00     0.032 A 
HETATM   18  C9  UNL     1      -0.128   4.146   8.056  1.00  0.00     0.041 A 
HETATM   19  C10 UNL     1       1.081   3.561   7.732  1.00  0.00     0.091 A 
HETATM   20  C18 UNL     1       1.297   2.247   8.092  1.00  0.00     0.069 A 
HETATM   21 CL2  UNL     1       2.833   1.513   7.678  1.00  0.00    -0.081 Cl
HETATM   22  C19 UNL     1       0.312   1.553   8.759  1.00  0.00     0.056 A 
BRANCH  19  23
HETATM   23  O2  UNL     1       2.087   4.249   7.057  1.00  0.00    -0.345 OA
BRANCH  23  24
HETATM   24  C11 UNL     1       1.944   5.651   6.937  1.00  0.00     0.214 C 
BRANCH  24  25
HETATM   25  C12 UNL     1       1.732   6.031   5.515  1.00  0.00    -0.033 A 
HETATM   26  C13 UNL     1       0.466   6.451   5.141  1.00  0.00     0.009 A 
HETATM   27  C14 UNL     1       0.233   6.809   3.838  1.00  0.00     0.002 A 
HETATM   28  C15 UNL     1       1.266   6.746   2.915  1.00  0.00     0.024 A 
HETATM   29  C16 UNL     1       2.537   6.321   3.304  1.00  0.00     0.034 A 
HETATM   30 CL1  UNL     1       3.857   6.232   2.162  1.00  0.00    -0.084 Cl
HETATM   31  C17 UNL     1       2.785   5.954   4.629  1.00  0.00     0.033 A 
ENDBRANCH  24  25
ENDBRANCH  23  24
ENDBRANCH  19  23
ENDBRANCH  14  16
ENDBRANCH  10  14
BRANCH   7  32
HETATM   32  N3  UNL     1      -0.324  -0.977  13.311  1.00  0.00    -0.234 N 
ATOM     33  H32 UNL     1       0.597  -0.692  13.644  1.00  0.00     0.174 HD
ATOM     34  H31 UNL     1      -0.581  -1.963  13.348  1.00  0.00     0.174 HD
ENDBRANCH   7  32
BRANCH   1  35
HETATM   35  C2  UNL     1      -5.281   4.271  12.992  1.00  0.00     0.245 C 
BRANCH  35  36
HETATM   36  O1  UNL     1      -4.745   5.525  13.078  1.00  0.00    -0.389 OA
HETATM   37  C1  UNL     1      -5.085   6.258  11.961  1.00  0.00     0.202 C 
ENDBRANCH  35  36
ENDBRANCH   1  35
TORSDOF 8
ENDMDL
MODEL 3
REMARK VINA RESULT: -9.220695205      2.084      2.919
REMARK  8 active torsions:
REMARK  status: ('A' for Active; 'I' for Inactive)
REMARK    1  A    between atoms: O1_2  and  C2_3 
REMARK    2  A    between atoms: C2_3  and  C3_4 
REMARK    3  A    between atoms: C5_10  and  N3_11 
REMARK    4  A    between atoms: C6_16  and  N5_17 
REMARK    5  A    between atoms: N5_17  and  C7_19 
REMARK    6  A    between atoms: C10_22  and  O2_23 
REMARK    7  A    between atoms: O2_23  and  C11_24 
REMARK    8  A    between atoms: C11_24  and  C12_25 
ROOT
HETATM    1  C3  UNL     1      -5.582   6.236  11.410  1.00  0.00     0.125 A 
HETATM    2  N1  UNL     1      -5.496   5.607  12.596  1.00  0.00    -0.327 N 
ATOM      3  H1  UNL     1      -5.917   5.947  13.460  1.00  0.00     0.169 HD
HETATM    4  C4  UNL     1      -4.782   4.473  12.494  1.00  0.00     0.154 A 
HETATM    5  N2  UNL     1      -4.396   3.495  13.327  1.00  0.00    -0.174 N 
ATOM      6  H2  UNL     1      -4.679   3.560  14.304  1.00  0.00     0.186 HD
HETATM    7  C5  UNL     1      -3.659   2.433  12.956  1.00  0.00     0.679 A 
HETATM    8  N4  UNL     1      -3.271   2.323  11.667  1.00  0.00    -0.174 N 
ATOM      9  H4  UNL     1      -2.712   1.526  11.366  1.00  0.00     0.186 HD
HETATM   10  C6  UNL     1      -3.628   3.274  10.784  1.00  0.00     0.153 A 
HETATM   11  C20 UNL     1      -4.390   4.367  11.176  1.00  0.00     0.142 A 
HETATM   12  N6  UNL     1      -4.887   5.445  10.546  1.00  0.00    -0.233 N 
HETATM   13 CL3  UNL     1      -4.685   5.805   8.856  1.00  0.00     0.020 Cl
ENDROOT
BRANCH  10  14
HETATM   14  N5  UNL     1      -3.294   3.231   9.542  1.00  0.00    -0.340 N 
ATOM     15  H5  UNL     1      -4.037   3.284   8.845  1.00  0.00     0.167 HD
BRANCH  14  16
HETATM   16  C7  UNL     1      -1.958   3.117   9.081  1.00  0.00     0.035 A 
HETATM   17  C8  UNL     1      -1.299   4.262   8.691  1.00  0.00     0.032 A 
HETATM   18  C9  UNL     1       0.008   4.209   8.232  1.00  0.00     0.041 A 
HETATM   19  C10 UNL     1       0.684   3.007   8.154  1.00  0.00     0.091 A 
HETATM   20  C18 UNL     1       0.032   1.855   8.543  1.00  0.00     0.069 A 
HETATM   21 CL2  UNL     1       0.896   0.334   8.442  1.00  0.00    -0.081 Cl
HETATM   22  C19 UNL     1      -1.267   1.927   8.997  1.00  0.00     0.056 A 
BRANCH  19  23
HETATM   23  O2  UNL     1       1.997   2.916   7.698  1.00  0.00    -0.345 OA
BRANCH  23  24
HETATM   24  C11 UNL     1       2.806   4.070   7.819  1.00  0.00     0.214 C 
BRANCH  24  25
HETATM   25  C12 UNL     1       3.184   4.582   6.476  1.00  0.00    -0.033 A 
HETATM   26  C13 UNL     1       4.221   3.948   5.812  1.00  0.00     0.009 A 
HETATM   27  C14 UNL     1       4.598   4.394   4.570  1.00  0.00     0.002 A 
HETATM   28  C15 UNL     1       3.936   5.471   4.000  1.00  0.00     0.024 A 
HETATM   29  C16 UNL     1       2.893   6.101   4.679  1.00  0.00     0.034 A 
HETATM   30 CL1  UNL     1       2.042   7.459   3.982  1.00  0.00    -0.084 Cl
HETATM   31  C17 UNL     1       2.502   5.655   5.943  1.00  0.00     0.033 A 
ENDBRANCH  24  25
ENDBRANCH  23  24
ENDBRANCH  19  23
ENDBRANCH  14  16
ENDBRANCH  10  14
BRANCH   7  32
HETATM   32  N3  UNL     1      -3.298   1.502  13.777  1.00  0.00    -0.234 N 
ATOM     33  H32 UNL     1      -3.117   1.765  14.746  1.00  0.00     0.174 HD
ATOM     34  H31 UNL     1      -3.186   0.527  13.499  1.00  0.00     0.174 HD
ENDBRANCH   7  32
BRANCH   1  35
HETATM   35  C2  UNL     1      -6.273   7.510  11.082  1.00  0.00     0.245 C 
BRANCH  35  36
HETATM   36  O1  UNL     1      -7.399   7.313  10.332  1.00  0.00    -0.389 OA
HETATM   37  C1  UNL     1      -7.800   8.506   9.767  1.00  0.00     0.202 C 
ENDBRANCH  35  36
ENDBRANCH   1  35
TORSDOF 8
ENDMDL
MODEL 4
REMARK VINA RESULT: -9.174111264      2.455      4.623
REMARK  8 active torsions:
REMARK  status: ('A' for Active; 'I' for Inactive)
REMARK    1  A    between atoms: O1_2  and  C2_3 
REMARK    2  A    between atoms: C2_3  and  C3_4 
REMARK    3  A    between atoms: C5_10  and  N3_11 
REMARK    4  A    between atoms: C6_16  and  N5_17 
REMARK    5  A    between atoms: N5_17  and  C7_19 
REMARK    6  A    between atoms: C10_22  and  O2_23 
REMARK    7  A    between atoms: O2_23  and  C11_24 
REMARK    8  A    between atoms: C11_24  and  C12_25 
ROOT
HETATM    1  C3  UNL     1      -1.838   0.937  13.199  1.00  0.00     0.125 A 
HETATM    2  N1  UNL     1      -2.541   1.737  14.021  1.00  0.00    -0.327 N 
ATOM      3  H1  UNL     1      -2.513   1.685  15.040  1.00  0.00     0.169 HD
HETATM    4  C4  UNL     1      -3.284   2.616  13.327  1.00  0.00     0.154 A 
HETATM    5  N2  UNL     1      -4.140   3.605  13.621  1.00  0.00    -0.174 N 
ATOM      6  H2  UNL     1      -4.324   3.799  14.606  1.00  0.00     0.186 HD
HETATM    7  C5  UNL     1      -4.771   4.357  12.703  1.00  0.00     0.679 A 
HETATM    8  N4  UNL     1      -4.544   4.120  11.394  1.00  0.00    -0.174 N 
ATOM      9  H4  UNL     1      -5.013   4.680  10.682  1.00  0.00     0.186 HD
HETATM   10  C6  UNL     1      -3.694   3.139  11.035  1.00  0.00     0.153 A 
HETATM   11  C20 UNL     1      -3.046   2.367  11.991  1.00  0.00     0.142 A 
HETATM   12  N6  UNL     1      -2.170   1.350  11.945  1.00  0.00    -0.233 N 
HETATM   13 CL3  UNL     1      -1.531   0.637  10.493  1.00  0.00     0.020 Cl
ENDROOT
BRANCH  10  14
HETATM   14  N5  UNL     1      -3.432   2.861   9.807  1.00  0.00    -0.340 N 
ATOM     15  H5  UNL     1      -3.915   2.069   9.383  1.00  0.00     0.167 HD
BRANCH  14  16
HETATM   16  C7  UNL     1      -2.515   3.585   9.005  1.00  0.00     0.035 A 
HETATM   17  C8  UNL     1      -1.414   2.922   8.508  1.00  0.00     0.032 A 
HETATM   18  C9  UNL     1      -0.484   3.581   7.718  1.00  0.00     0.041 A 
HETATM   19  C10 UNL     1      -0.638   4.919   7.408  1.00  0.00     0.091 A 
HETATM   20  C18 UNL     1      -1.737   5.590   7.901  1.00  0.00     0.069 A 
HETATM   21 CL2  UNL     1      -1.925   7.286   7.503  1.00  0.00    -0.081 Cl
HETATM   22  C19 UNL     1      -2.650   4.919   8.684  1.00  0.00     0.056 A 
BRANCH  19  23
HETATM   23  O2  UNL     1       0.276   5.612   6.618  1.00  0.00    -0.345 OA
BRANCH  23  24
HETATM   24  C11 UNL     1       1.518   5.948   7.206  1.00  0.00     0.214 C 
BRANCH  24  25
HETATM   25  C12 UNL     1       2.598   5.078   6.671  1.00  0.00    -0.033 A 
HETATM   26  C13 UNL     1       3.197   5.451   5.479  1.00  0.00     0.009 A 
HETATM   27  C14 UNL     1       4.197   4.672   4.955  1.00  0.00     0.002 A 
HETATM   28  C15 UNL     1       4.593   3.525   5.624  1.00  0.00     0.024 A 
HETATM   29  C16 UNL     1       3.982   3.159   6.824  1.00  0.00     0.034 A 
HETATM   30 CL1  UNL     1       4.463   1.718   7.689  1.00  0.00    -0.084 Cl
HETATM   31  C17 UNL     1       2.963   3.945   7.367  1.00  0.00     0.033 A 
ENDBRANCH  24  25
ENDBRANCH  23  24
ENDBRANCH  19  23
ENDBRANCH  14  16
ENDBRANCH  10  14
BRANCH   7  32
HETATM   32  N3  UNL     1      -5.593   5.306  13.012  1.00  0.00    -0.234 N 
ATOM     33  H32 UNL     1      -5.632   5.606  13.986  1.00  0.00     0.174 HD
ATOM     34  H31 UNL     1      -6.199   5.762  12.329  1.00  0.00     0.174 HD
ENDBRANCH   7  32
BRANCH   1  35
HETATM   35  C2  UNL     1      -0.900  -0.161  13.550  1.00  0.00     0.245 C 
BRANCH  35  36
HETATM   36  O1  UNL     1      -0.016   0.201  14.527  1.00  0.00    -0.389 OA
HETATM   37  C1  UNL     1       0.296  -0.893  15.306  1.00  0.00     0.202 C 
ENDBRANCH  35  36
ENDBRANCH   1  35
TORSDOF 8
ENDMDL
MODEL 5
REMARK VINA RESULT: -9.115125408      4.351      9.404
REMARK  8 active torsions:
REMARK  status: ('A' for Active; 'I' for Inactive)
REMARK    1  A    between atoms: O1_2  and  C2_3 
REMARK    2  A    between atoms: C2_3  and  C3_4 
REMARK    3  A    between atoms: C5_10  and  N3_11 
REMARK    4  A    between atoms: C6_16  and  N5_17 
REMARK    5  A    between atoms: N5_17  and  C7_19 
REMARK    6  A    between atoms: C10_22  and  O2_23 
REMARK    7  A    between atoms: O2_23  and  C11_24 
REMARK    8  A    between atoms: C11_24  and  C12_25 
ROOT
HETATM    1  C3  UNL     1       1.177   6.829   5.401  1.00  0.00     0.125 A 
HETATM    2  N1  UNL     1       0.425   7.046   4.306  1.00  0.00    -0.327 N 
ATOM      3  H1  UNL     1       0.767   6.970   3.348  1.00  0.00     0.169 HD
HETATM    4  C4  UNL     1      -0.834   7.376   4.638  1.00  0.00     0.154 A 
HETATM    5  N2  UNL     1      -1.960   7.685   3.978  1.00  0.00    -0.174 N 
ATOM      6  H2  UNL     1      -1.928   7.692   2.958  1.00  0.00     0.186 HD
HETATM    7  C5  UNL     1      -3.127   7.986   4.573  1.00  0.00     0.679 A 
HETATM    8  N4  UNL     1      -3.195   7.983   5.921  1.00  0.00    -0.174 N 
ATOM      9  H4  UNL     1      -4.071   8.209   6.391  1.00  0.00     0.186 HD
HETATM   10  C6  UNL     1      -2.097   7.681   6.640  1.00  0.00     0.153 A 
HETATM   11  C20 UNL     1      -0.896   7.370   6.016  1.00  0.00     0.142 A 
HETATM   12  N6  UNL     1       0.332   7.037   6.448  1.00  0.00    -0.233 N 
HETATM   13 CL3  UNL     1       0.806   6.885   8.115  1.00  0.00     0.020 Cl
ENDROOT
BRANCH  10  14
HETATM   14  N5  UNL     1      -2.092   7.659   7.926  1.00  0.00    -0.340 N 
ATOM     15  H5  UNL     1      -1.550   8.372   8.413  1.00  0.00     0.167 HD
BRANCH  14  16
HETATM   16  C7  UNL     1      -2.792   6.706   8.708  1.00  0.00     0.035 A 
HETATM   17  C8  UNL     1      -2.440   5.379   8.594  1.00  0.00     0.032 A 
HETATM   18  C9  UNL     1      -3.091   4.405   9.335  1.00  0.00     0.041 A 
HETATM   19  C10 UNL     1      -4.108   4.739  10.208  1.00  0.00     0.091 A 
HETATM   20  C18 UNL     1      -4.466   6.065  10.330  1.00  0.00     0.069 A 
HETATM   21 CL2  UNL     1      -5.757   6.481  11.439  1.00  0.00    -0.081 Cl
HETATM   22  C19 UNL     1      -3.808   7.019   9.585  1.00  0.00     0.056 A 
BRANCH  19  23
HETATM   23  O2  UNL     1      -4.783   3.787  10.968  1.00  0.00    -0.345 OA
BRANCH  23  24
HETATM   24  C11 UNL     1      -4.380   3.628  12.315  1.00  0.00     0.214 C 
BRANCH  24  25
HETATM   25  C12 UNL     1      -3.391   2.525  12.434  1.00  0.00    -0.033 A 
HETATM   26  C13 UNL     1      -2.539   2.536  13.527  1.00  0.00     0.009 A 
HETATM   27  C14 UNL     1      -1.613   1.534  13.669  1.00  0.00     0.002 A 
HETATM   28  C15 UNL     1      -1.543   0.526  12.719  1.00  0.00     0.024 A 
HETATM   29  C16 UNL     1      -2.406   0.526  11.623  1.00  0.00     0.034 A 
HETATM   30 CL1  UNL     1      -2.340  -0.732  10.412  1.00  0.00    -0.084 Cl
HETATM   31  C17 UNL     1      -3.353   1.541  11.468  1.00  0.00     0.033 A 
ENDBRANCH  24  25
ENDBRANCH  23  24
ENDBRANCH  19  23
ENDBRANCH  14  16
ENDBRANCH  10  14
BRANCH   7  32
HETATM   32  N3  UNL     1      -4.200   8.282   3.915  1.00  0.00    -0.234 N 
ATOM     33  H32 UNL     1      -4.147   8.293   2.896  1.00  0.00     0.174 HD
ATOM     34  H31 UNL     1      -5.087   8.503   4.366  1.00  0.00     0.174 HD
ENDBRANCH   7  32
BRANCH   1  35
HETATM   35  C2  UNL     1       2.611   6.447   5.483  1.00  0.00     0.245 C 
BRANCH  35  36
HETATM   36  O1  UNL     1       2.785   5.180   5.962  1.00  0.00    -0.389 OA
HETATM   37  C1  UNL     1       4.105   4.804   5.825  1.00  0.00     0.202 C 
ENDBRANCH  35  36
ENDBRANCH   1  35
TORSDOF 8
ENDMDL
