MODEL 1
REMARK VINA RESULT: -7.412298042      0.000      0.000
REMARK  8 active torsions:
REMARK  status: ('A' for Active; 'I' for Inactive)
REMARK    1  A    between atoms: C2_2  and  C3_3 
REMARK    2  A    between atoms: C7_13  and  C8_14 
REMARK    3  A    between atoms: C8_14  and  C9_15 
REMARK    4  A    between atoms: C9_15  and  C10_16 
REMARK    5  A    between atoms: C10_16  and  C11_17 
REMARK    6  A    between atoms: C11_17  and  C12_18 
REMARK    7  A    between atoms: C15_24  and  C16_25 
REMARK    8  A    between atoms: C20_31  and  C21_32 
REMARK       I    between atoms: C21_32  and  N4_34 
ROOT
HETATM    1  C3  UNL     1     -16.433   7.846  -0.201  1.00  0.00     0.189 C 
HETATM    2  C4  UNL     1     -16.651   7.896  -1.691  1.00  0.00     0.055 C 
HETATM    3  N1  UNL     1     -17.500   8.551   0.469  1.00  0.00    -0.051 N 
ATOM      4  H11 UNL     1     -17.564   9.516   0.145  1.00  0.00     0.279 HD
ATOM      5  H12 UNL     1     -17.270   8.723   1.448  1.00  0.00     0.279 HD
HETATM    6  C5  UNL     1     -18.774   7.870   0.343  1.00  0.00     0.336 C 
HETATM    7  C6  UNL     1     -19.637   8.250   1.486  1.00  0.00     0.244 C 
HETATM    8  O1  UNL     1     -19.942   9.499   1.491  1.00  0.00    -0.272 OA
HETATM    9  N2  UNL     1     -20.126   7.443   2.506  1.00  0.00    -0.346 N 
ATOM     10  H2  UNL     1     -19.924   7.766   3.453  1.00  0.00     0.163 HD
HETATM   11  C7  UNL     1     -20.873   6.223   2.421  1.00  0.00     0.176 C 
HETATM   12  C13 UNL     1     -20.636   5.391   1.237  1.00  0.00     0.243 C 
HETATM   13  O2  UNL     1     -21.230   5.819   0.174  1.00  0.00    -0.271 OA
HETATM   14  N3  UNL     1     -19.891   4.227   1.055  1.00  0.00    -0.340 N 
HETATM   15  C14 UNL     1     -20.461   3.173   0.163  1.00  0.00     0.153 C 
HETATM   16  C15 UNL     1     -18.613   3.827   1.580  1.00  0.00     0.190 C 
HETATM   17  C19 UNL     1     -17.943   4.664   2.541  1.00  0.00     0.287 C 
HETATM   18  O3  UNL     1     -18.239   4.371   3.770  1.00  0.00    -0.262 OA
HETATM   19  O4  UNL     1     -17.080   5.678   2.433  1.00  0.00    -0.268 OA
HETATM   20  C20 UNL     1     -16.024   6.110   1.722  1.00  0.00     0.194 C 
HETATM   21  C23 UNL     1     -16.242   6.455   0.290  1.00  0.00     0.224 C 
HETATM   22  O6  UNL     1     -16.272   5.570  -0.579  1.00  0.00    -0.287 OA
ENDROOT
BRANCH  11  23
HETATM   23  C8  UNL     1     -22.348   6.674   2.493  1.00  0.00     0.035 C 
BRANCH  23  24
HETATM   24  C9  UNL     1     -23.178   5.617   3.227  1.00  0.00     0.002 C 
BRANCH  24  25
HETATM   25  C10 UNL     1     -24.601   6.032   3.054  1.00  0.00     0.001 C 
BRANCH  25  26
HETATM   26  C11 UNL     1     -25.605   5.439   3.961  1.00  0.00     0.011 C 
BRANCH  26  27
HETATM   27  C12 UNL     1     -26.352   4.281   3.405  1.00  0.00     0.085 C 
HETATM   28 BR1  UNL     1     -28.176   4.126   3.977  1.00  0.00    -0.097 Br
ENDBRANCH  26  27
ENDBRANCH  25  26
ENDBRANCH  24  25
ENDBRANCH  23  24
ENDBRANCH  11  23
BRANCH  16  29
HETATM   29  C16 UNL     1     -18.834   2.403   2.127  1.00  0.00     0.010 C 
HETATM   30  C17 UNL     1     -19.839   2.382   3.254  1.00  0.00     0.012 C 
HETATM   31  C18 UNL     1     -17.582   1.756   2.597  1.00  0.00     0.012 C 
ENDBRANCH  16  29
BRANCH   1  32
HETATM   32  C2  UNL     1     -15.156   8.652   0.075  1.00  0.00     0.042 C 
HETATM   33  C1  UNL     1     -15.491   9.755   1.076  1.00  0.00     0.008 C 
ENDBRANCH   1  32
BRANCH  20  34
HETATM   34  C21 UNL     1     -14.735   5.352   1.891  1.00  0.00     0.279 C 
HETATM   35  O5  UNL     1     -13.689   5.955   2.211  1.00  0.00    -0.265 OA
HETATM   36  N4  UNL     1     -14.678   3.964   1.694  1.00  0.00    -0.359 N 
HETATM   37  C22 UNL     1     -13.409   3.285   1.869  1.00  0.00     0.149 C 
ATOM     38  H4  UNL     1     -15.514   3.442   1.433  1.00  0.00     0.162 HD
ENDBRANCH  20  34
TORSDOF 8
ENDMDL
MODEL 2
REMARK VINA RESULT: -7.343451965      3.160      5.842
REMARK  8 active torsions:
REMARK  status: ('A' for Active; 'I' for Inactive)
REMARK    1  A    between atoms: C2_2  and  C3_3 
REMARK    2  A    between atoms: C7_13  and  C8_14 
REMARK    3  A    between atoms: C8_14  and  C9_15 
REMARK    4  A    between atoms: C9_15  and  C10_16 
REMARK    5  A    between atoms: C10_16  and  C11_17 
REMARK    6  A    between atoms: C11_17  and  C12_18 
REMARK    7  A    between atoms: C15_24  and  C16_25 
REMARK    8  A    between atoms: C20_31  and  C21_32 
REMARK       I    between atoms: C21_32  and  N4_34 
ROOT
HETATM    1  C3  UNL     1     -22.385   9.477   0.724  1.00  0.00     0.189 C 
HETATM    2  C4  UNL     1     -22.816   9.332  -0.712  1.00  0.00     0.055 C 
HETATM    3  N1  UNL     1     -23.096   8.521   1.542  1.00  0.00    -0.051 N 
ATOM      4  H11 UNL     1     -24.105   8.638   1.452  1.00  0.00     0.279 HD
ATOM      5  H12 UNL     1     -22.993   8.737   2.534  1.00  0.00     0.279 HD
HETATM    6  C5  UNL     1     -22.700   7.154   1.259  1.00  0.00     0.336 C 
HETATM    7  C6  UNL     1     -22.953   6.323   2.460  1.00  0.00     0.244 C 
HETATM    8  O1  UNL     1     -24.201   6.239   2.757  1.00  0.00    -0.272 OA
HETATM    9  N2  UNL     1     -22.033   5.661   3.263  1.00  0.00    -0.346 N 
ATOM     10  H2  UNL     1     -22.088   5.876   4.258  1.00  0.00     0.163 HD
HETATM   11  C7  UNL     1     -21.018   4.718   2.894  1.00  0.00     0.176 C 
HETATM   12  C13 UNL     1     -20.453   4.857   1.549  1.00  0.00     0.243 C 
HETATM   13  O2  UNL     1     -21.213   4.390   0.615  1.00  0.00    -0.271 OA
HETATM   14  N3  UNL     1     -19.249   5.396   1.099  1.00  0.00    -0.340 N 
HETATM   15  C14 UNL     1     -18.547   4.690  -0.015  1.00  0.00     0.153 C 
HETATM   16  C15 UNL     1     -18.518   6.563   1.515  1.00  0.00     0.190 C 
HETATM   17  C19 UNL     1     -18.978   7.327   2.645  1.00  0.00     0.287 C 
HETATM   18  O3  UNL     1     -18.467   6.934   3.772  1.00  0.00    -0.262 OA
HETATM   19  O4  UNL     1     -19.819   8.356   2.778  1.00  0.00    -0.268 OA
HETATM   20  C20 UNL     1     -20.209   9.499   2.187  1.00  0.00     0.194 C 
HETATM   21  C23 UNL     1     -20.908   9.404   0.876  1.00  0.00     0.224 C 
HETATM   22  O6  UNL     1     -20.266   9.257  -0.176  1.00  0.00    -0.287 OA
ENDROOT
BRANCH  11  23
HETATM   23  C8  UNL     1     -21.695   3.342   3.070  1.00  0.00     0.035 C 
BRANCH  23  24
HETATM   24  C9  UNL     1     -20.775   2.410   3.864  1.00  0.00     0.002 C 
BRANCH  24  25
HETATM   25  C10 UNL     1     -19.930   1.718   2.846  1.00  0.00     0.001 C 
BRANCH  25  26
HETATM   26  C11 UNL     1     -18.471   1.940   2.898  1.00  0.00     0.011 C 
BRANCH  26  27
HETATM   27  C12 UNL     1     -17.638   0.740   2.627  1.00  0.00     0.085 C 
HETATM   28 BR1  UNL     1     -18.589  -0.790   1.969  1.00  0.00    -0.097 Br
ENDBRANCH  26  27
ENDBRANCH  25  26
ENDBRANCH  24  25
ENDBRANCH  23  24
ENDBRANCH  11  23
BRANCH  16  29
HETATM   29  C16 UNL     1     -17.069   6.077   1.714  1.00  0.00     0.010 C 
HETATM   30  C17 UNL     1     -16.865   5.457   3.076  1.00  0.00     0.012 C 
HETATM   31  C18 UNL     1     -16.060   7.151   1.527  1.00  0.00     0.012 C 
ENDBRANCH  16  29
BRANCH   1  32
HETATM   32  C2  UNL     1     -22.866  10.862   1.181  1.00  0.00     0.042 C 
HETATM   33  C1  UNL     1     -24.343  10.759   1.556  1.00  0.00     0.008 C 
ENDBRANCH   1  32
BRANCH  20  34
HETATM   34  C21 UNL     1     -19.216  10.630   2.174  1.00  0.00     0.279 C 
HETATM   35  O5  UNL     1     -18.402  10.763   3.111  1.00  0.00    -0.265 OA
HETATM   36  N4  UNL     1     -19.182  11.553   1.118  1.00  0.00    -0.359 N 
HETATM   37  C22 UNL     1     -18.206  12.624   1.157  1.00  0.00     0.149 C 
ATOM     38  H4  UNL     1     -19.833  11.472   0.336  1.00  0.00     0.162 HD
ENDBRANCH  20  34
TORSDOF 8
ENDMDL
MODEL 3
REMARK VINA RESULT: -7.342507504      3.105      5.488
REMARK  8 active torsions:
REMARK  status: ('A' for Active; 'I' for Inactive)
REMARK    1  A    between atoms: C2_2  and  C3_3 
REMARK    2  A    between atoms: C7_13  and  C8_14 
REMARK    3  A    between atoms: C8_14  and  C9_15 
REMARK    4  A    between atoms: C9_15  and  C10_16 
REMARK    5  A    between atoms: C10_16  and  C11_17 
REMARK    6  A    between atoms: C11_17  and  C12_18 
REMARK    7  A    between atoms: C15_24  and  C16_25 
REMARK    8  A    between atoms: C20_31  and  C21_32 
REMARK       I    between atoms: C21_32  and  N4_34 
ROOT
HETATM    1  C3  UNL     1     -22.251   9.420   0.687  1.00  0.00     0.189 C 
HETATM    2  C4  UNL     1     -22.683   9.254  -0.747  1.00  0.00     0.055 C 
HETATM    3  N1  UNL     1     -22.987   8.502   1.524  1.00  0.00    -0.051 N 
ATOM      4  H11 UNL     1     -23.993   8.643   1.430  1.00  0.00     0.279 HD
ATOM      5  H12 UNL     1     -22.881   8.737   2.511  1.00  0.00     0.279 HD
HETATM    6  C5  UNL     1     -22.627   7.119   1.273  1.00  0.00     0.336 C 
HETATM    7  C6  UNL     1     -22.903   6.322   2.493  1.00  0.00     0.244 C 
HETATM    8  O1  UNL     1     -24.154   6.277   2.788  1.00  0.00    -0.272 OA
HETATM    9  N2  UNL     1     -22.002   5.654   3.312  1.00  0.00    -0.346 N 
ATOM     10  H2  UNL     1     -22.053   5.893   4.302  1.00  0.00     0.163 HD
HETATM   11  C7  UNL     1     -21.012   4.678   2.967  1.00  0.00     0.176 C 
HETATM   12  C13 UNL     1     -20.441   4.771   1.620  1.00  0.00     0.243 C 
HETATM   13  O2  UNL     1     -21.211   4.304   0.695  1.00  0.00    -0.271 OA
HETATM   14  N3  UNL     1     -19.223   5.268   1.161  1.00  0.00    -0.340 N 
HETATM   15  C14 UNL     1     -18.538   4.520   0.064  1.00  0.00     0.153 C 
HETATM   16  C15 UNL     1     -18.462   6.425   1.552  1.00  0.00     0.190 C 
HETATM   17  C19 UNL     1     -18.904   7.227   2.663  1.00  0.00     0.287 C 
HETATM   18  O3  UNL     1     -18.405   6.846   3.799  1.00  0.00    -0.262 OA
HETATM   19  O4  UNL     1     -19.719   8.280   2.771  1.00  0.00    -0.268 OA
HETATM   20  C20 UNL     1     -20.077   9.419   2.153  1.00  0.00     0.194 C 
HETATM   21  C23 UNL     1     -20.777   9.312   0.843  1.00  0.00     0.224 C 
HETATM   22  O6  UNL     1     -20.137   9.125  -0.204  1.00  0.00    -0.287 OA
ENDROOT
BRANCH  11  23
HETATM   23  C8  UNL     1     -21.724   3.324   3.172  1.00  0.00     0.035 C 
BRANCH  23  24
HETATM   24  C9  UNL     1     -20.733   2.295   3.723  1.00  0.00     0.002 C 
BRANCH  24  25
HETATM   25  C10 UNL     1     -21.550   1.093   4.063  1.00  0.00     0.001 C 
BRANCH  25  26
HETATM   26  C11 UNL     1     -22.249   0.402   2.960  1.00  0.00     0.011 C 
BRANCH  26  27
HETATM   27  C12 UNL     1     -21.655  -0.896   2.550  1.00  0.00     0.085 C 
HETATM   28 BR1  UNL     1     -20.206  -0.781   1.299  1.00  0.00    -0.097 Br
ENDBRANCH  26  27
ENDBRANCH  25  26
ENDBRANCH  24  25
ENDBRANCH  23  24
ENDBRANCH  11  23
BRANCH  16  29
HETATM   29  C16 UNL     1     -17.027   5.906   1.764  1.00  0.00     0.010 C 
HETATM   30  C17 UNL     1     -16.842   5.306   3.138  1.00  0.00     0.012 C 
HETATM   31  C18 UNL     1     -15.990   6.951   1.562  1.00  0.00     0.012 C 
ENDBRANCH  16  29
BRANCH   1  32
HETATM   32  C2  UNL     1     -22.697  10.827   1.111  1.00  0.00     0.042 C 
HETATM   33  C1  UNL     1     -24.134  10.743   1.621  1.00  0.00     0.008 C 
ENDBRANCH   1  32
BRANCH  20  34
HETATM   34  C21 UNL     1     -19.056  10.523   2.117  1.00  0.00     0.279 C 
HETATM   35  O5  UNL     1     -18.297  10.710   3.091  1.00  0.00    -0.265 OA
HETATM   36  N4  UNL     1     -18.932  11.360   0.997  1.00  0.00    -0.359 N 
HETATM   37  C22 UNL     1     -17.932  12.409   1.016  1.00  0.00     0.149 C 
ATOM     38  H4  UNL     1     -19.536  11.233   0.185  1.00  0.00     0.162 HD
ENDBRANCH  20  34
TORSDOF 8
ENDMDL
MODEL 4
REMARK VINA RESULT: -7.333089921      2.915      7.402
REMARK  8 active torsions:
REMARK  status: ('A' for Active; 'I' for Inactive)
REMARK    1  A    between atoms: C2_2  and  C3_3 
REMARK    2  A    between atoms: C7_13  and  C8_14 
REMARK    3  A    between atoms: C8_14  and  C9_15 
REMARK    4  A    between atoms: C9_15  and  C10_16 
REMARK    5  A    between atoms: C10_16  and  C11_17 
REMARK    6  A    between atoms: C11_17  and  C12_18 
REMARK    7  A    between atoms: C15_24  and  C16_25 
REMARK    8  A    between atoms: C20_31  and  C21_32 
REMARK       I    between atoms: C21_32  and  N4_34 
ROOT
HETATM    1  C3  UNL     1     -21.116   6.639   1.199  1.00  0.00     0.189 C 
HETATM    2  C4  UNL     1     -21.677   6.018  -0.053  1.00  0.00     0.055 C 
HETATM    3  N1  UNL     1     -20.254   5.692   1.866  1.00  0.00    -0.051 N 
ATOM      4  H11 UNL     1     -20.752   4.829   2.082  1.00  0.00     0.279 HD
ATOM      5  H12 UNL     1     -20.036   5.996   2.816  1.00  0.00     0.279 HD
HETATM    6  C5  UNL     1     -19.044   5.423   1.112  1.00  0.00     0.336 C 
HETATM    7  C6  UNL     1     -17.982   4.985   2.048  1.00  0.00     0.244 C 
HETATM    8  O1  UNL     1     -18.252   3.868   2.625  1.00  0.00    -0.272 OA
HETATM    9  N2  UNL     1     -16.786   5.619   2.358  1.00  0.00    -0.346 N 
ATOM     10  H2  UNL     1     -16.623   5.783   3.352  1.00  0.00     0.163 HD
HETATM   11  C7  UNL     1     -15.747   6.077   1.483  1.00  0.00     0.176 C 
HETATM   12  C13 UNL     1     -16.156   6.479   0.134  1.00  0.00     0.243 C 
HETATM   13  O2  UNL     1     -16.376   5.486  -0.660  1.00  0.00    -0.271 OA
HETATM   14  N3  UNL     1     -16.347   7.734  -0.442  1.00  0.00    -0.340 N 
HETATM   15  C14 UNL     1     -15.899   7.923  -1.855  1.00  0.00     0.153 C 
HETATM   16  C15 UNL     1     -16.928   8.940   0.083  1.00  0.00     0.190 C 
HETATM   17  C19 UNL     1     -17.334   8.994   1.463  1.00  0.00     0.287 C 
HETATM   18  O3  UNL     1     -16.397   9.418   2.256  1.00  0.00    -0.262 OA
HETATM   19  O4  UNL     1     -18.471   8.701   2.100  1.00  0.00    -0.268 OA
HETATM   20  C20 UNL     1     -19.808   8.773   1.984  1.00  0.00     0.194 C 
HETATM   21  C23 UNL     1     -20.462   7.948   0.931  1.00  0.00     0.224 C 
HETATM   22  O6  UNL     1     -20.492   8.331  -0.248  1.00  0.00    -0.287 OA
ENDROOT
BRANCH  11  23
HETATM   23  C8  UNL     1     -14.749   4.900   1.430  1.00  0.00     0.035 C 
BRANCH  23  24
HETATM   24  C9  UNL     1     -14.889   4.044   2.691  1.00  0.00     0.002 C 
BRANCH  24  25
HETATM   25  C10 UNL     1     -14.664   2.636   2.248  1.00  0.00     0.001 C 
BRANCH  25  26
HETATM   26  C11 UNL     1     -15.548   1.591   2.804  1.00  0.00     0.011 C 
BRANCH  26  27
HETATM   27  C12 UNL     1     -15.328   0.225   2.265  1.00  0.00     0.085 C 
HETATM   28 BR1  UNL     1     -16.918  -0.786   1.906  1.00  0.00    -0.097 Br
ENDBRANCH  26  27
ENDBRANCH  25  26
ENDBRANCH  24  25
ENDBRANCH  23  24
ENDBRANCH  11  23
BRANCH  16  29
HETATM   29  C16 UNL     1     -15.914  10.051  -0.253  1.00  0.00     0.010 C 
HETATM   30  C17 UNL     1     -14.669   9.952   0.597  1.00  0.00     0.012 C 
HETATM   31  C18 UNL     1     -16.476  11.419  -0.111  1.00  0.00     0.012 C 
ENDBRANCH  16  29
BRANCH   1  32
HETATM   32  C2  UNL     1     -22.308   6.861   2.142  1.00  0.00     0.042 C 
HETATM   33  C1  UNL     1     -22.336   5.721   3.158  1.00  0.00     0.008 C 
ENDBRANCH   1  32
BRANCH  20  34
HETATM   34  C21 UNL     1     -20.421  10.146   2.034  1.00  0.00     0.279 C 
HETATM   35  O5  UNL     1     -19.744  11.124   2.414  1.00  0.00    -0.265 OA
HETATM   36  N4  UNL     1     -21.757  10.358   1.658  1.00  0.00    -0.359 N 
HETATM   37  C22 UNL     1     -22.297  11.701   1.727  1.00  0.00     0.149 C 
ATOM     38  H4  UNL     1     -22.337   9.581   1.341  1.00  0.00     0.162 HD
ENDBRANCH  20  34
TORSDOF 8
ENDMDL
MODEL 5
REMARK VINA RESULT: -7.263678008      3.423      7.115
REMARK  8 active torsions:
REMARK  status: ('A' for Active; 'I' for Inactive)
REMARK    1  A    between atoms: C2_2  and  C3_3 
REMARK    2  A    between atoms: C7_13  and  C8_14 
REMARK    3  A    between atoms: C8_14  and  C9_15 
REMARK    4  A    between atoms: C9_15  and  C10_16 
REMARK    5  A    between atoms: C10_16  and  C11_17 
REMARK    6  A    between atoms: C11_17  and  C12_18 
REMARK    7  A    between atoms: C15_24  and  C16_25 
REMARK    8  A    between atoms: C20_31  and  C21_32 
REMARK       I    between atoms: C21_32  and  N4_34 
ROOT
HETATM    1  C3  UNL     1     -19.332  10.498  -0.862  1.00  0.00     0.189 C 
HETATM    2  C4  UNL     1     -18.765  11.620  -0.032  1.00  0.00     0.055 C 
HETATM    3  N1  UNL     1     -18.255   9.759  -1.479  1.00  0.00    -0.051 N 
ATOM      4  H11 UNL     1     -17.668  10.370  -2.047  1.00  0.00     0.279 HD
ATOM      5  H12 UNL     1     -18.604   9.140  -2.211  1.00  0.00     0.279 HD
HETATM    6  C5  UNL     1     -17.463   9.027  -0.508  1.00  0.00     0.336 C 
HETATM    7  C6  UNL     1     -16.826   7.871  -1.182  1.00  0.00     0.244 C 
HETATM    8  O1  UNL     1     -15.980   8.221  -2.085  1.00  0.00    -0.272 OA
HETATM    9  N2  UNL     1     -17.036   6.516  -0.957  1.00  0.00    -0.346 N 
ATOM     10  H2  UNL     1     -17.282   5.970  -1.783  1.00  0.00     0.163 HD
HETATM   11  C7  UNL     1     -16.956   5.775   0.266  1.00  0.00     0.176 C 
HETATM   12  C13 UNL     1     -17.264   6.508   1.498  1.00  0.00     0.243 C 
HETATM   13  O2  UNL     1     -16.304   7.267   1.905  1.00  0.00    -0.271 OA
HETATM   14  N3  UNL     1     -18.401   6.530   2.304  1.00  0.00    -0.340 N 
HETATM   15  C14 UNL     1     -18.199   6.582   3.784  1.00  0.00     0.153 C 
HETATM   16  C15 UNL     1     -19.800   6.519   1.972  1.00  0.00     0.190 C 
HETATM   17  C19 UNL     1     -20.206   6.371   0.598  1.00  0.00     0.287 C 
HETATM   18  O3  UNL     1     -20.387   5.134   0.248  1.00  0.00    -0.262 OA
HETATM   19  O4  UNL     1     -20.435   7.239  -0.391  1.00  0.00    -0.268 OA
HETATM   20  C20 UNL     1     -20.957   8.451  -0.648  1.00  0.00     0.194 C 
HETATM   21  C23 UNL     1     -20.266   9.643  -0.083  1.00  0.00     0.224 C 
HETATM   22  O6  UNL     1     -20.449   9.982   1.096  1.00  0.00    -0.287 OA
ENDROOT
BRANCH  11  23
HETATM   23  C8  UNL     1     -15.508   5.237   0.292  1.00  0.00     0.035 C 
BRANCH  23  24
HETATM   24  C9  UNL     1     -15.370   4.173   1.384  1.00  0.00     0.002 C 
BRANCH  24  25
HETATM   25  C10 UNL     1     -13.974   4.304   1.897  1.00  0.00     0.001 C 
BRANCH  25  26
HETATM   26  C11 UNL     1     -13.260   3.066   2.268  1.00  0.00     0.011 C 
BRANCH  26  27
HETATM   27  C12 UNL     1     -13.671   1.850   1.519  1.00  0.00     0.085 C 
HETATM   28 BR1  UNL     1     -14.771   0.617   2.491  1.00  0.00    -0.097 Br
ENDBRANCH  26  27
ENDBRANCH  25  26
ENDBRANCH  24  25
ENDBRANCH  23  24
ENDBRANCH  11  23
BRANCH  16  29
HETATM   29  C16 UNL     1     -20.415   5.423   2.864  1.00  0.00     0.010 C 
HETATM   30  C17 UNL     1     -20.114   4.038   2.341  1.00  0.00     0.012 C 
HETATM   31  C18 UNL     1     -21.885   5.558   3.029  1.00  0.00     0.012 C 
ENDBRANCH  16  29
BRANCH   1  32
HETATM   32  C2  UNL     1     -20.103  11.159  -2.013  1.00  0.00     0.042 C 
HETATM   33  C1  UNL     1     -20.776  12.421  -1.479  1.00  0.00     0.008 C 
ENDBRANCH   1  32
BRANCH  20  34
HETATM   34  C21 UNL     1     -22.449   8.592  -0.508  1.00  0.00     0.279 C 
HETATM   35  O5  UNL     1     -23.185   7.585  -0.580  1.00  0.00    -0.265 OA
HETATM   36  N4  UNL     1     -23.042   9.845  -0.297  1.00  0.00    -0.359 N 
HETATM   37  C22 UNL     1     -24.485   9.923  -0.171  1.00  0.00     0.149 C 
ATOM     38  H4  UNL     1     -22.470  10.687  -0.232  1.00  0.00     0.162 HD
ENDBRANCH  20  34
TORSDOF 8
ENDMDL
