MODEL 1
REMARK VINA RESULT: -6.786847563      0.000      0.000
REMARK  8 active torsions:
REMARK  status: ('A' for Active; 'I' for Inactive)
REMARK    1  A    between atoms: C1_2  and  C2_3 
REMARK       I    between atoms: C1_2  and  N1_10 
REMARK    2  A    between atoms: C2_3  and  O2_4 
REMARK    3  A    between atoms: O2_4  and  C3_5 
REMARK    4  A    between atoms: C3_5  and  C4_7 
REMARK    5  A    between atoms: N1_10  and  N2_12 
REMARK    6  A    between atoms: N2_12  and  C7_14 
REMARK    7  A    between atoms: C7_14  and  N3_16 
REMARK    8  A    between atoms: N3_16  and  C8_18 
ROOT
HETATM    1  O1  UNL     1      -1.444   1.940  81.688  1.00  0.00    -0.269 OA
HETATM    2  C1  UNL     1      -0.464   1.581  82.383  1.00  0.00     0.260 C 
HETATM    3  N1  UNL     1       0.677   2.414  82.494  1.00  0.00    -0.266 N 
ATOM      4  H1  UNL     1       1.472   2.120  83.060  1.00  0.00     0.190 HD
ENDROOT
BRANCH   3   5
HETATM    5  N2  UNL     1       0.708   3.642  81.823  1.00  0.00    -0.274 N 
ATOM      6  H2  UNL     1       0.722   3.646  80.804  1.00  0.00     0.189 HD
BRANCH   5   7
HETATM    7  C7  UNL     1       0.721   4.887  82.515  1.00  0.00     0.186 C 
HETATM    8  S1  UNL     1       0.851   6.246  81.625  1.00  0.00    -0.040 SA
BRANCH   7   9
HETATM    9  N3  UNL     1       0.612   4.884  83.925  1.00  0.00    -0.361 N 
ATOM     10  H3  UNL     1       1.443   4.718  84.493  1.00  0.00     0.162 HD
BRANCH   9  11
HETATM   11  C8  UNL     1      -0.638   5.110  84.562  1.00  0.00     0.083 C 
HETATM   12  C9  UNL     1      -1.860   4.765  83.753  1.00  0.00     0.025 C 
HETATM   13  C10 UNL     1      -2.962   5.347  84.654  1.00  0.00     0.002 C 
HETATM   14  C11 UNL     1      -2.364   6.607  85.167  1.00  0.00     0.002 C 
HETATM   15  C12 UNL     1      -0.888   6.581  84.853  1.00  0.00     0.025 C 
ENDBRANCH   9  11
ENDBRANCH   7   9
ENDBRANCH   5   7
ENDBRANCH   3   5
BRANCH   2  16
HETATM   16  C2  UNL     1      -0.511   0.282  83.083  1.00  0.00     0.283 C 
BRANCH  16  17
HETATM   17  O2  UNL     1      -1.197   0.298  84.296  1.00  0.00    -0.312 OA
BRANCH  17  18
HETATM   18  C3  UNL     1      -0.976   1.223  85.302  1.00  0.00     0.263 C 
HETATM   19  O3  UNL     1       0.180   1.441  85.699  1.00  0.00    -0.265 OA
BRANCH  18  20
HETATM   20  C4  UNL     1      -2.143   1.944  85.893  1.00  0.00     0.085 A 
HETATM   21  C5  UNL     1      -2.618   1.274  87.183  1.00  0.00     0.015 A 
HETATM   22  C6  UNL     1      -1.998   2.644  87.186  1.00  0.00     0.015 A 
ENDBRANCH  18  20
ENDBRANCH  17  18
ENDBRANCH  16  17
ENDBRANCH   2  16
TORSDOF 8
ENDMDL
MODEL 2
REMARK VINA RESULT: -6.725350776      1.321      1.811
REMARK  8 active torsions:
REMARK  status: ('A' for Active; 'I' for Inactive)
REMARK    1  A    between atoms: C1_2  and  C2_3 
REMARK       I    between atoms: C1_2  and  N1_10 
REMARK    2  A    between atoms: C2_3  and  O2_4 
REMARK    3  A    between atoms: O2_4  and  C3_5 
REMARK    4  A    between atoms: C3_5  and  C4_7 
REMARK    5  A    between atoms: N1_10  and  N2_12 
REMARK    6  A    between atoms: N2_12  and  C7_14 
REMARK    7  A    between atoms: C7_14  and  N3_16 
REMARK    8  A    between atoms: N3_16  and  C8_18 
ROOT
HETATM    1  O1  UNL     1      -1.220   2.283  82.031  1.00  0.00    -0.269 OA
HETATM    2  C1  UNL     1      -0.262   1.537  82.343  1.00  0.00     0.260 C 
HETATM    3  N1  UNL     1       1.061   1.877  81.966  1.00  0.00    -0.266 N 
ATOM      4  H1  UNL     1       1.838   1.269  82.222  1.00  0.00     0.190 HD
ENDROOT
BRANCH   3   5
HETATM    5  N2  UNL     1       1.297   3.051  81.241  1.00  0.00    -0.274 N 
ATOM      6  H2  UNL     1       0.733   3.239  80.412  1.00  0.00     0.189 HD
BRANCH   5   7
HETATM    7  C7  UNL     1       2.295   3.992  81.621  1.00  0.00     0.186 C 
HETATM    8  S1  UNL     1       3.492   4.297  80.556  1.00  0.00    -0.040 SA
BRANCH   7   9
HETATM    9  N3  UNL     1       2.197   4.617  82.885  1.00  0.00    -0.361 N 
ATOM     10  H3  UNL     1       2.939   4.482  83.572  1.00  0.00     0.162 HD
BRANCH   9  11
HETATM   11  C8  UNL     1       1.080   5.433  83.213  1.00  0.00     0.083 C 
HETATM   12  C9  UNL     1       1.397   6.749  83.872  1.00  0.00     0.025 C 
HETATM   13  C10 UNL     1      -0.017   7.208  84.266  1.00  0.00     0.002 C 
HETATM   14  C11 UNL     1      -0.684   5.953  84.698  1.00  0.00     0.002 C 
HETATM   15  C12 UNL     1       0.177   4.795  84.257  1.00  0.00     0.025 C 
ENDBRANCH   9  11
ENDBRANCH   7   9
ENDBRANCH   5   7
ENDBRANCH   3   5
BRANCH   2  16
HETATM   16  C2  UNL     1      -0.526   0.302  83.107  1.00  0.00     0.283 C 
BRANCH  16  17
HETATM   17  O2  UNL     1      -1.297   0.479  84.255  1.00  0.00    -0.312 OA
BRANCH  17  18
HETATM   18  C3  UNL     1      -0.974   1.350  85.281  1.00  0.00     0.263 C 
HETATM   19  O3  UNL     1       0.169   1.341  85.765  1.00  0.00    -0.265 OA
BRANCH  18  20
HETATM   20  C4  UNL     1      -2.018   2.292  85.788  1.00  0.00     0.085 A 
HETATM   21  C5  UNL     1      -2.999   1.586  86.724  1.00  0.00     0.015 A 
HETATM   22  C6  UNL     1      -2.056   2.647  87.221  1.00  0.00     0.015 A 
ENDBRANCH  18  20
ENDBRANCH  17  18
ENDBRANCH  16  17
ENDBRANCH   2  16
TORSDOF 8
ENDMDL
MODEL 3
REMARK VINA RESULT: -6.693916007      2.352      3.330
REMARK  8 active torsions:
REMARK  status: ('A' for Active; 'I' for Inactive)
REMARK    1  A    between atoms: C1_2  and  C2_3 
REMARK       I    between atoms: C1_2  and  N1_10 
REMARK    2  A    between atoms: C2_3  and  O2_4 
REMARK    3  A    between atoms: O2_4  and  C3_5 
REMARK    4  A    between atoms: C3_5  and  C4_7 
REMARK    5  A    between atoms: N1_10  and  N2_12 
REMARK    6  A    between atoms: N2_12  and  C7_14 
REMARK    7  A    between atoms: C7_14  and  N3_16 
REMARK    8  A    between atoms: N3_16  and  C8_18 
ROOT
HETATM    1  O1  UNL     1       0.740   2.228  86.077  1.00  0.00    -0.269 OA
HETATM    2  C1  UNL     1       0.007   2.237  85.060  1.00  0.00     0.260 C 
HETATM    3  N1  UNL     1       0.157   3.250  84.080  1.00  0.00    -0.266 N 
ATOM      4  H1  UNL     1      -0.440   3.254  83.253  1.00  0.00     0.190 HD
ENDROOT
BRANCH   3   5
HETATM    5  N2  UNL     1       1.126   4.245  84.252  1.00  0.00    -0.274 N 
ATOM      6  H2  UNL     1       1.651   4.275  85.126  1.00  0.00     0.189 HD
BRANCH   5   7
HETATM    7  C7  UNL     1       1.404   5.217  83.249  1.00  0.00     0.186 C 
HETATM    8  S1  UNL     1       2.341   4.763  81.995  1.00  0.00    -0.040 SA
BRANCH   7   9
HETATM    9  N3  UNL     1       0.852   6.512  83.384  1.00  0.00    -0.361 N 
ATOM     10  H3  UNL     1      -0.044   6.725  82.946  1.00  0.00     0.162 HD
BRANCH   9  11
HETATM   11  C8  UNL     1       1.528   7.521  84.123  1.00  0.00     0.083 C 
HETATM   12  C9  UNL     1       0.649   8.537  84.804  1.00  0.00     0.025 C 
HETATM   13  C10 UNL     1       1.708   9.547  85.275  1.00  0.00     0.002 C 
HETATM   14  C11 UNL     1       2.679   9.585  84.150  1.00  0.00     0.002 C 
HETATM   15  C12 UNL     1       2.380   8.419  83.240  1.00  0.00     0.025 C 
ENDBRANCH   9  11
ENDBRANCH   7   9
ENDBRANCH   5   7
ENDBRANCH   3   5
BRANCH   2  16
HETATM   16  C2  UNL     1      -1.012   1.182  84.893  1.00  0.00     0.283 C 
BRANCH  16  17
HETATM   17  O2  UNL     1      -2.289   1.530  85.327  1.00  0.00    -0.312 OA
BRANCH  17  18
HETATM   18  C3  UNL     1      -2.757   1.320  86.613  1.00  0.00     0.263 C 
HETATM   19  O3  UNL     1      -2.413   0.305  87.239  1.00  0.00    -0.265 OA
BRANCH  18  20
HETATM   20  C4  UNL     1      -3.676   2.327  87.225  1.00  0.00     0.085 A 
HETATM   21  C5  UNL     1      -2.950   3.188  88.259  1.00  0.00     0.015 A 
HETATM   22  C6  UNL     1      -3.464   3.766  86.969  1.00  0.00     0.015 A 
ENDBRANCH  18  20
ENDBRANCH  17  18
ENDBRANCH  16  17
ENDBRANCH   2  16
TORSDOF 8
ENDMDL
MODEL 4
REMARK VINA RESULT: -6.626050325      2.242      3.943
REMARK  8 active torsions:
REMARK  status: ('A' for Active; 'I' for Inactive)
REMARK    1  A    between atoms: C1_2  and  C2_3 
REMARK       I    between atoms: C1_2  and  N1_10 
REMARK    2  A    between atoms: C2_3  and  O2_4 
REMARK    3  A    between atoms: O2_4  and  C3_5 
REMARK    4  A    between atoms: C3_5  and  C4_7 
REMARK    5  A    between atoms: N1_10  and  N2_12 
REMARK    6  A    between atoms: N2_12  and  C7_14 
REMARK    7  A    between atoms: C7_14  and  N3_16 
REMARK    8  A    between atoms: N3_16  and  C8_18 
ROOT
HETATM    1  O1  UNL     1       0.825   2.448  86.099  1.00  0.00    -0.269 OA
HETATM    2  C1  UNL     1      -0.100   2.479  85.253  1.00  0.00     0.260 C 
HETATM    3  N1  UNL     1      -0.398   3.681  84.564  1.00  0.00    -0.266 N 
ATOM      4  H1  UNL     1      -1.150   3.703  83.876  1.00  0.00     0.190 HD
ENDROOT
BRANCH   3   5
HETATM    5  N2  UNL     1       0.343   4.838  84.832  1.00  0.00    -0.274 N 
ATOM      6  H2  UNL     1       0.192   5.325  85.715  1.00  0.00     0.189 HD
BRANCH   5   7
HETATM    7  C7  UNL     1       1.300   5.357  83.914  1.00  0.00     0.186 C 
HETATM    8  S1  UNL     1       1.375   6.976  83.735  1.00  0.00    -0.040 SA
BRANCH   7   9
HETATM    9  N3  UNL     1       2.137   4.454  83.218  1.00  0.00    -0.361 N 
ATOM     10  H3  UNL     1       2.728   3.811  83.744  1.00  0.00     0.162 HD
BRANCH   9  11
HETATM   11  C8  UNL     1       2.164   4.430  81.798  1.00  0.00     0.083 C 
HETATM   12  C9  UNL     1       1.825   3.111  81.155  1.00  0.00     0.025 C 
HETATM   13  C10 UNL     1       2.182   3.416  79.691  1.00  0.00     0.002 C 
HETATM   14  C11 UNL     1       3.410   4.247  79.797  1.00  0.00     0.002 C 
HETATM   15  C12 UNL     1       3.555   4.678  81.236  1.00  0.00     0.025 C 
ENDBRANCH   9  11
ENDBRANCH   7   9
ENDBRANCH   5   7
ENDBRANCH   3   5
BRANCH   2  16
HETATM   16  C2  UNL     1      -0.874   1.252  84.982  1.00  0.00     0.283 C 
BRANCH  16  17
HETATM   17  O2  UNL     1      -2.229   1.335  85.297  1.00  0.00    -0.312 OA
BRANCH  17  18
HETATM   18  C3  UNL     1      -2.736   1.245  86.582  1.00  0.00     0.263 C 
HETATM   19  O3  UNL     1      -2.426   0.284  87.304  1.00  0.00    -0.265 OA
BRANCH  18  20
HETATM   20  C4  UNL     1      -3.653   2.316  87.076  1.00  0.00     0.085 A 
HETATM   21  C5  UNL     1      -2.976   3.185  88.137  1.00  0.00     0.015 A 
HETATM   22  C6  UNL     1      -3.353   3.733  86.788  1.00  0.00     0.015 A 
ENDBRANCH  18  20
ENDBRANCH  17  18
ENDBRANCH  16  17
ENDBRANCH   2  16
TORSDOF 8
ENDMDL
MODEL 5
REMARK VINA RESULT: -6.559102351      2.415      4.185
REMARK  8 active torsions:
REMARK  status: ('A' for Active; 'I' for Inactive)
REMARK    1  A    between atoms: C1_2  and  C2_3 
REMARK       I    between atoms: C1_2  and  N1_10 
REMARK    2  A    between atoms: C2_3  and  O2_4 
REMARK    3  A    between atoms: O2_4  and  C3_5 
REMARK    4  A    between atoms: C3_5  and  C4_7 
REMARK    5  A    between atoms: N1_10  and  N2_12 
REMARK    6  A    between atoms: N2_12  and  C7_14 
REMARK    7  A    between atoms: C7_14  and  N3_16 
REMARK    8  A    between atoms: N3_16  and  C8_18 
ROOT
HETATM    1  O1  UNL     1       0.613   3.344  84.266  1.00  0.00    -0.269 OA
HETATM    2  C1  UNL     1      -0.396   2.609  84.381  1.00  0.00     0.260 C 
HETATM    3  N1  UNL     1      -1.531   2.820  83.559  1.00  0.00    -0.266 N 
ATOM      4  H1  UNL     1      -2.350   2.221  83.654  1.00  0.00     0.190 HD
ENDROOT
BRANCH   3   5
HETATM    5  N2  UNL     1      -1.524   3.855  82.617  1.00  0.00    -0.274 N 
ATOM      6  H2  UNL     1      -1.741   4.803  82.925  1.00  0.00     0.189 HD
BRANCH   5   7
HETATM    7  C7  UNL     1      -1.225   3.631  81.243  1.00  0.00     0.186 C 
HETATM    8  S1  UNL     1      -0.428   4.806  80.441  1.00  0.00    -0.040 SA
BRANCH   7   9
HETATM    9  N3  UNL     1      -1.621   2.410  80.650  1.00  0.00    -0.361 N 
ATOM     10  H3  UNL     1      -2.573   2.308  80.298  1.00  0.00     0.162 HD
BRANCH   9  11
HETATM   11  C8  UNL     1      -0.712   1.324  80.536  1.00  0.00     0.083 C 
HETATM   12  C9  UNL     1      -0.963   0.157  81.453  1.00  0.00     0.025 C 
HETATM   13  C10 UNL     1       0.311  -0.668  81.207  1.00  0.00     0.002 C 
HETATM   14  C11 UNL     1       1.376   0.361  81.086  1.00  0.00     0.002 C 
HETATM   15  C12 UNL     1       0.706   1.705  80.932  1.00  0.00     0.025 C 
ENDBRANCH   9  11
ENDBRANCH   7   9
ENDBRANCH   5   7
ENDBRANCH   3   5
BRANCH   2  16
HETATM   16  C2  UNL     1      -0.390   1.522  85.380  1.00  0.00     0.283 C 
BRANCH  16  17
HETATM   17  O2  UNL     1      -1.032   1.827  86.578  1.00  0.00    -0.312 OA
BRANCH  17  18
HETATM   18  C3  UNL     1      -2.301   1.387  86.914  1.00  0.00     0.263 C 
HETATM   19  O3  UNL     1      -2.484   0.195  87.209  1.00  0.00    -0.265 OA
BRANCH  18  20
HETATM   20  C4  UNL     1      -3.432   2.363  86.914  1.00  0.00     0.085 A 
HETATM   21  C5  UNL     1      -3.323   3.343  88.083  1.00  0.00     0.015 A 
HETATM   22  C6  UNL     1      -3.169   3.794  86.656  1.00  0.00     0.015 A 
ENDBRANCH  18  20
ENDBRANCH  17  18
ENDBRANCH  16  17
ENDBRANCH   2  16
TORSDOF 8
ENDMDL
