MODEL 1
REMARK VINA RESULT: -7.650946640      0.000      0.000
REMARK  6 active torsions:
REMARK  status: ('A' for Active; 'I' for Inactive)
REMARK    1  A    between atoms: C3_3  and  S1_13 
REMARK    2  A    between atoms: N1_4  and  N2_6 
REMARK       I    between atoms: N2_6  and  C4_8 
REMARK    3  A    between atoms: C4_8  and  C5_10 
REMARK    4  A    between atoms: S1_13  and  C6_14 
REMARK    5  A    between atoms: C6_14  and  C7_15 
REMARK    6  A    between atoms: C7_15  and  O3_16 
ROOT
HETATM    1  C1  UNL     1      -2.168   5.682  84.478  1.00  0.00     0.020 C 
HETATM    2  C2  UNL     1      -1.247   4.938  84.231  1.00  0.00    -0.051 C 
HETATM    3  C3  UNL     1      -0.128   4.059  83.933  1.00  0.00     0.139 C 
HETATM    4  N1  UNL     1       0.040   3.038  84.697  1.00  0.00    -0.284 N 
ATOM      5  H1  UNL     1       0.816   2.402  84.513  1.00  0.00     0.188 HD
ENDROOT
BRANCH   3   6
HETATM    6  S1  UNL     1       0.966   4.397  82.572  1.00  0.00    -0.090 SA
BRANCH   6   7
HETATM    7  C6  UNL     1       0.326   3.644  81.056  1.00  0.00     0.036 C 
HETATM    8  C8  UNL     1       1.472   2.867  80.447  1.00  0.00     0.023 C 
HETATM    9  C9  UNL     1       1.545   1.461  80.991  1.00  0.00     0.002 C 
HETATM   10  C10 UNL     1       0.306   0.696  80.576  1.00  0.00     0.000 C 
HETATM   11  C11 UNL     1      -0.948   1.477  80.750  1.00  0.00     0.002 C 
HETATM   12  C12 UNL     1      -0.834   2.790  81.423  1.00  0.00     0.023 C 
BRANCH   7  13
HETATM   13  C7  UNL     1      -0.129   4.744  80.135  1.00  0.00     0.185 C 
BRANCH  13  14
HETATM   14  O3  UNL     1      -1.461   5.076  80.392  1.00  0.00    -0.399 OA
ATOM     15  H3  UNL     1      -2.017   4.793  79.676  1.00  0.00     0.209 HD
ENDBRANCH  13  14
ENDBRANCH   7  13
ENDBRANCH   6   7
ENDBRANCH   3   6
BRANCH   4  16
HETATM   16  N2  UNL     1      -0.815   2.777  85.770  1.00  0.00    -0.261 N 
HETATM   17  C4  UNL     1      -1.551   1.568  85.886  1.00  0.00     0.325 C 
HETATM   18  O1  UNL     1      -1.440   0.678  84.991  1.00  0.00    -0.261 OA
ATOM     19  H2  UNL     1      -0.914   3.483  86.500  1.00  0.00     0.190 HD
BRANCH  17  20
HETATM   20  C5  UNL     1      -2.432   1.330  87.018  1.00  0.00     0.324 C 
HETATM   21  N3  UNL     1      -3.846   1.265  86.860  1.00  0.00    -0.053 NA
HETATM   22  O2  UNL     1      -1.916   1.182  88.151  1.00  0.00    -0.266 OA
ENDBRANCH  17  20
ENDBRANCH   4  16
TORSDOF 6
ENDMDL
MODEL 2
REMARK VINA RESULT: -6.967514973      1.427      2.342
REMARK  6 active torsions:
REMARK  status: ('A' for Active; 'I' for Inactive)
REMARK    1  A    between atoms: C3_3  and  S1_13 
REMARK    2  A    between atoms: N1_4  and  N2_6 
REMARK       I    between atoms: N2_6  and  C4_8 
REMARK    3  A    between atoms: C4_8  and  C5_10 
REMARK    4  A    between atoms: S1_13  and  C6_14 
REMARK    5  A    between atoms: C6_14  and  C7_15 
REMARK    6  A    between atoms: C7_15  and  O3_16 
ROOT
HETATM    1  C1  UNL     1      -2.131   5.758  84.787  1.00  0.00     0.020 C 
HETATM    2  C2  UNL     1      -1.130   5.113  84.574  1.00  0.00    -0.051 C 
HETATM    3  C3  UNL     1       0.084   4.356  84.319  1.00  0.00     0.139 C 
HETATM    4  N1  UNL     1       0.282   3.301  85.028  1.00  0.00    -0.284 N 
ATOM      5  H1  UNL     1       1.124   2.748  84.873  1.00  0.00     0.188 HD
ENDROOT
BRANCH   3   6
HETATM    6  S1  UNL     1       1.250   4.880  83.082  1.00  0.00    -0.090 SA
BRANCH   6   7
HETATM    7  C6  UNL     1       0.938   4.013  81.524  1.00  0.00     0.036 C 
HETATM    8  C8  UNL     1       0.355   5.035  80.575  1.00  0.00     0.023 C 
HETATM    9  C9  UNL     1       1.433   5.779  79.824  1.00  0.00     0.002 C 
HETATM   10  C10 UNL     1       2.181   4.813  78.930  1.00  0.00     0.000 C 
HETATM   11  C11 UNL     1       2.520   3.532  79.606  1.00  0.00     0.002 C 
HETATM   12  C12 UNL     1       2.227   3.439  81.054  1.00  0.00     0.023 C 
BRANCH   7  13
HETATM   13  C7  UNL     1      -0.043   2.902  81.788  1.00  0.00     0.185 C 
BRANCH  13  14
HETATM   14  O3  UNL     1       0.609   1.798  82.344  1.00  0.00    -0.399 OA
ATOM     15  H3  UNL     1       1.122   2.061  83.099  1.00  0.00     0.209 HD
ENDBRANCH  13  14
ENDBRANCH   7  13
ENDBRANCH   6   7
ENDBRANCH   3   6
BRANCH   4  16
HETATM   16  N2  UNL     1      -0.630   2.894  86.005  1.00  0.00    -0.261 N 
HETATM   17  C4  UNL     1      -1.473   1.763  85.841  1.00  0.00     0.325 C 
HETATM   18  O1  UNL     1      -1.410   1.083  84.773  1.00  0.00    -0.261 OA
ATOM     19  H2  UNL     1      -0.692   3.430  86.871  1.00  0.00     0.190 HD
BRANCH  17  20
HETATM   20  C5  UNL     1      -2.411   1.367  86.880  1.00  0.00     0.324 C 
HETATM   21  N3  UNL     1      -3.809   1.273  86.623  1.00  0.00    -0.053 NA
HETATM   22  O2  UNL     1      -1.959   1.108  88.019  1.00  0.00    -0.266 OA
ENDBRANCH  17  20
ENDBRANCH   4  16
TORSDOF 6
ENDMDL
MODEL 3
REMARK VINA RESULT: -6.950103822      1.115      1.852
REMARK  6 active torsions:
REMARK  status: ('A' for Active; 'I' for Inactive)
REMARK    1  A    between atoms: C3_3  and  S1_13 
REMARK    2  A    between atoms: N1_4  and  N2_6 
REMARK       I    between atoms: N2_6  and  C4_8 
REMARK    3  A    between atoms: C4_8  and  C5_10 
REMARK    4  A    between atoms: S1_13  and  C6_14 
REMARK    5  A    between atoms: C6_14  and  C7_15 
REMARK    6  A    between atoms: C7_15  and  O3_16 
ROOT
HETATM    1  C1  UNL     1      -2.730   6.047  84.893  1.00  0.00     0.020 C 
HETATM    2  C2  UNL     1      -1.756   5.425  84.538  1.00  0.00    -0.051 C 
HETATM    3  C3  UNL     1      -0.574   4.693  84.111  1.00  0.00     0.139 C 
HETATM    4  N1  UNL     1      -0.288   3.612  84.746  1.00  0.00    -0.284 N 
ATOM      5  H1  UNL     1       0.535   3.076  84.471  1.00  0.00     0.188 HD
ENDROOT
BRANCH   3   6
HETATM    6  S1  UNL     1       0.436   5.283  82.771  1.00  0.00    -0.090 SA
BRANCH   6   7
HETATM    7  C6  UNL     1       0.306   4.166  81.354  1.00  0.00     0.036 C 
HETATM    8  C8  UNL     1       0.480   5.020  80.118  1.00  0.00     0.023 C 
HETATM    9  C9  UNL     1       1.934   5.164  79.738  1.00  0.00     0.002 C 
HETATM   10  C10 UNL     1       2.487   3.811  79.345  1.00  0.00     0.000 C 
HETATM   11  C11 UNL     1       2.085   2.722  80.275  1.00  0.00     0.002 C 
HETATM   12  C12 UNL     1       1.352   3.119  81.498  1.00  0.00     0.023 C 
BRANCH   7  13
HETATM   13  C7  UNL     1      -1.056   3.525  81.378  1.00  0.00     0.185 C 
BRANCH  13  14
HETATM   14  O3  UNL     1      -1.421   3.106  80.096  1.00  0.00    -0.399 OA
ATOM     15  H3  UNL     1      -2.072   2.416  80.146  1.00  0.00     0.209 HD
ENDBRANCH  13  14
ENDBRANCH   7  13
ENDBRANCH   6   7
ENDBRANCH   3   6
BRANCH   4  16
HETATM   16  N2  UNL     1      -1.076   3.153  85.804  1.00  0.00    -0.261 N 
HETATM   17  C4  UNL     1      -1.658   1.858  85.818  1.00  0.00     0.325 C 
HETATM   18  O1  UNL     1      -1.465   1.072  84.842  1.00  0.00    -0.261 OA
ATOM     19  H2  UNL     1      -1.241   3.773  86.597  1.00  0.00     0.190 HD
BRANCH  17  20
HETATM   20  C5  UNL     1      -2.475   1.412  86.936  1.00  0.00     0.324 C 
HETATM   21  N3  UNL     1      -3.890   1.293  86.824  1.00  0.00    -0.053 NA
HETATM   22  O2  UNL     1      -1.901   1.133  88.015  1.00  0.00    -0.266 OA
ENDBRANCH  17  20
ENDBRANCH   4  16
TORSDOF 6
ENDMDL
MODEL 4
REMARK VINA RESULT: -6.879959766      1.185      1.459
REMARK  6 active torsions:
REMARK  status: ('A' for Active; 'I' for Inactive)
REMARK    1  A    between atoms: C3_3  and  S1_13 
REMARK    2  A    between atoms: N1_4  and  N2_6 
REMARK       I    between atoms: N2_6  and  C4_8 
REMARK    3  A    between atoms: C4_8  and  C5_10 
REMARK    4  A    between atoms: S1_13  and  C6_14 
REMARK    5  A    between atoms: C6_14  and  C7_15 
REMARK    6  A    between atoms: C7_15  and  O3_16 
ROOT
HETATM    1  C1  UNL     1      -2.799   6.212  84.249  1.00  0.00     0.020 C 
HETATM    2  C2  UNL     1      -1.725   5.663  84.165  1.00  0.00    -0.051 C 
HETATM    3  C3  UNL     1      -0.425   5.019  84.064  1.00  0.00     0.139 C 
HETATM    4  N1  UNL     1      -0.210   4.002  84.821  1.00  0.00    -0.284 N 
ATOM      5  H1  UNL     1       0.692   3.528  84.774  1.00  0.00     0.188 HD
ENDROOT
BRANCH   3   6
HETATM    6  S1  UNL     1       0.816   5.628  82.945  1.00  0.00    -0.090 SA
BRANCH   6   7
HETATM    7  C6  UNL     1       0.692   4.776  81.353  1.00  0.00     0.036 C 
HETATM    8  C8  UNL     1       2.075   4.804  80.744  1.00  0.00     0.023 C 
HETATM    9  C9  UNL     1       2.906   3.625  81.191  1.00  0.00     0.002 C 
HETATM   10  C10 UNL     1       2.287   2.346  80.670  1.00  0.00     0.000 C 
HETATM   11  C11 UNL     1       0.810   2.299  80.841  1.00  0.00     0.002 C 
HETATM   12  C12 UNL     1       0.187   3.401  81.608  1.00  0.00     0.023 C 
BRANCH   7  13
HETATM   13  C7  UNL     1      -0.291   5.523  80.492  1.00  0.00     0.185 C 
BRANCH  13  14
HETATM   14  O3  UNL     1      -1.525   4.867  80.478  1.00  0.00    -0.399 OA
ATOM     15  H3  UNL     1      -1.505   4.136  79.871  1.00  0.00     0.209 HD
ENDBRANCH  13  14
ENDBRANCH   7  13
ENDBRANCH   6   7
ENDBRANCH   3   6
BRANCH   4  16
HETATM   16  N2  UNL     1      -1.182   3.529  85.706  1.00  0.00    -0.261 N 
HETATM   17  C4  UNL     1      -1.102   2.250  86.318  1.00  0.00     0.325 C 
HETATM   18  O1  UNL     1      -0.116   1.493  86.065  1.00  0.00    -0.261 OA
ATOM     19  H2  UNL     1      -1.981   4.125  85.921  1.00  0.00     0.190 HD
BRANCH  17  20
HETATM   20  C5  UNL     1      -2.132   1.788  87.235  1.00  0.00     0.324 C 
HETATM   21  N3  UNL     1      -2.610   0.447  87.203  1.00  0.00    -0.053 NA
HETATM   22  O2  UNL     1      -2.597   2.605  88.064  1.00  0.00    -0.266 OA
ENDBRANCH  17  20
ENDBRANCH   4  16
TORSDOF 6
ENDMDL
MODEL 5
REMARK VINA RESULT: -6.810128597      1.886      2.834
REMARK  6 active torsions:
REMARK  status: ('A' for Active; 'I' for Inactive)
REMARK    1  A    between atoms: C3_3  and  S1_13 
REMARK    2  A    between atoms: N1_4  and  N2_6 
REMARK       I    between atoms: N2_6  and  C4_8 
REMARK    3  A    between atoms: C4_8  and  C5_10 
REMARK    4  A    between atoms: S1_13  and  C6_14 
REMARK    5  A    between atoms: C6_14  and  C7_15 
REMARK    6  A    between atoms: C7_15  and  O3_16 
ROOT
HETATM    1  C1  UNL     1      -0.813   6.705  84.586  1.00  0.00     0.020 C 
HETATM    2  C2  UNL     1      -0.136   5.793  84.170  1.00  0.00    -0.051 C 
HETATM    3  C3  UNL     1       0.695   4.708  83.675  1.00  0.00     0.139 C 
HETATM    4  N1  UNL     1       0.401   3.517  84.062  1.00  0.00    -0.284 N 
ATOM      5  H1  UNL     1       0.965   2.733  83.732  1.00  0.00     0.188 HD
ENDROOT
BRANCH   3   6
HETATM    6  S1  UNL     1       2.067   5.024  82.588  1.00  0.00    -0.090 SA
BRANCH   6   7
HETATM    7  C6  UNL     1       1.740   4.323  80.952  1.00  0.00     0.036 C 
HETATM    8  C8  UNL     1       0.238   4.308  80.785  1.00  0.00     0.023 C 
HETATM    9  C9  UNL     1      -0.274   5.609  80.214  1.00  0.00     0.002 C 
HETATM   10  C10 UNL     1       0.262   5.787  78.810  1.00  0.00     0.000 C 
HETATM   11  C11 UNL     1       1.709   5.462  78.691  1.00  0.00     0.002 C 
HETATM   12  C12 UNL     1       2.437   5.166  79.945  1.00  0.00     0.023 C 
BRANCH   7  13
HETATM   13  C7  UNL     1       2.300   2.926  80.915  1.00  0.00     0.185 C 
BRANCH  13  14
HETATM   14  O3  UNL     1       1.464   2.046  81.608  1.00  0.00    -0.399 OA
ATOM     15  H3  UNL     1       1.053   2.488  82.341  1.00  0.00     0.209 HD
ENDBRANCH  13  14
ENDBRANCH   7  13
ENDBRANCH   6   7
ENDBRANCH   3   6
BRANCH   4  16
HETATM   16  N2  UNL     1      -0.671   3.269  84.922  1.00  0.00    -0.261 N 
HETATM   17  C4  UNL     1      -0.714   2.143  85.786  1.00  0.00     0.325 C 
HETATM   18  O1  UNL     1       0.250   1.320  85.793  1.00  0.00    -0.261 OA
ATOM     19  H2  UNL     1      -1.454   3.922  84.929  1.00  0.00     0.190 HD
BRANCH  17  20
HETATM   20  C5  UNL     1      -1.847   1.915  86.670  1.00  0.00     0.324 C 
HETATM   21  N3  UNL     1      -2.407   0.617  86.842  1.00  0.00    -0.053 NA
HETATM   22  O2  UNL     1      -2.327   2.897  87.283  1.00  0.00    -0.266 OA
ENDBRANCH  17  20
ENDBRANCH   4  16
TORSDOF 6
ENDMDL
