MODEL 1
REMARK VINA RESULT: -8.011395074      0.000      0.000
REMARK  4 active torsions:
REMARK  status: ('A' for Active; 'I' for Inactive)
REMARK    1  A    between atoms: N2_6  and  C3_8 
REMARK    2  A    between atoms: C8_14  and  C9_15 
REMARK    3  A    between atoms: C10_20  and  C11_21 
REMARK    4  A    between atoms: C11_21  and  N5_22 
ROOT
HETATM    1  C9  UNL     1     -29.767 -10.901  55.315  1.00  0.00     0.143 A 
HETATM    2  N3  UNL     1     -30.280 -10.717  56.537  1.00  0.00    -0.283 N 
ATOM      3  H3  UNL     1     -29.734 -10.581  57.388  1.00  0.00     0.188 HD
HETATM    4  N4  UNL     1     -31.622 -10.736  56.475  1.00  0.00    -0.286 N 
ATOM      5  H4  UNL     1     -32.264 -10.620  57.259  1.00  0.00     0.188 HD
HETATM    6  C10 UNL     1     -31.960 -10.936  55.196  1.00  0.00     0.115 A 
HETATM    7  N6  UNL     1     -30.816 -11.034  54.496  1.00  0.00    -0.327 N 
ATOM      8  H6  UNL     1     -30.757 -11.188  53.490  1.00  0.00     0.169 HD
ENDROOT
BRANCH   1   9
HETATM    9  C8  UNL     1     -28.334 -10.944  54.960  1.00  0.00     0.110 A 
HETATM   10  C1  UNL     1     -27.340 -11.678  55.543  1.00  0.00     0.211 A 
HETATM   11  F1  UNL     1     -27.664 -12.508  56.616  1.00  0.00    -0.184 F 
HETATM   12  N1  UNL     1     -26.137 -11.568  55.072  1.00  0.00    -0.312 N 
HETATM   13  C2  UNL     1     -25.930 -10.742  54.039  1.00  0.00     0.147 A 
ATOM     14  H1  UNL     1     -25.367 -12.098  55.479  1.00  0.00     0.170 HD
HETATM   15  N2  UNL     1     -24.787 -10.509  53.440  1.00  0.00    -0.366 N 
HETATM   16  S1  UNL     1     -27.487 -10.113  53.738  1.00  0.00    -0.046 SA
ATOM     17  H2  UNL     1     -23.961 -10.998  53.786  1.00  0.00     0.162 HD
BRANCH  15  18
HETATM   18  C3  UNL     1     -24.621  -9.624  52.349  1.00  0.00     0.083 C 
HETATM   19  C4  UNL     1     -23.297  -8.954  52.219  1.00  0.00     0.025 C 
HETATM   20  C5  UNL     1     -23.236  -8.515  50.753  1.00  0.00     0.002 C 
HETATM   21  C6  UNL     1     -24.456  -9.102  50.081  1.00  0.00     0.002 C 
HETATM   22  C7  UNL     1     -24.851 -10.272  50.992  1.00  0.00     0.025 C 
ENDBRANCH  15  18
ENDBRANCH   1   9
BRANCH   6  23
HETATM   23  C11 UNL     1     -33.314 -11.022  54.659  1.00  0.00     0.195 C 
BRANCH  23  24
HETATM   24  N5  UNL     1     -33.789 -12.323  54.341  1.00  0.00    -0.402 N 
HETATM   25  C12 UNL     1     -34.785 -12.421  53.332  1.00  0.00     0.143 C 
HETATM   26  C13 UNL     1     -34.882 -13.864  52.892  1.00  0.00     0.187 C 
HETATM   27  O1  UNL     1     -34.984 -14.769  53.910  1.00  0.00    -0.388 OA
HETATM   28  C14 UNL     1     -34.986 -14.260  55.179  1.00  0.00     0.187 C 
HETATM   29  C15 UNL     1     -33.894 -13.244  55.420  1.00  0.00     0.143 C 
ENDBRANCH  23  24
ENDBRANCH   6  23
TORSDOF 4
ENDMDL
MODEL 2
REMARK VINA RESULT: -7.737669379      7.614     11.671
REMARK  4 active torsions:
REMARK  status: ('A' for Active; 'I' for Inactive)
REMARK    1  A    between atoms: N2_6  and  C3_8 
REMARK    2  A    between atoms: C8_14  and  C9_15 
REMARK    3  A    between atoms: C10_20  and  C11_21 
REMARK    4  A    between atoms: C11_21  and  N5_22 
ROOT
HETATM    1  C9  UNL     1     -21.140 -10.514  54.783  1.00  0.00     0.143 A 
HETATM    2  N3  UNL     1     -21.776 -10.689  55.948  1.00  0.00    -0.283 N 
ATOM      3  H3  UNL     1     -22.785 -10.614  56.081  1.00  0.00     0.188 HD
HETATM    4  N4  UNL     1     -20.889 -10.979  56.913  1.00  0.00    -0.286 N 
ATOM      5  H4  UNL     1     -21.101 -11.160  57.894  1.00  0.00     0.188 HD
HETATM    6  C10 UNL     1     -19.674 -10.987  56.351  1.00  0.00     0.115 A 
HETATM    7  N6  UNL     1     -19.842 -10.702  55.048  1.00  0.00    -0.327 N 
ATOM      8  H6  UNL     1     -19.091 -10.638  54.361  1.00  0.00     0.169 HD
ENDROOT
BRANCH   1   9
HETATM    9  C8  UNL     1     -21.758 -10.183  53.484  1.00  0.00     0.110 A 
HETATM   10  C1  UNL     1     -21.165 -10.131  52.254  1.00  0.00     0.211 A 
HETATM   11  F1  UNL     1     -19.804 -10.417  52.156  1.00  0.00    -0.184 F 
HETATM   12  N1  UNL     1     -21.897  -9.817  51.232  1.00  0.00    -0.312 N 
HETATM   13  C2  UNL     1     -23.196  -9.559  51.432  1.00  0.00     0.147 A 
ATOM     14  H1  UNL     1     -21.494  -9.767  50.296  1.00  0.00     0.170 HD
HETATM   15  N2  UNL     1     -24.078  -9.227  50.520  1.00  0.00    -0.366 N 
HETATM   16  S1  UNL     1     -23.369  -9.772  53.116  1.00  0.00    -0.046 SA
ATOM     17  H2  UNL     1     -23.758  -9.153  49.555  1.00  0.00     0.162 HD
BRANCH  15  18
HETATM   18  C3  UNL     1     -25.443  -8.964  50.785  1.00  0.00     0.083 C 
HETATM   19  C4  UNL     1     -26.185  -8.167  49.770  1.00  0.00     0.025 C 
HETATM   20  C5  UNL     1     -27.659  -8.486  50.041  1.00  0.00     0.002 C 
HETATM   21  C6  UNL     1     -27.674  -9.575  51.088  1.00  0.00     0.002 C 
HETATM   22  C7  UNL     1     -26.285 -10.217  50.972  1.00  0.00     0.025 C 
ENDBRANCH  15  18
ENDBRANCH   1   9
BRANCH   6  23
HETATM   23  C11 UNL     1     -18.408 -11.262  57.022  1.00  0.00     0.195 C 
BRANCH  23  24
HETATM   24  N5  UNL     1     -17.333 -10.378  56.736  1.00  0.00    -0.402 N 
HETATM   25  C12 UNL     1     -16.333 -10.842  55.840  1.00  0.00     0.143 C 
HETATM   26  C13 UNL     1     -15.507  -9.658  55.389  1.00  0.00     0.187 C 
HETATM   27  O1  UNL     1     -15.064  -8.850  56.398  1.00  0.00    -0.388 OA
HETATM   28  C14 UNL     1     -15.421  -9.210  57.668  1.00  0.00     0.187 C 
HETATM   29  C15 UNL     1     -16.887  -9.552  57.805  1.00  0.00     0.143 C 
ENDBRANCH  23  24
ENDBRANCH   6  23
TORSDOF 4
ENDMDL
MODEL 3
REMARK VINA RESULT: -7.600531541      1.213      1.525
REMARK  4 active torsions:
REMARK  status: ('A' for Active; 'I' for Inactive)
REMARK    1  A    between atoms: N2_6  and  C3_8 
REMARK    2  A    between atoms: C8_14  and  C9_15 
REMARK    3  A    between atoms: C10_20  and  C11_21 
REMARK    4  A    between atoms: C11_21  and  N5_22 
ROOT
HETATM    1  C9  UNL     1     -29.404 -11.157  55.577  1.00  0.00     0.143 A 
HETATM    2  N3  UNL     1     -30.016 -10.353  56.454  1.00  0.00    -0.283 N 
ATOM      3  H3  UNL     1     -29.574  -9.573  56.942  1.00  0.00     0.188 HD
HETATM    4  N4  UNL     1     -31.299 -10.725  56.596  1.00  0.00    -0.286 N 
ATOM      5  H4  UNL     1     -31.992 -10.285  57.201  1.00  0.00     0.188 HD
HETATM    6  C10 UNL     1     -31.500 -11.779  55.797  1.00  0.00     0.115 A 
HETATM    7  N6  UNL     1     -30.334 -12.033  55.179  1.00  0.00    -0.327 N 
ATOM      8  H6  UNL     1     -30.179 -12.783  54.505  1.00  0.00     0.169 HD
ENDROOT
BRANCH   1   9
HETATM    9  C8  UNL     1     -27.994 -11.079  55.147  1.00  0.00     0.110 A 
HETATM   10  C1  UNL     1     -26.901 -11.666  55.720  1.00  0.00     0.211 A 
HETATM   11  F1  UNL     1     -27.084 -12.448  56.860  1.00  0.00    -0.184 F 
HETATM   12  N1  UNL     1     -25.741 -11.467  55.177  1.00  0.00    -0.312 N 
HETATM   13  C2  UNL     1     -25.672 -10.698  54.084  1.00  0.00     0.147 A 
ATOM     14  H1  UNL     1     -24.900 -11.887  55.574  1.00  0.00     0.170 HD
HETATM   15  N2  UNL     1     -24.590 -10.392  53.409  1.00  0.00    -0.366 N 
HETATM   16  S1  UNL     1     -27.299 -10.253  53.830  1.00  0.00    -0.046 SA
ATOM     17  H2  UNL     1     -23.702 -10.770  53.739  1.00  0.00     0.162 HD
BRANCH  15  18
HETATM   18  C3  UNL     1     -24.570  -9.573  52.255  1.00  0.00     0.083 C 
HETATM   19  C4  UNL     1     -23.307  -8.838  51.971  1.00  0.00     0.025 C 
HETATM   20  C5  UNL     1     -23.396  -8.494  50.481  1.00  0.00     0.002 C 
HETATM   21  C6  UNL     1     -24.627  -9.193  49.954  1.00  0.00     0.002 C 
HETATM   22  C7  UNL     1     -24.871 -10.321  50.966  1.00  0.00     0.025 C 
ENDBRANCH  15  18
ENDBRANCH   1   9
BRANCH   6  23
HETATM   23  C11 UNL     1     -32.751 -12.511  55.623  1.00  0.00     0.195 C 
BRANCH  23  24
HETATM   24  N5  UNL     1     -33.716 -11.922  54.762  1.00  0.00    -0.402 N 
HETATM   25  C12 UNL     1     -34.999 -11.659  55.312  1.00  0.00     0.143 C 
HETATM   26  C13 UNL     1     -35.737 -10.721  54.381  1.00  0.00     0.187 C 
HETATM   27  O1  UNL     1     -35.724 -11.092  53.066  1.00  0.00    -0.388 OA
HETATM   28  C14 UNL     1     -35.055 -12.246  52.765  1.00  0.00     0.187 C 
HETATM   29  C15 UNL     1     -33.687 -12.330  53.400  1.00  0.00     0.143 C 
ENDBRANCH  23  24
ENDBRANCH   6  23
TORSDOF 4
ENDMDL
MODEL 4
REMARK VINA RESULT: -7.588801469      2.512      3.505
REMARK  4 active torsions:
REMARK  status: ('A' for Active; 'I' for Inactive)
REMARK    1  A    between atoms: N2_6  and  C3_8 
REMARK    2  A    between atoms: C8_14  and  C9_15 
REMARK    3  A    between atoms: C10_20  and  C11_21 
REMARK    4  A    between atoms: C11_21  and  N5_22 
ROOT
HETATM    1  C9  UNL     1     -28.127 -10.386  54.415  1.00  0.00     0.143 A 
HETATM    2  N3  UNL     1     -28.276 -10.063  55.706  1.00  0.00    -0.283 N 
ATOM      3  H3  UNL     1     -27.590  -9.556  56.266  1.00  0.00     0.188 HD
HETATM    4  N4  UNL     1     -29.462 -10.507  56.152  1.00  0.00    -0.286 N 
ATOM      5  H4  UNL     1     -29.831 -10.398  57.097  1.00  0.00     0.188 HD
HETATM    6  C10 UNL     1     -30.071 -11.118  55.129  1.00  0.00     0.115 A 
HETATM    7  N6  UNL     1     -29.244 -11.036  54.073  1.00  0.00    -0.327 N 
ATOM      8  H6  UNL     1     -29.439 -11.414  53.146  1.00  0.00     0.169 HD
ENDROOT
BRANCH   1   9
HETATM    9  C8  UNL     1     -26.963 -10.078  53.561  1.00  0.00     0.110 A 
HETATM   10  C1  UNL     1     -26.945  -9.438  52.354  1.00  0.00     0.211 A 
HETATM   11  F1  UNL     1     -28.153  -8.999  51.813  1.00  0.00    -0.184 F 
HETATM   12  N1  UNL     1     -25.803  -9.268  51.764  1.00  0.00    -0.312 N 
HETATM   13  C2  UNL     1     -24.700  -9.727  52.367  1.00  0.00     0.147 A 
ATOM     14  H1  UNL     1     -25.747  -8.795  50.862  1.00  0.00     0.170 HD
HETATM   15  N2  UNL     1     -23.470  -9.644  51.919  1.00  0.00    -0.366 N 
HETATM   16  S1  UNL     1     -25.311 -10.414  53.804  1.00  0.00    -0.046 SA
ATOM     17  H2  UNL     1     -23.323  -9.185  51.020  1.00  0.00     0.162 HD
BRANCH  15  18
HETATM   18  C3  UNL     1     -22.335 -10.147  52.597  1.00  0.00     0.083 C 
HETATM   19  C4  UNL     1     -21.090 -10.310  51.797  1.00  0.00     0.025 C 
HETATM   20  C5  UNL     1     -19.970 -10.350  52.842  1.00  0.00     0.002 C 
HETATM   21  C6  UNL     1     -20.617 -10.040  54.172  1.00  0.00     0.002 C 
HETATM   22  C7  UNL     1     -21.910  -9.306  53.791  1.00  0.00     0.025 C 
ENDBRANCH  15  18
ENDBRANCH   1   9
BRANCH   6  23
HETATM   23  C11 UNL     1     -31.387 -11.747  55.153  1.00  0.00     0.195 C 
BRANCH  23  24
HETATM   24  N5  UNL     1     -32.509 -10.875  55.124  1.00  0.00    -0.402 N 
HETATM   25  C12 UNL     1     -33.005 -10.415  56.373  1.00  0.00     0.143 C 
HETATM   26  C13 UNL     1     -33.928  -9.244  56.120  1.00  0.00     0.187 C 
HETATM   27  O1  UNL     1     -34.870  -9.455  55.154  1.00  0.00    -0.388 OA
HETATM   28  C14 UNL     1     -34.858 -10.681  54.548  1.00  0.00     0.187 C 
HETATM   29  C15 UNL     1     -33.479 -11.120  54.113  1.00  0.00     0.143 C 
ENDBRANCH  23  24
ENDBRANCH   6  23
TORSDOF 4
ENDMDL
MODEL 5
REMARK VINA RESULT: -7.462461350      3.039      4.062
REMARK  4 active torsions:
REMARK  status: ('A' for Active; 'I' for Inactive)
REMARK    1  A    between atoms: N2_6  and  C3_8 
REMARK    2  A    between atoms: C8_14  and  C9_15 
REMARK    3  A    between atoms: C10_20  and  C11_21 
REMARK    4  A    between atoms: C11_21  and  N5_22 
ROOT
HETATM    1  C9  UNL     1     -29.287 -10.877  55.343  1.00  0.00     0.143 A 
HETATM    2  N3  UNL     1     -30.327 -10.772  54.508  1.00  0.00    -0.283 N 
ATOM      3  H3  UNL     1     -30.259 -10.693  53.493  1.00  0.00     0.188 HD
HETATM    4  N4  UNL     1     -31.475 -10.787  55.206  1.00  0.00    -0.286 N 
ATOM      5  H4  UNL     1     -32.417 -10.722  54.820  1.00  0.00     0.188 HD
HETATM    6  C10 UNL     1     -31.155 -10.903  56.500  1.00  0.00     0.115 A 
HETATM    7  N6  UNL     1     -29.813 -10.958  56.570  1.00  0.00    -0.327 N 
ATOM      8  H6  UNL     1     -29.275 -11.047  57.432  1.00  0.00     0.169 HD
ENDROOT
BRANCH   1   9
HETATM    9  C8  UNL     1     -27.859 -10.900  54.971  1.00  0.00     0.110 A 
HETATM   10  C1  UNL     1     -26.845 -11.614  55.544  1.00  0.00     0.211 A 
HETATM   11  F1  UNL     1     -27.142 -12.445  56.624  1.00  0.00    -0.184 F 
HETATM   12  N1  UNL     1     -25.651 -11.487  55.057  1.00  0.00    -0.312 N 
HETATM   13  C2  UNL     1     -25.470 -10.663  54.018  1.00  0.00     0.147 A 
ATOM     14  H1  UNL     1     -24.867 -12.003  55.456  1.00  0.00     0.170 HD
HETATM   15  N2  UNL     1     -24.339 -10.414  53.403  1.00  0.00    -0.366 N 
HETATM   16  S1  UNL     1     -27.041 -10.060  53.734  1.00  0.00    -0.046 SA
ATOM     17  H2  UNL     1     -23.501 -10.889  53.740  1.00  0.00     0.162 HD
BRANCH  15  18
HETATM   18  C3  UNL     1     -24.200  -9.532  52.306  1.00  0.00     0.083 C 
HETATM   19  C4  UNL     1     -22.897  -8.825  52.168  1.00  0.00     0.025 C 
HETATM   20  C5  UNL     1     -22.853  -8.393  50.699  1.00  0.00     0.002 C 
HETATM   21  C6  UNL     1     -24.057  -9.020  50.034  1.00  0.00     0.002 C 
HETATM   22  C7  UNL     1     -24.416 -10.195  50.954  1.00  0.00     0.025 C 
ENDBRANCH  15  18
ENDBRANCH   1   9
BRANCH   6  23
HETATM   23  C11 UNL     1     -32.085 -10.966  57.622  1.00  0.00     0.195 C 
BRANCH  23  24
HETATM   24  N5  UNL     1     -31.992  -9.923  58.583  1.00  0.00    -0.402 N 
HETATM   25  C12 UNL     1     -31.847 -10.307  59.944  1.00  0.00     0.143 C 
HETATM   26  C13 UNL     1     -31.403  -9.099  60.738  1.00  0.00     0.187 C 
HETATM   27  O1  UNL     1     -32.136  -7.968  60.520  1.00  0.00    -0.388 OA
HETATM   28  C14 UNL     1     -33.164  -8.071  59.624  1.00  0.00     0.187 C 
HETATM   29  C15 UNL     1     -32.771  -8.759  58.337  1.00  0.00     0.143 C 
ENDBRANCH  23  24
ENDBRANCH   6  23
TORSDOF 4
ENDMDL
