MODEL 1
REMARK VINA RESULT: -7.889815587      0.000      0.000
REMARK  6 active torsions:
REMARK  status: ('A' for Active; 'I' for Inactive)
REMARK    1  A    between atoms: C2_4  and  C3_5 
REMARK    2  A    between atoms: C3_5  and  C4_6 
REMARK    3  A    between atoms: C4_6  and  O3_7 
REMARK    4  A    between atoms: C9_15  and  N1_16 
REMARK    5  A    between atoms: N1_16  and  C10_18 
REMARK    6  A    between atoms: C10_18  and  C11_19 
ROOT
HETATM    1  O1  UNL     1     -28.711 -10.106  53.101  1.00  0.00    -0.262 OA
HETATM    2  C1  UNL     1     -29.104 -10.748  54.100  1.00  0.00     0.287 C 
HETATM    3  O2  UNL     1     -30.443 -11.165  54.262  1.00  0.00    -0.308 OA
HETATM    4  C2  UNL     1     -30.643 -11.979  55.439  1.00  0.00     0.078 C 
HETATM    5  C7  UNL     1     -30.259 -11.108  56.645  1.00  0.00     0.042 C 
HETATM    6  C8  UNL     1     -28.830 -10.707  56.579  1.00  0.00     0.044 C 
HETATM    7  C9  UNL     1     -28.239 -11.145  55.224  1.00  0.00     0.115 C 
HETATM    8  C17 UNL     1     -28.272 -12.666  55.232  1.00  0.00     0.044 C 
HETATM    9  C18 UNL     1     -29.713 -13.128  55.368  1.00  0.00     0.042 C 
ENDROOT
BRANCH   7  10
HETATM   10  N1  UNL     1     -26.951 -10.588  55.111  1.00  0.00    -0.401 N 
ATOM     11  H1  UNL     1     -26.841  -9.603  54.871  1.00  0.00     0.154 HD
BRANCH  10  12
HETATM   12  C10 UNL     1     -25.812 -11.391  55.329  1.00  0.00     0.154 C 
BRANCH  12  13
HETATM   13  C11 UNL     1     -24.842 -10.959  54.242  1.00  0.00    -0.041 A 
HETATM   14  C12 UNL     1     -23.485 -11.156  54.395  1.00  0.00     0.012 A 
HETATM   15  C13 UNL     1     -22.567 -10.824  53.430  1.00  0.00     0.043 A 
HETATM   16  C14 UNL     1     -23.002 -10.267  52.252  1.00  0.00     0.116 A 
HETATM   17  F1  UNL     1     -22.109  -9.925  51.281  1.00  0.00    -0.206 F 
HETATM   18  C15 UNL     1     -24.362 -10.058  52.082  1.00  0.00     0.043 A 
HETATM   19  C16 UNL     1     -25.287 -10.398  53.066  1.00  0.00     0.012 A 
ENDBRANCH  12  13
ENDBRANCH  10  12
ENDBRANCH   7  10
BRANCH   4  20
HETATM   20  C3  UNL     1     -32.089 -12.265  55.593  1.00  0.00     0.140 C 
BRANCH  20  21
HETATM   21  C4  UNL     1     -33.033 -11.305  54.948  1.00  0.00     0.282 C 
HETATM   22  O4  UNL     1     -33.080 -11.538  53.595  1.00  0.00    -0.331 OA
HETATM   23  C5  UNL     1     -34.092 -12.519  53.465  1.00  0.00     0.200 C 
HETATM   24  C6  UNL     1     -35.139 -11.881  54.390  1.00  0.00     0.200 C 
HETATM   25  O5  UNL     1     -34.343 -11.530  55.452  1.00  0.00    -0.331 OA
BRANCH  21  26
HETATM   26  O3  UNL     1     -32.693  -9.985  55.185  1.00  0.00    -0.343 OA
ATOM     27  H3  UNL     1     -33.448  -9.409  55.185  1.00  0.00     0.215 HD
ENDBRANCH  21  26
ENDBRANCH  20  21
ENDBRANCH   4  20
TORSDOF 6
ENDMDL
MODEL 2
REMARK VINA RESULT: -7.775492836      1.500      1.959
REMARK  6 active torsions:
REMARK  status: ('A' for Active; 'I' for Inactive)
REMARK    1  A    between atoms: C2_4  and  C3_5 
REMARK    2  A    between atoms: C3_5  and  C4_6 
REMARK    3  A    between atoms: C4_6  and  O3_7 
REMARK    4  A    between atoms: C9_15  and  N1_16 
REMARK    5  A    between atoms: N1_16  and  C10_18 
REMARK    6  A    between atoms: C10_18  and  C11_19 
ROOT
HETATM    1  O1  UNL     1     -27.253  -8.846  56.576  1.00  0.00    -0.262 OA
HETATM    2  C1  UNL     1     -27.675  -9.901  56.053  1.00  0.00     0.287 C 
HETATM    3  O2  UNL     1     -28.946 -10.443  56.344  1.00  0.00    -0.308 OA
HETATM    4  C2  UNL     1     -29.259 -11.607  55.547  1.00  0.00     0.078 C 
HETATM    5  C7  UNL     1     -28.196 -12.665  55.879  1.00  0.00     0.042 C 
HETATM    6  C8  UNL     1     -26.838 -12.188  55.512  1.00  0.00     0.044 C 
HETATM    7  C9  UNL     1     -26.914 -10.708  55.084  1.00  0.00     0.115 C 
HETATM    8  C17 UNL     1     -27.749 -10.690  53.812  1.00  0.00     0.044 C 
HETATM    9  C18 UNL     1     -29.132 -11.237  54.121  1.00  0.00     0.042 C 
ENDROOT
BRANCH   7  10
HETATM   10  N1  UNL     1     -25.599 -10.232  54.928  1.00  0.00    -0.401 N 
ATOM     11  H1  UNL     1     -25.410  -9.231  54.986  1.00  0.00     0.154 HD
BRANCH  10  12
HETATM   12  C10 UNL     1     -24.543 -11.136  54.693  1.00  0.00     0.154 C 
BRANCH  12  13
HETATM   13  C11 UNL     1     -23.779 -10.519  53.534  1.00  0.00    -0.041 A 
HETATM   14  C12 UNL     1     -22.448 -10.820  53.332  1.00  0.00     0.012 A 
HETATM   15  C13 UNL     1     -21.720 -10.327  52.279  1.00  0.00     0.043 A 
HETATM   16  C14 UNL     1     -22.330  -9.490  51.374  1.00  0.00     0.116 A 
HETATM   17  F1  UNL     1     -21.626  -8.983  50.323  1.00  0.00    -0.206 F 
HETATM   18  C15 UNL     1     -23.666  -9.174  51.563  1.00  0.00     0.043 A 
HETATM   19  C16 UNL     1     -24.397  -9.680  52.635  1.00  0.00     0.012 A 
ENDBRANCH  12  13
ENDBRANCH  10  12
ENDBRANCH   7  10
BRANCH   4  20
HETATM   20  C3  UNL     1     -30.550 -12.176  56.005  1.00  0.00     0.140 C 
BRANCH  20  21
HETATM   21  C4  UNL     1     -31.750 -11.297  55.882  1.00  0.00     0.282 C 
HETATM   22  O4  UNL     1     -32.017 -11.058  54.556  1.00  0.00    -0.331 OA
HETATM   23  C5  UNL     1     -32.853 -12.139  54.189  1.00  0.00     0.200 C 
HETATM   24  C6  UNL     1     -33.794 -12.113  55.403  1.00  0.00     0.200 C 
HETATM   25  O5  UNL     1     -32.879 -11.973  56.417  1.00  0.00    -0.331 OA
BRANCH  21  26
HETATM   26  O3  UNL     1     -31.600 -10.097  56.554  1.00  0.00    -0.343 OA
ATOM     27  H3  UNL     1     -31.297 -10.215  57.447  1.00  0.00     0.215 HD
ENDBRANCH  21  26
ENDBRANCH  20  21
ENDBRANCH   4  20
TORSDOF 6
ENDMDL
MODEL 3
REMARK VINA RESULT: -7.696963451      4.081      5.142
REMARK  6 active torsions:
REMARK  status: ('A' for Active; 'I' for Inactive)
REMARK    1  A    between atoms: C2_4  and  C3_5 
REMARK    2  A    between atoms: C3_5  and  C4_6 
REMARK    3  A    between atoms: C4_6  and  O3_7 
REMARK    4  A    between atoms: C9_15  and  N1_16 
REMARK    5  A    between atoms: N1_16  and  C10_18 
REMARK    6  A    between atoms: C10_18  and  C11_19 
ROOT
HETATM    1  O1  UNL     1     -27.864  -9.592  54.419  1.00  0.00    -0.262 OA
HETATM    2  C1  UNL     1     -27.179  -9.675  55.464  1.00  0.00     0.287 C 
HETATM    3  O2  UNL     1     -27.534  -9.022  56.664  1.00  0.00    -0.308 OA
HETATM    4  C2  UNL     1     -26.653  -9.345  57.763  1.00  0.00     0.078 C 
HETATM    5  C7  UNL     1     -25.249  -8.874  57.353  1.00  0.00     0.042 C 
HETATM    6  C8  UNL     1     -24.780  -9.592  56.141  1.00  0.00     0.044 C 
HETATM    7  C9  UNL     1     -25.931 -10.449  55.577  1.00  0.00     0.115 C 
HETATM    8  C17 UNL     1     -26.214 -11.505  56.634  1.00  0.00     0.044 C 
HETATM    9  C18 UNL     1     -26.633 -10.816  57.921  1.00  0.00     0.042 C 
ENDROOT
BRANCH   7  10
HETATM   10  N1  UNL     1     -25.522 -10.962  54.332  1.00  0.00    -0.401 N 
ATOM     11  H1  UNL     1     -26.111 -11.633  53.839  1.00  0.00     0.154 HD
BRANCH  10  12
HETATM   12  C10 UNL     1     -24.298 -10.549  53.764  1.00  0.00     0.154 C 
BRANCH  12  13
HETATM   13  C11 UNL     1     -24.700  -9.904  52.448  1.00  0.00    -0.041 A 
HETATM   14  C12 UNL     1     -25.958 -10.111  51.922  1.00  0.00     0.012 A 
HETATM   15  C13 UNL     1     -26.391  -9.522  50.760  1.00  0.00     0.043 A 
HETATM   16  C14 UNL     1     -25.542  -8.684  50.076  1.00  0.00     0.116 A 
HETATM   17  F1  UNL     1     -25.947  -8.091  48.918  1.00  0.00    -0.206 F 
HETATM   18  C15 UNL     1     -24.272  -8.466  50.589  1.00  0.00     0.043 A 
HETATM   19  C16 UNL     1     -23.843  -9.069  51.768  1.00  0.00     0.012 A 
ENDBRANCH  12  13
ENDBRANCH  10  12
ENDBRANCH   7  10
BRANCH   4  20
HETATM   20  C3  UNL     1     -27.025  -8.525  58.940  1.00  0.00     0.140 C 
BRANCH  20  21
HETATM   21  C4  UNL     1     -28.484  -8.373  59.216  1.00  0.00     0.282 C 
HETATM   22  O4  UNL     1     -29.084  -9.609  59.238  1.00  0.00    -0.331 OA
HETATM   23  C5  UNL     1     -28.940 -10.020  60.584  1.00  0.00     0.200 C 
HETATM   24  C6  UNL     1     -29.362  -8.709  61.264  1.00  0.00     0.200 C 
HETATM   25  O5  UNL     1     -28.658  -7.806  60.508  1.00  0.00    -0.331 OA
BRANCH  21  26
HETATM   26  O3  UNL     1     -29.117  -7.560  58.293  1.00  0.00    -0.343 OA
ATOM     27  H3  UNL     1     -29.313  -6.698  58.640  1.00  0.00     0.215 HD
ENDBRANCH  21  26
ENDBRANCH  20  21
ENDBRANCH   4  20
TORSDOF 6
ENDMDL
MODEL 4
REMARK VINA RESULT: -7.690519824      3.999      5.720
REMARK  6 active torsions:
REMARK  status: ('A' for Active; 'I' for Inactive)
REMARK    1  A    between atoms: C2_4  and  C3_5 
REMARK    2  A    between atoms: C3_5  and  C4_6 
REMARK    3  A    between atoms: C4_6  and  O3_7 
REMARK    4  A    between atoms: C9_15  and  N1_16 
REMARK    5  A    between atoms: N1_16  and  C10_18 
REMARK    6  A    between atoms: C10_18  and  C11_19 
ROOT
HETATM    1  O1  UNL     1     -25.164 -11.858  55.026  1.00  0.00    -0.262 OA
HETATM    2  C1  UNL     1     -26.242 -11.313  55.357  1.00  0.00     0.287 C 
HETATM    3  O2  UNL     1     -26.780 -11.412  56.659  1.00  0.00    -0.308 OA
HETATM    4  C2  UNL     1     -27.975 -10.620  56.837  1.00  0.00     0.078 C 
HETATM    5  C7  UNL     1     -29.013 -11.162  55.842  1.00  0.00     0.042 C 
HETATM    6  C8  UNL     1     -28.542 -11.005  54.443  1.00  0.00     0.044 C 
HETATM    7  C9  UNL     1     -27.080 -10.514  54.447  1.00  0.00     0.115 C 
HETATM    8  C17 UNL     1     -27.115  -9.122  55.062  1.00  0.00     0.044 C 
HETATM    9  C18 UNL     1     -27.658  -9.220  56.477  1.00  0.00     0.042 C 
ENDROOT
BRANCH   7  10
HETATM   10  N1  UNL     1     -26.602 -10.558  53.125  1.00  0.00    -0.401 N 
ATOM     11  H1  UNL     1     -26.845 -11.345  52.522  1.00  0.00     0.154 HD
BRANCH  10  12
HETATM   12  C10 UNL     1     -25.787  -9.518  52.631  1.00  0.00     0.154 C 
BRANCH  12  13
HETATM   13  C11 UNL     1     -26.511  -9.042  51.383  1.00  0.00    -0.041 A 
HETATM   14  C12 UNL     1     -27.846  -9.334  51.192  1.00  0.00     0.012 A 
HETATM   15  C13 UNL     1     -28.561  -8.896  50.106  1.00  0.00     0.043 A 
HETATM   16  C14 UNL     1     -27.932  -8.130  49.153  1.00  0.00     0.116 A 
HETATM   17  F1  UNL     1     -28.621  -7.687  48.064  1.00  0.00    -0.206 F 
HETATM   18  C15 UNL     1     -26.591  -7.829  49.327  1.00  0.00     0.043 A 
HETATM   19  C16 UNL     1     -25.873  -8.278  50.433  1.00  0.00     0.012 A 
ENDBRANCH  12  13
ENDBRANCH  10  12
ENDBRANCH   7  10
BRANCH   4  20
HETATM   20  C3  UNL     1     -28.533 -10.880  58.185  1.00  0.00     0.140 C 
BRANCH  20  21
HETATM   21  C4  UNL     1     -27.568 -11.313  59.238  1.00  0.00     0.282 C 
HETATM   22  O4  UNL     1     -26.509 -10.439  59.284  1.00  0.00    -0.331 OA
HETATM   23  C5  UNL     1     -26.945  -9.441  60.188  1.00  0.00     0.200 C 
HETATM   24  C6  UNL     1     -27.510 -10.362  61.280  1.00  0.00     0.200 C 
HETATM   25  O5  UNL     1     -28.206 -11.258  60.506  1.00  0.00    -0.331 OA
BRANCH  21  26
HETATM   26  O3  UNL     1     -27.105 -12.601  59.037  1.00  0.00    -0.343 OA
ATOM     27  H3  UNL     1     -27.101 -13.115  59.835  1.00  0.00     0.215 HD
ENDBRANCH  21  26
ENDBRANCH  20  21
ENDBRANCH   4  20
TORSDOF 6
ENDMDL
MODEL 5
REMARK VINA RESULT: -7.687237982      7.044     10.228
REMARK  6 active torsions:
REMARK  status: ('A' for Active; 'I' for Inactive)
REMARK    1  A    between atoms: C2_4  and  C3_5 
REMARK    2  A    between atoms: C3_5  and  C4_6 
REMARK    3  A    between atoms: C4_6  and  O3_7 
REMARK    4  A    between atoms: C9_15  and  N1_16 
REMARK    5  A    between atoms: N1_16  and  C10_18 
REMARK    6  A    between atoms: C10_18  and  C11_19 
ROOT
HETATM    1  O1  UNL     1     -20.745  -9.977  50.744  1.00  0.00    -0.262 OA
HETATM    2  C1  UNL     1     -21.139 -10.037  51.931  1.00  0.00     0.287 C 
HETATM    3  O2  UNL     1     -20.272 -10.314  53.010  1.00  0.00    -0.308 OA
HETATM    4  C2  UNL     1     -20.927 -10.230  54.295  1.00  0.00     0.078 C 
HETATM    5  C7  UNL     1     -22.043 -11.286  54.288  1.00  0.00     0.042 C 
HETATM    6  C8  UNL     1     -23.041 -10.999  53.226  1.00  0.00     0.044 C 
HETATM    7  C9  UNL     1     -22.536  -9.834  52.352  1.00  0.00     0.115 C 
HETATM    8  C17 UNL     1     -22.501  -8.618  53.267  1.00  0.00     0.044 C 
HETATM    9  C18 UNL     1     -21.542  -8.890  54.413  1.00  0.00     0.042 C 
ENDROOT
BRANCH   7  10
HETATM   10  N1  UNL     1     -23.400  -9.711  51.248  1.00  0.00    -0.401 N 
ATOM     11  H1  UNL     1     -23.731 -10.547  50.766  1.00  0.00     0.154 HD
BRANCH  10  12
HETATM   12  C10 UNL     1     -23.809  -8.435  50.808  1.00  0.00     0.154 C 
BRANCH  12  13
HETATM   13  C11 UNL     1     -25.314  -8.567  50.643  1.00  0.00    -0.041 A 
HETATM   14  C12 UNL     1     -25.962  -7.934  49.603  1.00  0.00     0.012 A 
HETATM   15  C13 UNL     1     -27.311  -8.050  49.379  1.00  0.00     0.043 A 
HETATM   16  C14 UNL     1     -28.067  -8.829  50.224  1.00  0.00     0.116 A 
HETATM   17  F1  UNL     1     -29.409  -8.956  50.025  1.00  0.00    -0.206 F 
HETATM   18  C15 UNL     1     -27.433  -9.470  51.277  1.00  0.00     0.043 A 
HETATM   19  C16 UNL     1     -26.063  -9.346  51.495  1.00  0.00     0.012 A 
ENDBRANCH  12  13
ENDBRANCH  10  12
ENDBRANCH   7  10
BRANCH   4  20
HETATM   20  C3  UNL     1     -19.978 -10.654  55.352  1.00  0.00     0.140 C 
BRANCH  20  21
HETATM   21  C4  UNL     1     -18.525 -10.496  55.050  1.00  0.00     0.282 C 
HETATM   22  O4  UNL     1     -18.131  -9.208  55.320  1.00  0.00    -0.331 OA
HETATM   23  C5  UNL     1     -17.774  -9.253  56.688  1.00  0.00     0.200 C 
HETATM   24  C6  UNL     1     -16.949 -10.549  56.659  1.00  0.00     0.200 C 
HETATM   25  O5  UNL     1     -17.775 -11.346  55.907  1.00  0.00    -0.331 OA
BRANCH  21  26
HETATM   26  O3  UNL     1     -18.218 -10.816  53.739  1.00  0.00    -0.343 OA
ATOM     27  H3  UNL     1     -18.365 -11.734  53.544  1.00  0.00     0.215 HD
ENDBRANCH  21  26
ENDBRANCH  20  21
ENDBRANCH   4  20
TORSDOF 6
ENDMDL
