MODEL 1
REMARK VINA RESULT: -7.920715057      0.000      0.000
REMARK  3 active torsions:
REMARK  status: ('A' for Active; 'I' for Inactive)
REMARK    1  A    between atoms: C5_7  and  N2_8 
REMARK    2  A    between atoms: N2_8  and  C6_10 
REMARK    3  A    between atoms: C14_18  and  C15_19 
ROOT
HETATM    1  C1  UNL     1     -44.425  22.715   1.893  1.00  0.00     0.050 C 
HETATM    2  C2  UNL     1     -43.854  24.013   1.414  1.00  0.00    -0.034 A 
HETATM    3  C3  UNL     1     -44.423  25.247   1.305  1.00  0.00     0.096 A 
HETATM    4  N1  UNL     1     -43.511  26.110   0.813  1.00  0.00    -0.363 N 
ATOM      5  H1  UNL     1     -43.681  27.100   0.634  1.00  0.00     0.165 HD
HETATM    6  C4  UNL     1     -42.345  25.475   0.592  1.00  0.00     0.069 A 
HETATM    7  C5  UNL     1     -41.134  25.945   0.103  1.00  0.00     0.057 A 
HETATM    8  C13 UNL     1     -40.122  25.040   0.001  1.00  0.00     0.047 A 
HETATM    9  C14 UNL     1     -40.261  23.715   0.355  1.00  0.00     0.051 A 
HETATM   10  C16 UNL     1     -41.492  23.279   0.842  1.00  0.00     0.030 A 
HETATM   11  C17 UNL     1     -42.549  24.164   0.964  1.00  0.00     0.001 A 
ENDROOT
BRANCH   7  12
HETATM   12  N2  UNL     1     -41.018  27.311  -0.278  1.00  0.00    -0.383 N 
ATOM     13  H2  UNL     1     -40.863  27.502  -1.268  1.00  0.00     0.160 HD
BRANCH  12  14
HETATM   14  C6  UNL     1     -41.098  28.434   0.590  1.00  0.00     0.086 C 
HETATM   15  C7  UNL     1     -40.903  29.778  -0.089  1.00  0.00     0.030 C 
HETATM   16  C8  UNL     1     -39.843  30.515   0.707  1.00  0.00    -0.012 C 
HETATM   17  C9  UNL     1     -38.507  29.948   0.343  1.00  0.00     0.005 C 
HETATM   18  C12 UNL     1     -40.042  29.862   2.088  1.00  0.00     0.011 C 
HETATM   19  C10 UNL     1     -38.657  28.492   0.819  1.00  0.00     0.007 C 
HETATM   20  C11 UNL     1     -39.948  28.415   1.562  1.00  0.00     0.009 C 
ENDBRANCH  12  14
ENDBRANCH   7  12
BRANCH   9  21
HETATM   21  C15 UNL     1     -39.167  22.732   0.245  1.00  0.00     0.417 C 
HETATM   22  F1  UNL     1     -37.961  23.425   0.247  1.00  0.00    -0.166 F 
HETATM   23  F2  UNL     1     -39.234  22.076  -0.973  1.00  0.00    -0.166 F 
HETATM   24  F3  UNL     1     -39.119  21.868   1.322  1.00  0.00    -0.166 F 
ENDBRANCH   9  21
TORSDOF 3
ENDMDL
MODEL 2
REMARK VINA RESULT: -7.730284824      2.929      5.810
REMARK  3 active torsions:
REMARK  status: ('A' for Active; 'I' for Inactive)
REMARK    1  A    between atoms: C5_7  and  N2_8 
REMARK    2  A    between atoms: N2_8  and  C6_10 
REMARK    3  A    between atoms: C14_18  and  C15_19 
ROOT
HETATM    1  C1  UNL     1     -45.150  24.283   1.844  1.00  0.00     0.050 C 
HETATM    2  C2  UNL     1     -43.908  23.532   1.478  1.00  0.00    -0.034 A 
HETATM    3  C3  UNL     1     -43.665  22.192   1.418  1.00  0.00     0.096 A 
HETATM    4  N1  UNL     1     -42.386  21.992   1.043  1.00  0.00    -0.363 N 
ATOM      5  H1  UNL     1     -41.949  21.079   0.923  1.00  0.00     0.165 HD
HETATM    6  C4  UNL     1     -41.771  23.173   0.851  1.00  0.00     0.069 A 
HETATM    7  C5  UNL     1     -40.472  23.467   0.460  1.00  0.00     0.057 A 
HETATM    8  C13 UNL     1     -40.149  24.785   0.346  1.00  0.00     0.047 A 
HETATM    9  C14 UNL     1     -41.045  25.802   0.601  1.00  0.00     0.051 A 
HETATM   10  C16 UNL     1     -42.340  25.470   0.992  1.00  0.00     0.030 A 
HETATM   11  C17 UNL     1     -42.713  24.142   1.120  1.00  0.00     0.001 A 
ENDROOT
BRANCH   7  12
HETATM   12  N2  UNL     1     -39.557  22.403   0.222  1.00  0.00    -0.383 N 
ATOM     13  H2  UNL     1     -39.567  21.629   0.887  1.00  0.00     0.160 HD
BRANCH  12  14
HETATM   14  C6  UNL     1     -38.630  22.317  -0.853  1.00  0.00     0.086 C 
HETATM   15  C7  UNL     1     -38.622  20.984  -1.580  1.00  0.00     0.030 C 
HETATM   16  C8  UNL     1     -37.177  20.528  -1.631  1.00  0.00    -0.012 C 
HETATM   17  C9  UNL     1     -36.811  19.985  -0.285  1.00  0.00     0.005 C 
HETATM   18  C12 UNL     1     -36.462  21.891  -1.571  1.00  0.00     0.011 C 
HETATM   19  C10 UNL     1     -36.975  21.234   0.599  1.00  0.00     0.007 C 
HETATM   20  C11 UNL     1     -37.222  22.381  -0.322  1.00  0.00     0.009 C 
ENDBRANCH  12  14
ENDBRANCH   7  12
BRANCH   9  21
HETATM   21  C15 UNL     1     -40.698  27.231   0.480  1.00  0.00     0.417 C 
HETATM   22  F1  UNL     1     -41.418  27.934   1.441  1.00  0.00    -0.166 F 
HETATM   23  F2  UNL     1     -41.113  27.721  -0.748  1.00  0.00    -0.166 F 
HETATM   24  F3  UNL     1     -39.363  27.476   0.737  1.00  0.00    -0.166 F 
ENDBRANCH   9  21
TORSDOF 3
ENDMDL
MODEL 3
REMARK VINA RESULT: -7.708853708      0.610      1.520
REMARK  3 active torsions:
REMARK  status: ('A' for Active; 'I' for Inactive)
REMARK    1  A    between atoms: C5_7  and  N2_8 
REMARK    2  A    between atoms: N2_8  and  C6_10 
REMARK    3  A    between atoms: C14_18  and  C15_19 
ROOT
HETATM    1  C1  UNL     1     -44.209  22.515   1.640  1.00  0.00     0.050 C 
HETATM    2  C2  UNL     1     -43.624  23.853   1.311  1.00  0.00    -0.034 A 
HETATM    3  C3  UNL     1     -44.181  25.097   1.334  1.00  0.00     0.096 A 
HETATM    4  N1  UNL     1     -43.258  26.000   0.948  1.00  0.00    -0.363 N 
ATOM      5  H1  UNL     1     -43.418  27.005   0.878  1.00  0.00     0.165 HD
HETATM    6  C4  UNL     1     -42.095  25.383   0.668  1.00  0.00     0.069 A 
HETATM    7  C5  UNL     1     -40.876  25.893   0.244  1.00  0.00     0.057 A 
HETATM    8  C13 UNL     1     -39.870  24.996   0.052  1.00  0.00     0.047 A 
HETATM    9  C14 UNL     1     -40.023  23.641   0.257  1.00  0.00     0.051 A 
HETATM   10  C16 UNL     1     -41.261  23.165   0.682  1.00  0.00     0.030 A 
HETATM   11  C17 UNL     1     -42.313  24.041   0.892  1.00  0.00     0.001 A 
ENDROOT
BRANCH   7  12
HETATM   12  N2  UNL     1     -40.745  27.292   0.017  1.00  0.00    -0.383 N 
ATOM     13  H2  UNL     1     -41.243  27.677  -0.785  1.00  0.00     0.160 HD
BRANCH  12  14
HETATM   14  C6  UNL     1     -39.986  28.203   0.802  1.00  0.00     0.086 C 
HETATM   15  C7  UNL     1     -40.684  28.695   2.057  1.00  0.00     0.030 C 
HETATM   16  C8  UNL     1     -40.591  30.208   2.038  1.00  0.00    -0.012 C 
HETATM   17  C9  UNL     1     -41.608  30.727   1.069  1.00  0.00     0.005 C 
HETATM   18  C12 UNL     1     -39.310  30.390   1.202  1.00  0.00     0.011 C 
HETATM   19  C10 UNL     1     -41.104  30.116  -0.251  1.00  0.00     0.007 C 
HETATM   20  C11 UNL     1     -39.784  29.488   0.043  1.00  0.00     0.009 C 
ENDBRANCH  12  14
ENDBRANCH   7  12
BRANCH   9  21
HETATM   21  C15 UNL     1     -38.936  22.666   0.049  1.00  0.00     0.417 C 
HETATM   22  F1  UNL     1     -38.871  21.844   1.169  1.00  0.00    -0.166 F 
HETATM   23  F2  UNL     1     -37.715  23.319  -0.022  1.00  0.00    -0.166 F 
HETATM   24  F3  UNL     1     -39.168  21.835  -1.030  1.00  0.00    -0.166 F 
ENDBRANCH   9  21
TORSDOF 3
ENDMDL
MODEL 4
REMARK VINA RESULT: -7.697949981      0.902      1.253
REMARK  3 active torsions:
REMARK  status: ('A' for Active; 'I' for Inactive)
REMARK    1  A    between atoms: C5_7  and  N2_8 
REMARK    2  A    between atoms: N2_8  and  C6_10 
REMARK    3  A    between atoms: C14_18  and  C15_19 
ROOT
HETATM    1  C1  UNL     1     -43.969  22.581   1.513  1.00  0.00     0.050 C 
HETATM    2  C2  UNL     1     -43.290  23.900   1.319  1.00  0.00    -0.034 A 
HETATM    3  C3  UNL     1     -43.746  25.171   1.508  1.00  0.00     0.096 A 
HETATM    4  N1  UNL     1     -42.766  26.042   1.194  1.00  0.00    -0.363 N 
ATOM      5  H1  UNL     1     -42.848  27.058   1.247  1.00  0.00     0.165 HD
HETATM    6  C4  UNL     1     -41.665  25.378   0.800  1.00  0.00     0.069 A 
HETATM    7  C5  UNL     1     -40.422  25.841   0.391  1.00  0.00     0.057 A 
HETATM    8  C13 UNL     1     -39.496  24.901   0.057  1.00  0.00     0.047 A 
HETATM    9  C14 UNL     1     -39.750  23.546   0.110  1.00  0.00     0.051 A 
HETATM   10  C16 UNL     1     -41.008  23.117   0.525  1.00  0.00     0.030 A 
HETATM   11  C17 UNL     1     -41.981  24.038   0.875  1.00  0.00     0.001 A 
ENDROOT
BRANCH   7  12
HETATM   12  N2  UNL     1     -40.188  27.243   0.323  1.00  0.00    -0.383 N 
ATOM     13  H2  UNL     1     -40.614  27.744  -0.457  1.00  0.00     0.160 HD
BRANCH  12  14
HETATM   14  C6  UNL     1     -39.418  28.012   1.239  1.00  0.00     0.086 C 
HETATM   15  C7  UNL     1     -40.219  28.984   2.086  1.00  0.00     0.030 C 
HETATM   16  C8  UNL     1     -39.544  30.334   1.950  1.00  0.00    -0.012 C 
HETATM   17  C9  UNL     1     -39.925  30.916   0.624  1.00  0.00     0.005 C 
HETATM   18  C12 UNL     1     -38.103  29.886   1.639  1.00  0.00     0.011 C 
HETATM   19  C10 UNL     1     -39.318  29.884  -0.343  1.00  0.00     0.007 C 
HETATM   20  C11 UNL     1     -38.507  28.945   0.485  1.00  0.00     0.009 C 
ENDBRANCH  12  14
ENDBRANCH   7  12
BRANCH   9  21
HETATM   21  C15 UNL     1     -38.749  22.524  -0.251  1.00  0.00     0.417 C 
HETATM   22  F1  UNL     1     -37.776  23.131  -1.040  1.00  0.00    -0.166 F 
HETATM   23  F2  UNL     1     -39.330  21.544  -1.041  1.00  0.00    -0.166 F 
HETATM   24  F3  UNL     1     -38.092  22.011   0.850  1.00  0.00    -0.166 F 
ENDBRANCH   9  21
TORSDOF 3
ENDMDL
MODEL 5
REMARK VINA RESULT: -7.460227142      2.937      6.148
REMARK  3 active torsions:
REMARK  status: ('A' for Active; 'I' for Inactive)
REMARK    1  A    between atoms: C5_7  and  N2_8 
REMARK    2  A    between atoms: N2_8  and  C6_10 
REMARK    3  A    between atoms: C14_18  and  C15_19 
ROOT
HETATM    1  C1  UNL     1     -38.881  23.027  -0.166  1.00  0.00     0.050 C 
HETATM    2  C2  UNL     1     -40.277  23.095   0.371  1.00  0.00    -0.034 A 
HETATM    3  C3  UNL     1     -41.133  22.104   0.749  1.00  0.00     0.096 A 
HETATM    4  N1  UNL     1     -42.291  22.657   1.163  1.00  0.00    -0.363 N 
ATOM      5  H1  UNL     1     -43.100  22.135   1.499  1.00  0.00     0.165 HD
HETATM    6  C4  UNL     1     -42.224  23.997   1.069  1.00  0.00     0.069 A 
HETATM    7  C5  UNL     1     -43.156  24.977   1.380  1.00  0.00     0.057 A 
HETATM    8  C13 UNL     1     -42.778  26.270   1.177  1.00  0.00     0.047 A 
HETATM    9  C14 UNL     1     -41.539  26.621   0.685  1.00  0.00     0.051 A 
HETATM   10  C16 UNL     1     -40.628  25.610   0.382  1.00  0.00     0.030 A 
HETATM   11  C17 UNL     1     -40.969  24.282   0.575  1.00  0.00     0.001 A 
ENDROOT
BRANCH   7  12
HETATM   12  N2  UNL     1     -44.437  24.593   1.866  1.00  0.00    -0.383 N 
ATOM     13  H2  UNL     1     -44.646  24.813   2.840  1.00  0.00     0.160 HD
BRANCH  12  14
HETATM   14  C6  UNL     1     -45.452  23.930   1.124  1.00  0.00     0.086 C 
HETATM   15  C7  UNL     1     -45.665  24.464  -0.281  1.00  0.00     0.030 C 
HETATM   16  C8  UNL     1     -47.150  24.734  -0.421  1.00  0.00    -0.012 C 
HETATM   17  C9  UNL     1     -47.462  26.013   0.291  1.00  0.00     0.005 C 
HETATM   18  C12 UNL     1     -47.706  23.720   0.597  1.00  0.00     0.011 C 
HETATM   19  C10 UNL     1     -47.091  25.649   1.740  1.00  0.00     0.007 C 
HETATM   20  C11 UNL     1     -46.796  24.186   1.753  1.00  0.00     0.009 C 
ENDBRANCH  12  14
ENDBRANCH   7  12
BRANCH   9  21
HETATM   21  C15 UNL     1     -41.126  28.020   0.462  1.00  0.00     0.417 C 
HETATM   22  F1  UNL     1     -39.804  28.152   0.874  1.00  0.00    -0.166 F 
HETATM   23  F2  UNL     1     -41.868  28.870   1.266  1.00  0.00    -0.166 F 
HETATM   24  F3  UNL     1     -41.155  28.375  -0.873  1.00  0.00    -0.166 F 
ENDBRANCH   9  21
TORSDOF 3
ENDMDL
