MODEL 1
REMARK VINA RESULT: -7.450476636      0.000      0.000
REMARK  4 active torsions:
REMARK  status: ('A' for Active; 'I' for Inactive)
REMARK    1  A    between atoms: C3_3  and  C4_4 
REMARK    2  A    between atoms: C5_10  and  C6_11 
REMARK    3  A    between atoms: C6_11  and  C8_13 
REMARK    4  A    between atoms: C17_22  and  N2_23 
ROOT
HETATM    1  C1  UNL     1     -41.913  22.404   0.951  1.00  0.00     0.053 C 
HETATM    2  C2  UNL     1     -41.576  23.813   0.822  1.00  0.00    -0.004 A 
HETATM    3  C3  UNL     1     -40.333  24.194   0.388  1.00  0.00     0.125 A 
HETATM    4  N1  UNL     1     -40.005  25.507   0.271  1.00  0.00    -0.355 N 
ATOM      5  H1  UNL     1     -39.067  25.739  -0.054  1.00  0.00     0.166 HD
HETATM    6  C5  UNL     1     -40.844  26.521   0.559  1.00  0.00     0.016 A 
HETATM    7  C16 UNL     1     -42.097  26.140   0.996  1.00  0.00     0.055 A 
HETATM    8  C17 UNL     1     -42.492  24.829   1.137  1.00  0.00     0.035 A 
ENDROOT
BRANCH   6   9
HETATM    9  C6  UNL     1     -40.497  27.932   0.405  1.00  0.00     0.036 C 
HETATM   10  C7  UNL     1     -41.609  28.774   0.981  1.00  0.00     0.017 C 
BRANCH   9  11
HETATM   11  C8  UNL     1     -39.163  28.376   0.923  1.00  0.00    -0.005 C 
HETATM   12  C9  UNL     1     -39.194  29.049   2.268  1.00  0.00     0.005 C 
HETATM   13  C10 UNL     1     -37.841  29.120   2.915  1.00  0.00     0.000 C 
HETATM   14  C11 UNL     1     -36.940  30.204   2.550  1.00  0.00     0.000 C 
HETATM   15  C12 UNL     1     -37.371  31.219   1.561  1.00  0.00     0.000 C 
HETATM   16  C13 UNL     1     -36.792  30.861   0.182  1.00  0.00     0.000 C 
HETATM   17  C14 UNL     1     -37.144  29.417  -0.153  1.00  0.00     0.000 C 
HETATM   18  C15 UNL     1     -38.636  29.340  -0.158  1.00  0.00     0.005 C 
ENDBRANCH   9  11
ENDBRANCH   6   9
BRANCH   3  19
HETATM   19  C4  UNL     1     -39.322  23.213   0.027  1.00  0.00     0.433 C 
HETATM   20  F1  UNL     1     -38.287  23.852  -0.661  1.00  0.00    -0.165 F 
HETATM   21  F2  UNL     1     -38.801  22.444   0.995  1.00  0.00    -0.165 F 
HETATM   22  F3  UNL     1     -39.846  22.322  -0.939  1.00  0.00    -0.165 F 
ENDBRANCH   3  19
BRANCH   8  23
HETATM   23  N2  UNL     1     -43.652  24.510   1.545  1.00  0.00    -0.399 N 
ATOM     24  H22 UNL     1     -44.262  23.884   1.018  1.00  0.00     0.156 HD
ATOM     25  H21 UNL     1     -43.990  24.892   2.429  1.00  0.00     0.156 HD
ENDBRANCH   8  23
TORSDOF 4
ENDMDL
MODEL 2
REMARK VINA RESULT: -7.304966080      3.503      7.122
REMARK  4 active torsions:
REMARK  status: ('A' for Active; 'I' for Inactive)
REMARK    1  A    between atoms: C3_3  and  C4_4 
REMARK    2  A    between atoms: C5_10  and  C6_11 
REMARK    3  A    between atoms: C6_11  and  C8_13 
REMARK    4  A    between atoms: C17_22  and  N2_23 
ROOT
HETATM    1  C1  UNL     1     -39.359  24.676  -0.005  1.00  0.00     0.053 C 
HETATM    2  C2  UNL     1     -40.709  24.963   0.455  1.00  0.00    -0.004 A 
HETATM    3  C3  UNL     1     -41.569  23.942   0.767  1.00  0.00     0.125 A 
HETATM    4  N1  UNL     1     -42.834  24.199   1.191  1.00  0.00    -0.355 N 
ATOM      5  H1  UNL     1     -43.436  23.405   1.409  1.00  0.00     0.166 HD
HETATM    6  C5  UNL     1     -43.341  25.438   1.340  1.00  0.00     0.016 A 
HETATM    7  C16 UNL     1     -42.477  26.468   1.026  1.00  0.00     0.055 A 
HETATM    8  C17 UNL     1     -41.184  26.277   0.592  1.00  0.00     0.035 A 
ENDROOT
BRANCH   6   9
HETATM    9  C6  UNL     1     -44.693  25.710   1.823  1.00  0.00     0.036 C 
HETATM   10  C7  UNL     1     -44.697  27.041   2.536  1.00  0.00     0.017 C 
BRANCH   9  11
HETATM   11  C8  UNL     1     -45.811  25.630   0.828  1.00  0.00    -0.005 C 
HETATM   12  C9  UNL     1     -46.958  26.569   1.083  1.00  0.00     0.005 C 
HETATM   13  C10 UNL     1     -47.848  26.739  -0.114  1.00  0.00     0.000 C 
HETATM   14  C11 UNL     1     -48.892  25.755  -0.363  1.00  0.00     0.000 C 
HETATM   15  C12 UNL     1     -49.067  24.615   0.566  1.00  0.00     0.000 C 
HETATM   16  C13 UNL     1     -48.369  23.374  -0.017  1.00  0.00     0.000 C 
HETATM   17  C14 UNL     1     -46.930  23.727  -0.372  1.00  0.00     0.000 C 
HETATM   18  C15 UNL     1     -46.280  24.164   0.899  1.00  0.00     0.005 C 
ENDBRANCH   9  11
ENDBRANCH   6   9
BRANCH   3  19
HETATM   19  C4  UNL     1     -41.162  22.550   0.669  1.00  0.00     0.433 C 
HETATM   20  F1  UNL     1     -40.917  22.236  -0.671  1.00  0.00    -0.165 F 
HETATM   21  F2  UNL     1     -40.129  22.131   1.416  1.00  0.00    -0.165 F 
HETATM   22  F3  UNL     1     -42.250  21.711   1.001  1.00  0.00    -0.165 F 
ENDBRANCH   3  19
BRANCH   8  23
HETATM   23  N2  UNL     1     -40.413  27.245   0.308  1.00  0.00    -0.399 N 
ATOM     24  H22 UNL     1     -40.160  27.476  -0.653  1.00  0.00     0.156 HD
ATOM     25  H21 UNL     1     -40.030  27.812   1.064  1.00  0.00     0.156 HD
ENDBRANCH   8  23
TORSDOF 4
ENDMDL
MODEL 3
REMARK VINA RESULT: -7.130370583      1.086      1.791
REMARK  4 active torsions:
REMARK  status: ('A' for Active; 'I' for Inactive)
REMARK    1  A    between atoms: C3_3  and  C4_4 
REMARK    2  A    between atoms: C5_10  and  C6_11 
REMARK    3  A    between atoms: C6_11  and  C8_13 
REMARK    4  A    between atoms: C17_22  and  N2_23 
ROOT
HETATM    1  C1  UNL     1     -42.007  22.429   0.852  1.00  0.00     0.053 C 
HETATM    2  C2  UNL     1     -41.534  23.803   0.787  1.00  0.00    -0.004 A 
HETATM    3  C3  UNL     1     -40.265  24.081   0.350  1.00  0.00     0.125 A 
HETATM    4  N1  UNL     1     -39.810  25.360   0.292  1.00  0.00    -0.355 N 
ATOM      5  H1  UNL     1     -38.858  25.515  -0.040  1.00  0.00     0.166 HD
HETATM    6  C5  UNL     1     -40.539  26.435   0.645  1.00  0.00     0.016 A 
HETATM    7  C16 UNL     1     -41.818  26.158   1.086  1.00  0.00     0.055 A 
HETATM    8  C17 UNL     1     -42.340  24.887   1.169  1.00  0.00     0.035 A 
ENDROOT
BRANCH   6   9
HETATM    9  C6  UNL     1     -40.057  27.812   0.554  1.00  0.00     0.036 C 
HETATM   10  C7  UNL     1     -40.970  28.590  -0.361  1.00  0.00     0.017 C 
BRANCH   9  11
HETATM   11  C8  UNL     1     -39.827  28.549   1.839  1.00  0.00    -0.005 C 
HETATM   12  C9  UNL     1     -40.775  29.688   2.097  1.00  0.00     0.005 C 
HETATM   13  C10 UNL     1     -40.770  30.136   3.530  1.00  0.00     0.000 C 
HETATM   14  C11 UNL     1     -39.745  31.072   3.973  1.00  0.00     0.000 C 
HETATM   15  C12 UNL     1     -38.738  31.573   3.010  1.00  0.00     0.000 C 
HETATM   16  C13 UNL     1     -37.441  30.761   3.165  1.00  0.00     0.000 C 
HETATM   17  C14 UNL     1     -37.764  29.275   3.076  1.00  0.00     0.000 C 
HETATM   18  C15 UNL     1     -38.377  29.059   1.732  1.00  0.00     0.005 C 
ENDBRANCH   9  11
ENDBRANCH   6   9
BRANCH   3  19
HETATM   19  C4  UNL     1     -39.361  23.026  -0.079  1.00  0.00     0.433 C 
HETATM   20  F1  UNL     1     -38.867  22.359   1.045  1.00  0.00    -0.165 F 
HETATM   21  F2  UNL     1     -39.806  22.124  -0.967  1.00  0.00    -0.165 F 
HETATM   22  F3  UNL     1     -38.199  23.595  -0.650  1.00  0.00    -0.165 F 
ENDBRANCH   3  19
BRANCH   8  23
HETATM   23  N2  UNL     1     -43.520  24.663   1.583  1.00  0.00    -0.399 N 
ATOM     24  H22 UNL     1     -44.343  24.855   1.012  1.00  0.00     0.156 HD
ATOM     25  H21 UNL     1     -43.653  24.279   2.519  1.00  0.00     0.156 HD
ENDBRANCH   8  23
TORSDOF 4
ENDMDL
MODEL 4
REMARK VINA RESULT: -7.059860776      3.862      7.724
REMARK  4 active torsions:
REMARK  status: ('A' for Active; 'I' for Inactive)
REMARK    1  A    between atoms: C3_3  and  C4_4 
REMARK    2  A    between atoms: C5_10  and  C6_11 
REMARK    3  A    between atoms: C6_11  and  C8_13 
REMARK    4  A    between atoms: C17_22  and  N2_23 
ROOT
HETATM    1  C1  UNL     1     -39.952  24.949   0.072  1.00  0.00     0.053 C 
HETATM    2  C2  UNL     1     -41.315  25.021   0.577  1.00  0.00    -0.004 A 
HETATM    3  C3  UNL     1     -42.010  23.876   0.869  1.00  0.00     0.125 A 
HETATM    4  N1  UNL     1     -43.285  23.932   1.333  1.00  0.00    -0.355 N 
ATOM      5  H1  UNL     1     -43.760  23.052   1.535  1.00  0.00     0.166 HD
HETATM    6  C5  UNL     1     -43.960  25.078   1.544  1.00  0.00     0.016 A 
HETATM    7  C16 UNL     1     -43.263  26.233   1.250  1.00  0.00     0.055 A 
HETATM    8  C17 UNL     1     -41.970  26.247   0.777  1.00  0.00     0.035 A 
ENDROOT
BRANCH   6   9
HETATM    9  C6  UNL     1     -45.322  25.135   2.071  1.00  0.00     0.036 C 
HETATM   10  C7  UNL     1     -45.758  26.578   2.142  1.00  0.00     0.017 C 
BRANCH   9  11
HETATM   11  C8  UNL     1     -46.360  24.292   1.394  1.00  0.00    -0.005 C 
HETATM   12  C9  UNL     1     -46.452  24.471  -0.097  1.00  0.00     0.005 C 
HETATM   13  C10 UNL     1     -47.201  23.359  -0.772  1.00  0.00     0.000 C 
HETATM   14  C11 UNL     1     -48.656  23.413  -0.817  1.00  0.00     0.000 C 
HETATM   15  C12 UNL     1     -49.370  24.560  -0.210  1.00  0.00     0.000 C 
HETATM   16  C13 UNL     1     -49.865  24.165   1.192  1.00  0.00     0.000 C 
HETATM   17  C14 UNL     1     -48.701  23.606   1.998  1.00  0.00     0.000 C 
HETATM   18  C15 UNL     1     -47.682  24.695   2.075  1.00  0.00     0.005 C 
ENDBRANCH   9  11
ENDBRANCH   6   9
BRANCH   3  19
HETATM   19  C4  UNL     1     -41.410  22.562   0.705  1.00  0.00     0.433 C 
HETATM   20  F1  UNL     1     -41.082  22.371  -0.640  1.00  0.00    -0.165 F 
HETATM   21  F2  UNL     1     -40.354  22.241   1.467  1.00  0.00    -0.165 F 
HETATM   22  F3  UNL     1     -42.381  21.562   0.943  1.00  0.00    -0.165 F 
ENDBRANCH   3  19
BRANCH   8  23
HETATM   23  N2  UNL     1     -41.355  27.326   0.512  1.00  0.00    -0.399 N 
ATOM     24  H22 UNL     1     -41.835  28.223   0.443  1.00  0.00     0.156 HD
ATOM     25  H21 UNL     1     -40.346  27.298   0.360  1.00  0.00     0.156 HD
ENDBRANCH   8  23
TORSDOF 4
ENDMDL
MODEL 5
REMARK VINA RESULT: -7.019467403      4.019      7.818
REMARK  4 active torsions:
REMARK  status: ('A' for Active; 'I' for Inactive)
REMARK    1  A    between atoms: C3_3  and  C4_4 
REMARK    2  A    between atoms: C5_10  and  C6_11 
REMARK    3  A    between atoms: C6_11  and  C8_13 
REMARK    4  A    between atoms: C17_22  and  N2_23 
ROOT
HETATM    1  C1  UNL     1     -40.388  25.233   0.383  1.00  0.00     0.053 C 
HETATM    2  C2  UNL     1     -41.766  25.046   0.810  1.00  0.00    -0.004 A 
HETATM    3  C3  UNL     1     -42.280  23.785   0.965  1.00  0.00     0.125 A 
HETATM    4  N1  UNL     1     -43.568  23.599   1.356  1.00  0.00    -0.355 N 
ATOM      5  H1  UNL     1     -43.905  22.641   1.455  1.00  0.00     0.166 HD
HETATM    6  C5  UNL     1     -44.427  24.602   1.621  1.00  0.00     0.016 A 
HETATM    7  C16 UNL     1     -43.911  25.873   1.466  1.00  0.00     0.055 A 
HETATM    8  C17 UNL     1     -42.617  26.131   1.072  1.00  0.00     0.035 A 
ENDROOT
BRANCH   6   9
HETATM    9  C6  UNL     1     -45.803  24.397   2.069  1.00  0.00     0.036 C 
HETATM   10  C7  UNL     1     -46.065  25.287   3.260  1.00  0.00     0.017 C 
BRANCH   9  11
HETATM   11  C8  UNL     1     -46.889  24.533   1.046  1.00  0.00    -0.005 C 
HETATM   12  C9  UNL     1     -48.240  24.036   1.483  1.00  0.00     0.005 C 
HETATM   13  C10 UNL     1     -49.355  24.536   0.611  1.00  0.00     0.000 C 
HETATM   14  C11 UNL     1     -49.652  23.831  -0.629  1.00  0.00     0.000 C 
HETATM   15  C12 UNL     1     -48.863  22.634  -1.004  1.00  0.00     0.000 C 
HETATM   16  C13 UNL     1     -47.773  23.041  -2.010  1.00  0.00     0.000 C 
HETATM   17  C14 UNL     1     -46.977  24.210  -1.444  1.00  0.00     0.000 C 
HETATM   18  C15 UNL     1     -46.377  23.729  -0.164  1.00  0.00     0.005 C 
ENDBRANCH   9  11
ENDBRANCH   6   9
BRANCH   3  19
HETATM   19  C4  UNL     1     -41.471  22.601   0.728  1.00  0.00     0.433 C 
HETATM   20  F1  UNL     1     -41.080  22.572  -0.613  1.00  0.00    -0.165 F 
HETATM   21  F2  UNL     1     -40.398  22.393   1.506  1.00  0.00    -0.165 F 
HETATM   22  F3  UNL     1     -42.273  21.443   0.853  1.00  0.00    -0.165 F 
ENDBRANCH   3  19
BRANCH   8  23
HETATM   23  N2  UNL     1     -42.172  27.312   0.935  1.00  0.00    -0.399 N 
ATOM     24  H22 UNL     1     -42.682  28.031   0.421  1.00  0.00     0.156 HD
ATOM     25  H21 UNL     1     -41.271  27.554   1.350  1.00  0.00     0.156 HD
ENDBRANCH   8  23
TORSDOF 4
ENDMDL
