MODEL 1
REMARK VINA RESULT: -6.960926214      0.000      0.000
REMARK  3 active torsions:
REMARK  status: ('A' for Active; 'I' for Inactive)
REMARK    1  A    between atoms: C2_2  and  C3_3 
REMARK    2  A    between atoms: C6_8  and  C7_9 
REMARK    3  A    between atoms: C11_13  and  C12_14 
ROOT
HETATM    1  C7  UNL     1     -40.135  27.567   0.821  1.00  0.00     0.026 A 
HETATM    2  C8  UNL     1     -41.390  27.997   1.203  1.00  0.00    -0.046 A 
HETATM    3  C9  UNL     1     -41.628  29.422   1.514  1.00  0.00     0.049 C 
HETATM    4  C10 UNL     1     -42.480  27.144   1.348  1.00  0.00     0.025 A 
HETATM    5  C11 UNL     1     -42.330  25.805   1.106  1.00  0.00     0.060 A 
HETATM    6  C13 UNL     1     -41.089  25.325   0.718  1.00  0.00     0.008 A 
HETATM    7  C14 UNL     1     -40.701  24.044   0.384  1.00  0.00     0.039 A 
HETATM    8  C15 UNL     1     -39.382  24.150   0.037  1.00  0.00     0.006 A 
HETATM    9  C16 UNL     1     -38.500  23.024  -0.407  1.00  0.00     0.068 C 
HETATM   10  N2  UNL     1     -38.995  25.437   0.159  1.00  0.00    -0.358 N 
ATOM     11  H2  UNL     1     -38.055  25.778  -0.043  1.00  0.00     0.166 HD
HETATM   12  C17 UNL     1     -40.006  26.207   0.578  1.00  0.00     0.056 A 
ENDROOT
BRANCH   1  13
HETATM   13  C6  UNL     1     -39.055  28.527   0.606  1.00  0.00     0.069 A 
HETATM   14  C4  UNL     1     -38.226  29.165   1.494  1.00  0.00     0.034 A 
HETATM   15  N1  UNL     1     -37.458  30.068   0.806  1.00  0.00    -0.348 N 
HETATM   16  C5  UNL     1     -38.195  28.991   2.977  1.00  0.00     0.070 C 
HETATM   17  C3  UNL     1     -37.784  30.018  -0.488  1.00  0.00     0.081 A 
ATOM     18  H1  UNL     1     -36.753  30.679   1.217  1.00  0.00     0.167 HD
HETATM   19  N3  UNL     1     -38.738  29.097  -0.600  1.00  0.00    -0.344 N 
ATOM     20  H3  UNL     1     -39.182  28.844  -1.483  1.00  0.00     0.167 HD
BRANCH  17  21
HETATM   21  C2  UNL     1     -37.182  30.848  -1.599  1.00  0.00     0.072 C 
HETATM   22  C1  UNL     1     -38.268  31.752  -2.135  1.00  0.00     0.013 C 
ENDBRANCH  17  21
ENDBRANCH   1  13
BRANCH   5  23
HETATM   23  C12 UNL     1     -43.481  24.883   1.258  1.00  0.00     0.418 C 
HETATM   24  F1  UNL     1     -44.487  25.489   1.985  1.00  0.00    -0.166 F 
HETATM   25  F2  UNL     1     -43.144  23.716   1.908  1.00  0.00    -0.166 F 
HETATM   26  F3  UNL     1     -44.045  24.584   0.011  1.00  0.00    -0.166 F 
ENDBRANCH   5  23
TORSDOF 3
ENDMDL
MODEL 2
REMARK VINA RESULT: -6.939261994      3.600      6.926
REMARK  3 active torsions:
REMARK  status: ('A' for Active; 'I' for Inactive)
REMARK    1  A    between atoms: C2_2  and  C3_3 
REMARK    2  A    between atoms: C6_8  and  C7_9 
REMARK    3  A    between atoms: C11_13  and  C12_14 
ROOT
HETATM    1  C7  UNL     1     -43.625  24.613   1.287  1.00  0.00     0.026 A 
HETATM    2  C8  UNL     1     -43.323  23.267   1.353  1.00  0.00    -0.046 A 
HETATM    3  C9  UNL     1     -44.339  22.297   1.810  1.00  0.00     0.049 C 
HETATM    4  C10 UNL     1     -42.073  22.747   1.032  1.00  0.00     0.025 A 
HETATM    5  C11 UNL     1     -41.071  23.587   0.628  1.00  0.00     0.060 A 
HETATM    6  C13 UNL     1     -41.326  24.947   0.543  1.00  0.00     0.008 A 
HETATM    7  C14 UNL     1     -40.505  25.977   0.131  1.00  0.00     0.039 A 
HETATM    8  C15 UNL     1     -41.281  27.101   0.205  1.00  0.00     0.006 A 
HETATM    9  C16 UNL     1     -40.843  28.492  -0.142  1.00  0.00     0.068 C 
HETATM   10  N2  UNL     1     -42.511  26.762   0.644  1.00  0.00    -0.358 N 
ATOM     11  H2  UNL     1     -43.275  27.423   0.783  1.00  0.00     0.166 HD
HETATM   12  C17 UNL     1     -42.597  25.447   0.871  1.00  0.00     0.056 A 
ENDROOT
BRANCH   1  13
HETATM   13  C6  UNL     1     -44.981  25.083   1.556  1.00  0.00     0.069 A 
HETATM   14  C4  UNL     1     -46.119  25.042   0.788  1.00  0.00     0.034 A 
HETATM   15  N1  UNL     1     -47.111  25.727   1.438  1.00  0.00    -0.348 N 
HETATM   16  C5  UNL     1     -46.264  24.434  -0.568  1.00  0.00     0.070 C 
HETATM   17  C3  UNL     1     -46.629  26.200   2.590  1.00  0.00     0.081 A 
ATOM     18  H1  UNL     1     -48.063  25.855   1.097  1.00  0.00     0.167 HD
HETATM   19  N3  UNL     1     -45.358  25.813   2.653  1.00  0.00    -0.344 N 
ATOM     20  H3  UNL     1     -44.734  26.034   3.430  1.00  0.00     0.167 HD
BRANCH  17  21
HETATM   21  C2  UNL     1     -47.386  27.015   3.614  1.00  0.00     0.072 C 
HETATM   22  C1  UNL     1     -46.628  26.931   4.918  1.00  0.00     0.013 C 
ENDBRANCH  17  21
ENDBRANCH   1  13
BRANCH   5  23
HETATM   23  C12 UNL     1     -39.734  23.049   0.284  1.00  0.00     0.418 C 
HETATM   24  F1  UNL     1     -39.298  22.186   1.271  1.00  0.00    -0.166 F 
HETATM   25  F2  UNL     1     -38.782  24.036   0.147  1.00  0.00    -0.166 F 
HETATM   26  F3  UNL     1     -39.792  22.282  -0.887  1.00  0.00    -0.166 F 
ENDBRANCH   5  23
TORSDOF 3
ENDMDL
MODEL 3
REMARK VINA RESULT: -6.734437632      1.502      2.317
REMARK  3 active torsions:
REMARK  status: ('A' for Active; 'I' for Inactive)
REMARK    1  A    between atoms: C2_2  and  C3_3 
REMARK    2  A    between atoms: C6_8  and  C7_9 
REMARK    3  A    between atoms: C11_13  and  C12_14 
ROOT
HETATM    1  C7  UNL     1     -40.986  27.469   1.535  1.00  0.00     0.026 A 
HETATM    2  C8  UNL     1     -42.284  27.650   1.971  1.00  0.00    -0.046 A 
HETATM    3  C9  UNL     1     -42.695  28.932   2.579  1.00  0.00     0.049 C 
HETATM    4  C10 UNL     1     -43.260  26.660   1.899  1.00  0.00     0.025 A 
HETATM    5  C11 UNL     1     -42.948  25.436   1.375  1.00  0.00     0.060 A 
HETATM    6  C13 UNL     1     -41.658  25.206   0.922  1.00  0.00     0.008 A 
HETATM    7  C14 UNL     1     -41.116  24.086   0.326  1.00  0.00     0.039 A 
HETATM    8  C15 UNL     1     -39.821  24.424   0.044  1.00  0.00     0.006 A 
HETATM    9  C16 UNL     1     -38.808  23.538  -0.613  1.00  0.00     0.068 C 
HETATM   10  N2  UNL     1     -39.595  25.690   0.453  1.00  0.00    -0.358 N 
ATOM     11  H2  UNL     1     -38.705  26.177   0.354  1.00  0.00     0.166 HD
HETATM   12  C17 UNL     1     -40.692  26.221   1.005  1.00  0.00     0.056 A 
ENDROOT
BRANCH   1  13
HETATM   13  C6  UNL     1     -40.034  28.576   1.562  1.00  0.00     0.069 A 
HETATM   14  C4  UNL     1     -39.854  29.631   0.702  1.00  0.00     0.034 A 
HETATM   15  N1  UNL     1     -38.745  30.332   1.096  1.00  0.00    -0.348 N 
HETATM   16  C5  UNL     1     -40.660  29.945  -0.515  1.00  0.00     0.070 C 
HETATM   17  C3  UNL     1     -38.221  29.747   2.176  1.00  0.00     0.081 A 
ATOM     18  H1  UNL     1     -38.379  31.166   0.638  1.00  0.00     0.167 HD
HETATM   19  N3  UNL     1     -38.996  28.699   2.448  1.00  0.00    -0.344 N 
ATOM     20  H3  UNL     1     -38.834  28.060   3.227  1.00  0.00     0.167 HD
BRANCH  17  21
HETATM   21  C2  UNL     1     -36.991  30.193   2.934  1.00  0.00     0.072 C 
HETATM   22  C1  UNL     1     -37.193  29.833   4.387  1.00  0.00     0.013 C 
ENDBRANCH  17  21
ENDBRANCH   1  13
BRANCH   5  23
HETATM   23  C12 UNL     1     -43.975  24.371   1.293  1.00  0.00     0.418 C 
HETATM   24  F1  UNL     1     -45.003  24.629   2.180  1.00  0.00    -0.166 F 
HETATM   25  F2  UNL     1     -43.473  23.123   1.592  1.00  0.00    -0.166 F 
HETATM   26  F3  UNL     1     -44.569  24.350   0.025  1.00  0.00    -0.166 F 
ENDBRANCH   5  23
TORSDOF 3
ENDMDL
MODEL 4
REMARK VINA RESULT: -6.423091361      2.660      4.076
REMARK  3 active torsions:
REMARK  status: ('A' for Active; 'I' for Inactive)
REMARK    1  A    between atoms: C2_2  and  C3_3 
REMARK    2  A    between atoms: C6_8  and  C7_9 
REMARK    3  A    between atoms: C11_13  and  C12_14 
ROOT
HETATM    1  C7  UNL     1     -41.388  27.154   1.045  1.00  0.00     0.026 A 
HETATM    2  C8  UNL     1     -40.091  26.766   0.769  1.00  0.00    -0.046 A 
HETATM    3  C9  UNL     1     -39.004  27.766   0.742  1.00  0.00     0.049 C 
HETATM    4  C10 UNL     1     -39.731  25.454   0.476  1.00  0.00     0.025 A 
HETATM    5  C11 UNL     1     -40.688  24.476   0.454  1.00  0.00     0.060 A 
HETATM    6  C13 UNL     1     -42.004  24.816   0.727  1.00  0.00     0.008 A 
HETATM    7  C14 UNL     1     -43.127  24.016   0.802  1.00  0.00     0.039 A 
HETATM    8  C15 UNL     1     -44.144  24.864   1.146  1.00  0.00     0.006 A 
HETATM    9  C16 UNL     1     -45.576  24.474   1.353  1.00  0.00     0.068 C 
HETATM   10  N2  UNL     1     -43.656  26.115   1.269  1.00  0.00    -0.358 N 
ATOM     11  H2  UNL     1     -44.215  26.930   1.520  1.00  0.00     0.166 HD
HETATM   12  C17 UNL     1     -42.341  26.147   1.020  1.00  0.00     0.056 A 
ENDROOT
BRANCH   1  13
HETATM   13  C6  UNL     1     -41.684  28.532   1.427  1.00  0.00     0.069 A 
HETATM   14  C4  UNL     1     -42.143  29.061   2.608  1.00  0.00     0.034 A 
HETATM   15  N1  UNL     1     -42.381  30.398   2.425  1.00  0.00    -0.348 N 
HETATM   16  C5  UNL     1     -42.428  28.321   3.873  1.00  0.00     0.070 C 
HETATM   17  C3  UNL     1     -42.087  30.724   1.163  1.00  0.00     0.081 A 
ATOM     18  H1  UNL     1     -42.727  31.041   3.137  1.00  0.00     0.167 HD
HETATM   19  N3  UNL     1     -41.673  29.605   0.574  1.00  0.00    -0.344 N 
ATOM     20  H3  UNL     1     -41.380  29.551  -0.402  1.00  0.00     0.167 HD
BRANCH  17  21
HETATM   21  C2  UNL     1     -42.206  32.094   0.537  1.00  0.00     0.072 C 
HETATM   22  C1  UNL     1     -41.344  32.107  -0.704  1.00  0.00     0.013 C 
ENDBRANCH  17  21
ENDBRANCH   1  13
BRANCH   5  23
HETATM   23  C12 UNL     1     -40.321  23.075   0.142  1.00  0.00     0.418 C 
HETATM   24  F1  UNL     1     -39.039  23.019  -0.369  1.00  0.00    -0.166 F 
HETATM   25  F2  UNL     1     -41.163  22.498  -0.783  1.00  0.00    -0.166 F 
HETATM   26  F3  UNL     1     -40.295  22.297   1.307  1.00  0.00    -0.166 F 
ENDBRANCH   5  23
TORSDOF 3
ENDMDL
MODEL 5
REMARK VINA RESULT: -6.393516970      3.560      6.505
REMARK  3 active torsions:
REMARK  status: ('A' for Active; 'I' for Inactive)
REMARK    1  A    between atoms: C2_2  and  C3_3 
REMARK    2  A    between atoms: C6_8  and  C7_9 
REMARK    3  A    between atoms: C11_13  and  C12_14 
ROOT
HETATM    1  C7  UNL     1     -43.661  25.324   1.320  1.00  0.00     0.026 A 
HETATM    2  C8  UNL     1     -43.596  23.946   1.383  1.00  0.00    -0.046 A 
HETATM    3  C9  UNL     1     -44.781  23.161   1.787  1.00  0.00     0.049 C 
HETATM    4  C10 UNL     1     -42.440  23.221   1.110  1.00  0.00     0.025 A 
HETATM    5  C11 UNL     1     -41.293  23.880   0.757  1.00  0.00     0.060 A 
HETATM    6  C13 UNL     1     -41.309  25.264   0.678  1.00  0.00     0.008 A 
HETATM    7  C14 UNL     1     -40.308  26.140   0.312  1.00  0.00     0.039 A 
HETATM    8  C15 UNL     1     -40.883  27.380   0.367  1.00  0.00     0.006 A 
HETATM    9  C16 UNL     1     -40.200  28.677   0.054  1.00  0.00     0.068 C 
HETATM   10  N2  UNL     1     -42.170  27.254   0.749  1.00  0.00    -0.358 N 
ATOM     11  H2  UNL     1     -42.816  28.035   0.864  1.00  0.00     0.166 HD
HETATM   12  C17 UNL     1     -42.489  25.971   0.958  1.00  0.00     0.056 A 
ENDROOT
BRANCH   1  13
HETATM   13  C6  UNL     1     -44.928  26.018   1.537  1.00  0.00     0.069 A 
HETATM   14  C4  UNL     1     -45.311  26.913   2.505  1.00  0.00     0.034 A 
HETATM   15  N1  UNL     1     -46.645  27.183   2.348  1.00  0.00    -0.348 N 
HETATM   16  C5  UNL     1     -44.466  27.459   3.608  1.00  0.00     0.070 C 
HETATM   17  C3  UNL     1     -47.112  26.480   1.312  1.00  0.00     0.081 A 
ATOM     18  H1  UNL     1     -47.193  27.817   2.928  1.00  0.00     0.167 HD
HETATM   19  N3  UNL     1     -46.081  25.787   0.834  1.00  0.00    -0.344 N 
ATOM     20  H3  UNL     1     -46.143  25.156   0.035  1.00  0.00     0.167 HD
BRANCH  17  21
HETATM   21  C2  UNL     1     -48.532  26.479   0.793  1.00  0.00     0.072 C 
HETATM   22  C1  UNL     1     -48.544  25.706  -0.505  1.00  0.00     0.013 C 
ENDBRANCH  17  21
ENDBRANCH   1  13
BRANCH   5  23
HETATM   23  C12 UNL     1     -40.054  23.123   0.465  1.00  0.00     0.418 C 
HETATM   24  F1  UNL     1     -39.805  22.206   1.468  1.00  0.00    -0.166 F 
HETATM   25  F2  UNL     1     -38.946  23.936   0.360  1.00  0.00    -0.166 F 
HETATM   26  F3  UNL     1     -40.197  22.367  -0.706  1.00  0.00    -0.166 F 
ENDBRANCH   5  23
TORSDOF 3
ENDMDL
