MODEL 1
REMARK VINA RESULT: -6.602287873      0.000      0.000
REMARK  4 active torsions:
REMARK  status: ('A' for Active; 'I' for Inactive)
REMARK    1  A    between atoms: C3_5  and  C4_6 
REMARK    2  A    between atoms: C10_12  and  C11_13 
REMARK    3  A    between atoms: C11_13  and  C14_16 
REMARK    4  A    between atoms: C15_20  and  C16_21 
ROOT
HETATM    1  C1  UNL     1     -42.549  28.679   2.691  1.00  0.00     0.069 C 
HETATM    2  C2  UNL     1     -42.919  27.331   2.208  1.00  0.00     0.023 A 
HETATM    3  N1  UNL     1     -42.136  26.436   1.657  1.00  0.00    -0.361 N 
ATOM      4  H1  UNL     1     -41.140  26.578   1.494  1.00  0.00     0.165 HD
HETATM    5  C3  UNL     1     -42.802  25.294   1.326  1.00  0.00     0.022 A 
HETATM    6  C10 UNL     1     -44.149  25.463   1.700  1.00  0.00     0.001 A 
HETATM    7  C15 UNL     1     -44.198  26.751   2.251  1.00  0.00     0.072 A 
ENDROOT
BRANCH   6   8
HETATM    8  C11 UNL     1     -45.255  24.524   1.661  1.00  0.00     0.080 C 
HETATM    9  C12 UNL     1     -44.689  23.070   1.712  1.00  0.00     0.029 C 
HETATM   10  C13 UNL     1     -46.215  24.571   2.818  1.00  0.00     0.029 C 
BRANCH   8  11
HETATM   11  C14 UNL     1     -46.019  24.408   0.341  1.00  0.00     0.398 C 
HETATM   12  F1  UNL     1     -47.102  23.536   0.444  1.00  0.00    -0.170 F 
HETATM   13  F2  UNL     1     -46.773  25.664   0.231  1.00  0.00    -0.170 F 
HETATM   14  F3  UNL     1     -45.383  24.403  -0.814  1.00  0.00    -0.170 F 
ENDBRANCH   8  11
ENDBRANCH   6   8
BRANCH   5  15
HETATM   15  C4  UNL     1     -42.179  24.183   0.618  1.00  0.00     0.036 C 
HETATM   16  C5  UNL     1     -41.238  24.818  -0.466  1.00  0.00     0.011 C 
HETATM   17  C6  UNL     1     -39.878  25.046   0.114  1.00  0.00     0.001 C 
HETATM   18  C7  UNL     1     -39.132  23.706  -0.025  1.00  0.00     0.000 C 
HETATM   19  C8  UNL     1     -40.157  22.680   0.369  1.00  0.00     0.001 C 
HETATM   20  C9  UNL     1     -41.233  23.271   1.311  1.00  0.00     0.011 C 
ENDBRANCH   5  15
BRANCH   7  21
HETATM   21  C16 UNL     1     -45.238  27.565   2.848  1.00  0.00     0.212 C 
HETATM   22  O1  UNL     1     -46.017  28.217   2.128  1.00  0.00    -0.644 OA
HETATM   23  O2  UNL     1     -45.386  27.622   4.207  1.00  0.00    -0.644 OA
ENDBRANCH   7  21
TORSDOF 4
ENDMDL
MODEL 2
REMARK VINA RESULT: -6.443163309      1.308      1.934
REMARK  4 active torsions:
REMARK  status: ('A' for Active; 'I' for Inactive)
REMARK    1  A    between atoms: C3_5  and  C4_6 
REMARK    2  A    between atoms: C10_12  and  C11_13 
REMARK    3  A    between atoms: C11_13  and  C14_16 
REMARK    4  A    between atoms: C15_20  and  C16_21 
ROOT
HETATM    1  C1  UNL     1     -42.132  28.679   3.198  1.00  0.00     0.069 C 
HETATM    2  C2  UNL     1     -42.711  27.499   2.519  1.00  0.00     0.023 A 
HETATM    3  N1  UNL     1     -42.071  26.540   1.897  1.00  0.00    -0.361 N 
ATOM      4  H1  UNL     1     -41.055  26.500   1.809  1.00  0.00     0.165 HD
HETATM    5  C3  UNL     1     -42.912  25.601   1.380  1.00  0.00     0.022 A 
HETATM    6  C10 UNL     1     -44.228  25.988   1.699  1.00  0.00     0.001 A 
HETATM    7  C15 UNL     1     -44.076  27.183   2.414  1.00  0.00     0.072 A 
ENDROOT
BRANCH   6   8
HETATM    8  C11 UNL     1     -45.486  25.299   1.474  1.00  0.00     0.080 C 
HETATM    9  C12 UNL     1     -46.629  26.355   1.355  1.00  0.00     0.029 C 
HETATM   10  C13 UNL     1     -45.599  24.511   0.198  1.00  0.00     0.029 C 
BRANCH   8  11
HETATM   11  C14 UNL     1     -46.058  24.500   2.645  1.00  0.00     0.398 C 
HETATM   12  F1  UNL     1     -47.160  23.736   2.263  1.00  0.00    -0.170 F 
HETATM   13  F2  UNL     1     -45.104  23.400   2.850  1.00  0.00    -0.170 F 
HETATM   14  F3  UNL     1     -46.105  25.011   3.859  1.00  0.00    -0.170 F 
ENDBRANCH   8  11
ENDBRANCH   6   8
BRANCH   5  15
HETATM   15  C4  UNL     1     -42.457  24.482   0.564  1.00  0.00     0.036 C 
HETATM   16  C5  UNL     1     -41.350  25.051  -0.393  1.00  0.00     0.011 C 
HETATM   17  C6  UNL     1     -40.011  24.952   0.266  1.00  0.00     0.001 C 
HETATM   18  C7  UNL     1     -39.512  23.521  -0.009  1.00  0.00     0.000 C 
HETATM   19  C8  UNL     1     -40.728  22.667   0.212  1.00  0.00     0.001 C 
HETATM   20  C9  UNL     1     -41.737  23.336   1.176  1.00  0.00     0.011 C 
ENDBRANCH   5  15
BRANCH   7  21
HETATM   21  C16 UNL     1     -44.987  28.110   3.057  1.00  0.00     0.212 C 
HETATM   22  O1  UNL     1     -45.377  27.903   4.221  1.00  0.00    -0.644 OA
HETATM   23  O2  UNL     1     -45.424  29.227   2.400  1.00  0.00    -0.644 OA
ENDBRANCH   7  21
TORSDOF 4
ENDMDL
MODEL 3
REMARK VINA RESULT: -6.428778343      0.897      1.306
REMARK  4 active torsions:
REMARK  status: ('A' for Active; 'I' for Inactive)
REMARK    1  A    between atoms: C3_5  and  C4_6 
REMARK    2  A    between atoms: C10_12  and  C11_13 
REMARK    3  A    between atoms: C11_13  and  C14_16 
REMARK    4  A    between atoms: C15_20  and  C16_21 
ROOT
HETATM    1  C1  UNL     1     -42.075  28.768   3.212  1.00  0.00     0.069 C 
HETATM    2  C2  UNL     1     -42.673  27.599   2.532  1.00  0.00     0.023 A 
HETATM    3  N1  UNL     1     -42.050  26.640   1.892  1.00  0.00    -0.361 N 
ATOM      4  H1  UNL     1     -41.036  26.594   1.788  1.00  0.00     0.165 HD
HETATM    5  C3  UNL     1     -42.906  25.713   1.379  1.00  0.00     0.022 A 
HETATM    6  C10 UNL     1     -44.214  26.107   1.721  1.00  0.00     0.001 A 
HETATM    7  C15 UNL     1     -44.042  27.295   2.444  1.00  0.00     0.072 A 
ENDROOT
BRANCH   6   8
HETATM    8  C11 UNL     1     -45.480  25.430   1.508  1.00  0.00     0.080 C 
HETATM    9  C12 UNL     1     -45.927  24.758   2.845  1.00  0.00     0.029 C 
HETATM   10  C13 UNL     1     -46.651  26.299   1.141  1.00  0.00     0.029 C 
BRANCH   8  11
HETATM   11  C14 UNL     1     -45.457  24.174   0.637  1.00  0.00     0.398 C 
HETATM   12  F1  UNL     1     -44.970  23.069   1.334  1.00  0.00    -0.170 F 
HETATM   13  F2  UNL     1     -46.863  23.756   0.542  1.00  0.00    -0.170 F 
HETATM   14  F3  UNL     1     -45.134  24.238  -0.639  1.00  0.00    -0.170 F 
ENDBRANCH   8  11
ENDBRANCH   6   8
BRANCH   5  15
HETATM   15  C4  UNL     1     -42.472  24.598   0.546  1.00  0.00     0.036 C 
HETATM   16  C5  UNL     1     -41.325  25.150  -0.373  1.00  0.00     0.011 C 
HETATM   17  C6  UNL     1     -40.004  24.988   0.312  1.00  0.00     0.001 C 
HETATM   18  C7  UNL     1     -39.550  23.548   0.014  1.00  0.00     0.000 C 
HETATM   19  C8  UNL     1     -40.800  22.732   0.188  1.00  0.00     0.001 C 
HETATM   20  C9  UNL     1     -41.806  23.413   1.146  1.00  0.00     0.011 C 
ENDBRANCH   5  15
BRANCH   7  21
HETATM   21  C16 UNL     1     -44.936  28.222   3.109  1.00  0.00     0.212 C 
HETATM   22  O1  UNL     1     -45.300  28.015   4.281  1.00  0.00    -0.644 OA
HETATM   23  O2  UNL     1     -45.385  29.342   2.463  1.00  0.00    -0.644 OA
ENDBRANCH   7  21
TORSDOF 4
ENDMDL
MODEL 4
REMARK VINA RESULT: -6.239618949      0.971      1.568
REMARK  4 active torsions:
REMARK  status: ('A' for Active; 'I' for Inactive)
REMARK    1  A    between atoms: C3_5  and  C4_6 
REMARK    2  A    between atoms: C10_12  and  C11_13 
REMARK    3  A    between atoms: C11_13  and  C14_16 
REMARK    4  A    between atoms: C15_20  and  C16_21 
ROOT
HETATM    1  C1  UNL     1     -42.335  28.772   2.849  1.00  0.00     0.069 C 
HETATM    2  C2  UNL     1     -42.897  27.515   2.312  1.00  0.00     0.023 A 
HETATM    3  N1  UNL     1     -42.260  26.559   1.681  1.00  0.00    -0.361 N 
ATOM      4  H1  UNL     1     -41.260  26.579   1.483  1.00  0.00     0.165 HD
HETATM    5  C3  UNL     1     -43.082  25.535   1.318  1.00  0.00     0.022 A 
HETATM    6  C10 UNL     1     -44.381  25.857   1.758  1.00  0.00     0.001 A 
HETATM    7  C15 UNL     1     -44.239  27.105   2.379  1.00  0.00     0.072 A 
ENDROOT
BRANCH   6   8
HETATM    8  C11 UNL     1     -45.603  25.074   1.716  1.00  0.00     0.080 C 
HETATM    9  C12 UNL     1     -45.605  24.206   0.418  1.00  0.00     0.029 C 
HETATM   10  C13 UNL     1     -45.791  24.066   2.816  1.00  0.00     0.029 C 
BRANCH   8  11
HETATM   11  C14 UNL     1     -46.905  25.835   1.463  1.00  0.00     0.398 C 
HETATM   12  F1  UNL     1     -46.784  26.732   0.403  1.00  0.00    -0.170 F 
HETATM   13  F2  UNL     1     -47.790  24.859   0.810  1.00  0.00    -0.170 F 
HETATM   14  F3  UNL     1     -47.669  26.225   2.464  1.00  0.00    -0.170 F 
ENDBRANCH   8  11
ENDBRANCH   6   8
BRANCH   5  15
HETATM   15  C4  UNL     1     -42.638  24.396   0.525  1.00  0.00     0.036 C 
HETATM   16  C5  UNL     1     -41.483  24.921  -0.400  1.00  0.00     0.011 C 
HETATM   17  C6  UNL     1     -40.169  24.784   0.302  1.00  0.00     0.001 C 
HETATM   18  C7  UNL     1     -39.709  23.336   0.053  1.00  0.00     0.000 C 
HETATM   19  C8  UNL     1     -40.958  22.523   0.242  1.00  0.00     0.001 C 
HETATM   20  C9  UNL     1     -41.975  23.232   1.168  1.00  0.00     0.011 C 
ENDBRANCH   5  15
BRANCH   7  21
HETATM   21  C16 UNL     1     -45.140  28.012   3.062  1.00  0.00     0.212 C 
HETATM   22  O1  UNL     1     -45.389  27.858   4.272  1.00  0.00    -0.644 OA
HETATM   23  O2  UNL     1     -45.723  29.053   2.392  1.00  0.00    -0.644 OA
ENDBRANCH   7  21
TORSDOF 4
ENDMDL
MODEL 5
REMARK VINA RESULT: -5.989173887      2.984      4.857
REMARK  4 active torsions:
REMARK  status: ('A' for Active; 'I' for Inactive)
REMARK    1  A    between atoms: C3_5  and  C4_6 
REMARK    2  A    between atoms: C10_12  and  C11_13 
REMARK    3  A    between atoms: C11_13  and  C14_16 
REMARK    4  A    between atoms: C15_20  and  C16_21 
ROOT
HETATM    1  C1  UNL     1     -45.089  26.832   2.660  1.00  0.00     0.069 C 
HETATM    2  C2  UNL     1     -43.736  26.679   2.084  1.00  0.00     0.023 A 
HETATM    3  N1  UNL     1     -42.746  27.537   2.127  1.00  0.00    -0.361 N 
ATOM      4  H1  UNL     1     -42.804  28.447   2.584  1.00  0.00     0.165 HD
HETATM    5  C3  UNL     1     -41.631  27.079   1.492  1.00  0.00     0.022 A 
HETATM    6  C10 UNL     1     -41.925  25.796   0.988  1.00  0.00     0.001 A 
HETATM    7  C15 UNL     1     -43.253  25.568   1.373  1.00  0.00     0.072 A 
ENDROOT
BRANCH   6   8
HETATM    8  C11 UNL     1     -41.066  24.834   0.322  1.00  0.00     0.080 C 
HETATM    9  C12 UNL     1     -41.665  24.507  -1.082  1.00  0.00     0.029 C 
HETATM   10  C13 UNL     1     -39.666  25.288   0.012  1.00  0.00     0.029 C 
BRANCH   8  11
HETATM   11  C14 UNL     1     -41.052  23.412   0.883  1.00  0.00     0.398 C 
HETATM   12  F1  UNL     1     -41.769  22.529   0.076  1.00  0.00    -0.170 F 
HETATM   13  F2  UNL     1     -39.702  22.908   0.594  1.00  0.00    -0.170 F 
HETATM   14  F3  UNL     1     -41.122  23.193   2.181  1.00  0.00    -0.170 F 
ENDBRANCH   8  11
ENDBRANCH   6   8
BRANCH   5  15
HETATM   15  C4  UNL     1     -40.425  27.879   1.318  1.00  0.00     0.036 C 
HETATM   16  C5  UNL     1     -40.616  28.688  -0.014  1.00  0.00     0.011 C 
HETATM   17  C6  UNL     1     -41.287  29.993   0.278  1.00  0.00     0.001 C 
HETATM   18  C7  UNL     1     -40.164  30.957   0.703  1.00  0.00     0.000 C 
HETATM   19  C8  UNL     1     -39.300  30.127   1.609  1.00  0.00     0.001 C 
HETATM   20  C9  UNL     1     -40.092  28.972   2.266  1.00  0.00     0.011 C 
ENDBRANCH   5  15
BRANCH   7  21
HETATM   21  C16 UNL     1     -44.184  24.468   1.216  1.00  0.00     0.212 C 
HETATM   22  O1  UNL     1     -44.964  24.438   0.247  1.00  0.00    -0.644 OA
HETATM   23  O2  UNL     1     -44.214  23.444   2.124  1.00  0.00    -0.644 OA
ENDBRANCH   7  21
TORSDOF 4
ENDMDL
