MODEL 1
REMARK VINA RESULT: -7.619611840      0.000      0.000
REMARK  3 active torsions:
REMARK  status: ('A' for Active; 'I' for Inactive)
REMARK    1  A    between atoms: C1_2  and  C2_5 
REMARK    2  A    between atoms: C3_9  and  C4_10 
REMARK    3  A    between atoms: C4_10  and  C5_11 
ROOT
HETATM    1  C2  UNL     1     -43.506  24.786   1.640  1.00  0.00     0.343 C 
HETATM    2  N1  UNL     1     -43.466  25.682   0.502  1.00  0.00    -0.048 N 
ATOM      3  H11 UNL     1     -44.156  26.433   0.521  1.00  0.00     0.279 HD
ATOM      4  H12 UNL     1     -43.787  25.277  -0.377  1.00  0.00     0.279 HD
HETATM    5  C3  UNL     1     -42.031  26.137   0.506  1.00  0.00     0.223 C 
HETATM    6  C11 UNL     1     -41.366  24.860   0.676  1.00  0.00     0.010 A 
HETATM    7  C12 UNL     1     -42.223  24.032   1.394  1.00  0.00     0.059 A 
HETATM    8  N2  UNL     1     -41.588  22.865   1.544  1.00  0.00    -0.356 N 
ATOM      9  H2  UNL     1     -41.971  22.058   2.036  1.00  0.00     0.166 HD
HETATM   10  C13 UNL     1     -40.383  22.896   0.965  1.00  0.00     0.043 A 
HETATM   11  C14 UNL     1     -39.372  21.966   0.824  1.00  0.00     0.030 A 
HETATM   12  C15 UNL     1     -38.195  22.215   0.152  1.00  0.00     0.002 A 
HETATM   13  C16 UNL     1     -38.006  23.471  -0.422  1.00  0.00     0.001 A 
HETATM   14  C17 UNL     1     -39.016  24.395  -0.280  1.00  0.00     0.014 A 
HETATM   15  C18 UNL     1     -40.195  24.137   0.399  1.00  0.00     0.001 A 
ENDROOT
BRANCH   5  16
HETATM   16  C4  UNL     1     -41.987  27.182   1.533  1.00  0.00     0.042 C 
BRANCH  16  17
HETATM   17  C5  UNL     1     -41.483  28.548   1.236  1.00  0.00    -0.012 C 
HETATM   18  C6  UNL     1     -40.277  28.744   2.178  1.00  0.00     0.005 C 
HETATM   19  C7  UNL     1     -39.079  28.107   1.533  1.00  0.00     0.000 C 
HETATM   20  C8  UNL     1     -38.609  29.091   0.453  1.00  0.00     0.000 C 
HETATM   21  C9  UNL     1     -39.792  29.564  -0.316  1.00  0.00     0.000 C 
HETATM   22  C10 UNL     1     -41.001  28.651  -0.190  1.00  0.00     0.005 C 
ENDBRANCH  16  17
ENDBRANCH   5  16
BRANCH   1  23
HETATM   23  C1  UNL     1     -44.689  23.816   1.499  1.00  0.00     0.421 C 
HETATM   24  F1  UNL     1     -44.283  22.521   1.532  1.00  0.00    -0.168 F 
HETATM   25  F2  UNL     1     -45.534  24.131   2.570  1.00  0.00    -0.168 F 
HETATM   26  F3  UNL     1     -45.336  24.159   0.327  1.00  0.00    -0.168 F 
ENDBRANCH   1  23
TORSDOF 3
ENDMDL
MODEL 2
REMARK VINA RESULT: -7.319422612      0.743      1.211
REMARK  3 active torsions:
REMARK  status: ('A' for Active; 'I' for Inactive)
REMARK    1  A    between atoms: C1_2  and  C2_5 
REMARK    2  A    between atoms: C3_9  and  C4_10 
REMARK    3  A    between atoms: C4_10  and  C5_11 
ROOT
HETATM    1  C2  UNL     1     -43.628  24.525   1.653  1.00  0.00     0.343 C 
HETATM    2  N1  UNL     1     -43.661  25.398   0.497  1.00  0.00    -0.048 N 
ATOM      3  H11 UNL     1     -44.399  26.102   0.510  1.00  0.00     0.279 HD
ATOM      4  H12 UNL     1     -43.964  24.955  -0.370  1.00  0.00     0.279 HD
HETATM    5  C3  UNL     1     -42.259  25.947   0.474  1.00  0.00     0.223 C 
HETATM    6  C11 UNL     1     -41.510  24.720   0.661  1.00  0.00     0.010 A 
HETATM    7  C12 UNL     1     -42.301  23.852   1.406  1.00  0.00     0.059 A 
HETATM    8  N2  UNL     1     -41.589  22.733   1.571  1.00  0.00    -0.356 N 
ATOM      9  H2  UNL     1     -41.913  21.912   2.083  1.00  0.00     0.166 HD
HETATM   10  C13 UNL     1     -40.395  22.832   0.976  1.00  0.00     0.043 A 
HETATM   11  C14 UNL     1     -39.326  21.967   0.840  1.00  0.00     0.030 A 
HETATM   12  C15 UNL     1     -38.177  22.279   0.149  1.00  0.00     0.002 A 
HETATM   13  C16 UNL     1     -38.078  23.533  -0.453  1.00  0.00     0.001 A 
HETATM   14  C17 UNL     1     -39.145  24.391  -0.316  1.00  0.00     0.014 A 
HETATM   15  C18 UNL     1     -40.296  24.070   0.383  1.00  0.00     0.001 A 
ENDROOT
BRANCH   5  16
HETATM   16  C4  UNL     1     -42.273  27.013   1.479  1.00  0.00     0.042 C 
BRANCH  16  17
HETATM   17  C5  UNL     1     -41.039  27.755   1.848  1.00  0.00    -0.012 C 
HETATM   18  C6  UNL     1     -40.367  28.109   0.506  1.00  0.00     0.005 C 
HETATM   19  C7  UNL     1     -41.018  29.356  -0.023  1.00  0.00     0.000 C 
HETATM   20  C8  UNL     1     -40.415  30.518   0.778  1.00  0.00     0.000 C 
HETATM   21  C9  UNL     1     -40.404  30.154   2.222  1.00  0.00     0.000 C 
HETATM   22  C10 UNL     1     -41.372  29.036   2.572  1.00  0.00     0.005 C 
ENDBRANCH  16  17
ENDBRANCH   5  16
BRANCH   1  23
HETATM   23  C1  UNL     1     -44.747  23.476   1.547  1.00  0.00     0.421 C 
HETATM   24  F1  UNL     1     -44.250  22.212   1.547  1.00  0.00    -0.168 F 
HETATM   25  F2  UNL     1     -45.568  23.722   2.654  1.00  0.00    -0.168 F 
HETATM   26  F3  UNL     1     -45.462  23.785   0.405  1.00  0.00    -0.168 F 
ENDBRANCH   1  23
TORSDOF 3
ENDMDL
MODEL 3
REMARK VINA RESULT: -7.315298186      0.798      1.146
REMARK  3 active torsions:
REMARK  status: ('A' for Active; 'I' for Inactive)
REMARK    1  A    between atoms: C1_2  and  C2_5 
REMARK    2  A    between atoms: C3_9  and  C4_10 
REMARK    3  A    between atoms: C4_10  and  C5_11 
ROOT
HETATM    1  C2  UNL     1     -43.298  24.317   1.501  1.00  0.00     0.343 C 
HETATM    2  N1  UNL     1     -43.412  24.983   0.219  1.00  0.00    -0.048 N 
ATOM      3  H11 UNL     1     -44.171  25.661   0.153  1.00  0.00     0.279 HD
ATOM      4  H12 UNL     1     -43.742  24.393  -0.544  1.00  0.00     0.279 HD
HETATM    5  C3  UNL     1     -42.032  25.553   0.032  1.00  0.00     0.223 C 
HETATM    6  C11 UNL     1     -41.235  24.393   0.383  1.00  0.00     0.010 A 
HETATM    7  C12 UNL     1     -41.962  23.644   1.302  1.00  0.00     0.059 A 
HETATM    8  N2  UNL     1     -41.207  22.586   1.614  1.00  0.00    -0.356 N 
ATOM      9  H2  UNL     1     -41.480  21.856   2.272  1.00  0.00     0.166 HD
HETATM   10  C13 UNL     1     -40.046  22.612   0.950  1.00  0.00     0.043 A 
HETATM   11  C14 UNL     1     -38.958  21.763   0.906  1.00  0.00     0.030 A 
HETATM   12  C15 UNL     1     -37.853  21.982   0.113  1.00  0.00     0.002 A 
HETATM   13  C16 UNL     1     -37.823  23.119  -0.693  1.00  0.00     0.001 A 
HETATM   14  C17 UNL     1     -38.909  23.962  -0.647  1.00  0.00     0.014 A 
HETATM   15  C18 UNL     1     -40.016  23.736   0.155  1.00  0.00     0.001 A 
ENDROOT
BRANCH   5  16
HETATM   16  C4  UNL     1     -42.033  26.773   0.845  1.00  0.00     0.042 C 
BRANCH  16  17
HETATM   17  C5  UNL     1     -41.169  27.935   0.511  1.00  0.00    -0.012 C 
HETATM   18  C6  UNL     1     -41.702  29.093   1.379  1.00  0.00     0.005 C 
HETATM   19  C7  UNL     1     -41.089  28.967   2.746  1.00  0.00     0.000 C 
HETATM   20  C8  UNL     1     -39.656  29.501   2.615  1.00  0.00     0.000 C 
HETATM   21  C9  UNL     1     -39.037  28.926   1.389  1.00  0.00     0.000 C 
HETATM   22  C10 UNL     1     -39.733  27.671   0.891  1.00  0.00     0.005 C 
ENDBRANCH  16  17
ENDBRANCH   5  16
BRANCH   1  23
HETATM   23  C1  UNL     1     -44.385  23.239   1.630  1.00  0.00     0.421 C 
HETATM   24  F1  UNL     1     -43.872  21.990   1.485  1.00  0.00    -0.168 F 
HETATM   25  F2  UNL     1     -44.934  23.440   2.902  1.00  0.00    -0.168 F 
HETATM   26  F3  UNL     1     -45.352  23.548   0.692  1.00  0.00    -0.168 F 
ENDBRANCH   1  23
TORSDOF 3
ENDMDL
MODEL 4
REMARK VINA RESULT: -7.286181406      2.864      5.356
REMARK  3 active torsions:
REMARK  status: ('A' for Active; 'I' for Inactive)
REMARK    1  A    between atoms: C1_2  and  C2_5 
REMARK    2  A    between atoms: C3_9  and  C4_10 
REMARK    3  A    between atoms: C4_10  and  C5_11 
ROOT
HETATM    1  C2  UNL     1     -42.206  27.528   0.973  1.00  0.00     0.343 C 
HETATM    2  N1  UNL     1     -42.800  26.959   2.166  1.00  0.00    -0.048 N 
ATOM      3  H11 UNL     1     -43.619  27.454   2.517  1.00  0.00     0.279 HD
ATOM      4  H12 UNL     1     -42.248  27.068   3.016  1.00  0.00     0.279 HD
HETATM    5  C3  UNL     1     -43.048  25.534   1.748  1.00  0.00     0.223 C 
HETATM    6  C11 UNL     1     -41.768  25.228   1.139  1.00  0.00     0.010 A 
HETATM    7  C12 UNL     1     -41.251  26.413   0.627  1.00  0.00     0.059 A 
HETATM    8  N2  UNL     1     -40.077  26.106   0.065  1.00  0.00    -0.356 N 
ATOM      9  H2  UNL     1     -39.465  26.777  -0.397  1.00  0.00     0.166 HD
HETATM   10  C13 UNL     1     -39.812  24.800   0.191  1.00  0.00     0.043 A 
HETATM   11  C14 UNL     1     -38.749  24.006  -0.190  1.00  0.00     0.030 A 
HETATM   12  C15 UNL     1     -38.676  22.654   0.069  1.00  0.00     0.002 A 
HETATM   13  C16 UNL     1     -39.727  22.048   0.754  1.00  0.00     0.001 A 
HETATM   14  C17 UNL     1     -40.785  22.842   1.131  1.00  0.00     0.014 A 
HETATM   15  C18 UNL     1     -40.852  24.200   0.865  1.00  0.00     0.001 A 
ENDROOT
BRANCH   5  16
HETATM   16  C4  UNL     1     -44.288  25.598   0.969  1.00  0.00     0.042 C 
BRANCH  16  17
HETATM   17  C5  UNL     1     -45.089  24.382   0.674  1.00  0.00    -0.012 C 
HETATM   18  C6  UNL     1     -45.475  23.812   2.055  1.00  0.00     0.005 C 
HETATM   19  C7  UNL     1     -46.688  24.555   2.539  1.00  0.00     0.000 C 
HETATM   20  C8  UNL     1     -47.879  23.960   1.774  1.00  0.00     0.000 C 
HETATM   21  C9  UNL     1     -47.517  23.843   0.334  1.00  0.00     0.000 C 
HETATM   22  C10 UNL     1     -46.353  24.732  -0.071  1.00  0.00     0.005 C 
ENDBRANCH  16  17
ENDBRANCH   5  16
BRANCH   1  23
HETATM   23  C1  UNL     1     -41.396  28.782   1.340  1.00  0.00     0.421 C 
HETATM   24  F1  UNL     1     -40.774  29.312   0.256  1.00  0.00    -0.168 F 
HETATM   25  F2  UNL     1     -42.336  29.660   1.893  1.00  0.00    -0.168 F 
HETATM   26  F3  UNL     1     -40.523  28.401   2.342  1.00  0.00    -0.168 F 
ENDBRANCH   1  23
TORSDOF 3
ENDMDL
MODEL 5
REMARK VINA RESULT: -6.914648738      2.780      5.369
REMARK  3 active torsions:
REMARK  status: ('A' for Active; 'I' for Inactive)
REMARK    1  A    between atoms: C1_2  and  C2_5 
REMARK    2  A    between atoms: C3_9  and  C4_10 
REMARK    3  A    between atoms: C4_10  and  C5_11 
ROOT
HETATM    1  C2  UNL     1     -42.453  27.226   1.067  1.00  0.00     0.343 C 
HETATM    2  N1  UNL     1     -43.082  26.477   2.136  1.00  0.00    -0.048 N 
ATOM      3  H11 UNL     1     -43.966  26.862   2.469  1.00  0.00     0.279 HD
ATOM      4  H12 UNL     1     -42.607  26.530   3.037  1.00  0.00     0.279 HD
HETATM    5  C3  UNL     1     -43.173  25.095   1.545  1.00  0.00     0.223 C 
HETATM    6  C11 UNL     1     -41.829  24.963   1.016  1.00  0.00     0.010 A 
HETATM    7  C12 UNL     1     -41.381  26.237   0.682  1.00  0.00     0.059 A 
HETATM    8  N2  UNL     1     -40.146  26.090   0.191  1.00  0.00    -0.356 N 
ATOM      9  H2  UNL     1     -39.562  26.857  -0.142  1.00  0.00     0.166 HD
HETATM   10  C13 UNL     1     -39.778  24.804   0.195  1.00  0.00     0.043 A 
HETATM   11  C14 UNL     1     -38.623  24.145  -0.180  1.00  0.00     0.030 A 
HETATM   12  C15 UNL     1     -38.452  22.783  -0.065  1.00  0.00     0.002 A 
HETATM   13  C16 UNL     1     -39.494  22.020   0.458  1.00  0.00     0.001 A 
HETATM   14  C17 UNL     1     -40.643  22.680   0.830  1.00  0.00     0.014 A 
HETATM   15  C18 UNL     1     -40.808  24.050   0.710  1.00  0.00     0.001 A 
ENDROOT
BRANCH   5  16
HETATM   16  C4  UNL     1     -44.351  25.152   0.676  1.00  0.00     0.042 C 
BRANCH  16  17
HETATM   17  C5  UNL     1     -45.709  25.420   1.217  1.00  0.00    -0.012 C 
HETATM   18  C6  UNL     1     -46.642  25.399  -0.011  1.00  0.00     0.005 C 
HETATM   19  C7  UNL     1     -46.988  23.967  -0.305  1.00  0.00     0.000 C 
HETATM   20  C8  UNL     1     -48.057  23.572   0.724  1.00  0.00     0.000 C 
HETATM   21  C9  UNL     1     -47.630  24.048   2.069  1.00  0.00     0.000 C 
HETATM   22  C10 UNL     1     -46.140  24.330   2.167  1.00  0.00     0.005 C 
ENDBRANCH  16  17
ENDBRANCH   5  16
BRANCH   1  23
HETATM   23  C1  UNL     1     -41.786  28.488   1.636  1.00  0.00     0.421 C 
HETATM   24  F1  UNL     1     -41.141  29.193   0.671  1.00  0.00    -0.168 F 
HETATM   25  F2  UNL     1     -42.836  29.216   2.209  1.00  0.00    -0.168 F 
HETATM   26  F3  UNL     1     -40.953  28.063   2.654  1.00  0.00    -0.168 F 
ENDBRANCH   1  23
TORSDOF 3
ENDMDL
