MODEL 1
REMARK VINA RESULT: -8.369332691      0.000      0.000
REMARK  3 active torsions:
REMARK  status: ('A' for Active; 'I' for Inactive)
REMARK    1  A    between atoms: C3_4  and  C4_5 
REMARK    2  A    between atoms: C7_8  and  C8_9 
REMARK    3  A    between atoms: C16_21  and  C17_22 
ROOT
HETATM    1  N1  UNL     1     -35.143  18.460   1.110  1.00  0.00    -0.191 NA
HETATM    2  C1  UNL     1     -34.880  19.213   0.276  1.00  0.00     0.102 C 
HETATM    3  C2  UNL     1     -34.524  20.132  -0.755  1.00  0.00     0.090 A 
HETATM    4  C3  UNL     1     -35.322  21.064  -1.342  1.00  0.00     0.029 A 
HETATM    5  C15 UNL     1     -34.488  21.691  -2.278  1.00  0.00     0.103 A 
HETATM    6  N3  UNL     1     -33.259  21.154  -2.244  1.00  0.00    -0.360 N 
ATOM      7  H3  UNL     1     -32.471  21.434  -2.827  1.00  0.00     0.165 HD
HETATM    8  C16 UNL     1     -33.241  20.196  -1.324  1.00  0.00     0.138 A 
ENDROOT
BRANCH   4   9
HETATM    9  C4  UNL     1     -36.720  21.392  -1.107  1.00  0.00     0.045 A 
HETATM   10  C5  UNL     1     -37.835  20.974  -1.759  1.00  0.00     0.032 A 
HETATM   11  C6  UNL     1     -38.907  21.580  -1.142  1.00  0.00     0.027 A 
HETATM   12  C7  UNL     1     -38.460  22.376  -0.106  1.00  0.00     0.013 A 
HETATM   13  N2  UNL     1     -37.132  22.240  -0.113  1.00  0.00    -0.358 N 
ATOM     14  H2  UNL     1     -36.504  22.708   0.540  1.00  0.00     0.166 HD
BRANCH  12  15
HETATM   15  C8  UNL     1     -39.305  23.205   0.809  1.00  0.00     0.035 C 
HETATM   16  C9  UNL     1     -39.436  24.623   0.375  1.00  0.00     0.011 C 
HETATM   17  C10 UNL     1     -40.337  24.883  -0.779  1.00  0.00     0.001 C 
HETATM   18  C11 UNL     1     -41.687  24.261  -0.708  1.00  0.00     0.000 C 
HETATM   19  C12 UNL     1     -42.309  24.312   0.654  1.00  0.00     0.000 C 
HETATM   20  C13 UNL     1     -41.579  23.512   1.682  1.00  0.00     0.001 C 
HETATM   21  C14 UNL     1     -40.613  22.520   1.098  1.00  0.00     0.011 C 
ENDBRANCH  12  15
ENDBRANCH   4   9
BRANCH   8  22
HETATM   22  C17 UNL     1     -32.080  19.328  -0.943  1.00  0.00     0.434 C 
HETATM   23  F1  UNL     1     -31.939  19.283   0.423  1.00  0.00    -0.165 F 
HETATM   24  F2  UNL     1     -30.953  19.937  -1.489  1.00  0.00    -0.165 F 
HETATM   25  F3  UNL     1     -32.281  18.087  -1.509  1.00  0.00    -0.165 F 
ENDBRANCH   8  22
TORSDOF 3
ENDMDL
MODEL 2
REMARK VINA RESULT: -8.332478271      0.925      2.062
REMARK  3 active torsions:
REMARK  status: ('A' for Active; 'I' for Inactive)
REMARK    1  A    between atoms: C3_4  and  C4_5 
REMARK    2  A    between atoms: C7_8  and  C8_9 
REMARK    3  A    between atoms: C16_21  and  C17_22 
ROOT
HETATM    1  N1  UNL     1     -33.945  21.999  -2.620  1.00  0.00    -0.191 NA
HETATM    2  C1  UNL     1     -34.339  21.318  -1.775  1.00  0.00     0.102 C 
HETATM    3  C2  UNL     1     -34.795  20.460  -0.731  1.00  0.00     0.090 A 
HETATM    4  C3  UNL     1     -35.999  20.498  -0.098  1.00  0.00     0.029 A 
HETATM    5  C15 UNL     1     -35.933  19.450   0.830  1.00  0.00     0.103 A 
HETATM    6  N3  UNL     1     -34.749  18.825   0.747  1.00  0.00    -0.360 N 
ATOM      7  H3  UNL     1     -34.454  18.031   1.316  1.00  0.00     0.165 HD
HETATM    8  C16 UNL     1     -34.024  19.414  -0.197  1.00  0.00     0.138 A 
ENDROOT
BRANCH   4   9
HETATM    9  C4  UNL     1     -37.136  21.387  -0.286  1.00  0.00     0.045 A 
HETATM   10  C5  UNL     1     -37.579  22.010  -1.408  1.00  0.00     0.032 A 
HETATM   11  C6  UNL     1     -38.692  22.737  -1.046  1.00  0.00     0.027 A 
HETATM   12  C7  UNL     1     -38.941  22.567   0.301  1.00  0.00     0.013 A 
HETATM   13  N2  UNL     1     -37.981  21.745   0.731  1.00  0.00    -0.358 N 
ATOM     14  H2  UNL     1     -37.889  21.424   1.694  1.00  0.00     0.166 HD
BRANCH  12  15
HETATM   15  C8  UNL     1     -40.054  23.186   1.086  1.00  0.00     0.035 C 
HETATM   16  C9  UNL     1     -40.166  24.659   0.898  1.00  0.00     0.011 C 
HETATM   17  C10 UNL     1     -40.747  25.121  -0.390  1.00  0.00     0.001 C 
HETATM   18  C11 UNL     1     -42.021  24.470  -0.805  1.00  0.00     0.000 C 
HETATM   19  C12 UNL     1     -42.981  24.244   0.321  1.00  0.00     0.000 C 
HETATM   20  C13 UNL     1     -42.494  23.274   1.347  1.00  0.00     0.001 C 
HETATM   21  C14 UNL     1     -41.341  22.433   0.878  1.00  0.00     0.011 C 
ENDBRANCH  12  15
ENDBRANCH   4   9
BRANCH   8  22
HETATM   22  C17 UNL     1     -32.637  19.051  -0.632  1.00  0.00     0.434 C 
HETATM   23  F1  UNL     1     -31.914  20.181  -0.929  1.00  0.00    -0.165 F 
HETATM   24  F2  UNL     1     -32.786  18.297  -1.792  1.00  0.00    -0.165 F 
HETATM   25  F3  UNL     1     -32.069  18.292   0.368  1.00  0.00    -0.165 F 
ENDBRANCH   8  22
TORSDOF 3
ENDMDL
MODEL 3
REMARK VINA RESULT: -8.226907740      0.853      1.530
REMARK  3 active torsions:
REMARK  status: ('A' for Active; 'I' for Inactive)
REMARK    1  A    between atoms: C3_4  and  C4_5 
REMARK    2  A    between atoms: C7_8  and  C8_9 
REMARK    3  A    between atoms: C16_21  and  C17_22 
ROOT
HETATM    1  N1  UNL     1     -34.681  18.447   1.420  1.00  0.00    -0.191 NA
HETATM    2  C1  UNL     1     -34.561  19.204   0.556  1.00  0.00     0.102 C 
HETATM    3  C2  UNL     1     -34.383  20.125  -0.518  1.00  0.00     0.090 A 
HETATM    4  C3  UNL     1     -35.235  21.110  -0.910  1.00  0.00     0.029 A 
HETATM    5  C15 UNL     1     -34.588  21.713  -1.997  1.00  0.00     0.103 A 
HETATM    6  N3  UNL     1     -33.412  21.112  -2.233  1.00  0.00    -0.360 N 
ATOM      7  H3  UNL     1     -32.752  21.364  -2.970  1.00  0.00     0.165 HD
HETATM    8  C16 UNL     1     -33.250  20.135  -1.348  1.00  0.00     0.138 A 
ENDROOT
BRANCH   4   9
HETATM    9  C4  UNL     1     -36.531  21.505  -0.376  1.00  0.00     0.045 A 
HETATM   10  C5  UNL     1     -37.149  21.135   0.774  1.00  0.00     0.032 A 
HETATM   11  C6  UNL     1     -38.358  21.794   0.806  1.00  0.00     0.027 A 
HETATM   12  C7  UNL     1     -38.493  22.575  -0.325  1.00  0.00     0.013 A 
HETATM   13  N2  UNL     1     -37.370  22.377  -1.019  1.00  0.00    -0.358 N 
ATOM     14  H2  UNL     1     -37.163  22.819  -1.914  1.00  0.00     0.166 HD
BRANCH  12  15
HETATM   15  C8  UNL     1     -39.658  23.445  -0.673  1.00  0.00     0.035 C 
HETATM   16  C9  UNL     1     -40.971  22.750  -0.566  1.00  0.00     0.011 C 
HETATM   17  C10 UNL     1     -41.488  22.516   0.808  1.00  0.00     0.001 C 
HETATM   18  C11 UNL     1     -41.475  23.692   1.722  1.00  0.00     0.000 C 
HETATM   19  C12 UNL     1     -41.875  24.976   1.064  1.00  0.00     0.000 C 
HETATM   20  C13 UNL     1     -40.927  25.435   0.005  1.00  0.00     0.001 C 
HETATM   21  C14 UNL     1     -39.588  24.757   0.062  1.00  0.00     0.011 C 
ENDBRANCH  12  15
ENDBRANCH   4   9
BRANCH   8  22
HETATM   22  C17 UNL     1     -32.085  19.200  -1.235  1.00  0.00     0.434 C 
HETATM   23  F1  UNL     1     -31.762  18.990   0.083  1.00  0.00    -0.165 F 
HETATM   24  F2  UNL     1     -31.019  19.840  -1.860  1.00  0.00    -0.165 F 
HETATM   25  F3  UNL     1     -32.411  18.040  -1.905  1.00  0.00    -0.165 F 
ENDBRANCH   8  22
TORSDOF 3
ENDMDL
MODEL 4
REMARK VINA RESULT: -7.744682157      5.755      9.024
REMARK  3 active torsions:
REMARK  status: ('A' for Active; 'I' for Inactive)
REMARK    1  A    between atoms: C3_4  and  C4_5 
REMARK    2  A    between atoms: C7_8  and  C8_9 
REMARK    3  A    between atoms: C16_21  and  C17_22 
ROOT
HETATM    1  N1  UNL     1     -41.171  27.137   0.342  1.00  0.00    -0.191 NA
HETATM    2  C1  UNL     1     -41.583  26.088   0.592  1.00  0.00     0.102 C 
HETATM    3  C2  UNL     1     -42.121  24.806   0.908  1.00  0.00     0.090 A 
HETATM    4  C3  UNL     1     -41.489  23.604   0.833  1.00  0.00     0.029 A 
HETATM    5  C15 UNL     1     -42.456  22.679   1.251  1.00  0.00     0.103 A 
HETATM    6  N3  UNL     1     -43.602  23.307   1.556  1.00  0.00    -0.360 N 
ATOM      7  H3  UNL     1     -44.457  22.858   1.884  1.00  0.00     0.165 HD
HETATM    8  C16 UNL     1     -43.437  24.610   1.359  1.00  0.00     0.138 A 
ENDROOT
BRANCH   4   9
HETATM    9  C4  UNL     1     -40.130  23.276   0.426  1.00  0.00     0.045 A 
HETATM   10  C5  UNL     1     -39.132  24.085  -0.011  1.00  0.00     0.032 A 
HETATM   11  C6  UNL     1     -38.047  23.276  -0.266  1.00  0.00     0.027 A 
HETATM   12  C7  UNL     1     -38.369  21.963   0.012  1.00  0.00     0.013 A 
HETATM   13  N2  UNL     1     -39.637  21.997   0.428  1.00  0.00    -0.358 N 
ATOM     14  H2  UNL     1     -40.171  21.176   0.712  1.00  0.00     0.166 HD
BRANCH  12  15
HETATM   15  C8  UNL     1     -37.472  20.775  -0.133  1.00  0.00     0.035 C 
HETATM   16  C9  UNL     1     -37.097  20.482  -1.544  1.00  0.00     0.011 C 
HETATM   17  C10 UNL     1     -36.092  21.385  -2.165  1.00  0.00     0.001 C 
HETATM   18  C11 UNL     1     -34.860  21.638  -1.368  1.00  0.00     0.000 C 
HETATM   19  C12 UNL     1     -34.330  20.426  -0.666  1.00  0.00     0.000 C 
HETATM   20  C13 UNL     1     -35.241  19.893   0.391  1.00  0.00     0.001 C 
HETATM   21  C14 UNL     1     -36.305  20.865   0.814  1.00  0.00     0.011 C 
ENDBRANCH  12  15
ENDBRANCH   4   9
BRANCH   8  22
HETATM   22  C17 UNL     1     -44.451  25.693   1.571  1.00  0.00     0.434 C 
HETATM   23  F1  UNL     1     -43.840  26.849   1.993  1.00  0.00    -0.165 F 
HETATM   24  F2  UNL     1     -45.291  25.237   2.582  1.00  0.00    -0.165 F 
HETATM   25  F3  UNL     1     -45.151  25.848   0.394  1.00  0.00    -0.165 F 
ENDBRANCH   8  22
TORSDOF 3
ENDMDL
MODEL 5
REMARK VINA RESULT: -7.241963633      5.348      8.232
REMARK  3 active torsions:
REMARK  status: ('A' for Active; 'I' for Inactive)
REMARK    1  A    between atoms: C3_4  and  C4_5 
REMARK    2  A    between atoms: C7_8  and  C8_9 
REMARK    3  A    between atoms: C16_21  and  C17_22 
ROOT
HETATM    1  N1  UNL     1     -42.876  21.859   1.357  1.00  0.00    -0.191 NA
HETATM    2  C1  UNL     1     -42.420  22.884   1.084  1.00  0.00     0.102 C 
HETATM    3  C2  UNL     1     -41.828  24.134   0.738  1.00  0.00     0.090 A 
HETATM    4  C3  UNL     1     -42.405  25.364   0.793  1.00  0.00     0.029 A 
HETATM    5  C15 UNL     1     -41.401  26.236   0.351  1.00  0.00     0.103 A 
HETATM    6  N3  UNL     1     -40.286  25.552   0.051  1.00  0.00    -0.360 N 
ATOM      7  H3  UNL     1     -39.414  25.956  -0.292  1.00  0.00     0.165 HD
HETATM    8  C16 UNL     1     -40.507  24.262   0.275  1.00  0.00     0.138 A 
ENDROOT
BRANCH   4   9
HETATM    9  C4  UNL     1     -43.744  25.760   1.203  1.00  0.00     0.045 A 
HETATM   10  C5  UNL     1     -44.138  26.678   2.122  1.00  0.00     0.032 A 
HETATM   11  C6  UNL     1     -45.516  26.668   2.129  1.00  0.00     0.027 A 
HETATM   12  C7  UNL     1     -45.980  25.744   1.214  1.00  0.00     0.013 A 
HETATM   13  N2  UNL     1     -44.882  25.212   0.671  1.00  0.00    -0.358 N 
ATOM     14  H2  UNL     1     -44.889  24.489  -0.048  1.00  0.00     0.166 HD
BRANCH  12  15
HETATM   15  C8  UNL     1     -47.410  25.426   0.917  1.00  0.00     0.035 C 
HETATM   16  C9  UNL     1     -47.784  25.642  -0.508  1.00  0.00     0.011 C 
HETATM   17  C10 UNL     1     -47.301  24.628  -1.482  1.00  0.00     0.001 C 
HETATM   18  C11 UNL     1     -47.541  23.204  -1.118  1.00  0.00     0.000 C 
HETATM   19  C12 UNL     1     -48.881  22.954  -0.498  1.00  0.00     0.000 C 
HETATM   20  C13 UNL     1     -49.068  23.616   0.828  1.00  0.00     0.001 C 
HETATM   21  C14 UNL     1     -47.782  24.071   1.458  1.00  0.00     0.011 C 
ENDBRANCH  12  15
ENDBRANCH   4   9
BRANCH   8  22
HETATM   22  C17 UNL     1     -39.545  23.131   0.077  1.00  0.00     0.434 C 
HETATM   23  F1  UNL     1     -39.325  22.473   1.262  1.00  0.00    -0.165 F 
HETATM   24  F2  UNL     1     -38.351  23.714  -0.339  1.00  0.00    -0.165 F 
HETATM   25  F3  UNL     1     -40.054  22.315  -0.910  1.00  0.00    -0.165 F 
ENDBRANCH   8  22
TORSDOF 3
ENDMDL
