MODEL 1
REMARK VINA RESULT: -7.696094244      0.000      0.000
REMARK  4 active torsions:
REMARK  status: ('A' for Active; 'I' for Inactive)
REMARK    1  A    between atoms: C2_2  and  C4_4 
REMARK    2  A    between atoms: C7_7  and  C8_8 
REMARK    3  A    between atoms: C10_10  and  C11_11 
REMARK    4  A    between atoms: C16_16  and  C17_17 
ROOT
HETATM    1  C8  UNL     1      -5.754  22.313  11.691  1.00  0.00    -0.026 A 
HETATM    2  C9  UNL     1      -4.393  22.348  11.423  1.00  0.00     0.017 A 
HETATM    3  C10 UNL     1      -3.929  22.696  10.166  1.00  0.00    -0.049 A 
HETATM    4  C15 UNL     1      -4.867  23.008   9.206  1.00  0.00     0.024 A 
HETATM    5  C16 UNL     1      -6.220  22.970   9.480  1.00  0.00     0.049 A 
HETATM    6  C18 UNL     1      -6.689  22.622  10.733  1.00  0.00     0.025 A 
ENDROOT
BRANCH   1   7
HETATM    7  C7  UNL     1      -6.174  21.953  13.044  1.00  0.00     0.219 C 
HETATM    8  C6  UNL     1      -7.380  21.063  13.055  1.00  0.00     0.040 C 
HETATM    9  C5  UNL     1      -7.984  21.481  14.425  1.00  0.00     0.040 C 
HETATM   10  C4  UNL     1      -7.918  22.994  14.103  1.00  0.00     0.214 C 
HETATM   11  N1  UNL     1      -6.479  23.097  13.900  1.00  0.00    -0.059 N 
ATOM     12  H12 UNL     1      -6.167  23.996  13.532  1.00  0.00     0.278 HD
ATOM     13  H11 UNL     1      -5.932  23.139  14.760  1.00  0.00     0.278 HD
BRANCH  10  14
HETATM   14  C2  UNL     1      -8.454  23.788  15.209  1.00  0.00    -0.063 C 
HETATM   15  C1  UNL     1      -7.609  24.627  15.818  1.00  0.00     0.016 C 
HETATM   16  C3  UNL     1      -9.844  23.752  15.657  1.00  0.00     0.044 C 
ENDBRANCH  10  14
ENDBRANCH   1   7
BRANCH   3  17
HETATM   17  C11 UNL     1      -2.510  22.734   9.767  1.00  0.00    -0.024 C 
HETATM   18  C12 UNL     1      -1.692  23.733  10.524  1.00  0.00     0.019 C 
HETATM   19  C13 UNL     1      -2.366  22.944   8.283  1.00  0.00     0.019 C 
HETATM   20  C14 UNL     1      -1.915  21.358  10.100  1.00  0.00     0.019 C 
ENDBRANCH   3  17
BRANCH   5  21
HETATM   21  C17 UNL     1      -7.241  23.318   8.438  1.00  0.00     0.417 C 
HETATM   22  F1  UNL     1      -7.724  22.181   7.832  1.00  0.00    -0.166 F 
HETATM   23  F2  UNL     1      -6.559  24.071   7.464  1.00  0.00    -0.166 F 
HETATM   24  F3  UNL     1      -8.238  24.063   9.023  1.00  0.00    -0.166 F 
ENDBRANCH   5  21
TORSDOF 4
ENDMDL
MODEL 2
REMARK VINA RESULT: -7.688157018      1.524      2.581
REMARK  4 active torsions:
REMARK  status: ('A' for Active; 'I' for Inactive)
REMARK    1  A    between atoms: C2_2  and  C4_4 
REMARK    2  A    between atoms: C7_7  and  C8_8 
REMARK    3  A    between atoms: C10_10  and  C11_11 
REMARK    4  A    between atoms: C16_16  and  C17_17 
ROOT
HETATM    1  C8  UNL     1      -6.816  22.615  10.918  1.00  0.00    -0.026 A 
HETATM    2  C9  UNL     1      -5.448  22.619  11.153  1.00  0.00     0.017 A 
HETATM    3  C10 UNL     1      -4.555  22.870  10.126  1.00  0.00    -0.049 A 
HETATM    4  C15 UNL     1      -5.078  23.118   8.876  1.00  0.00     0.024 A 
HETATM    5  C16 UNL     1      -6.440  23.111   8.648  1.00  0.00     0.049 A 
HETATM    6  C18 UNL     1      -7.337  22.860   9.670  1.00  0.00     0.025 A 
ENDROOT
BRANCH   1   7
HETATM    7  C7  UNL     1      -7.703  22.359  12.051  1.00  0.00     0.219 C 
HETATM    8  C6  UNL     1      -7.123  22.823  13.353  1.00  0.00     0.040 C 
HETATM    9  C5  UNL     1      -7.817  21.811  14.307  1.00  0.00     0.040 C 
HETATM   10  C4  UNL     1      -7.403  20.581  13.463  1.00  0.00     0.214 C 
HETATM   11  N1  UNL     1      -8.066  20.954  12.220  1.00  0.00    -0.059 N 
ATOM     12  H12 UNL     1      -7.837  20.359  11.424  1.00  0.00     0.278 HD
ATOM     13  H11 UNL     1      -9.069  20.772  12.204  1.00  0.00     0.278 HD
BRANCH  10  14
HETATM   14  C2  UNL     1      -7.876  19.341  14.079  1.00  0.00    -0.063 C 
HETATM   15  C1  UNL     1      -8.037  19.348  15.407  1.00  0.00     0.016 C 
HETATM   16  C3  UNL     1      -8.219  18.127  13.342  1.00  0.00     0.044 C 
ENDBRANCH  10  14
ENDBRANCH   1   7
BRANCH   3  17
HETATM   17  C11 UNL     1      -3.087  22.867  10.261  1.00  0.00    -0.024 C 
HETATM   18  C12 UNL     1      -2.552  23.979  11.107  1.00  0.00     0.019 C 
HETATM   19  C13 UNL     1      -2.415  22.854   8.913  1.00  0.00     0.019 C 
HETATM   20  C14 UNL     1      -2.706  21.565  10.980  1.00  0.00     0.019 C 
ENDBRANCH   3  17
BRANCH   5  21
HETATM   21  C17 UNL     1      -7.009  23.391   7.290  1.00  0.00     0.417 C 
HETATM   22  F1  UNL     1      -7.825  24.499   7.324  1.00  0.00    -0.166 F 
HETATM   23  F2  UNL     1      -7.807  22.277   6.967  1.00  0.00    -0.166 F 
HETATM   24  F3  UNL     1      -5.976  23.529   6.393  1.00  0.00    -0.166 F 
ENDBRANCH   5  21
TORSDOF 4
ENDMDL
MODEL 3
REMARK VINA RESULT: -7.640210745      0.627      1.118
REMARK  4 active torsions:
REMARK  status: ('A' for Active; 'I' for Inactive)
REMARK    1  A    between atoms: C2_2  and  C4_4 
REMARK    2  A    between atoms: C7_7  and  C8_8 
REMARK    3  A    between atoms: C10_10  and  C11_11 
REMARK    4  A    between atoms: C16_16  and  C17_17 
ROOT
HETATM    1  C8  UNL     1      -6.003  22.308  12.085  1.00  0.00    -0.026 A 
HETATM    2  C9  UNL     1      -4.658  22.397  11.753  1.00  0.00     0.017 A 
HETATM    3  C10 UNL     1      -4.266  22.628  10.446  1.00  0.00    -0.049 A 
HETATM    4  C15 UNL     1      -5.259  22.769   9.501  1.00  0.00     0.024 A 
HETATM    5  C16 UNL     1      -6.595  22.678   9.838  1.00  0.00     0.049 A 
HETATM    6  C18 UNL     1      -6.992  22.446  11.141  1.00  0.00     0.025 A 
ENDROOT
BRANCH   1   7
HETATM    7  C7  UNL     1      -6.346  22.078  13.487  1.00  0.00     0.219 C 
HETATM    8  C6  UNL     1      -7.485  21.118  13.651  1.00  0.00     0.040 C 
HETATM    9  C5  UNL     1      -8.066  21.650  14.991  1.00  0.00     0.040 C 
HETATM   10  C4  UNL     1      -8.119  23.117  14.500  1.00  0.00     0.214 C 
HETATM   11  N1  UNL     1      -6.699  23.290  14.222  1.00  0.00    -0.059 N 
ATOM     12  H12 UNL     1      -6.464  24.159  13.743  1.00  0.00     0.278 HD
ATOM     13  H11 UNL     1      -6.125  23.466  15.047  1.00  0.00     0.278 HD
BRANCH  10  14
HETATM   14  C2  UNL     1      -8.668  23.995  15.532  1.00  0.00    -0.063 C 
HETATM   15  C1  UNL     1      -7.808  24.809  16.156  1.00  0.00     0.016 C 
HETATM   16  C3  UNL     1     -10.082  24.068  15.893  1.00  0.00     0.044 C 
ENDBRANCH  10  14
ENDBRANCH   1   7
BRANCH   3  17
HETATM   17  C11 UNL     1      -2.869  22.708   9.982  1.00  0.00    -0.024 C 
HETATM   18  C12 UNL     1      -2.047  23.730  10.704  1.00  0.00     0.019 C 
HETATM   19  C13 UNL     1      -2.800  22.925   8.494  1.00  0.00     0.019 C 
HETATM   20  C14 UNL     1      -2.218  21.351  10.283  1.00  0.00     0.019 C 
ENDBRANCH   3  17
BRANCH   5  21
HETATM   21  C17 UNL     1      -7.675  22.841   8.811  1.00  0.00     0.417 C 
HETATM   22  F1  UNL     1      -7.823  24.166   8.468  1.00  0.00    -0.166 F 
HETATM   23  F2  UNL     1      -8.867  22.421   9.432  1.00  0.00    -0.166 F 
HETATM   24  F3  UNL     1      -7.383  22.049   7.726  1.00  0.00    -0.166 F 
ENDBRANCH   5  21
TORSDOF 4
ENDMDL
MODEL 4
REMARK VINA RESULT: -7.563761560      1.520      2.582
REMARK  4 active torsions:
REMARK  status: ('A' for Active; 'I' for Inactive)
REMARK    1  A    between atoms: C2_2  and  C4_4 
REMARK    2  A    between atoms: C7_7  and  C8_8 
REMARK    3  A    between atoms: C10_10  and  C11_11 
REMARK    4  A    between atoms: C16_16  and  C17_17 
ROOT
HETATM    1  C8  UNL     1      -6.882  22.539  10.995  1.00  0.00    -0.026 A 
HETATM    2  C9  UNL     1      -5.517  22.562  11.239  1.00  0.00     0.017 A 
HETATM    3  C10 UNL     1      -4.621  22.849  10.224  1.00  0.00    -0.049 A 
HETATM    4  C15 UNL     1      -5.140  23.113   8.975  1.00  0.00     0.024 A 
HETATM    5  C16 UNL     1      -6.501  23.087   8.738  1.00  0.00     0.049 A 
HETATM    6  C18 UNL     1      -7.399  22.800   9.748  1.00  0.00     0.025 A 
ENDROOT
BRANCH   1   7
HETATM    7  C7  UNL     1      -7.772  22.244  12.116  1.00  0.00     0.219 C 
HETATM    8  C6  UNL     1      -7.247  22.764  13.420  1.00  0.00     0.040 C 
HETATM    9  C5  UNL     1      -7.893  21.724  14.379  1.00  0.00     0.040 C 
HETATM   10  C4  UNL     1      -7.386  20.510  13.563  1.00  0.00     0.214 C 
HETATM   11  N1  UNL     1      -8.048  20.821  12.302  1.00  0.00    -0.059 N 
ATOM     12  H12 UNL     1      -7.767  20.230  11.520  1.00  0.00     0.278 HD
ATOM     13  H11 UNL     1      -9.037  20.575  12.272  1.00  0.00     0.278 HD
BRANCH  10  14
HETATM   14  C2  UNL     1      -7.791  19.253  14.191  1.00  0.00    -0.063 C 
HETATM   15  C1  UNL     1      -7.619  19.154  15.514  1.00  0.00     0.016 C 
HETATM   16  C3  UNL     1      -8.399  18.130  13.481  1.00  0.00     0.044 C 
ENDBRANCH  10  14
ENDBRANCH   1   7
BRANCH   3  17
HETATM   17  C11 UNL     1      -3.154  22.869  10.368  1.00  0.00    -0.024 C 
HETATM   18  C12 UNL     1      -2.584  21.612  10.946  1.00  0.00     0.019 C 
HETATM   19  C13 UNL     1      -2.699  24.070  11.154  1.00  0.00     0.019 C 
HETATM   20  C14 UNL     1      -2.566  22.991   8.955  1.00  0.00     0.019 C 
ENDBRANCH   3  17
BRANCH   5  21
HETATM   21  C17 UNL     1      -7.066  23.385   7.382  1.00  0.00     0.417 C 
HETATM   22  F1  UNL     1      -7.777  22.306   6.905  1.00  0.00    -0.166 F 
HETATM   23  F2  UNL     1      -5.959  23.580   6.535  1.00  0.00    -0.166 F 
HETATM   24  F3  UNL     1      -7.832  24.524   7.458  1.00  0.00    -0.166 F 
ENDBRANCH   5  21
TORSDOF 4
ENDMDL
MODEL 5
REMARK VINA RESULT: -7.441020665      1.879      6.459
REMARK  4 active torsions:
REMARK  status: ('A' for Active; 'I' for Inactive)
REMARK    1  A    between atoms: C2_2  and  C4_4 
REMARK    2  A    between atoms: C7_7  and  C8_8 
REMARK    3  A    between atoms: C10_10  and  C11_11 
REMARK    4  A    between atoms: C16_16  and  C17_17 
ROOT
HETATM    1  C8  UNL     1      -4.031  22.659  10.394  1.00  0.00    -0.026 A 
HETATM    2  C9  UNL     1      -4.683  22.412  11.594  1.00  0.00     0.017 A 
HETATM    3  C10 UNL     1      -6.065  22.442  11.667  1.00  0.00    -0.049 A 
HETATM    4  C15 UNL     1      -6.756  22.720  10.508  1.00  0.00     0.024 A 
HETATM    5  C16 UNL     1      -6.101  22.966   9.317  1.00  0.00     0.049 A 
HETATM    6  C18 UNL     1      -4.721  22.938   9.239  1.00  0.00     0.025 A 
ENDROOT
BRANCH   1   7
HETATM    7  C7  UNL     1      -2.571  22.595  10.385  1.00  0.00     0.219 C 
HETATM    8  C6  UNL     1      -1.935  23.952  10.423  1.00  0.00     0.040 C 
HETATM    9  C5  UNL     1      -0.614  23.627   9.670  1.00  0.00     0.040 C 
HETATM   10  C4  UNL     1      -1.342  22.948   8.484  1.00  0.00     0.214 C 
HETATM   11  N1  UNL     1      -2.011  21.892   9.233  1.00  0.00    -0.059 N 
ATOM     12  H12 UNL     1      -2.690  21.355   8.694  1.00  0.00     0.278 HD
ATOM     13  H11 UNL     1      -1.414  21.099   9.472  1.00  0.00     0.278 HD
BRANCH  10  14
HETATM   14  C2  UNL     1      -0.385  22.492   7.476  1.00  0.00    -0.063 C 
HETATM   15  C1  UNL     1      -0.345  21.178   7.229  1.00  0.00     0.016 C 
HETATM   16  C3  UNL     1       0.488  23.373   6.703  1.00  0.00     0.044 C 
ENDBRANCH  10  14
ENDBRANCH   1   7
BRANCH   3  17
HETATM   17  C11 UNL     1      -6.853  22.227  12.894  1.00  0.00    -0.024 C 
HETATM   18  C12 UNL     1      -7.055  23.464  13.711  1.00  0.00     0.019 C 
HETATM   19  C13 UNL     1      -6.265  21.124  13.734  1.00  0.00     0.019 C 
HETATM   20  C14 UNL     1      -8.253  21.776  12.453  1.00  0.00     0.019 C 
ENDBRANCH   3  17
BRANCH   5  21
HETATM   21  C17 UNL     1      -6.854  23.258   8.054  1.00  0.00     0.417 C 
HETATM   22  F1  UNL     1      -6.024  23.830   7.116  1.00  0.00    -0.166 F 
HETATM   23  F2  UNL     1      -7.835  24.207   8.398  1.00  0.00    -0.166 F 
HETATM   24  F3  UNL     1      -7.433  22.096   7.602  1.00  0.00    -0.166 F 
ENDBRANCH   5  21
TORSDOF 4
ENDMDL
