MODEL 1
REMARK VINA RESULT: -6.620532971      0.000      0.000
REMARK  4 active torsions:
REMARK  status: ('A' for Active; 'I' for Inactive)
REMARK    1  A    between atoms: C2_2  and  C3_3 
REMARK    2  A    between atoms: C6_6  and  N1_7 
REMARK    3  A    between atoms: N1_7  and  N2_8 
REMARK    4  A    between atoms: C11_15  and  C12_16 
ROOT
HETATM    1  C3  UNL     1      -1.587  24.020   9.703  1.00  0.00    -0.014 C 
HETATM    2  C4  UNL     1      -1.752  24.342  11.159  1.00  0.00     0.007 C 
HETATM    3  C5  UNL     1      -3.135  23.973  11.619  1.00  0.00     0.034 C 
HETATM    4  C6  UNL     1      -3.452  22.522  11.304  1.00  0.00     0.081 C 
HETATM    5  C7  UNL     1      -4.912  22.355  11.510  1.00  0.00    -0.025 A 
HETATM    6  C8  UNL     1      -5.382  21.887  12.735  1.00  0.00     0.010 A 
HETATM    7  C9  UNL     1      -6.729  21.728  12.950  1.00  0.00     0.002 A 
HETATM    8  C10 UNL     1      -7.580  22.044  11.924  1.00  0.00     0.017 A 
HETATM    9  C11 UNL     1      -7.112  22.518  10.685  1.00  0.00     0.054 A 
HETATM   10  C13 UNL     1      -5.764  22.682  10.460  1.00  0.00    -0.035 A 
HETATM   11  C14 UNL     1      -5.195  23.193   9.194  1.00  0.00     0.040 C 
HETATM   12  C15 UNL     1      -4.014  22.334   8.841  1.00  0.00     0.011 C 
HETATM   13  C16 UNL     1      -3.075  22.067   9.949  1.00  0.00     0.017 C 
HETATM   14  C17 UNL     1      -1.656  22.517   9.562  1.00  0.00     0.011 C 
ENDROOT
BRANCH   4  15
HETATM   15  N1  UNL     1      -2.713  21.758  12.310  1.00  0.00    -0.133 NA
BRANCH  15  16
HETATM   16  N2  UNL     1      -2.492  20.458  11.976  1.00  0.00    -0.347 N 
ATOM     17  H22 UNL     1      -3.175  19.912  11.451  1.00  0.00     0.172 HD
ATOM     18  H21 UNL     1      -1.595  20.089  12.293  1.00  0.00     0.172 HD
ENDBRANCH  15  16
ENDBRANCH   4  15
BRANCH   1  19
HETATM   19  C2  UNL     1      -0.205  24.486   9.283  1.00  0.00     0.000 C 
HETATM   20  C1  UNL     1      -0.166  24.855   7.816  1.00  0.00     0.005 C 
ENDBRANCH   1  19
BRANCH   9  21
HETATM   21  C12 UNL     1      -8.067  22.829   9.598  1.00  0.00     0.418 C 
HETATM   22  F1  UNL     1      -9.338  22.421  10.059  1.00  0.00    -0.166 F 
HETATM   23  F2  UNL     1      -8.116  24.173   9.315  1.00  0.00    -0.166 F 
HETATM   24  F3  UNL     1      -7.817  22.092   8.442  1.00  0.00    -0.166 F 
ENDBRANCH   9  21
TORSDOF 4
ENDMDL
MODEL 2
REMARK VINA RESULT: -5.741990025      3.204      5.724
REMARK  4 active torsions:
REMARK  status: ('A' for Active; 'I' for Inactive)
REMARK    1  A    between atoms: C2_2  and  C3_3 
REMARK    2  A    between atoms: C6_6  and  N1_7 
REMARK    3  A    between atoms: N1_7  and  N2_8 
REMARK    4  A    between atoms: C11_15  and  C12_16 
ROOT
HETATM    1  C3  UNL     1      -6.189  22.578  15.300  1.00  0.00    -0.014 C 
HETATM    2  C4  UNL     1      -7.199  23.514  14.706  1.00  0.00     0.007 C 
HETATM    3  C5  UNL     1      -6.953  23.676  13.231  1.00  0.00     0.034 C 
HETATM    4  C6  UNL     1      -6.920  22.331  12.527  1.00  0.00     0.081 C 
HETATM    5  C7  UNL     1      -6.374  22.580  11.170  1.00  0.00    -0.025 A 
HETATM    6  C8  UNL     1      -7.249  22.786  10.106  1.00  0.00     0.010 A 
HETATM    7  C9  UNL     1      -6.767  23.022   8.842  1.00  0.00     0.002 A 
HETATM    8  C10 UNL     1      -5.407  23.045   8.673  1.00  0.00     0.017 A 
HETATM    9  C11 UNL     1      -4.518  22.838   9.743  1.00  0.00     0.054 A 
HETATM   10  C13 UNL     1      -4.992  22.602  11.014  1.00  0.00    -0.035 A 
HETATM   11  C14 UNL     1      -4.122  22.395  12.192  1.00  0.00     0.040 C 
HETATM   12  C15 UNL     1      -4.678  21.240  12.976  1.00  0.00     0.011 C 
HETATM   13  C16 UNL     1      -6.137  21.276  13.204  1.00  0.00     0.017 C 
HETATM   14  C17 UNL     1      -6.439  21.209  14.711  1.00  0.00     0.011 C 
ENDROOT
BRANCH   4  15
HETATM   15  N1  UNL     1      -8.324  21.930  12.437  1.00  0.00    -0.133 NA
BRANCH  15  16
HETATM   16  N2  UNL     1      -8.516  20.591  12.290  1.00  0.00    -0.347 N 
ATOM     17  H22 UNL     1      -8.321  19.932  13.044  1.00  0.00     0.172 HD
ATOM     18  H21 UNL     1      -8.866  20.315  11.372  1.00  0.00     0.172 HD
ENDBRANCH  15  16
ENDBRANCH   4  15
BRANCH   1  19
HETATM   19  C2  UNL     1      -6.441  22.518  16.795  1.00  0.00     0.000 C 
HETATM   20  C1  UNL     1      -6.407  23.896  17.420  1.00  0.00     0.005 C 
ENDBRANCH   1  19
BRANCH   9  21
HETATM   21  C12 UNL     1      -3.056  22.852   9.510  1.00  0.00     0.418 C 
HETATM   22  F1  UNL     1      -2.879  23.070   8.125  1.00  0.00    -0.166 F 
HETATM   23  F2  UNL     1      -2.428  23.864  10.194  1.00  0.00    -0.166 F 
HETATM   24  F3  UNL     1      -2.460  21.624   9.790  1.00  0.00    -0.166 F 
ENDBRANCH   9  21
TORSDOF 4
ENDMDL
MODEL 3
REMARK VINA RESULT: -5.704536113      1.706      2.209
REMARK  4 active torsions:
REMARK  status: ('A' for Active; 'I' for Inactive)
REMARK    1  A    between atoms: C2_2  and  C3_3 
REMARK    2  A    between atoms: C6_6  and  N1_7 
REMARK    3  A    between atoms: N1_7  and  N2_8 
REMARK    4  A    between atoms: C11_15  and  C12_16 
ROOT
HETATM    1  C3  UNL     1      -1.228  23.938   8.803  1.00  0.00    -0.014 C 
HETATM    2  C4  UNL     1      -0.470  23.640  10.063  1.00  0.00     0.007 C 
HETATM    3  C5  UNL     1      -1.410  23.162  11.134  1.00  0.00     0.034 C 
HETATM    4  C6  UNL     1      -2.233  21.978  10.657  1.00  0.00     0.081 C 
HETATM    5  C7  UNL     1      -3.318  21.791  11.652  1.00  0.00    -0.025 A 
HETATM    6  C8  UNL     1      -3.145  20.878  12.689  1.00  0.00     0.010 A 
HETATM    7  C9  UNL     1      -4.134  20.690  13.624  1.00  0.00     0.002 A 
HETATM    8  C10 UNL     1      -5.281  21.427  13.495  1.00  0.00     0.017 A 
HETATM    9  C11 UNL     1      -5.462  22.352  12.450  1.00  0.00     0.054 A 
HETATM   10  C13 UNL     1      -4.476  22.548  11.509  1.00  0.00    -0.035 A 
HETATM   11  C14 UNL     1      -4.582  23.514  10.394  1.00  0.00     0.040 C 
HETATM   12  C15 UNL     1      -4.081  22.836   9.150  1.00  0.00     0.011 C 
HETATM   13  C16 UNL     1      -2.806  22.106   9.300  1.00  0.00     0.017 C 
HETATM   14  C17 UNL     1      -1.775  22.628   8.284  1.00  0.00     0.011 C 
ENDROOT
BRANCH   4  15
HETATM   15  N1  UNL     1      -1.308  20.846  10.703  1.00  0.00    -0.133 NA
BRANCH  15  16
HETATM   16  N2  UNL     1      -1.688  19.781   9.945  1.00  0.00    -0.347 N 
ATOM     17  H22 UNL     1      -2.507  19.220  10.176  1.00  0.00     0.172 HD
ATOM     18  H21 UNL     1      -1.087  19.603   9.140  1.00  0.00     0.172 HD
ENDBRANCH  15  16
ENDBRANCH   4  15
BRANCH   1  19
HETATM   19  C2  UNL     1      -0.240  24.488   7.791  1.00  0.00     0.000 C 
HETATM   20  C1  UNL     1       0.299  25.837   8.217  1.00  0.00     0.005 C 
ENDBRANCH   1  19
BRANCH   9  21
HETATM   21  C12 UNL     1      -6.726  23.113  12.339  1.00  0.00     0.418 C 
HETATM   22  F1  UNL     1      -7.560  22.648  13.381  1.00  0.00    -0.166 F 
HETATM   23  F2  UNL     1      -6.538  24.464  12.501  1.00  0.00    -0.166 F 
HETATM   24  F3  UNL     1      -7.404  22.849  11.151  1.00  0.00    -0.166 F 
ENDBRANCH   9  21
TORSDOF 4
ENDMDL
MODEL 4
REMARK VINA RESULT: -5.693952822      2.234      3.666
REMARK  4 active torsions:
REMARK  status: ('A' for Active; 'I' for Inactive)
REMARK    1  A    between atoms: C2_2  and  C3_3 
REMARK    2  A    between atoms: C6_6  and  N1_7 
REMARK    3  A    between atoms: N1_7  and  N2_8 
REMARK    4  A    between atoms: C11_15  and  C12_16 
ROOT
HETATM    1  C3  UNL     1      -1.040  21.349  11.709  1.00  0.00    -0.014 C 
HETATM    2  C4  UNL     1      -0.954  20.848  10.298  1.00  0.00     0.007 C 
HETATM    3  C5  UNL     1      -2.186  21.241   9.531  1.00  0.00     0.034 C 
HETATM    4  C6  UNL     1      -2.426  22.739   9.603  1.00  0.00     0.081 C 
HETATM    5  C7  UNL     1      -3.799  22.970   9.092  1.00  0.00    -0.025 A 
HETATM    6  C8  UNL     1      -3.984  23.301   7.752  1.00  0.00     0.010 A 
HETATM    7  C9  UNL     1      -5.246  23.517   7.255  1.00  0.00     0.002 A 
HETATM    8  C10 UNL     1      -6.301  23.396   8.120  1.00  0.00     0.017 A 
HETATM    9  C11 UNL     1      -6.122  23.062   9.475  1.00  0.00     0.054 A 
HETATM   10  C13 UNL     1      -4.861  22.842   9.982  1.00  0.00    -0.035 A 
HETATM   11  C14 UNL     1      -4.591  22.468  11.387  1.00  0.00     0.040 C 
HETATM   12  C15 UNL     1      -3.426  23.288  11.866  1.00  0.00     0.011 C 
HETATM   13  C16 UNL     1      -2.274  23.345  10.943  1.00  0.00     0.017 C 
HETATM   14  C17 UNL     1      -1.000  22.859  11.656  1.00  0.00     0.011 C 
ENDROOT
BRANCH   4  15
HETATM   15  N1  UNL     1      -1.444  23.312   8.682  1.00  0.00    -0.133 NA
BRANCH  15  16
HETATM   16  N2  UNL     1      -1.029  24.564   9.015  1.00  0.00    -0.347 N 
ATOM     17  H22 UNL     1      -0.864  24.839   9.983  1.00  0.00     0.172 HD
ATOM     18  H21 UNL     1      -0.901  25.190   8.218  1.00  0.00     0.172 HD
ENDBRANCH  15  16
ENDBRANCH   4  15
BRANCH   1  19
HETATM   19  C2  UNL     1       0.189  20.855  12.449  1.00  0.00     0.000 C 
HETATM   20  C1  UNL     1       0.713  21.898  13.414  1.00  0.00     0.005 C 
ENDBRANCH   1  19
BRANCH   9  21
HETATM   21  C12 UNL     1      -7.289  22.961  10.379  1.00  0.00     0.418 C 
HETATM   22  F1  UNL     1      -8.392  23.471   9.658  1.00  0.00    -0.166 F 
HETATM   23  F2  UNL     1      -7.564  21.662  10.733  1.00  0.00    -0.166 F 
HETATM   24  F3  UNL     1      -7.158  23.763  11.510  1.00  0.00    -0.166 F 
ENDBRANCH   9  21
TORSDOF 4
ENDMDL
MODEL 5
REMARK VINA RESULT: -5.515137674      2.685      6.366
REMARK  4 active torsions:
REMARK  status: ('A' for Active; 'I' for Inactive)
REMARK    1  A    between atoms: C2_2  and  C3_3 
REMARK    2  A    between atoms: C6_6  and  N1_7 
REMARK    3  A    between atoms: N1_7  and  N2_8 
REMARK    4  A    between atoms: C11_15  and  C12_16 
ROOT
HETATM    1  C3  UNL     1      -8.455  19.509  15.408  1.00  0.00    -0.014 C 
HETATM    2  C4  UNL     1      -7.115  18.887  15.151  1.00  0.00     0.007 C 
HETATM    3  C5  UNL     1      -6.456  19.542  13.968  1.00  0.00     0.034 C 
HETATM    4  C6  UNL     1      -6.373  21.047  14.148  1.00  0.00     0.081 C 
HETATM    5  C7  UNL     1      -6.003  21.609  12.825  1.00  0.00    -0.025 A 
HETATM    6  C8  UNL     1      -4.664  21.864  12.540  1.00  0.00     0.010 A 
HETATM    7  C9  UNL     1      -4.297  22.381  11.322  1.00  0.00     0.002 A 
HETATM    8  C10 UNL     1      -5.288  22.632  10.411  1.00  0.00     0.017 A 
HETATM    9  C11 UNL     1      -6.643  22.377  10.692  1.00  0.00     0.054 A 
HETATM   10  C13 UNL     1      -7.021  21.858  11.910  1.00  0.00    -0.035 A 
HETATM   11  C14 UNL     1      -8.420  21.543  12.274  1.00  0.00     0.040 C 
HETATM   12  C15 UNL     1      -8.655  22.043  13.671  1.00  0.00     0.011 C 
HETATM   13  C16 UNL     1      -7.602  21.697  14.649  1.00  0.00     0.017 C 
HETATM   14  C17 UNL     1      -8.215  20.937  15.838  1.00  0.00     0.011 C 
ENDROOT
BRANCH   4  15
HETATM   15  N1  UNL     1      -5.281  21.244  15.101  1.00  0.00    -0.133 NA
BRANCH  15  16
HETATM   16  N2  UNL     1      -5.489  22.251  15.991  1.00  0.00    -0.347 N 
ATOM     17  H22 UNL     1      -6.035  23.078  15.752  1.00  0.00     0.172 HD
ATOM     18  H21 UNL     1      -5.054  22.103  16.902  1.00  0.00     0.172 HD
ENDBRANCH  15  16
ENDBRANCH   4  15
BRANCH   1  19
HETATM   19  C2  UNL     1      -9.099  18.756  16.557  1.00  0.00     0.000 C 
HETATM   20  C1  UNL     1     -10.161  17.796  16.066  1.00  0.00     0.005 C 
ENDBRANCH   1  19
BRANCH   9  21
HETATM   21  C12 UNL     1      -7.683  22.682   9.685  1.00  0.00     0.418 C 
HETATM   22  F1  UNL     1      -7.673  24.085   9.519  1.00  0.00    -0.166 F 
HETATM   23  F2  UNL     1      -7.421  22.098   8.470  1.00  0.00    -0.166 F 
HETATM   24  F3  UNL     1      -8.964  22.352  10.124  1.00  0.00    -0.166 F 
ENDBRANCH   9  21
TORSDOF 4
ENDMDL
