MODEL 1
REMARK VINA RESULT: -7.196375293      0.000      0.000
REMARK  3 active torsions:
REMARK  status: ('A' for Active; 'I' for Inactive)
REMARK    1  A    between atoms: C4_8  and  C5_9 
REMARK    2  A    between atoms: C5_9  and  C7_11 
REMARK    3  A    between atoms: C11_17  and  C12_18 
ROOT
HETATM    1  C7  UNL     1      -2.750  22.692   9.805  1.00  0.00     0.025 A 
HETATM    2  N3  UNL     1      -3.729  22.952   8.934  1.00  0.00    -0.358 N 
ATOM      3  H3  UNL     1      -3.571  23.266   7.977  1.00  0.00     0.166 HD
HETATM    4  C8  UNL     1      -4.955  22.749   9.469  1.00  0.00     0.043 A 
HETATM    5  C9  UNL     1      -6.236  22.877   8.981  1.00  0.00     0.031 A 
HETATM    6  C10 UNL     1      -7.329  22.601   9.757  1.00  0.00     0.019 A 
HETATM    7  C11 UNL     1      -7.117  22.184  11.057  1.00  0.00     0.054 A 
HETATM    8  C13 UNL     1      -5.851  22.047  11.576  1.00  0.00    -0.034 A 
HETATM    9  C14 UNL     1      -5.595  21.607  12.955  1.00  0.00     0.050 C 
HETATM   10  C15 UNL     1      -4.727  22.329  10.786  1.00  0.00     0.005 A 
HETATM   11  C16 UNL     1      -3.377  22.293  10.997  1.00  0.00    -0.026 A 
HETATM   12  C17 UNL     1      -2.665  21.921  12.244  1.00  0.00     0.051 C 
ENDROOT
BRANCH   1  13
HETATM   13  C5  UNL     1      -1.285  22.801   9.539  1.00  0.00     0.068 C 
HETATM   14  C6  UNL     1      -0.939  24.179   8.992  1.00  0.00     0.021 C 
BRANCH  13  15
HETATM   15  C4  UNL     1      -0.720  21.697   8.769  1.00  0.00    -0.008 A 
HETATM   16  C2  UNL     1      -0.110  20.558   9.228  1.00  0.00     0.030 A 
HETATM   17  C1  UNL     1       0.124  20.146  10.616  1.00  0.00     0.070 C 
HETATM   18  N1  UNL     1       0.268  19.799   8.150  1.00  0.00    -0.305 N 
HETATM   19  N2  UNL     1      -0.080  20.416   7.037  1.00  0.00    -0.311 N 
ATOM     20  H1  UNL     1       0.744  18.899   8.201  1.00  0.00     0.186 HD
HETATM   21  C3  UNL     1      -0.681  21.569   7.374  1.00  0.00     0.117 A 
ATOM     22  H2  UNL     1       0.079  20.078   6.088  1.00  0.00     0.186 HD
ENDBRANCH  13  15
ENDBRANCH   1  13
BRANCH   7  23
HETATM   23  C12 UNL     1      -8.309  21.887  11.889  1.00  0.00     0.418 C 
HETATM   24  F1  UNL     1      -9.498  21.938  11.175  1.00  0.00    -0.166 F 
HETATM   25  F2  UNL     1      -8.343  22.580  13.072  1.00  0.00    -0.166 F 
HETATM   26  F3  UNL     1      -8.254  20.528  12.295  1.00  0.00    -0.166 F 
ENDBRANCH   7  23
TORSDOF 3
ENDMDL
MODEL 2
REMARK VINA RESULT: -7.178273589      4.413      6.977
REMARK  3 active torsions:
REMARK  status: ('A' for Active; 'I' for Inactive)
REMARK    1  A    between atoms: C4_8  and  C5_9 
REMARK    2  A    between atoms: C5_9  and  C7_11 
REMARK    3  A    between atoms: C11_17  and  C12_18 
ROOT
HETATM    1  C7  UNL     1      -6.442  21.961  12.646  1.00  0.00     0.025 A 
HETATM    2  N3  UNL     1      -7.635  21.960  12.045  1.00  0.00    -0.358 N 
ATOM      3  H3  UNL     1      -8.505  21.695  12.508  1.00  0.00     0.166 HD
HETATM    4  C8  UNL     1      -7.555  22.352  10.753  1.00  0.00     0.043 A 
HETATM    5  C9  UNL     1      -8.486  22.509   9.751  1.00  0.00     0.031 A 
HETATM    6  C10 UNL     1      -8.126  22.929   8.499  1.00  0.00     0.019 A 
HETATM    7  C11 UNL     1      -6.792  23.198   8.260  1.00  0.00     0.054 A 
HETATM    8  C13 UNL     1      -5.836  23.051   9.239  1.00  0.00    -0.034 A 
HETATM    9  C14 UNL     1      -4.411  23.327   9.013  1.00  0.00     0.050 C 
HETATM   10  C15 UNL     1      -6.200  22.620  10.523  1.00  0.00     0.005 A 
HETATM   11  C16 UNL     1      -5.513  22.381  11.681  1.00  0.00    -0.026 A 
HETATM   12  C17 UNL     1      -4.053  22.514  11.912  1.00  0.00     0.051 C 
ENDROOT
BRANCH   1  13
HETATM   13  C5  UNL     1      -6.174  21.594  14.069  1.00  0.00     0.068 C 
HETATM   14  C6  UNL     1      -5.494  20.234  14.155  1.00  0.00     0.021 C 
BRANCH  13  15
HETATM   15  C4  UNL     1      -7.316  21.746  14.965  1.00  0.00    -0.008 A 
HETATM   16  C2  UNL     1      -7.912  22.899  15.405  1.00  0.00     0.030 A 
HETATM   17  C1  UNL     1      -7.562  24.286  15.077  1.00  0.00     0.070 C 
HETATM   18  N1  UNL     1      -8.952  22.567  16.235  1.00  0.00    -0.305 N 
HETATM   19  N2  UNL     1      -9.030  21.254  16.333  1.00  0.00    -0.311 N 
ATOM     20  H1  UNL     1      -9.568  23.231  16.703  1.00  0.00     0.186 HD
HETATM   21  C3  UNL     1      -8.054  20.723  15.577  1.00  0.00     0.117 A 
ATOM     22  H2  UNL     1      -9.711  20.733  16.885  1.00  0.00     0.186 HD
ENDBRANCH  13  15
ENDBRANCH   1  13
BRANCH   7  23
HETATM   23  C12 UNL     1      -6.412  23.654   6.900  1.00  0.00     0.418 C 
HETATM   24  F1  UNL     1      -5.209  23.117   6.462  1.00  0.00    -0.166 F 
HETATM   25  F2  UNL     1      -6.509  25.011   6.726  1.00  0.00    -0.166 F 
HETATM   26  F3  UNL     1      -7.341  23.125   5.966  1.00  0.00    -0.166 F 
ENDBRANCH   7  23
TORSDOF 3
ENDMDL
MODEL 3
REMARK VINA RESULT: -6.950500996      3.905      6.698
REMARK  3 active torsions:
REMARK  status: ('A' for Active; 'I' for Inactive)
REMARK    1  A    between atoms: C4_8  and  C5_9 
REMARK    2  A    between atoms: C5_9  and  C7_11 
REMARK    3  A    between atoms: C11_17  and  C12_18 
ROOT
HETATM    1  C7  UNL     1      -6.096  21.729  13.166  1.00  0.00     0.025 A 
HETATM    2  N3  UNL     1      -4.982  22.042  12.500  1.00  0.00    -0.358 N 
ATOM      3  H3  UNL     1      -4.046  21.998  12.904  1.00  0.00     0.166 HD
HETATM    4  C8  UNL     1      -5.238  22.422  11.227  1.00  0.00     0.043 A 
HETATM    5  C9  UNL     1      -4.441  22.827  10.180  1.00  0.00     0.031 A 
HETATM    6  C10 UNL     1      -4.973  23.165   8.965  1.00  0.00     0.019 A 
HETATM    7  C11 UNL     1      -6.343  23.090   8.809  1.00  0.00     0.054 A 
HETATM    8  C13 UNL     1      -7.168  22.690   9.835  1.00  0.00    -0.034 A 
HETATM    9  C14 UNL     1      -8.629  22.603   9.699  1.00  0.00     0.050 C 
HETATM   10  C15 UNL     1      -6.629  22.343  11.082  1.00  0.00     0.005 A 
HETATM   11  C16 UNL     1      -7.160  21.919  12.269  1.00  0.00    -0.026 A 
HETATM   12  C17 UNL     1      -8.591  21.701  12.594  1.00  0.00     0.051 C 
ENDROOT
BRANCH   1  13
HETATM   13  C5  UNL     1      -6.173  21.260  14.582  1.00  0.00     0.068 C 
HETATM   14  C6  UNL     1      -4.783  21.188  15.200  1.00  0.00     0.021 C 
BRANCH  13  15
HETATM   15  C4  UNL     1      -6.977  20.060  14.786  1.00  0.00    -0.008 A 
HETATM   16  C2  UNL     1      -8.080  19.893  15.582  1.00  0.00     0.030 A 
HETATM   17  C1  UNL     1      -8.749  20.886  16.430  1.00  0.00     0.070 C 
HETATM   18  N1  UNL     1      -8.513  18.597  15.466  1.00  0.00    -0.305 N 
HETATM   19  N2  UNL     1      -7.726  17.946  14.632  1.00  0.00    -0.311 N 
ATOM     20  H1  UNL     1      -9.318  18.199  15.950  1.00  0.00     0.186 HD
HETATM   21  C3  UNL     1      -6.784  18.800  14.200  1.00  0.00     0.117 A 
ATOM     22  H2  UNL     1      -7.816  16.966  14.362  1.00  0.00     0.186 HD
ENDBRANCH  13  15
ENDBRANCH   1  13
BRANCH   7  23
HETATM   23  C12 UNL     1      -6.909  23.458   7.488  1.00  0.00     0.418 C 
HETATM   24  F1  UNL     1      -7.677  24.615   7.528  1.00  0.00    -0.166 F 
HETATM   25  F2  UNL     1      -7.515  22.414   6.837  1.00  0.00    -0.166 F 
HETATM   26  F3  UNL     1      -5.846  23.826   6.623  1.00  0.00    -0.166 F 
ENDBRANCH   7  23
TORSDOF 3
ENDMDL
MODEL 4
REMARK VINA RESULT: -6.881836633      3.930      5.987
REMARK  3 active torsions:
REMARK  status: ('A' for Active; 'I' for Inactive)
REMARK    1  A    between atoms: C4_8  and  C5_9 
REMARK    2  A    between atoms: C5_9  and  C7_11 
REMARK    3  A    between atoms: C11_17  and  C12_18 
ROOT
HETATM    1  C7  UNL     1      -6.115  21.848  13.315  1.00  0.00     0.025 A 
HETATM    2  N3  UNL     1      -5.006  22.160  12.640  1.00  0.00    -0.358 N 
ATOM      3  H3  UNL     1      -4.070  22.147  13.047  1.00  0.00     0.166 HD
HETATM    4  C8  UNL     1      -5.267  22.494  11.356  1.00  0.00     0.043 A 
HETATM    5  C9  UNL     1      -4.476  22.879  10.297  1.00  0.00     0.031 A 
HETATM    6  C10 UNL     1      -5.012  23.167   9.071  1.00  0.00     0.019 A 
HETATM    7  C11 UNL     1      -6.381  23.060   8.916  1.00  0.00     0.054 A 
HETATM    8  C13 UNL     1      -7.200  22.679   9.954  1.00  0.00    -0.034 A 
HETATM    9  C14 UNL     1      -8.658  22.559   9.819  1.00  0.00     0.050 C 
HETATM   10  C15 UNL     1      -6.656  22.383  11.212  1.00  0.00     0.005 A 
HETATM   11  C16 UNL     1      -7.181  21.988  12.411  1.00  0.00    -0.026 A 
HETATM   12  C17 UNL     1      -8.608  21.754  12.742  1.00  0.00     0.051 C 
ENDROOT
BRANCH   1  13
HETATM   13  C5  UNL     1      -6.185  21.425  14.746  1.00  0.00     0.068 C 
HETATM   14  C6  UNL     1      -6.410  22.628  15.652  1.00  0.00     0.021 C 
BRANCH  13  15
HETATM   15  C4  UNL     1      -5.100  20.550  15.178  1.00  0.00    -0.008 A 
HETATM   16  C2  UNL     1      -4.984  19.192  15.029  1.00  0.00     0.030 A 
HETATM   17  C1  UNL     1      -5.919  18.264  14.384  1.00  0.00     0.070 C 
HETATM   18  N1  UNL     1      -3.798  18.789  15.588  1.00  0.00    -0.305 N 
HETATM   19  N2  UNL     1      -3.168  19.838  16.081  1.00  0.00    -0.311 N 
ATOM     20  H1  UNL     1      -3.457  17.829  15.618  1.00  0.00     0.186 HD
HETATM   21  C3  UNL     1      -3.927  20.923  15.851  1.00  0.00     0.117 A 
ATOM     22  H2  UNL     1      -2.265  19.828  16.553  1.00  0.00     0.186 HD
ENDBRANCH  13  15
ENDBRANCH   1  13
BRANCH   7  23
HETATM   23  C12 UNL     1      -6.952  23.374   7.583  1.00  0.00     0.418 C 
HETATM   24  F1  UNL     1      -7.678  24.557   7.567  1.00  0.00    -0.166 F 
HETATM   25  F2  UNL     1      -7.601  22.317   6.999  1.00  0.00    -0.166 F 
HETATM   26  F3  UNL     1      -5.888  23.656   6.686  1.00  0.00    -0.166 F 
ENDBRANCH   7  23
TORSDOF 3
ENDMDL
MODEL 5
REMARK VINA RESULT: -6.866670692      4.031      7.169
REMARK  3 active torsions:
REMARK  status: ('A' for Active; 'I' for Inactive)
REMARK    1  A    between atoms: C4_8  and  C5_9 
REMARK    2  A    between atoms: C5_9  and  C7_11 
REMARK    3  A    between atoms: C11_17  and  C12_18 
ROOT
HETATM    1  C7  UNL     1      -6.201  21.982  13.228  1.00  0.00     0.025 A 
HETATM    2  N3  UNL     1      -5.100  22.417  12.610  1.00  0.00    -0.358 N 
ATOM      3  H3  UNL     1      -4.189  22.500  13.061  1.00  0.00     0.166 HD
HETATM    4  C8  UNL     1      -5.334  22.736  11.316  1.00  0.00     0.043 A 
HETATM    5  C9  UNL     1      -4.540  23.215  10.299  1.00  0.00     0.031 A 
HETATM    6  C10 UNL     1      -5.045  23.458   9.050  1.00  0.00     0.019 A 
HETATM    7  C11 UNL     1      -6.386  23.208   8.829  1.00  0.00     0.054 A 
HETATM    8  C13 UNL     1      -7.208  22.730   9.823  1.00  0.00    -0.034 A 
HETATM    9  C14 UNL     1      -8.637  22.458   9.618  1.00  0.00     0.050 C 
HETATM   10  C15 UNL     1      -6.695  22.480  11.105  1.00  0.00     0.005 A 
HETATM   11  C16 UNL     1      -7.231  22.018  12.275  1.00  0.00    -0.026 A 
HETATM   12  C17 UNL     1      -8.639  21.630  12.535  1.00  0.00     0.051 C 
ENDROOT
BRANCH   1  13
HETATM   13  C5  UNL     1      -6.293  21.537  14.651  1.00  0.00     0.068 C 
HETATM   14  C6  UNL     1      -6.041  20.040  14.764  1.00  0.00     0.021 C 
BRANCH  13  15
HETATM   15  C4  UNL     1      -7.485  21.994  15.358  1.00  0.00    -0.008 A 
HETATM   16  C2  UNL     1      -7.946  23.275  15.520  1.00  0.00     0.030 A 
HETATM   17  C1  UNL     1      -7.365  24.523  15.013  1.00  0.00     0.070 C 
HETATM   18  N1  UNL     1      -9.103  23.235  16.256  1.00  0.00    -0.305 N 
HETATM   19  N2  UNL     1      -9.384  21.983  16.561  1.00  0.00    -0.311 N 
ATOM     20  H1  UNL     1      -9.659  24.046  16.525  1.00  0.00     0.186 HD
HETATM   21  C3  UNL     1      -8.425  21.203  16.033  1.00  0.00     0.117 A 
ATOM     22  H2  UNL     1     -10.187  21.663  17.102  1.00  0.00     0.186 HD
ENDBRANCH  13  15
ENDBRANCH   1  13
BRANCH   7  23
HETATM   23  C12 UNL     1      -6.923  23.475   7.472  1.00  0.00     0.418 C 
HETATM   24  F1  UNL     1      -7.697  24.626   7.409  1.00  0.00    -0.166 F 
HETATM   25  F2  UNL     1      -7.509  22.382   6.886  1.00  0.00    -0.166 F 
HETATM   26  F3  UNL     1      -5.842  23.785   6.606  1.00  0.00    -0.166 F 
ENDBRANCH   7  23
TORSDOF 3
ENDMDL
