MODEL 1
REMARK VINA RESULT: -8.079828012      0.000      0.000
REMARK  3 active torsions:
REMARK  status: ('A' for Active; 'I' for Inactive)
REMARK    1  A    between atoms: C6_7  and  C7_8 
REMARK    2  A    between atoms: C7_8  and  C8_9 
REMARK    3  A    between atoms: C12_13  and  C13_14 
ROOT
HETATM    1  C7  UNL     1      -7.764  23.111   6.545  1.00  0.00     0.045 C 
ENDROOT
BRANCH   1   2
HETATM    2  C6  UNL     1      -7.821  24.213   5.593  1.00  0.00    -0.030 A 
HETATM    3  C5  UNL     1      -8.071  24.237   4.243  1.00  0.00     0.000 A 
HETATM    4  C4  UNL     1      -8.431  23.265   3.325  1.00  0.00     0.014 A 
HETATM    5  C17 UNL     1      -7.953  25.520   3.740  1.00  0.00     0.067 A 
HETATM    6  C3  UNL     1      -8.656  23.542   2.007  1.00  0.00     0.003 A 
HETATM    7  C2  UNL     1      -8.523  24.859   1.548  1.00  0.00     0.029 A 
HETATM    8  C1  UNL     1      -8.168  25.863   2.422  1.00  0.00     0.073 A 
HETATM    9  N1  UNL     1      -8.042  27.178   1.908  1.00  0.00    -0.100 NA
HETATM   10  N2  UNL     1      -7.626  26.310   4.790  1.00  0.00    -0.363 N 
HETATM   11  C16 UNL     1      -7.542  25.561   5.900  1.00  0.00     0.096 A 
ATOM     12  H2  UNL     1      -7.468  27.316   4.744  1.00  0.00     0.165 HD
ENDBRANCH   1   2
BRANCH   1  13
HETATM   13  C8  UNL     1      -6.844  23.305   7.735  1.00  0.00    -0.009 C 
HETATM   14  C9  UNL     1      -5.453  23.308   7.205  1.00  0.00     0.016 C 
HETATM   15  C10 UNL     1      -4.353  23.395   8.327  1.00  0.00     0.081 C 
HETATM   16  C11 UNL     1      -4.996  23.102   9.535  1.00  0.00    -0.169 C 
HETATM   17  C12 UNL     1      -5.738  22.835  10.698  1.00  0.00     0.159 C 
HETATM   18  C14 UNL     1      -7.225  22.658  10.237  1.00  0.00     0.025 C 
HETATM   19  C15 UNL     1      -7.311  22.365   8.754  1.00  0.00     0.006 C 
BRANCH  17  20
HETATM   20  C13 UNL     1      -5.729  23.973  11.739  1.00  0.00     0.400 C 
HETATM   21  F1  UNL     1      -4.422  24.438  11.807  1.00  0.00    -0.170 F 
HETATM   22  F2  UNL     1      -6.091  23.542  12.970  1.00  0.00    -0.170 F 
HETATM   23  F3  UNL     1      -6.527  24.999  11.360  1.00  0.00    -0.170 F 
ENDBRANCH  17  20
ENDBRANCH   1  13
TORSDOF 3
ENDMDL
MODEL 2
REMARK VINA RESULT: -8.053280719      4.332      7.613
REMARK  3 active torsions:
REMARK  status: ('A' for Active; 'I' for Inactive)
REMARK    1  A    between atoms: C6_7  and  C7_8 
REMARK    2  A    between atoms: C7_8  and  C8_9 
REMARK    3  A    between atoms: C12_13  and  C13_14 
ROOT
HETATM    1  C7  UNL     1      -7.247  22.707   6.217  1.00  0.00     0.045 C 
ENDROOT
BRANCH   1   2
HETATM    2  C6  UNL     1      -6.507  23.004   7.437  1.00  0.00    -0.030 A 
HETATM    3  C5  UNL     1      -6.847  22.879   8.761  1.00  0.00     0.000 A 
HETATM    4  C4  UNL     1      -7.954  22.365   9.414  1.00  0.00     0.014 A 
HETATM    5  C17 UNL     1      -5.837  23.354   9.579  1.00  0.00     0.067 A 
HETATM    6  C3  UNL     1      -8.056  22.325  10.775  1.00  0.00     0.003 A 
HETATM    7  C2  UNL     1      -7.005  22.819  11.559  1.00  0.00     0.029 A 
HETATM    8  C1  UNL     1      -5.880  23.340  10.957  1.00  0.00     0.073 A 
HETATM    9  N1  UNL     1      -4.846  23.832  11.793  1.00  0.00    -0.100 NA
HETATM   10  N2  UNL     1      -4.852  23.780   8.755  1.00  0.00    -0.363 N 
HETATM   11  C16 UNL     1      -5.221  23.584   7.481  1.00  0.00     0.096 A 
ATOM     12  H2  UNL     1      -3.966  24.188   9.056  1.00  0.00     0.165 HD
ENDBRANCH   1   2
BRANCH   1  13
HETATM   13  C8  UNL     1      -7.585  23.893   5.337  1.00  0.00    -0.009 C 
HETATM   14  C9  UNL     1      -8.094  24.964   6.236  1.00  0.00     0.016 C 
HETATM   15  C10 UNL     1      -8.596  26.244   5.471  1.00  0.00     0.081 C 
HETATM   16  C11 UNL     1      -8.735  25.873   4.129  1.00  0.00    -0.169 C 
HETATM   17  C12 UNL     1      -8.805  25.415   2.802  1.00  0.00     0.159 C 
HETATM   18  C14 UNL     1      -8.302  23.931   2.824  1.00  0.00     0.025 C 
HETATM   19  C15 UNL     1      -8.361  23.350   4.220  1.00  0.00     0.006 C 
BRANCH  17  20
HETATM   20  C13 UNL     1      -7.900  26.176   1.813  1.00  0.00     0.400 C 
HETATM   21  F1  UNL     1      -6.606  26.083   2.308  1.00  0.00    -0.170 F 
HETATM   22  F2  UNL     1      -8.227  27.486   1.723  1.00  0.00    -0.170 F 
HETATM   23  F3  UNL     1      -7.926  25.613   0.581  1.00  0.00    -0.170 F 
ENDBRANCH  17  20
ENDBRANCH   1  13
TORSDOF 3
ENDMDL
MODEL 3
REMARK VINA RESULT: -7.659952587      4.500      7.495
REMARK  3 active torsions:
REMARK  status: ('A' for Active; 'I' for Inactive)
REMARK    1  A    between atoms: C6_7  and  C7_8 
REMARK    2  A    between atoms: C7_8  and  C8_9 
REMARK    3  A    between atoms: C12_13  and  C13_14 
ROOT
HETATM    1  C7  UNL     1      -4.346  23.580  10.579  1.00  0.00     0.045 C 
ENDROOT
BRANCH   1   2
HETATM    2  C6  UNL     1      -3.368  22.520  10.372  1.00  0.00    -0.030 A 
HETATM    3  C5  UNL     1      -2.306  22.417   9.508  1.00  0.00     0.000 A 
HETATM    4  C4  UNL     1      -1.736  23.287   8.594  1.00  0.00     0.014 A 
HETATM    5  C17 UNL     1      -1.690  21.183   9.623  1.00  0.00     0.067 A 
HETATM    6  C3  UNL     1      -0.639  22.960   7.849  1.00  0.00     0.003 A 
HETATM    7  C2  UNL     1      -0.054  21.697   8.003  1.00  0.00     0.029 A 
HETATM    8  C1  UNL     1      -0.582  20.795   8.900  1.00  0.00     0.073 A 
HETATM    9  N1  UNL     1       0.044  19.528   9.017  1.00  0.00    -0.100 NA
HETATM   10  N2  UNL     1      -2.376  20.506  10.573  1.00  0.00    -0.363 N 
HETATM   11  C16 UNL     1      -3.374  21.274  11.034  1.00  0.00     0.096 A 
ATOM     12  H2  UNL     1      -2.167  19.559  10.889  1.00  0.00     0.165 HD
ENDBRANCH   1   2
BRANCH   1  13
HETATM   13  C8  UNL     1      -5.526  23.594   9.626  1.00  0.00    -0.009 C 
HETATM   14  C9  UNL     1      -6.649  22.913  10.324  1.00  0.00     0.016 C 
HETATM   15  C10 UNL     1      -7.934  22.743   9.432  1.00  0.00     0.081 C 
HETATM   16  C11 UNL     1      -7.534  22.983   8.113  1.00  0.00    -0.169 C 
HETATM   17  C12 UNL     1      -7.044  23.279   6.829  1.00  0.00     0.159 C 
HETATM   18  C14 UNL     1      -5.535  23.657   7.014  1.00  0.00     0.025 C 
HETATM   19  C15 UNL     1      -4.997  23.150   8.335  1.00  0.00     0.006 C 
BRANCH  17  20
HETATM   20  C13 UNL     1      -7.722  24.484   6.146  1.00  0.00     0.400 C 
HETATM   21  F1  UNL     1      -8.323  23.999   4.992  1.00  0.00    -0.170 F 
HETATM   22  F2  UNL     1      -6.832  25.439   5.793  1.00  0.00    -0.170 F 
HETATM   23  F3  UNL     1      -8.684  25.024   6.933  1.00  0.00    -0.170 F 
ENDBRANCH  17  20
ENDBRANCH   1  13
TORSDOF 3
ENDMDL
MODEL 4
REMARK VINA RESULT: -7.657602781      4.453      7.762
REMARK  3 active torsions:
REMARK  status: ('A' for Active; 'I' for Inactive)
REMARK    1  A    between atoms: C6_7  and  C7_8 
REMARK    2  A    between atoms: C7_8  and  C8_9 
REMARK    3  A    between atoms: C12_13  and  C13_14 
ROOT
HETATM    1  C7  UNL     1      -6.131  23.181   6.667  1.00  0.00     0.045 C 
ENDROOT
BRANCH   1   2
HETATM    2  C6  UNL     1      -6.695  23.022   8.001  1.00  0.00    -0.030 A 
HETATM    3  C5  UNL     1      -6.124  23.103   9.247  1.00  0.00     0.000 A 
HETATM    4  C4  UNL     1      -4.856  23.436   9.691  1.00  0.00     0.014 A 
HETATM    5  C17 UNL     1      -7.046  22.809  10.235  1.00  0.00     0.067 A 
HETATM    6  C3  UNL     1      -4.524  23.473  11.016  1.00  0.00     0.003 A 
HETATM    7  C2  UNL     1      -5.495  23.165  11.977  1.00  0.00     0.029 A 
HETATM    8  C1  UNL     1      -6.772  22.829  11.587  1.00  0.00     0.073 A 
HETATM    9  N1  UNL     1      -7.718  22.523  12.597  1.00  0.00    -0.100 NA
HETATM   10  N2  UNL     1      -8.210  22.541   9.599  1.00  0.00    -0.363 N 
HETATM   11  C16 UNL     1      -8.031  22.661   8.275  1.00  0.00     0.096 A 
ATOM     12  H2  UNL     1      -9.087  22.287  10.055  1.00  0.00     0.165 HD
ENDBRANCH   1   2
BRANCH   1  13
HETATM   13  C8  UNL     1      -6.904  24.077   5.719  1.00  0.00    -0.009 C 
HETATM   14  C9  UNL     1      -7.555  25.123   6.552  1.00  0.00     0.016 C 
HETATM   15  C10 UNL     1      -8.493  26.086   5.734  1.00  0.00     0.081 C 
HETATM   16  C11 UNL     1      -8.712  25.469   4.498  1.00  0.00    -0.169 C 
HETATM   17  C12 UNL     1      -8.839  24.789   3.274  1.00  0.00     0.159 C 
HETATM   18  C14 UNL     1      -7.949  23.505   3.393  1.00  0.00     0.025 C 
HETATM   19  C15 UNL     1      -7.648  23.174   4.840  1.00  0.00     0.006 C 
BRANCH  17  20
HETATM   20  C13 UNL     1      -8.327  25.572   2.050  1.00  0.00     0.400 C 
HETATM   21  F1  UNL     1      -7.017  25.937   2.332  1.00  0.00    -0.170 F 
HETATM   22  F2  UNL     1      -9.043  26.698   1.827  1.00  0.00    -0.170 F 
HETATM   23  F3  UNL     1      -8.324  24.804   0.934  1.00  0.00    -0.170 F 
ENDBRANCH  17  20
ENDBRANCH   1  13
TORSDOF 3
ENDMDL
MODEL 5
REMARK VINA RESULT: -7.644471806      4.319      7.704
REMARK  3 active torsions:
REMARK  status: ('A' for Active; 'I' for Inactive)
REMARK    1  A    between atoms: C6_7  and  C7_8 
REMARK    2  A    between atoms: C7_8  and  C8_9 
REMARK    3  A    between atoms: C12_13  and  C13_14 
ROOT
HETATM    1  C7  UNL     1      -5.334  23.487  11.539  1.00  0.00     0.045 C 
ENDROOT
BRANCH   1   2
HETATM    2  C6  UNL     1      -3.896  23.482  11.304  1.00  0.00    -0.030 A 
HETATM    3  C5  UNL     1      -3.012  22.453  11.092  1.00  0.00     0.000 A 
HETATM    4  C4  UNL     1      -3.162  21.085  10.947  1.00  0.00     0.014 A 
HETATM    5  C17 UNL     1      -1.717  22.928  10.981  1.00  0.00     0.067 A 
HETATM    6  C3  UNL     1      -2.110  20.247  10.711  1.00  0.00     0.003 A 
HETATM    7  C2  UNL     1      -0.818  20.778  10.608  1.00  0.00     0.029 A 
HETATM    8  C1  UNL     1      -0.615  22.134  10.744  1.00  0.00     0.073 A 
HETATM    9  N1  UNL     1       0.712  22.622  10.636  1.00  0.00    -0.100 NA
HETATM   10  N2  UNL     1      -1.793  24.271  11.124  1.00  0.00    -0.363 N 
HETATM   11  C16 UNL     1      -3.072  24.627  11.315  1.00  0.00     0.096 A 
ATOM     12  H2  UNL     1      -1.000  24.913  11.093  1.00  0.00     0.165 HD
ENDBRANCH   1   2
BRANCH   1  13
HETATM   13  C8  UNL     1      -6.212  23.463  10.303  1.00  0.00    -0.009 C 
HETATM   14  C9  UNL     1      -7.455  22.734  10.674  1.00  0.00     0.016 C 
HETATM   15  C10 UNL     1      -8.444  22.522   9.469  1.00  0.00     0.081 C 
HETATM   16  C11 UNL     1      -7.712  22.786   8.306  1.00  0.00    -0.169 C 
HETATM   17  C12 UNL     1      -6.906  23.110   7.201  1.00  0.00     0.159 C 
HETATM   18  C14 UNL     1      -5.518  23.543   7.785  1.00  0.00     0.025 C 
HETATM   19  C15 UNL     1      -5.338  23.048   9.204  1.00  0.00     0.006 C 
BRANCH  17  20
HETATM   20  C13 UNL     1      -7.420  24.292   6.356  1.00  0.00     0.400 C 
HETATM   21  F1  UNL     1      -6.364  25.186   6.241  1.00  0.00    -0.170 F 
HETATM   22  F2  UNL     1      -8.455  24.931   6.949  1.00  0.00    -0.170 F 
HETATM   23  F3  UNL     1      -7.780  23.895   5.112  1.00  0.00    -0.170 F 
ENDBRANCH  17  20
ENDBRANCH   1  13
TORSDOF 3
ENDMDL
