MODEL 1
REMARK VINA RESULT: -6.310814152      0.000      0.000
REMARK  4 active torsions:
REMARK  status: ('A' for Active; 'I' for Inactive)
REMARK    1  A    between atoms: C5_7  and  C6_8 
REMARK    2  A    between atoms: C9_11  and  C10_12 
REMARK    3  A    between atoms: C10_12  and  N3_16 
REMARK    4  A    between atoms: C15_21  and  C17_23 
ROOT
HETATM    1  C10 UNL     1      -4.469  23.476  10.185  1.00  0.00     0.111 C 
HETATM    2  N2  UNL     1      -4.254  24.635  10.594  1.00  0.00    -0.385 N 
ATOM      3  H21 UNL     1      -3.312  25.018  10.676  1.00  0.00     0.157 HD
ATOM      4  H22 UNL     1      -5.155  24.996  10.904  1.00  0.00     0.157 HD
ENDROOT
BRANCH   1   5
HETATM    5  C9  UNL     1      -5.792  22.937  10.070  1.00  0.00     0.042 A 
HETATM    6  C2  UNL     1      -6.672  23.021   9.028  1.00  0.00     0.020 A 
HETATM    7  C1  UNL     1      -6.444  23.314   7.593  1.00  0.00     0.069 C 
HETATM    8  N1  UNL     1      -7.923  22.621   9.389  1.00  0.00    -0.362 N 
HETATM    9  C3  UNL     1      -7.881  22.271  10.633  1.00  0.00     0.017 A 
ATOM     10  H1  UNL     1      -8.745  22.602   8.786  1.00  0.00     0.165 HD
HETATM   11  C4  UNL     1      -9.088  21.756  11.355  1.00  0.00     0.069 C 
HETATM   12  C5  UNL     1      -6.547  22.443  11.143  1.00  0.00     0.004 A 
BRANCH  12  13
HETATM   13  C6  UNL     1      -6.386  22.141  12.517  1.00  0.00    -0.074 C 
HETATM   14  C7  UNL     1      -5.369  21.391  13.223  1.00  0.00     0.044 C 
HETATM   15  C8  UNL     1      -6.634  23.493  13.329  1.00  0.00     0.044 C 
ENDBRANCH  12  13
ENDBRANCH   1   5
BRANCH   1  16
HETATM   16  N3  UNL     1      -3.171  22.957   9.739  1.00  0.00    -0.352 N 
HETATM   17  C11 UNL     1      -2.782  23.077   8.379  1.00  0.00     0.125 C 
HETATM   18  C12 UNL     1      -1.346  23.455   8.127  1.00  0.00     0.020 C 
HETATM   19  C13 UNL     1      -0.623  23.593   9.438  1.00  0.00     0.004 C 
HETATM   20  C14 UNL     1      -0.849  22.320  10.188  1.00  0.00     0.036 C 
HETATM   21  C15 UNL     1      -2.303  22.214  10.614  1.00  0.00     0.089 C 
HETATM   22  C16 UNL     1      -2.370  22.737  12.044  1.00  0.00     0.044 C 
BRANCH  21  23
HETATM   23  C17 UNL     1      -2.515  20.708  10.599  1.00  0.00     0.380 C 
HETATM   24  F1  UNL     1      -2.658  20.016  11.699  1.00  0.00    -0.212 F 
HETATM   25  F2  UNL     1      -1.453  20.160   9.830  1.00  0.00    -0.212 F 
ENDBRANCH  21  23
ENDBRANCH   1  16
TORSDOF 4
ENDMDL
MODEL 2
REMARK VINA RESULT: -6.016457967      1.428      2.401
REMARK  4 active torsions:
REMARK  status: ('A' for Active; 'I' for Inactive)
REMARK    1  A    between atoms: C5_7  and  C6_8 
REMARK    2  A    between atoms: C9_11  and  C10_12 
REMARK    3  A    between atoms: C10_12  and  N3_16 
REMARK    4  A    between atoms: C15_21  and  C17_23 
ROOT
HETATM    1  C10 UNL     1      -4.208  23.442  10.640  1.00  0.00     0.111 C 
HETATM    2  N2  UNL     1      -3.923  24.652  10.750  1.00  0.00    -0.385 N 
ATOM      3  H21 UNL     1      -2.985  24.971  10.990  1.00  0.00     0.157 HD
ATOM      4  H22 UNL     1      -4.804  25.157  10.671  1.00  0.00     0.157 HD
ENDROOT
BRANCH   1   5
HETATM    5  C9  UNL     1      -5.527  22.993  10.303  1.00  0.00     0.042 A 
HETATM    6  C2  UNL     1      -6.238  23.185   9.152  1.00  0.00     0.020 A 
HETATM    7  C1  UNL     1      -5.786  23.537   7.785  1.00  0.00     0.069 C 
HETATM    8  N1  UNL     1      -7.547  22.846   9.305  1.00  0.00    -0.362 N 
HETATM    9  C3  UNL     1      -7.709  22.430  10.518  1.00  0.00     0.017 A 
ATOM     10  H1  UNL     1      -8.271  22.908   8.589  1.00  0.00     0.165 HD
HETATM   11  C4  UNL     1      -9.035  21.954  11.027  1.00  0.00     0.069 C 
HETATM   12  C5  UNL     1      -6.457  22.492  11.224  1.00  0.00     0.004 A 
BRANCH  12  13
HETATM   13  C6  UNL     1      -6.517  22.110  12.586  1.00  0.00    -0.074 C 
HETATM   14  C7  UNL     1      -5.678  21.234  13.377  1.00  0.00     0.044 C 
HETATM   15  C8  UNL     1      -6.758  23.438  13.439  1.00  0.00     0.044 C 
ENDBRANCH  12  13
ENDBRANCH   1   5
BRANCH   1  16
HETATM   16  N3  UNL     1      -2.939  22.715  10.754  1.00  0.00    -0.352 N 
HETATM   17  C11 UNL     1      -2.620  22.016  11.948  1.00  0.00     0.125 C 
HETATM   18  C12 UNL     1      -1.976  20.665  11.778  1.00  0.00     0.020 C 
HETATM   19  C13 UNL     1      -1.790  20.374  10.315  1.00  0.00     0.004 C 
HETATM   20  C14 UNL     1      -1.047  21.536   9.739  1.00  0.00     0.036 C 
HETATM   21  C15 UNL     1      -1.931  22.771   9.728  1.00  0.00     0.089 C 
HETATM   22  C16 UNL     1      -2.551  22.843   8.338  1.00  0.00     0.044 C 
BRANCH  21  23
HETATM   23  C17 UNL     1      -0.904  23.881   9.900  1.00  0.00     0.380 C 
HETATM   24  F1  UNL     1      -0.834  24.894   9.076  1.00  0.00    -0.212 F 
HETATM   25  F2  UNL     1       0.365  23.247   9.981  1.00  0.00    -0.212 F 
ENDBRANCH  21  23
ENDBRANCH   1  16
TORSDOF 4
ENDMDL
MODEL 3
REMARK VINA RESULT: -5.662431067      1.234      2.079
REMARK  4 active torsions:
REMARK  status: ('A' for Active; 'I' for Inactive)
REMARK    1  A    between atoms: C5_7  and  C6_8 
REMARK    2  A    between atoms: C9_11  and  C10_12 
REMARK    3  A    between atoms: C10_12  and  N3_16 
REMARK    4  A    between atoms: C15_21  and  C17_23 
ROOT
HETATM    1  C10 UNL     1      -4.349  23.866  10.869  1.00  0.00     0.111 C 
HETATM    2  N2  UNL     1      -4.259  25.109  10.921  1.00  0.00    -0.385 N 
ATOM      3  H21 UNL     1      -3.386  25.584  11.152  1.00  0.00     0.157 HD
ATOM      4  H22 UNL     1      -5.208  25.465  10.810  1.00  0.00     0.157 HD
ENDROOT
BRANCH   1   5
HETATM    5  C9  UNL     1      -5.576  23.199  10.544  1.00  0.00     0.042 A 
HETATM    6  C2  UNL     1      -6.282  23.208   9.374  1.00  0.00     0.020 A 
HETATM    7  C1  UNL     1      -5.857  23.540   7.993  1.00  0.00     0.069 C 
HETATM    8  N1  UNL     1      -7.527  22.681   9.531  1.00  0.00    -0.362 N 
HETATM    9  C3  UNL     1      -7.651  22.321  10.767  1.00  0.00     0.017 A 
ATOM     10  H1  UNL     1      -8.236  22.587   8.804  1.00  0.00     0.165 HD
HETATM   11  C4  UNL     1      -8.900  21.680  11.288  1.00  0.00     0.069 C 
HETATM   12  C5  UNL     1      -6.439  22.619  11.484  1.00  0.00     0.004 A 
BRANCH  12  13
HETATM   13  C6  UNL     1      -6.472  22.318  12.867  1.00  0.00    -0.074 C 
HETATM   14  C7  UNL     1      -5.563  21.568  13.708  1.00  0.00     0.044 C 
HETATM   15  C8  UNL     1      -6.829  23.670  13.636  1.00  0.00     0.044 C 
ENDBRANCH  12  13
ENDBRANCH   1   5
BRANCH   1  16
HETATM   16  N3  UNL     1      -2.983  23.354  11.028  1.00  0.00    -0.352 N 
HETATM   17  C11 UNL     1      -2.044  24.059  11.825  1.00  0.00     0.125 C 
HETATM   18  C12 UNL     1      -1.158  23.220  12.709  1.00  0.00     0.020 C 
HETATM   19  C13 UNL     1      -1.474  21.765  12.506  1.00  0.00     0.004 C 
HETATM   20  C14 UNL     1      -1.376  21.506  11.038  1.00  0.00     0.036 C 
HETATM   21  C15 UNL     1      -2.510  22.202  10.305  1.00  0.00     0.089 C 
HETATM   22  C16 UNL     1      -3.610  21.162  10.128  1.00  0.00     0.044 C 
BRANCH  21  23
HETATM   23  C17 UNL     1      -1.861  22.510   8.964  1.00  0.00     0.380 C 
HETATM   24  F1  UNL     1      -2.526  23.062   7.983  1.00  0.00    -0.212 F 
HETATM   25  F2  UNL     1      -1.273  21.298   8.514  1.00  0.00    -0.212 F 
ENDBRANCH  21  23
ENDBRANCH   1  16
TORSDOF 4
ENDMDL
MODEL 4
REMARK VINA RESULT: -5.566821737      2.839      5.901
REMARK  4 active torsions:
REMARK  status: ('A' for Active; 'I' for Inactive)
REMARK    1  A    between atoms: C5_7  and  C6_8 
REMARK    2  A    between atoms: C9_11  and  C10_12 
REMARK    3  A    between atoms: C10_12  and  N3_16 
REMARK    4  A    between atoms: C15_21  and  C17_23 
ROOT
HETATM    1  C10 UNL     1      -6.183  22.397  12.839  1.00  0.00     0.111 C 
HETATM    2  N2  UNL     1      -5.110  21.818  13.105  1.00  0.00    -0.385 N 
ATOM      3  H21 UNL     1      -4.803  21.651  14.063  1.00  0.00     0.157 HD
ATOM      4  H22 UNL     1      -4.630  21.693  12.214  1.00  0.00     0.157 HD
ENDROOT
BRANCH   1   5
HETATM    5  C9  UNL     1      -6.615  22.633  11.493  1.00  0.00     0.042 A 
HETATM    6  C2  UNL     1      -7.746  22.202  10.860  1.00  0.00     0.020 A 
HETATM    7  C1  UNL     1      -9.039  21.727  11.409  1.00  0.00     0.069 C 
HETATM    8  N1  UNL     1      -7.678  22.397   9.514  1.00  0.00    -0.362 N 
HETATM    9  C3  UNL     1      -6.538  22.949   9.252  1.00  0.00     0.017 A 
ATOM     10  H1  UNL     1      -8.397  22.150   8.834  1.00  0.00     0.165 HD
HETATM   11  C4  UNL     1      -6.137  23.324   7.859  1.00  0.00     0.069 C 
HETATM   12  C5  UNL     1      -5.797  23.136  10.471  1.00  0.00     0.004 A 
BRANCH  12  13
HETATM   13  C6  UNL     1      -4.503  23.687  10.307  1.00  0.00    -0.074 C 
HETATM   14  C7  UNL     1      -3.761  24.647  11.097  1.00  0.00     0.044 C 
HETATM   15  C8  UNL     1      -3.515  22.480   9.969  1.00  0.00     0.044 C 
ENDBRANCH  12  13
ENDBRANCH   1   5
BRANCH   1  16
HETATM   16  N3  UNL     1      -6.874  22.578  14.121  1.00  0.00    -0.352 N 
HETATM   17  C11 UNL     1      -7.162  23.883  14.601  1.00  0.00     0.125 C 
HETATM   18  C12 UNL     1      -8.516  24.076  15.233  1.00  0.00     0.020 C 
HETATM   19  C13 UNL     1      -9.265  22.773  15.231  1.00  0.00     0.004 C 
HETATM   20  C14 UNL     1      -8.373  21.765  15.880  1.00  0.00     0.036 C 
HETATM   21  C15 UNL     1      -7.180  21.469  14.987  1.00  0.00     0.089 C 
HETATM   22  C16 UNL     1      -7.539  20.220  14.191  1.00  0.00     0.044 C 
BRANCH  21  23
HETATM   23  C17 UNL     1      -6.105  21.144  16.013  1.00  0.00     0.380 C 
HETATM   24  F1  UNL     1      -5.682  19.922  16.210  1.00  0.00    -0.212 F 
HETATM   25  F2  UNL     1      -6.545  21.696  17.246  1.00  0.00    -0.212 F 
ENDBRANCH  21  23
ENDBRANCH   1  16
TORSDOF 4
ENDMDL
MODEL 5
REMARK VINA RESULT: -5.485258236      2.325      5.885
REMARK  4 active torsions:
REMARK  status: ('A' for Active; 'I' for Inactive)
REMARK    1  A    between atoms: C5_7  and  C6_8 
REMARK    2  A    between atoms: C9_11  and  C10_12 
REMARK    3  A    between atoms: C10_12  and  N3_16 
REMARK    4  A    between atoms: C15_21  and  C17_23 
ROOT
HETATM    1  C10 UNL     1      -3.186  22.001  11.700  1.00  0.00     0.111 C 
HETATM    2  N2  UNL     1      -2.697  22.690  12.618  1.00  0.00    -0.385 N 
ATOM      3  H21 UNL     1      -3.269  23.282  13.219  1.00  0.00     0.157 HD
ATOM      4  H22 UNL     1      -1.686  22.606  12.524  1.00  0.00     0.157 HD
ENDROOT
BRANCH   1   5
HETATM    5  C9  UNL     1      -2.383  21.168  10.854  1.00  0.00     0.042 A 
HETATM    6  C2  UNL     1      -1.872  19.924  11.098  1.00  0.00     0.020 A 
HETATM    7  C1  UNL     1      -2.278  18.889  12.078  1.00  0.00     0.069 C 
HETATM    8  N1  UNL     1      -0.939  19.570  10.171  1.00  0.00    -0.362 N 
HETATM    9  C3  UNL     1      -0.833  20.543   9.326  1.00  0.00     0.017 A 
ATOM     10  H1  UNL     1      -0.418  18.694  10.149  1.00  0.00     0.165 HD
HETATM   11  C4  UNL     1       0.097  20.481   8.154  1.00  0.00     0.069 C 
HETATM   12  C5  UNL     1      -1.729  21.607   9.695  1.00  0.00     0.004 A 
BRANCH  12  13
HETATM   13  C6  UNL     1      -1.666  22.756   8.870  1.00  0.00    -0.074 C 
HETATM   14  C7  UNL     1      -2.642  23.363   7.990  1.00  0.00     0.044 C 
HETATM   15  C8  UNL     1      -1.016  23.926   9.740  1.00  0.00     0.044 C 
ENDBRANCH  12  13
ENDBRANCH   1   5
BRANCH   1  16
HETATM   16  N3  UNL     1      -4.643  22.122  11.835  1.00  0.00    -0.352 N 
HETATM   17  C11 UNL     1      -5.348  21.289  12.743  1.00  0.00     0.125 C 
HETATM   18  C12 UNL     1      -6.442  21.950  13.541  1.00  0.00     0.020 C 
HETATM   19  C13 UNL     1      -6.551  23.397  13.147  1.00  0.00     0.004 C 
HETATM   20  C14 UNL     1      -6.709  23.425  11.661  1.00  0.00     0.036 C 
HETATM   21  C15 UNL     1      -5.419  22.989  10.988  1.00  0.00     0.089 C 
HETATM   22  C16 UNL     1      -4.660  24.266  10.648  1.00  0.00     0.044 C 
BRANCH  21  23
HETATM   23  C17 UNL     1      -5.944  22.339   9.717  1.00  0.00     0.380 C 
HETATM   24  F1  UNL     1      -5.881  22.937   8.556  1.00  0.00    -0.212 F 
HETATM   25  F2  UNL     1      -7.288  21.962   9.983  1.00  0.00    -0.212 F 
ENDBRANCH  21  23
ENDBRANCH   1  16
TORSDOF 4
ENDMDL
