MODEL 1
REMARK VINA RESULT: -7.180690377      0.000      0.000
REMARK  3 active torsions:
REMARK  status: ('A' for Active; 'I' for Inactive)
REMARK    1  A    between atoms: C2_2  and  C4_4 
REMARK    2  A    between atoms: C2_2  and  C18_21 
REMARK    3  A    between atoms: C5_5  and  C6_6 
ROOT
HETATM    1  C4  UNL     1      -3.680  22.714   9.854  1.00  0.00    -0.002 A 
HETATM    2  C5  UNL     1      -3.076  22.945   8.628  1.00  0.00     0.043 A 
HETATM    3  N1  UNL     1      -4.117  23.262   7.784  1.00  0.00    -0.353 N 
ATOM      4  H1  UNL     1      -3.990  23.482   6.797  1.00  0.00     0.166 HD
HETATM    5  C12 UNL     1      -5.289  23.254   8.374  1.00  0.00     0.068 A 
HETATM    6  C13 UNL     1      -6.558  23.528   7.857  1.00  0.00     0.073 A 
HETATM    7  N2  UNL     1      -6.673  23.873   6.472  1.00  0.00    -0.100 NA
HETATM    8  C14 UNL     1      -7.650  23.473   8.643  1.00  0.00     0.029 A 
HETATM    9  C15 UNL     1      -7.475  23.141   9.950  1.00  0.00     0.003 A 
HETATM   10  C16 UNL     1      -6.208  22.865  10.473  1.00  0.00     0.014 A 
HETATM   11  C17 UNL     1      -5.067  22.914   9.690  1.00  0.00     0.002 A 
ENDROOT
BRANCH   1  12
HETATM   12  C2  UNL     1      -3.060  22.160  11.031  1.00  0.00     0.080 C 
HETATM   13  C1  UNL     1      -3.771  21.646  12.192  1.00  0.00     0.029 C 
HETATM   14  C3  UNL     1      -2.179  20.928  10.649  1.00  0.00     0.029 C 
BRANCH  12  15
HETATM   15  C18 UNL     1      -2.044  23.195  11.565  1.00  0.00     0.398 C 
HETATM   16  F1  UNL     1      -0.785  23.128  11.089  1.00  0.00    -0.170 F 
HETATM   17  F2  UNL     1      -1.909  23.037  12.951  1.00  0.00    -0.170 F 
HETATM   18  F3  UNL     1      -2.501  24.470  11.294  1.00  0.00    -0.170 F 
ENDBRANCH  12  15
ENDBRANCH   1  12
BRANCH   2  19
HETATM   19  C6  UNL     1      -1.712  23.065   8.127  1.00  0.00    -0.053 C 
HETATM   20  C7  UNL     1      -1.132  21.724   7.683  1.00  0.00     0.036 C 
HETATM   21  C8  UNL     1       0.372  21.884   7.748  1.00  0.00     0.004 C 
HETATM   22  C9  UNL     1       0.713  22.908   6.682  1.00  0.00     0.001 C 
HETATM   23  C10 UNL     1       0.197  24.272   6.974  1.00  0.00     0.004 C 
HETATM   24  C11 UNL     1      -0.850  24.223   8.101  1.00  0.00     0.036 C 
ENDBRANCH   2  19
TORSDOF 3
ENDMDL
MODEL 2
REMARK VINA RESULT: -6.991081567      1.342      1.732
REMARK  3 active torsions:
REMARK  status: ('A' for Active; 'I' for Inactive)
REMARK    1  A    between atoms: C2_2  and  C4_4 
REMARK    2  A    between atoms: C2_2  and  C18_21 
REMARK    3  A    between atoms: C5_5  and  C6_6 
ROOT
HETATM    1  C4  UNL     1      -3.638  22.574  10.368  1.00  0.00    -0.002 A 
HETATM    2  C5  UNL     1      -3.034  22.944   9.177  1.00  0.00     0.043 A 
HETATM    3  N1  UNL     1      -4.084  23.211   8.327  1.00  0.00    -0.353 N 
ATOM      4  H1  UNL     1      -3.959  23.506   7.359  1.00  0.00     0.166 HD
HETATM    5  C12 UNL     1      -5.261  23.050   8.883  1.00  0.00     0.068 A 
HETATM    6  C13 UNL     1      -6.540  23.231   8.350  1.00  0.00     0.073 A 
HETATM    7  N2  UNL     1      -6.660  23.653   6.986  1.00  0.00    -0.100 NA
HETATM    8  C14 UNL     1      -7.638  23.018   9.100  1.00  0.00     0.029 A 
HETATM    9  C15 UNL     1      -7.459  22.621  10.388  1.00  0.00     0.003 A 
HETATM   10  C16 UNL     1      -6.182  22.437  10.927  1.00  0.00     0.014 A 
HETATM   11  C17 UNL     1      -5.034  22.648  10.180  1.00  0.00     0.002 A 
ENDROOT
BRANCH   1  12
HETATM   12  C2  UNL     1      -2.991  22.008  11.525  1.00  0.00     0.080 C 
HETATM   13  C1  UNL     1      -2.001  22.685  12.349  1.00  0.00     0.029 C 
HETATM   14  C3  UNL     1      -4.055  21.614  12.600  1.00  0.00     0.029 C 
BRANCH  12  15
HETATM   15  C18 UNL     1      -2.365  20.659  11.108  1.00  0.00     0.398 C 
HETATM   16  F1  UNL     1      -2.858  20.062  10.005  1.00  0.00    -0.170 F 
HETATM   17  F2  UNL     1      -2.556  19.724  12.134  1.00  0.00    -0.170 F 
HETATM   18  F3  UNL     1      -1.011  20.829  10.893  1.00  0.00    -0.170 F 
ENDBRANCH  12  15
ENDBRANCH   1  12
BRANCH   2  19
HETATM   19  C6  UNL     1      -1.679  23.229   8.722  1.00  0.00    -0.053 C 
HETATM   20  C7  UNL     1      -1.136  22.149   7.788  1.00  0.00     0.036 C 
HETATM   21  C8  UNL     1       0.372  22.256   7.868  1.00  0.00     0.004 C 
HETATM   22  C9  UNL     1       0.712  23.603   7.260  1.00  0.00     0.001 C 
HETATM   23  C10 UNL     1       0.230  24.761   8.060  1.00  0.00     0.004 C 
HETATM   24  C11 UNL     1      -0.794  24.301   9.113  1.00  0.00     0.036 C 
ENDBRANCH   2  19
TORSDOF 3
ENDMDL
MODEL 3
REMARK VINA RESULT: -6.599241404      0.546      1.176
REMARK  3 active torsions:
REMARK  status: ('A' for Active; 'I' for Inactive)
REMARK    1  A    between atoms: C2_2  and  C4_4 
REMARK    2  A    between atoms: C2_2  and  C18_21 
REMARK    3  A    between atoms: C5_5  and  C6_6 
ROOT
HETATM    1  C4  UNL     1      -3.876  22.489  10.192  1.00  0.00    -0.002 A 
HETATM    2  C5  UNL     1      -3.332  22.736   8.941  1.00  0.00     0.043 A 
HETATM    3  N1  UNL     1      -4.409  23.093   8.161  1.00  0.00    -0.353 N 
ATOM      4  H1  UNL     1      -4.329  23.333   7.173  1.00  0.00     0.166 HD
HETATM    5  C12 UNL     1      -5.548  23.097   8.812  1.00  0.00     0.068 A 
HETATM    6  C13 UNL     1      -6.836  23.410   8.369  1.00  0.00     0.073 A 
HETATM    7  N2  UNL     1      -7.015  23.788   6.999  1.00  0.00    -0.100 NA
HETATM    8  C14 UNL     1      -7.886  23.360   9.210  1.00  0.00     0.029 A 
HETATM    9  C15 UNL     1      -7.651  22.995  10.498  1.00  0.00     0.003 A 
HETATM   10  C16 UNL     1      -6.365  22.681  10.948  1.00  0.00     0.014 A 
HETATM   11  C17 UNL     1      -5.265  22.723  10.106  1.00  0.00     0.002 A 
ENDROOT
BRANCH   1  12
HETATM   12  C2  UNL     1      -3.208  21.896  11.323  1.00  0.00     0.080 C 
HETATM   13  C1  UNL     1      -3.870  21.349  12.498  1.00  0.00     0.029 C 
HETATM   14  C3  UNL     1      -2.353  20.672  10.864  1.00  0.00     0.029 C 
BRANCH  12  15
HETATM   15  C18 UNL     1      -2.162  22.908  11.842  1.00  0.00     0.398 C 
HETATM   16  F1  UNL     1      -0.944  22.888  11.269  1.00  0.00    -0.170 F 
HETATM   17  F2  UNL     1      -1.920  22.666  13.201  1.00  0.00    -0.170 F 
HETATM   18  F3  UNL     1      -2.650  24.192  11.689  1.00  0.00    -0.170 F 
ENDBRANCH  12  15
ENDBRANCH   1  12
BRANCH   2  19
HETATM   19  C6  UNL     1      -1.994  22.837   8.372  1.00  0.00    -0.053 C 
HETATM   20  C7  UNL     1      -1.457  24.267   8.391  1.00  0.00     0.036 C 
HETATM   21  C8  UNL     1      -0.398  24.323   7.310  1.00  0.00     0.004 C 
HETATM   22  C9  UNL     1       0.713  23.409   7.790  1.00  0.00     0.001 C 
HETATM   23  C10 UNL     1       0.330  21.973   7.837  1.00  0.00     0.004 C 
HETATM   24  C11 UNL     1      -1.198  21.818   7.729  1.00  0.00     0.036 C 
ENDBRANCH   2  19
TORSDOF 3
ENDMDL
MODEL 4
REMARK VINA RESULT: -6.383906657      1.526      2.145
REMARK  3 active torsions:
REMARK  status: ('A' for Active; 'I' for Inactive)
REMARK    1  A    between atoms: C2_2  and  C4_4 
REMARK    2  A    between atoms: C2_2  and  C18_21 
REMARK    3  A    between atoms: C5_5  and  C6_6 
ROOT
HETATM    1  C4  UNL     1      -3.883  22.409  10.625  1.00  0.00    -0.002 A 
HETATM    2  C5  UNL     1      -3.350  22.797   9.406  1.00  0.00     0.043 A 
HETATM    3  N1  UNL     1      -4.448  23.067   8.619  1.00  0.00    -0.353 N 
ATOM      4  H1  UNL     1      -4.379  23.375   7.650  1.00  0.00     0.166 HD
HETATM    5  C12 UNL     1      -5.590  22.891   9.238  1.00  0.00     0.068 A 
HETATM    6  C13 UNL     1      -6.898  23.070   8.780  1.00  0.00     0.073 A 
HETATM    7  N2  UNL     1      -7.097  23.507   7.431  1.00  0.00    -0.100 NA
HETATM    8  C14 UNL     1      -7.951  22.840   9.589  1.00  0.00     0.029 A 
HETATM    9  C15 UNL     1      -7.697  22.428  10.859  1.00  0.00     0.003 A 
HETATM   10  C16 UNL     1      -6.390  22.247  11.324  1.00  0.00     0.014 A 
HETATM   11  C17 UNL     1      -5.288  22.476  10.516  1.00  0.00     0.002 A 
ENDROOT
BRANCH   1  12
HETATM   12  C2  UNL     1      -3.169  21.834  11.737  1.00  0.00     0.080 C 
HETATM   13  C1  UNL     1      -2.207  22.538  12.572  1.00  0.00     0.029 C 
HETATM   14  C3  UNL     1      -4.174  21.312  12.813  1.00  0.00     0.029 C 
BRANCH  12  15
HETATM   15  C18 UNL     1      -2.459  20.556  11.237  1.00  0.00     0.398 C 
HETATM   16  F1  UNL     1      -2.881  20.030  10.071  1.00  0.00    -0.170 F 
HETATM   17  F2  UNL     1      -2.640  19.530  12.175  1.00  0.00    -0.170 F 
HETATM   18  F3  UNL     1      -1.109  20.807  11.091  1.00  0.00    -0.170 F 
ENDBRANCH  12  15
ENDBRANCH   1  12
BRANCH   2  19
HETATM   19  C6  UNL     1      -2.024  23.097   8.879  1.00  0.00    -0.053 C 
HETATM   20  C7  UNL     1      -1.335  24.228   9.639  1.00  0.00     0.036 C 
HETATM   21  C8  UNL     1      -0.305  24.796   8.686  1.00  0.00     0.004 C 
HETATM   22  C9  UNL     1       0.713  23.690   8.489  1.00  0.00     0.001 C 
HETATM   23  C10 UNL     1       0.177  22.504   7.768  1.00  0.00     0.004 C 
HETATM   24  C11 UNL     1      -1.361  22.552   7.718  1.00  0.00     0.036 C 
ENDBRANCH   2  19
TORSDOF 3
ENDMDL
MODEL 5
REMARK VINA RESULT: -6.360432882      1.961      4.767
REMARK  3 active torsions:
REMARK  status: ('A' for Active; 'I' for Inactive)
REMARK    1  A    between atoms: C2_2  and  C4_4 
REMARK    2  A    between atoms: C2_2  and  C18_21 
REMARK    3  A    between atoms: C5_5  and  C6_6 
ROOT
HETATM    1  C4  UNL     1      -4.155  22.503  10.349  1.00  0.00    -0.002 A 
HETATM    2  C5  UNL     1      -4.919  22.079  11.424  1.00  0.00     0.043 A 
HETATM    3  N1  UNL     1      -6.222  22.225  11.001  1.00  0.00    -0.353 N 
ATOM      4  H1  UNL     1      -7.027  21.996  11.582  1.00  0.00     0.166 HD
HETATM    5  C12 UNL     1      -6.325  22.686   9.778  1.00  0.00     0.068 A 
HETATM    6  C13 UNL     1      -7.462  22.954   9.010  1.00  0.00     0.073 A 
HETATM    7  N2  UNL     1      -8.750  22.717   9.590  1.00  0.00    -0.100 NA
HETATM    8  C14 UNL     1      -7.351  23.422   7.752  1.00  0.00     0.029 A 
HETATM    9  C15 UNL     1      -6.101  23.625   7.259  1.00  0.00     0.003 A 
HETATM   10  C16 UNL     1      -4.959  23.360   8.021  1.00  0.00     0.014 A 
HETATM   11  C17 UNL     1      -5.041  22.877   9.317  1.00  0.00     0.002 A 
ENDROOT
BRANCH   1  12
HETATM   12  C2  UNL     1      -2.732  22.735  10.338  1.00  0.00     0.080 C 
HETATM   13  C1  UNL     1      -1.723  21.781  10.771  1.00  0.00     0.029 C 
HETATM   14  C3  UNL     1      -2.247  23.046   8.886  1.00  0.00     0.029 C 
BRANCH  12  15
HETATM   15  C18 UNL     1      -2.457  24.043  11.112  1.00  0.00     0.398 C 
HETATM   16  F1  UNL     1      -3.488  24.895  11.274  1.00  0.00    -0.170 F 
HETATM   17  F2  UNL     1      -1.485  24.787  10.431  1.00  0.00    -0.170 F 
HETATM   18  F3  UNL     1      -1.994  23.739  12.378  1.00  0.00    -0.170 F 
ENDBRANCH  12  15
ENDBRANCH   1  12
BRANCH   2  19
HETATM   19  C6  UNL     1      -4.672  21.436  12.709  1.00  0.00    -0.053 C 
HETATM   20  C7  UNL     1      -5.926  21.362  13.577  1.00  0.00     0.036 C 
HETATM   21  C8  UNL     1      -5.432  21.230  15.003  1.00  0.00     0.004 C 
HETATM   22  C9  UNL     1      -4.749  19.878  15.067  1.00  0.00     0.001 C 
HETATM   23  C10 UNL     1      -3.507  19.795  14.252  1.00  0.00     0.004 C 
HETATM   24  C11 UNL     1      -3.423  20.980  13.273  1.00  0.00     0.036 C 
ENDBRANCH   2  19
TORSDOF 3
ENDMDL
