MODEL 1
REMARK VINA RESULT: -7.557145436      0.000      0.000
REMARK  8 active torsions:
REMARK  status: ('A' for Active; 'I' for Inactive)
REMARK    1  A    between atoms: C1_2  and  C2_3 
REMARK    2  A    between atoms: C1_2  and  C8_9 
REMARK    3  A    between atoms: N1_14  and  C13_15 
REMARK    4  A    between atoms: C13_15  and  O2_16 
REMARK    5  A    between atoms: C13_15  and  N2_18 
REMARK    6  A    between atoms: C16_21  and  N3_22 
REMARK    7  A    between atoms: C19_25  and  C20_26 
REMARK    8  A    between atoms: C20_26  and  O3_27 
ROOT
HETATM    1  C13 UNL     1      10.954  17.374  -5.168  1.00  0.00     0.217 C 
ENDROOT
BRANCH   1   2
HETATM    2  N1  UNL     1      11.767  17.043  -4.075  1.00  0.00    -0.336 N 
HETATM    3  C8  UNL     1      12.309  18.168  -3.234  1.00  0.00     0.158 C 
HETATM    4  C9  UNL     1      12.268  17.639  -1.841  1.00  0.00     0.033 C 
HETATM    5  C10 UNL     1      11.126  16.645  -1.622  1.00  0.00     0.004 C 
HETATM    6  C11 UNL     1      11.282  15.393  -2.450  1.00  0.00     0.020 C 
HETATM    7  C12 UNL     1      12.212  15.769  -3.604  1.00  0.00     0.127 C 
BRANCH   3   8
HETATM    8  C1  UNL     1      13.708  18.378  -3.678  1.00  0.00     0.153 C 
HETATM    9  O1  UNL     1      14.635  17.875  -3.003  1.00  0.00    -0.295 OA
BRANCH   8  10
HETATM   10  C2  UNL     1      14.144  19.129  -4.853  1.00  0.00     0.057 C 
HETATM   11  C3  UNL     1      15.595  19.561  -4.839  1.00  0.00     0.012 C 
HETATM   12  C4  UNL     1      15.957  20.232  -6.155  1.00  0.00     0.001 C 
HETATM   13  C5  UNL     1      14.781  20.256  -7.097  1.00  0.00     0.000 C 
HETATM   14  C6  UNL     1      13.524  20.807  -6.521  1.00  0.00     0.001 C 
HETATM   15  C7  UNL     1      13.340  20.390  -5.084  1.00  0.00     0.012 C 
ENDBRANCH   8  10
ENDBRANCH   3   8
ENDBRANCH   1   2
BRANCH   1  16
HETATM   16  O2  UNL     1       9.645  17.269  -4.933  1.00  0.00    -0.332 OA
ATOM     17  H2  UNL     1       9.212  16.584  -5.429  1.00  0.00     0.220 HD
ENDBRANCH   1  16
BRANCH   1  18
HETATM   18  N2  UNL     1      11.227  17.791  -6.454  1.00  0.00    -0.347 N 
HETATM   19  C14 UNL     1      12.441  17.269  -7.131  1.00  0.00     0.128 C 
HETATM   20  C15 UNL     1      12.468  17.656  -8.571  1.00  0.00     0.055 C 
HETATM   21  C16 UNL     1      11.176  17.608  -9.304  1.00  0.00     0.226 C 
HETATM   22  C23 UNL     1       9.977  17.874  -8.448  1.00  0.00     0.055 C 
HETATM   23  C24 UNL     1      10.479  18.703  -7.244  1.00  0.00     0.128 C 
BRANCH  21  24
HETATM   24  N3  UNL     1      11.059  16.464 -10.135  1.00  0.00     0.093 N 
HETATM   25  C17 UNL     1      10.002  15.554  -9.851  1.00  0.00     0.273 C 
HETATM   26  C18 UNL     1       9.618  14.917 -11.194  1.00  0.00     0.037 C 
HETATM   27  C19 UNL     1      10.823  14.268 -11.835  1.00  0.00     0.012 C 
HETATM   28  C21 UNL     1      12.070  15.079 -11.781  1.00  0.00     0.037 C 
HETATM   29  C22 UNL     1      12.252  15.735 -10.411  1.00  0.00     0.273 C 
BRANCH  27  30
HETATM   30  C20 UNL     1      10.451  14.038 -13.305  1.00  0.00     0.168 C 
BRANCH  30  31
HETATM   31  O3  UNL     1      11.501  13.296 -13.847  1.00  0.00    -0.400 OA
ATOM     32  H3  UNL     1      12.296  13.724 -13.550  1.00  0.00     0.209 HD
ENDBRANCH  30  31
ENDBRANCH  27  30
ENDBRANCH  21  24
ENDBRANCH   1  18
TORSDOF 8
ENDMDL
MODEL 2
REMARK VINA RESULT: -7.555870423      2.729      5.405
REMARK  8 active torsions:
REMARK  status: ('A' for Active; 'I' for Inactive)
REMARK    1  A    between atoms: C1_2  and  C2_3 
REMARK    2  A    between atoms: C1_2  and  C8_9 
REMARK    3  A    between atoms: N1_14  and  C13_15 
REMARK    4  A    between atoms: C13_15  and  O2_16 
REMARK    5  A    between atoms: C13_15  and  N2_18 
REMARK    6  A    between atoms: C16_21  and  N3_22 
REMARK    7  A    between atoms: C19_25  and  C20_26 
REMARK    8  A    between atoms: C20_26  and  O3_27 
ROOT
HETATM    1  C13 UNL     1      13.227  18.658  -4.567  1.00  0.00     0.217 C 
ENDROOT
BRANCH   1   2
HETATM    2  N1  UNL     1      13.970  19.598  -5.296  1.00  0.00    -0.336 N 
HETATM    3  C8  UNL     1      13.354  20.166  -6.547  1.00  0.00     0.158 C 
HETATM    4  C9  UNL     1      13.784  21.593  -6.553  1.00  0.00     0.033 C 
HETATM    5  C10 UNL     1      13.968  22.159  -5.144  1.00  0.00     0.004 C 
HETATM    6  C11 UNL     1      15.081  21.478  -4.387  1.00  0.00     0.020 C 
HETATM    7  C12 UNL     1      15.280  20.122  -5.066  1.00  0.00     0.127 C 
BRANCH   3   8
HETATM    8  C1  UNL     1      13.961  19.427  -7.679  1.00  0.00     0.153 C 
HETATM    9  O1  UNL     1      15.181  19.581  -7.914  1.00  0.00    -0.295 OA
BRANCH   8  10
HETATM   10  C2  UNL     1      13.276  18.505  -8.584  1.00  0.00     0.057 C 
HETATM   11  C3  UNL     1      13.190  17.074  -8.102  1.00  0.00     0.012 C 
HETATM   12  C4  UNL     1      12.365  16.240  -9.070  1.00  0.00     0.001 C 
HETATM   13  C5  UNL     1      11.854  17.079 -10.213  1.00  0.00     0.000 C 
HETATM   14  C6  UNL     1      12.891  17.881 -10.917  1.00  0.00     0.001 C 
HETATM   15  C7  UNL     1      13.909  18.442  -9.957  1.00  0.00     0.012 C 
ENDBRANCH   8  10
ENDBRANCH   3   8
ENDBRANCH   1   2
BRANCH   1  16
HETATM   16  O2  UNL     1      13.954  17.901  -3.744  1.00  0.00    -0.332 OA
ATOM     17  H2  UNL     1      13.460  17.226  -3.295  1.00  0.00     0.220 HD
ENDBRANCH   1  16
BRANCH   1  18
HETATM   18  N2  UNL     1      11.884  18.348  -4.522  1.00  0.00    -0.347 N 
HETATM   19  C14 UNL     1      10.907  19.439  -4.280  1.00  0.00     0.128 C 
HETATM   20  C15 UNL     1       9.507  18.965  -4.469  1.00  0.00     0.055 C 
HETATM   21  C16 UNL     1       9.259  18.035  -5.602  1.00  0.00     0.226 C 
HETATM   22  C23 UNL     1      10.429  17.168  -5.948  1.00  0.00     0.055 C 
HETATM   23  C24 UNL     1      11.288  17.068  -4.667  1.00  0.00     0.128 C 
BRANCH  21  24
HETATM   24  N3  UNL     1       8.656  18.675  -6.716  1.00  0.00     0.093 N 
HETATM   25  C17 UNL     1       9.342  18.605  -7.961  1.00  0.00     0.273 C 
HETATM   26  C18 UNL     1       8.256  18.649  -9.046  1.00  0.00     0.037 C 
HETATM   27  C19 UNL     1       7.405  19.887  -8.891  1.00  0.00     0.012 C 
HETATM   28  C21 UNL     1       7.001  20.195  -7.492  1.00  0.00     0.037 C 
HETATM   29  C22 UNL     1       8.165  19.999  -6.519  1.00  0.00     0.273 C 
BRANCH  27  30
HETATM   30  C20 UNL     1       6.140  19.639  -9.722  1.00  0.00     0.168 C 
BRANCH  30  31
HETATM   31  O3  UNL     1       6.231  18.316 -10.159  1.00  0.00    -0.400 OA
ATOM     32  H3  UNL     1       6.724  17.859  -9.488  1.00  0.00     0.209 HD
ENDBRANCH  30  31
ENDBRANCH  27  30
ENDBRANCH  21  24
ENDBRANCH   1  18
TORSDOF 8
ENDMDL
MODEL 3
REMARK VINA RESULT: -7.418685055      1.691      3.755
REMARK  8 active torsions:
REMARK  status: ('A' for Active; 'I' for Inactive)
REMARK    1  A    between atoms: C1_2  and  C2_3 
REMARK    2  A    between atoms: C1_2  and  C8_9 
REMARK    3  A    between atoms: N1_14  and  C13_15 
REMARK    4  A    between atoms: C13_15  and  O2_16 
REMARK    5  A    between atoms: C13_15  and  N2_18 
REMARK    6  A    between atoms: C16_21  and  N3_22 
REMARK    7  A    between atoms: C19_25  and  C20_26 
REMARK    8  A    between atoms: C20_26  and  O3_27 
ROOT
HETATM    1  C13 UNL     1      14.310  18.498  -6.349  1.00  0.00     0.217 C 
ENDROOT
BRANCH   1   2
HETATM    2  N1  UNL     1      14.575  19.098  -5.110  1.00  0.00    -0.336 N 
HETATM    3  C8  UNL     1      15.065  18.218  -3.991  1.00  0.00     0.158 C 
HETATM    4  C9  UNL     1      16.058  19.061  -3.268  1.00  0.00     0.033 C 
HETATM    5  C10 UNL     1      16.772  20.051  -4.190  1.00  0.00     0.004 C 
HETATM    6  C11 UNL     1      15.832  21.074  -4.779  1.00  0.00     0.020 C 
HETATM    7  C12 UNL     1      14.436  20.458  -4.691  1.00  0.00     0.127 C 
BRANCH   3   8
HETATM    8  C1  UNL     1      13.886  17.942  -3.136  1.00  0.00     0.153 C 
HETATM    9  O1  UNL     1      13.978  18.136  -1.902  1.00  0.00    -0.295 OA
BRANCH   8  10
HETATM   10  C2  UNL     1      12.582  17.454  -3.582  1.00  0.00     0.057 C 
HETATM   11  C3  UNL     1      11.451  18.454  -3.483  1.00  0.00     0.012 C 
HETATM   12  C4  UNL     1      10.178  17.870  -4.076  1.00  0.00     0.001 C 
HETATM   13  C5  UNL     1      10.412  16.479  -4.608  1.00  0.00     0.000 C 
HETATM   14  C6  UNL     1      11.060  15.541  -3.652  1.00  0.00     0.001 C 
HETATM   15  C7  UNL     1      12.117  16.228  -2.826  1.00  0.00     0.012 C 
ENDBRANCH   8  10
ENDBRANCH   3   8
ENDBRANCH   1   2
BRANCH   1  16
HETATM   16  O2  UNL     1      15.163  17.528  -6.683  1.00  0.00    -0.332 OA
ATOM     17  H2  UNL     1      16.072  17.724  -6.493  1.00  0.00     0.220 HD
ENDBRANCH   1  16
BRANCH   1  18
HETATM   18  N2  UNL     1      13.341  18.703  -7.308  1.00  0.00    -0.347 N 
HETATM   19  C14 UNL     1      13.742  18.709  -8.738  1.00  0.00     0.128 C 
HETATM   20  C15 UNL     1      12.551  18.735  -9.635  1.00  0.00     0.055 C 
HETATM   21  C16 UNL     1      11.389  17.901  -9.233  1.00  0.00     0.226 C 
HETATM   22  C23 UNL     1      11.246  17.725  -7.753  1.00  0.00     0.055 C 
HETATM   23  C24 UNL     1      11.956  18.934  -7.102  1.00  0.00     0.128 C 
BRANCH  21  24
HETATM   24  N3  UNL     1      11.292  16.698  -9.977  1.00  0.00     0.093 N 
HETATM   25  C17 UNL     1      10.347  15.729  -9.535  1.00  0.00     0.273 C 
HETATM   26  C18 UNL     1       9.896  14.972 -10.793  1.00  0.00     0.037 C 
HETATM   27  C19 UNL     1      11.088  14.376 -11.506  1.00  0.00     0.012 C 
HETATM   28  C21 UNL     1      12.261  15.285 -11.625  1.00  0.00     0.037 C 
HETATM   29  C22 UNL     1      12.512  16.046 -10.322  1.00  0.00     0.273 C 
BRANCH  27  30
HETATM   30  C20 UNL     1      10.602  14.017 -12.916  1.00  0.00     0.168 C 
BRANCH  30  31
HETATM   31  O3  UNL     1      11.754  13.932 -13.700  1.00  0.00    -0.400 OA
ATOM     32  H3  UNL     1      11.840  13.014 -13.929  1.00  0.00     0.209 HD
ENDBRANCH  30  31
ENDBRANCH  27  30
ENDBRANCH  21  24
ENDBRANCH   1  18
TORSDOF 8
ENDMDL
MODEL 4
REMARK VINA RESULT: -7.408299624      4.081      8.430
REMARK  8 active torsions:
REMARK  status: ('A' for Active; 'I' for Inactive)
REMARK    1  A    between atoms: C1_2  and  C2_3 
REMARK    2  A    between atoms: C1_2  and  C8_9 
REMARK    3  A    between atoms: N1_14  and  C13_15 
REMARK    4  A    between atoms: C13_15  and  O2_16 
REMARK    5  A    between atoms: C13_15  and  N2_18 
REMARK    6  A    between atoms: C16_21  and  N3_22 
REMARK    7  A    between atoms: C19_25  and  C20_26 
REMARK    8  A    between atoms: C20_26  and  O3_27 
ROOT
HETATM    1  C13 UNL     1      10.232  18.309  -7.796  1.00  0.00     0.217 C 
ENDROOT
BRANCH   1   2
HETATM    2  N1  UNL     1      11.255  17.569  -8.406  1.00  0.00    -0.336 N 
HETATM    3  C8  UNL     1      11.171  17.341  -9.892  1.00  0.00     0.158 C 
HETATM    4  C9  UNL     1      12.583  17.430 -10.358  1.00  0.00     0.033 C 
HETATM    5  C10 UNL     1      13.427  18.380  -9.506  1.00  0.00     0.004 C 
HETATM    6  C11 UNL     1      13.574  17.904  -8.082  1.00  0.00     0.020 C 
HETATM    7  C12 UNL     1      12.409  16.944  -7.839  1.00  0.00     0.127 C 
BRANCH   3   8
HETATM    8  C1  UNL     1      10.641  15.968 -10.070  1.00  0.00     0.153 C 
HETATM    9  O1  UNL     1      10.408  15.276  -9.052  1.00  0.00    -0.295 OA
BRANCH   8  10
HETATM   10  C2  UNL     1      10.349  15.306 -11.339  1.00  0.00     0.057 C 
HETATM   11  C3  UNL     1       8.927  14.811 -11.495  1.00  0.00     0.012 C 
HETATM   12  C4  UNL     1       8.717  14.244 -12.890  1.00  0.00     0.001 C 
HETATM   13  C5  UNL     1       9.970  14.356 -13.720  1.00  0.00     0.000 C 
HETATM   14  C6  UNL     1      11.199  13.813 -13.080  1.00  0.00     0.001 C 
HETATM   15  C7  UNL     1      11.235  14.108 -11.602  1.00  0.00     0.012 C 
ENDBRANCH   8  10
ENDBRANCH   3   8
ENDBRANCH   1   2
BRANCH   1  16
HETATM   16  O2  UNL     1      10.627  19.039  -6.752  1.00  0.00    -0.332 OA
ATOM     17  H2  UNL     1      10.179  19.871  -6.664  1.00  0.00     0.220 HD
ENDBRANCH   1  16
BRANCH   1  18
HETATM   18  N2  UNL     1       8.883  18.441  -8.052  1.00  0.00    -0.347 N 
HETATM   19  C14 UNL     1       7.938  18.456  -6.907  1.00  0.00     0.128 C 
HETATM   20  C15 UNL     1       6.558  18.812  -7.348  1.00  0.00     0.055 C 
HETATM   21  C16 UNL     1       6.435  19.876  -8.378  1.00  0.00     0.226 C 
HETATM   22  C23 UNL     1       7.599  19.954  -9.318  1.00  0.00     0.055 C 
HETATM   23  C24 UNL     1       8.251  18.553  -9.318  1.00  0.00     0.128 C 
BRANCH  21  24
HETATM   24  N3  UNL     1       6.039  21.125  -7.834  1.00  0.00     0.093 N 
HETATM   25  C17 UNL     1       4.643  21.381  -7.732  1.00  0.00     0.273 C 
HETATM   26  C18 UNL     1       4.470  22.314  -6.525  1.00  0.00     0.037 C 
HETATM   27  C19 UNL     1       5.304  23.561  -6.697  1.00  0.00     0.012 C 
HETATM   28  C21 UNL     1       6.686  23.322  -7.199  1.00  0.00     0.037 C 
HETATM   29  C22 UNL     1       6.700  22.288  -8.326  1.00  0.00     0.273 C 
BRANCH  27  30
HETATM   30  C20 UNL     1       5.393  24.209  -5.310  1.00  0.00     0.168 C 
BRANCH  30  31
HETATM   31  O3  UNL     1       5.567  25.574  -5.543  1.00  0.00    -0.400 OA
ATOM     32  H3  UNL     1       6.020  25.908  -4.777  1.00  0.00     0.209 HD
ENDBRANCH  30  31
ENDBRANCH  27  30
ENDBRANCH  21  24
ENDBRANCH   1  18
TORSDOF 8
ENDMDL
MODEL 5
REMARK VINA RESULT: -7.336325611      8.054     10.009
REMARK  8 active torsions:
REMARK  status: ('A' for Active; 'I' for Inactive)
REMARK    1  A    between atoms: C1_2  and  C2_3 
REMARK    2  A    between atoms: C1_2  and  C8_9 
REMARK    3  A    between atoms: N1_14  and  C13_15 
REMARK    4  A    between atoms: C13_15  and  O2_16 
REMARK    5  A    between atoms: C13_15  and  N2_18 
REMARK    6  A    between atoms: C16_21  and  N3_22 
REMARK    7  A    between atoms: C19_25  and  C20_26 
REMARK    8  A    between atoms: C20_26  and  O3_27 
ROOT
HETATM    1  C13 UNL     1       3.604  21.317  -7.901  1.00  0.00     0.217 C 
ENDROOT
BRANCH   1   2
HETATM    2  N1  UNL     1       4.988  21.368  -7.683  1.00  0.00    -0.336 N 
HETATM    3  C8  UNL     1       5.894  21.281  -8.883  1.00  0.00     0.158 C 
HETATM    4  C9  UNL     1       7.012  22.214  -8.568  1.00  0.00     0.033 C 
HETATM    5  C10 UNL     1       6.572  23.387  -7.691  1.00  0.00     0.004 C 
HETATM    6  C11 UNL     1       6.110  22.946  -6.324  1.00  0.00     0.020 C 
HETATM    7  C12 UNL     1       5.731  21.471  -6.467  1.00  0.00     0.127 C 
BRANCH   3   8
HETATM    8  C1  UNL     1       6.374  19.880  -8.937  1.00  0.00     0.153 C 
HETATM    9  O1  UNL     1       5.693  19.033  -9.561  1.00  0.00    -0.295 OA
BRANCH   8  10
HETATM   10  C2  UNL     1       7.594  19.354  -8.326  1.00  0.00     0.057 C 
HETATM   11  C3  UNL     1       8.467  18.524  -9.242  1.00  0.00     0.012 C 
HETATM   12  C4  UNL     1       9.751  18.129  -8.530  1.00  0.00     0.001 C 
HETATM   13  C5  UNL     1       9.795  18.691  -7.132  1.00  0.00     0.000 C 
HETATM   14  C6  UNL     1       8.592  18.411  -6.303  1.00  0.00     0.001 C 
HETATM   15  C7  UNL     1       7.324  18.488  -7.115  1.00  0.00     0.012 C 
ENDBRANCH   8  10
ENDBRANCH   3   8
ENDBRANCH   1   2
BRANCH   1  16
HETATM   16  O2  UNL     1       2.995  20.277  -7.330  1.00  0.00    -0.332 OA
ATOM     17  H2  UNL     1       2.627  19.653  -7.944  1.00  0.00     0.220 HD
ENDBRANCH   1  16
BRANCH   1  18
HETATM   18  N2  UNL     1       2.728  22.127  -8.593  1.00  0.00    -0.347 N 
HETATM   19  C14 UNL     1       3.222  23.420  -9.128  1.00  0.00     0.128 C 
HETATM   20  C15 UNL     1       2.211  24.062 -10.016  1.00  0.00     0.055 C 
HETATM   21  C16 UNL     1       1.452  23.167 -10.927  1.00  0.00     0.226 C 
HETATM   22  C23 UNL     1       1.256  21.780 -10.398  1.00  0.00     0.055 C 
HETATM   23  C24 UNL     1       1.354  21.885  -8.859  1.00  0.00     0.128 C 
BRANCH  21  24
HETATM   24  N3  UNL     1       1.919  23.221 -12.265  1.00  0.00     0.093 N 
HETATM   25  C17 UNL     1       1.355  24.213 -13.116  1.00  0.00     0.273 C 
HETATM   26  C18 UNL     1       2.449  24.572 -14.132  1.00  0.00     0.037 C 
HETATM   27  C19 UNL     1       2.913  23.335 -14.867  1.00  0.00     0.012 C 
HETATM   28  C21 UNL     1       3.131  22.142 -14.003  1.00  0.00     0.037 C 
HETATM   29  C22 UNL     1       2.010  21.987 -12.973  1.00  0.00     0.273 C 
BRANCH  27  30
HETATM   30  C20 UNL     1       4.245  23.710 -15.529  1.00  0.00     0.168 C 
BRANCH  30  31
HETATM   31  O3  UNL     1       5.200  22.871 -14.952  1.00  0.00    -0.400 OA
ATOM     32  H3  UNL     1       5.875  22.760 -15.612  1.00  0.00     0.209 HD
ENDBRANCH  30  31
ENDBRANCH  27  30
ENDBRANCH  21  24
ENDBRANCH   1  18
TORSDOF 8
ENDMDL
