MODEL 1
REMARK VINA RESULT: -8.400885819      0.000      0.000
REMARK  5 active torsions:
REMARK  status: ('A' for Active; 'I' for Inactive)
REMARK    1  A    between atoms: C2_2  and  O1_3 
REMARK    2  A    between atoms: O1_3  and  N1_4 
REMARK    3  A    between atoms: C7_10  and  C8_11 
REMARK    4  A    between atoms: N2_15  and  S1_16 
REMARK    5  A    between atoms: C18_25  and  O4_26 
ROOT
HETATM    1  N1  UNL     1      10.703  15.346 -10.787  1.00  0.00    -0.274 N 
ATOM      2  H1  UNL     1       9.868  14.806 -10.558  1.00  0.00     0.193 HD
HETATM    3  C3  UNL     1      10.951  16.114  -9.843  1.00  0.00     0.019 C 
HETATM    4  C4  UNL     1      10.220  16.312  -8.524  1.00  0.00     0.061 C 
HETATM    5  C5  UNL     1      10.752  17.719  -8.565  1.00  0.00     0.010 C 
HETATM    6  C6  UNL     1      11.079  18.398  -7.316  1.00  0.00     0.006 C 
HETATM    7  C7  UNL     1      10.094  17.995  -6.252  1.00  0.00     0.000 C 
HETATM    8  C14 UNL     1      10.868  17.985  -4.962  1.00  0.00     0.007 C 
HETATM    9  C15 UNL     1      12.210  17.467  -5.392  1.00  0.00     0.012 C 
HETATM   10  C16 UNL     1      12.403  18.203  -6.722  1.00  0.00    -0.014 C 
HETATM   11  C17 UNL     1      13.052  19.539  -6.329  1.00  0.00     0.018 C 
HETATM   12  C18 UNL     1      13.422  17.463  -7.499  1.00  0.00     0.127 C 
HETATM   13  C19 UNL     1      12.930  16.497  -8.500  1.00  0.00     0.048 C 
HETATM   14  C20 UNL     1      11.883  17.148  -9.374  1.00  0.00     0.003 C 
HETATM   15  C21 UNL     1      12.422  18.131 -10.356  1.00  0.00     0.022 C 
ENDROOT
BRANCH   7  16
HETATM   16  C8  UNL     1       8.917  18.872  -6.098  1.00  0.00    -0.026 C 
HETATM   17  C9  UNL     1       9.139  20.074  -5.204  1.00  0.00     0.017 C 
HETATM   18  C10 UNL     1       7.646  18.222  -5.698  1.00  0.00     0.026 C 
HETATM   19  C11 UNL     1       6.703  18.279  -6.878  1.00  0.00     0.108 C 
HETATM   20  N2  UNL     1       7.517  18.667  -8.013  1.00  0.00    -0.210 NA
HETATM   21  C13 UNL     1       8.610  19.449  -7.488  1.00  0.00     0.116 C 
BRANCH  20  22
HETATM   22  S1  UNL     1       6.591  19.667  -9.073  1.00  0.00     0.207 S 
HETATM   23  C12 UNL     1       5.349  20.581  -8.199  1.00  0.00     0.180 C 
HETATM   24  O2  UNL     1       5.956  18.762 -10.090  1.00  0.00    -0.212 OA
HETATM   25  O3  UNL     1       7.464  20.625  -9.802  1.00  0.00    -0.212 OA
ENDBRANCH  20  22
ENDBRANCH   7  16
BRANCH  12  26
HETATM   26  O4  UNL     1      14.269  18.381  -8.164  1.00  0.00    -0.395 OA
ATOM     27  H4  UNL     1      15.165  18.066  -8.133  1.00  0.00     0.210 HD
ENDBRANCH  12  26
BRANCH   1  28
HETATM   28  O1  UNL     1      11.121  14.983 -11.955  1.00  0.00    -0.281 OA
BRANCH  28  29
HETATM   29  C2  UNL     1      10.596  13.962 -12.753  1.00  0.00     0.196 C 
HETATM   30  C1  UNL     1       9.150  14.234 -13.145  1.00  0.00     0.036 C 
ENDBRANCH  28  29
ENDBRANCH   1  28
TORSDOF 5
ENDMDL
MODEL 2
REMARK VINA RESULT: -8.255347750      1.870      2.241
REMARK  5 active torsions:
REMARK  status: ('A' for Active; 'I' for Inactive)
REMARK    1  A    between atoms: C2_2  and  O1_3 
REMARK    2  A    between atoms: O1_3  and  N1_4 
REMARK    3  A    between atoms: C7_10  and  C8_11 
REMARK    4  A    between atoms: N2_15  and  S1_16 
REMARK    5  A    between atoms: C18_25  and  O4_26 
ROOT
HETATM    1  N1  UNL     1      10.864  14.956 -11.146  1.00  0.00    -0.274 N 
ATOM      2  H1  UNL     1       9.947  14.513 -11.206  1.00  0.00     0.193 HD
HETATM    3  C3  UNL     1      10.832  15.814 -10.247  1.00  0.00     0.019 C 
HETATM    4  C4  UNL     1       9.693  16.226  -9.326  1.00  0.00     0.061 C 
HETATM    5  C5  UNL     1      10.361  17.573  -9.282  1.00  0.00     0.010 C 
HETATM    6  C6  UNL     1      10.279  18.374  -8.065  1.00  0.00     0.006 C 
HETATM    7  C7  UNL     1       8.931  18.179  -7.425  1.00  0.00     0.000 C 
HETATM    8  C14 UNL     1       9.168  18.268  -5.942  1.00  0.00     0.007 C 
HETATM    9  C15 UNL     1      10.504  17.602  -5.784  1.00  0.00     0.012 C 
HETATM   10  C16 UNL     1      11.258  18.154  -6.998  1.00  0.00    -0.014 C 
HETATM   11  C17 UNL     1      11.866  19.475  -6.503  1.00  0.00     0.018 C 
HETATM   12  C18 UNL     1      12.399  17.250  -7.264  1.00  0.00     0.127 C 
HETATM   13  C19 UNL     1      12.204  16.208  -8.290  1.00  0.00     0.048 C 
HETATM   14  C20 UNL     1      11.637  16.825  -9.549  1.00  0.00     0.003 C 
HETATM   15  C21 UNL     1      12.611  17.636 -10.332  1.00  0.00     0.022 C 
ENDROOT
BRANCH   7  16
HETATM   16  C8  UNL     1       7.891  19.154  -7.805  1.00  0.00    -0.026 C 
HETATM   17  C9  UNL     1       7.728  19.353  -9.297  1.00  0.00     0.017 C 
HETATM   18  C10 UNL     1       7.957  20.488  -7.161  1.00  0.00     0.026 C 
HETATM   19  C11 UNL     1       6.784  20.607  -6.215  1.00  0.00     0.108 C 
HETATM   20  N2  UNL     1       6.244  19.268  -6.089  1.00  0.00    -0.210 NA
HETATM   21  C13 UNL     1       6.550  18.582  -7.321  1.00  0.00     0.116 C 
BRANCH  20  22
HETATM   22  S1  UNL     1       4.528  19.350  -5.923  1.00  0.00     0.207 S 
HETATM   23  C12 UNL     1       4.049  20.109  -4.395  1.00  0.00     0.180 C 
HETATM   24  O2  UNL     1       4.010  17.941  -5.992  1.00  0.00    -0.212 OA
HETATM   25  O3  UNL     1       3.918  20.112  -7.045  1.00  0.00    -0.212 OA
ENDBRANCH  20  22
ENDBRANCH   7  16
BRANCH  12  26
HETATM   26  O4  UNL     1      13.532  18.014  -7.633  1.00  0.00    -0.395 OA
ATOM     27  H4  UNL     1      13.699  17.905  -8.562  1.00  0.00     0.210 HD
ENDBRANCH  12  26
BRANCH   1  28
HETATM   28  O1  UNL     1      11.638  14.423 -12.031  1.00  0.00    -0.281 OA
BRANCH  28  29
HETATM   29  C2  UNL     1      11.246  13.762 -13.199  1.00  0.00     0.196 C 
HETATM   30  C1  UNL     1       9.762  13.945 -13.486  1.00  0.00     0.036 C 
ENDBRANCH  28  29
ENDBRANCH   1  28
TORSDOF 5
ENDMDL
MODEL 3
REMARK VINA RESULT: -7.669679559      3.672      5.370
REMARK  5 active torsions:
REMARK  status: ('A' for Active; 'I' for Inactive)
REMARK    1  A    between atoms: C2_2  and  O1_3 
REMARK    2  A    between atoms: O1_3  and  N1_4 
REMARK    3  A    between atoms: C7_10  and  C8_11 
REMARK    4  A    between atoms: N2_15  and  S1_16 
REMARK    5  A    between atoms: C18_25  and  O4_26 
ROOT
HETATM    1  N1  UNL     1      12.914  16.679 -10.431  1.00  0.00    -0.274 N 
ATOM      2  H1  UNL     1      13.895  16.906 -10.264  1.00  0.00     0.193 HD
HETATM    3  C3  UNL     1      12.263  16.950  -9.408  1.00  0.00     0.019 C 
HETATM    4  C4  UNL     1      12.725  17.524  -8.077  1.00  0.00     0.061 C 
HETATM    5  C5  UNL     1      11.556  16.790  -7.479  1.00  0.00     0.010 C 
HETATM    6  C6  UNL     1      10.866  17.359  -6.326  1.00  0.00     0.006 C 
HETATM    7  C7  UNL     1      11.864  18.044  -5.432  1.00  0.00     0.000 C 
HETATM    8  C14 UNL     1      11.137  19.218  -4.835  1.00  0.00     0.007 C 
HETATM    9  C15 UNL     1      10.268  19.674  -5.970  1.00  0.00     0.012 C 
HETATM   10  C16 UNL     1       9.796  18.333  -6.543  1.00  0.00    -0.014 C 
HETATM   11  C17 UNL     1       8.540  17.990  -5.728  1.00  0.00     0.018 C 
HETATM   12  C18 UNL     1       9.334  18.577  -7.928  1.00  0.00     0.127 C 
HETATM   13  C19 UNL     1      10.298  18.310  -9.012  1.00  0.00     0.048 C 
HETATM   14  C20 UNL     1      10.913  16.941  -8.829  1.00  0.00     0.003 C 
HETATM   15  C21 UNL     1      10.001  15.806  -9.147  1.00  0.00     0.022 C 
ENDROOT
BRANCH   7  16
HETATM   16  C8  UNL     1      12.424  17.222  -4.342  1.00  0.00    -0.026 C 
HETATM   17  C9  UNL     1      13.926  17.041  -4.396  1.00  0.00     0.017 C 
HETATM   18  C10 UNL     1      11.802  15.894  -4.118  1.00  0.00     0.026 C 
HETATM   19  C11 UNL     1      11.060  15.944  -2.802  1.00  0.00     0.108 C 
HETATM   20  N2  UNL     1      10.997  17.346  -2.439  1.00  0.00    -0.210 NA
HETATM   21  C13 UNL     1      12.151  17.977  -3.032  1.00  0.00     0.116 C 
BRANCH  20  22
HETATM   22  S1  UNL     1      11.111  17.504  -0.724  1.00  0.00     0.207 S 
HETATM   23  C12 UNL     1      10.716  15.989   0.106  1.00  0.00     0.180 C 
HETATM   24  O2  UNL     1      10.153  18.588  -0.317  1.00  0.00    -0.212 OA
HETATM   25  O3  UNL     1      12.476  17.930  -0.316  1.00  0.00    -0.212 OA
ENDBRANCH  20  22
ENDBRANCH   7  16
BRANCH  12  26
HETATM   26  O4  UNL     1       8.174  17.808  -8.181  1.00  0.00    -0.395 OA
ATOM     27  H4  UNL     1       7.797  18.066  -9.015  1.00  0.00     0.210 HD
ENDBRANCH  12  26
BRANCH   1  28
HETATM   28  O1  UNL     1      12.798  16.213 -11.631  1.00  0.00    -0.281 OA
BRANCH  28  29
HETATM   29  C2  UNL     1      12.661  14.872 -12.000  1.00  0.00     0.196 C 
HETATM   30  C1  UNL     1      11.219  14.520 -12.336  1.00  0.00     0.036 C 
ENDBRANCH  28  29
ENDBRANCH   1  28
TORSDOF 5
ENDMDL
MODEL 4
REMARK VINA RESULT: -7.665830599      0.977      1.110
REMARK  5 active torsions:
REMARK  status: ('A' for Active; 'I' for Inactive)
REMARK    1  A    between atoms: C2_2  and  O1_3 
REMARK    2  A    between atoms: O1_3  and  N1_4 
REMARK    3  A    between atoms: C7_10  and  C8_11 
REMARK    4  A    between atoms: N2_15  and  S1_16 
REMARK    5  A    between atoms: C18_25  and  O4_26 
ROOT
HETATM    1  N1  UNL     1      11.554  16.224 -10.308  1.00  0.00    -0.274 N 
ATOM      2  H1  UNL     1      10.707  15.659 -10.375  1.00  0.00     0.193 HD
HETATM    3  C3  UNL     1      11.523  16.863  -9.243  1.00  0.00     0.019 C 
HETATM    4  C4  UNL     1      10.469  16.887  -8.146  1.00  0.00     0.061 C 
HETATM    5  C5  UNL     1      10.945  18.287  -7.869  1.00  0.00     0.010 C 
HETATM    6  C6  UNL     1      10.914  18.797  -6.502  1.00  0.00     0.006 C 
HETATM    7  C7  UNL     1       9.702  18.259  -5.792  1.00  0.00     0.000 C 
HETATM    8  C14 UNL     1      10.116  18.079  -4.357  1.00  0.00     0.007 C 
HETATM    9  C15 UNL     1      11.540  17.622  -4.484  1.00  0.00     0.012 C 
HETATM   10  C16 UNL     1      12.046  18.527  -5.614  1.00  0.00    -0.014 C 
HETATM   11  C17 UNL     1      12.525  19.800  -4.900  1.00  0.00     0.018 C 
HETATM   12  C18 UNL     1      13.256  17.894  -6.185  1.00  0.00     0.127 C 
HETATM   13  C19 UNL     1      13.072  17.067  -7.393  1.00  0.00     0.048 C 
HETATM   14  C20 UNL     1      12.265  17.827  -8.420  1.00  0.00     0.003 C 
HETATM   15  C21 UNL     1      13.007  18.929  -9.096  1.00  0.00     0.022 C 
ENDROOT
BRANCH   7  16
HETATM   16  C8  UNL     1       8.496  19.108  -5.841  1.00  0.00    -0.026 C 
HETATM   17  C9  UNL     1       8.569  20.356  -4.988  1.00  0.00     0.017 C 
HETATM   18  C10 UNL     1       7.197  18.441  -5.582  1.00  0.00     0.026 C 
HETATM   19  C11 UNL     1       6.421  18.415  -6.879  1.00  0.00     0.108 C 
HETATM   20  N2  UNL     1       7.371  18.773  -7.913  1.00  0.00    -0.210 NA
HETATM   21  C13 UNL     1       8.366  19.609  -7.287  1.00  0.00     0.116 C 
BRANCH  20  22
HETATM   22  S1  UNL     1       6.575  19.695  -9.137  1.00  0.00     0.207 S 
HETATM   23  C12 UNL     1       5.258  20.676  -8.470  1.00  0.00     0.180 C 
HETATM   24  O2  UNL     1       6.041  18.719 -10.147  1.00  0.00    -0.212 OA
HETATM   25  O3  UNL     1       7.532  20.593  -9.836  1.00  0.00    -0.212 OA
ENDBRANCH  20  22
ENDBRANCH   7  16
BRANCH  12  26
HETATM   26  O4  UNL     1      14.213  18.891  -6.484  1.00  0.00    -0.395 OA
ATOM     27  H4  UNL     1      14.113  19.166  -7.389  1.00  0.00     0.210 HD
ENDBRANCH  12  26
BRANCH   1  28
HETATM   28  O1  UNL     1      12.272  16.017 -11.362  1.00  0.00    -0.281 OA
BRANCH  28  29
HETATM   29  C2  UNL     1      12.306  14.854 -12.138  1.00  0.00     0.196 C 
HETATM   30  C1  UNL     1      10.922  14.244 -12.310  1.00  0.00     0.036 C 
ENDBRANCH  28  29
ENDBRANCH   1  28
TORSDOF 5
ENDMDL
MODEL 5
REMARK VINA RESULT: -7.617807661      3.429      5.973
REMARK  5 active torsions:
REMARK  status: ('A' for Active; 'I' for Inactive)
REMARK    1  A    between atoms: C2_2  and  O1_3 
REMARK    2  A    between atoms: O1_3  and  N1_4 
REMARK    3  A    between atoms: C7_10  and  C8_11 
REMARK    4  A    between atoms: N2_15  and  S1_16 
REMARK    5  A    between atoms: C18_25  and  O4_26 
ROOT
HETATM    1  N1  UNL     1      12.768  16.567 -10.727  1.00  0.00    -0.274 N 
ATOM      2  H1  UNL     1      13.744  16.857 -10.657  1.00  0.00     0.193 HD
HETATM    3  C3  UNL     1      12.183  16.888  -9.679  1.00  0.00     0.019 C 
HETATM    4  C4  UNL     1      12.711  17.591  -8.437  1.00  0.00     0.061 C 
HETATM    5  C5  UNL     1      11.634  16.849  -7.692  1.00  0.00     0.010 C 
HETATM    6  C6  UNL     1      11.004  17.474  -6.534  1.00  0.00     0.006 C 
HETATM    7  C7  UNL     1      12.026  18.280  -5.779  1.00  0.00     0.000 C 
HETATM    8  C14 UNL     1      11.281  19.461  -5.218  1.00  0.00     0.007 C 
HETATM    9  C15 UNL     1      10.303  19.778  -6.312  1.00  0.00     0.012 C 
HETATM   10  C16 UNL     1       9.866  18.373  -6.739  1.00  0.00    -0.014 C 
HETATM   11  C17 UNL     1       8.697  18.034  -5.801  1.00  0.00     0.018 C 
HETATM   12  C18 UNL     1       9.287  18.479  -8.097  1.00  0.00     0.127 C 
HETATM   13  C19 UNL     1      10.179  18.174  -9.232  1.00  0.00     0.048 C 
HETATM   14  C20 UNL     1      10.883  16.857  -8.994  1.00  0.00     0.003 C 
HETATM   15  C21 UNL     1      10.016  15.656  -9.149  1.00  0.00     0.022 C 
ENDROOT
BRANCH   7  16
HETATM   16  C8  UNL     1      12.713  17.579  -4.678  1.00  0.00    -0.026 C 
HETATM   17  C9  UNL     1      12.208  16.176  -4.411  1.00  0.00     0.017 C 
HETATM   18  C10 UNL     1      12.805  18.295  -3.382  1.00  0.00     0.026 C 
HETATM   19  C11 UNL     1      14.253  18.669  -3.160  1.00  0.00     0.108 C 
HETATM   20  N2  UNL     1      14.915  18.451  -4.431  1.00  0.00    -0.210 NA
HETATM   21  C13 UNL     1      14.179  17.410  -5.106  1.00  0.00     0.116 C 
BRANCH  20  22
HETATM   22  S1  UNL     1      16.524  17.889  -4.155  1.00  0.00     0.207 S 
HETATM   23  C12 UNL     1      16.878  17.724  -2.427  1.00  0.00     0.180 C 
HETATM   24  O2  UNL     1      17.453  18.887  -4.786  1.00  0.00    -0.212 OA
HETATM   25  O3  UNL     1      16.752  16.577  -4.817  1.00  0.00    -0.212 OA
ENDBRANCH  20  22
ENDBRANCH   7  16
BRANCH  12  26
HETATM   26  O4  UNL     1       8.156  17.634  -8.196  1.00  0.00    -0.395 OA
ATOM     27  H4  UNL     1       7.979  17.240  -7.349  1.00  0.00     0.210 HD
ENDBRANCH  12  26
BRANCH   1  28
HETATM   28  O1  UNL     1      12.588  16.001 -11.873  1.00  0.00    -0.281 OA
BRANCH  28  29
HETATM   29  C2  UNL     1      12.282  14.656 -12.105  1.00  0.00     0.196 C 
HETATM   30  C1  UNL     1      10.827  14.465 -12.511  1.00  0.00     0.036 C 
ENDBRANCH  28  29
ENDBRANCH   1  28
TORSDOF 5
ENDMDL
