MODEL 1
REMARK VINA RESULT: -8.627163057      0.000      0.000
REMARK  14 active torsions:
REMARK  status: ('A' for Active; 'I' for Inactive)
REMARK       I    between atoms: N1_2  and  C2_4 
REMARK    1  A    between atoms: C2_4  and  C3_6 
REMARK    2  A    between atoms: C5_8  and  N2_9 
REMARK    3  A    between atoms: C6_13  and  C7_14 
REMARK       I    between atoms: C7_14  and  N5_16 
REMARK    4  A    between atoms: N5_16  and  N6_18 
REMARK    5  A    between atoms: N6_18  and  C8_19 
REMARK    6  A    between atoms: C9_20  and  O3_21 
REMARK    7  A    between atoms: C10_23  and  N7_24 
REMARK    8  A    between atoms: C12_29  and  N8_30 
REMARK    9  A    between atoms: C13_32  and  N10_35 
REMARK   10  A    between atoms: N10_35  and  O4_37 
REMARK   11  A    between atoms: O4_37  and  C15_38 
REMARK   12  A    between atoms: C17_43  and  C18_44 
REMARK   13  A    between atoms: C18_44  and  N12_45 
REMARK   14  A    between atoms: C18_44  and  O5_49 
ROOT
HETATM    1  N8  UNL     1      25.552 -13.915  23.640  1.00  0.00    -0.361 N 
ATOM      2  H8  UNL     1      26.347 -13.431  23.222  1.00  0.00     0.162 HD
HETATM    3  C13 UNL     1      25.203 -14.847  22.923  1.00  0.00     0.204 C 
HETATM    4  C14 UNL     1      25.926 -15.091  21.690  1.00  0.00     0.138 C 
HETATM    5  N9  UNL     1      26.522 -15.285  20.709  1.00  0.00    -0.188 NA
ENDROOT
BRANCH   3   6
HETATM    6  N10 UNL     1      24.119 -15.706  23.203  1.00  0.00    -0.239 N 
ATOM      7  H10 UNL     1      24.298 -16.664  23.503  1.00  0.00     0.197 HD
BRANCH   6   8
HETATM    8  O4  UNL     1      22.858 -15.276  23.079  1.00  0.00    -0.243 OA
BRANCH   8   9
HETATM    9  C15 UNL     1      22.194 -15.802  21.998  1.00  0.00     0.376 A 
HETATM   10  C16 UNL     1      21.027 -15.031  21.408  1.00  0.00     0.299 A 
HETATM   11  N11 UNL     1      22.345 -15.040  20.776  1.00  0.00    -0.041 N 
ATOM     12 2H11 UNL     1      22.987 -14.302  20.486  1.00  0.00     0.280 HD
ATOM     13 1H11 UNL     1      22.671 -15.276  19.839  1.00  0.00     0.280 HD
ENDBRANCH   8   9
ENDBRANCH   6   8
ENDBRANCH   3   6
BRANCH   1  14
HETATM   14  C12 UNL     1      25.203 -13.303  24.854  1.00  0.00     0.096 C 
HETATM   15  C11 UNL     1      25.370 -14.189  26.053  1.00  0.00     0.061 C 
HETATM   16  C10 UNL     1      24.632 -13.828  27.276  1.00  0.00     0.215 C 
HETATM   17  C9  UNL     1      24.117 -12.418  27.308  1.00  0.00     0.170 C 
HETATM   18  C8  UNL     1      23.343 -12.093  26.072  1.00  0.00     0.140 C 
HETATM   19  C17 UNL     1      23.871 -12.648  24.795  1.00  0.00     0.088 C 
BRANCH  16  20
HETATM   20  N7  UNL     1      23.479 -14.688  27.547  1.00  0.00    -0.072 N 
ATOM     21  H73 UNL     1      22.780 -14.252  28.148  1.00  0.00     0.274 HD
ATOM     22  H72 UNL     1      22.877 -14.827  26.735  1.00  0.00     0.274 HD
ATOM     23  H71 UNL     1      23.856 -15.557  27.926  1.00  0.00     0.274 HD
ENDBRANCH  16  20
BRANCH  17  24
HETATM   24  O3  UNL     1      25.111 -11.500  27.627  1.00  0.00    -0.392 OA
ATOM     25  H3  UNL     1      25.929 -11.625  27.161  1.00  0.00     0.210 HD
ENDBRANCH  17  24
BRANCH  18  26
HETATM   26  N6  UNL     1      23.100 -10.646  25.973  1.00  0.00    -0.130 NA
BRANCH  26  27
HETATM   27  N5  UNL     1      21.816 -10.378  26.416  1.00  0.00    -0.268 N 
HETATM   28  C7  UNL     1      20.778 -10.126  25.516  1.00  0.00     0.288 C 
HETATM   29  O2  UNL     1      20.977 -10.135  24.285  1.00  0.00    -0.264 OA
ATOM     30  H5  UNL     1      21.624 -10.365  27.418  1.00  0.00     0.185 HD
BRANCH  28  31
HETATM   31  C6  UNL     1      19.440  -9.849  26.025  1.00  0.00     0.158 A 
HETATM   32  N4  UNL     1      19.020  -9.996  27.317  1.00  0.00    -0.275 N 
HETATM   33  N3  UNL     1      17.748  -9.651  27.393  1.00  0.00    -0.012 NA
ATOM     34  H4  UNL     1      19.596 -10.320  28.095  1.00  0.00     0.184 HD
HETATM   35  N2  UNL     1      17.288  -9.276  26.205  1.00  0.00    -0.206 N 
HETATM   36  C19 UNL     1      18.331  -9.395  25.355  1.00  0.00     0.171 A 
HETATM   37  N13 UNL     1      18.265  -9.091  23.966  1.00  0.00    -0.078 NA
BRANCH  35  38
HETATM   38  C5  UNL     1      15.960  -8.849  25.940  1.00  0.00     0.150 A 
HETATM   39  C4  UNL     1      15.569  -7.610  25.485  1.00  0.00     0.097 A 
HETATM   40  C3  UNL     1      14.200  -7.591  25.350  1.00  0.00     0.170 A 
HETATM   41  O6  UNL     1      13.799  -8.791  25.717  1.00  0.00    -0.231 OA
HETATM   42  N14 UNL     1      14.817  -9.540  26.065  1.00  0.00    -0.243 N 
ATOM     43  H14 UNL     1      14.749 -10.506  26.385  1.00  0.00     0.196 HD
BRANCH  40  44
HETATM   44  C2  UNL     1      13.367  -6.471  24.891  1.00  0.00     0.277 C 
HETATM   45  N1  UNL     1      12.185  -6.801  24.159  1.00  0.00    -0.360 N 
HETATM   46  C1  UNL     1      11.340  -5.734  23.691  1.00  0.00     0.149 C 
ATOM     47  H1  UNL     1      11.945  -7.774  23.972  1.00  0.00     0.162 HD
HETATM   48  O1  UNL     1      13.642  -5.285  25.110  1.00  0.00    -0.265 OA
ENDBRANCH  40  44
ENDBRANCH  35  38
ENDBRANCH  28  31
ENDBRANCH  26  27
ENDBRANCH  18  26
BRANCH  19  49
HETATM   49  C18 UNL     1      23.801 -11.542  23.758  1.00  0.00     0.324 C 
BRANCH  49  50
HETATM   50  N12 UNL     1      22.949 -12.053  22.669  1.00  0.00    -0.053 N 
ATOM     51 3H12 UNL     1      23.037 -11.524  21.802  1.00  0.00     0.277 HD
ATOM     52 2H12 UNL     1      23.260 -12.952  22.299  1.00  0.00     0.277 HD
ATOM     53 1H12 UNL     1      21.999 -12.073  23.038  1.00  0.00     0.277 HD
ENDBRANCH  49  50
BRANCH  49  54
HETATM   54  O5  UNL     1      24.989 -11.204  23.177  1.00  0.00    -0.369 OA
ATOM     55  H5  UNL     1      25.558 -10.653  23.702  1.00  0.00     0.212 HD
ENDBRANCH  49  54
ENDBRANCH  19  49
ENDBRANCH   1  14
TORSDOF 14
ENDMDL
MODEL 2
REMARK VINA RESULT: -8.571299666      2.229      4.419
REMARK  14 active torsions:
REMARK  status: ('A' for Active; 'I' for Inactive)
REMARK       I    between atoms: N1_2  and  C2_4 
REMARK    1  A    between atoms: C2_4  and  C3_6 
REMARK    2  A    between atoms: C5_8  and  N2_9 
REMARK    3  A    between atoms: C6_13  and  C7_14 
REMARK       I    between atoms: C7_14  and  N5_16 
REMARK    4  A    between atoms: N5_16  and  N6_18 
REMARK    5  A    between atoms: N6_18  and  C8_19 
REMARK    6  A    between atoms: C9_20  and  O3_21 
REMARK    7  A    between atoms: C10_23  and  N7_24 
REMARK    8  A    between atoms: C12_29  and  N8_30 
REMARK    9  A    between atoms: C13_32  and  N10_35 
REMARK   10  A    between atoms: N10_35  and  O4_37 
REMARK   11  A    between atoms: O4_37  and  C15_38 
REMARK   12  A    between atoms: C17_43  and  C18_44 
REMARK   13  A    between atoms: C18_44  and  N12_45 
REMARK   14  A    between atoms: C18_44  and  O5_49 
ROOT
HETATM    1  N8  UNL     1      22.852 -12.508  23.630  1.00  0.00    -0.361 N 
ATOM      2  H8  UNL     1      23.459 -11.694  23.541  1.00  0.00     0.162 HD
HETATM    3  C13 UNL     1      23.527 -13.532  23.680  1.00  0.00     0.204 C 
HETATM    4  C14 UNL     1      24.971 -13.422  23.612  1.00  0.00     0.138 C 
HETATM    5  N9  UNL     1      26.130 -13.321  23.568  1.00  0.00    -0.188 NA
ENDROOT
BRANCH   3   6
HETATM    6  N10 UNL     1      22.994 -14.834  23.783  1.00  0.00    -0.239 N 
ATOM      7  H10 UNL     1      21.983 -14.964  23.827  1.00  0.00     0.197 HD
BRANCH   6   8
HETATM    8  O4  UNL     1      23.801 -15.900  23.824  1.00  0.00    -0.243 OA
BRANCH   8   9
HETATM    9  C15 UNL     1      23.584 -16.722  24.902  1.00  0.00     0.376 A 
HETATM   10  C16 UNL     1      24.747 -17.047  25.822  1.00  0.00     0.299 A 
HETATM   11  N11 UNL     1      23.722 -16.069  26.187  1.00  0.00    -0.041 N 
ATOM     12 2H11 UNL     1      23.759 -15.091  26.476  1.00  0.00     0.280 HD
ATOM     13 1H11 UNL     1      23.105 -15.970  26.993  1.00  0.00     0.280 HD
ENDBRANCH   8   9
ENDBRANCH   6   8
ENDBRANCH   3   6
BRANCH   1  14
HETATM   14  C12 UNL     1      21.508 -12.104  23.655  1.00  0.00     0.096 C 
HETATM   15  C11 UNL     1      20.811 -12.224  22.332  1.00  0.00     0.061 C 
HETATM   16  C10 UNL     1      19.584 -11.432  22.134  1.00  0.00     0.215 C 
HETATM   17  C9  UNL     1      18.961 -10.909  23.395  1.00  0.00     0.170 C 
HETATM   18  C8  UNL     1      19.961 -10.187  24.238  1.00  0.00     0.140 C 
HETATM   19  C17 UNL     1      21.330 -10.773  24.289  1.00  0.00     0.088 C 
BRANCH  16  20
HETATM   20  N7  UNL     1      19.764 -10.273  21.258  1.00  0.00    -0.072 N 
ATOM     21  H73 UNL     1      19.256 -10.348  20.377  1.00  0.00     0.274 HD
ATOM     22  H72 UNL     1      19.299  -9.431  21.599  1.00  0.00     0.274 HD
ATOM     23  H71 UNL     1      20.771 -10.161  21.139  1.00  0.00     0.274 HD
ENDBRANCH  16  20
BRANCH  17  24
HETATM   24  O3  UNL     1      18.233 -11.883  24.068  1.00  0.00    -0.392 OA
ATOM     25  H3  UNL     1      17.422 -11.574  24.455  1.00  0.00     0.210 HD
ENDBRANCH  17  24
BRANCH  18  26
HETATM   26  N6  UNL     1      19.428  -9.941  25.586  1.00  0.00    -0.130 NA
BRANCH  26  27
HETATM   27  N5  UNL     1      18.181  -9.350  25.472  1.00  0.00    -0.268 N 
HETATM   28  C7  UNL     1      17.052  -9.924  26.059  1.00  0.00     0.288 C 
HETATM   29  O2  UNL     1      17.133 -10.987  26.706  1.00  0.00    -0.264 OA
ATOM     30  H5  UNL     1      18.086  -8.480  24.949  1.00  0.00     0.185 HD
BRANCH  28  31
HETATM   31  C6  UNL     1      15.758  -9.268  25.914  1.00  0.00     0.158 A 
HETATM   32  N4  UNL     1      14.537  -9.817  26.191  1.00  0.00    -0.275 N 
HETATM   33  N3  UNL     1      13.601  -8.923  25.935  1.00  0.00    -0.012 NA
ATOM     34  H4  UNL     1      14.377 -10.763  26.538  1.00  0.00     0.184 HD
HETATM   35  N2  UNL     1      14.136  -7.790  25.495  1.00  0.00    -0.206 N 
HETATM   36  C19 UNL     1      15.470  -7.997  25.481  1.00  0.00     0.171 A 
HETATM   37  N13 UNL     1      16.424  -7.023  25.070  1.00  0.00    -0.078 NA
BRANCH  35  38
HETATM   38  C5  UNL     1      13.406  -6.629  25.127  1.00  0.00     0.150 A 
HETATM   39  C4  UNL     1      12.103  -6.583  24.682  1.00  0.00     0.097 A 
HETATM   40  C3  UNL     1      11.758  -5.275  24.433  1.00  0.00     0.170 A 
HETATM   41  O6  UNL     1      12.834  -4.572  24.725  1.00  0.00    -0.231 OA
HETATM   42  N14 UNL     1      13.806  -5.348  25.133  1.00  0.00    -0.243 N 
ATOM     43  H14 UNL     1      14.733  -5.027  25.413  1.00  0.00     0.196 HD
BRANCH  40  44
HETATM   44  C2  UNL     1      10.465  -4.773  23.947  1.00  0.00     0.277 C 
HETATM   45  N1  UNL     1       9.312  -5.098  24.726  1.00  0.00    -0.360 N 
HETATM   46  C1  UNL     1       8.025  -4.627  24.287  1.00  0.00     0.149 C 
ATOM     47  H1  UNL     1       9.400  -5.653  25.577  1.00  0.00     0.162 HD
HETATM   48  O1  UNL     1      10.341  -4.099  22.918  1.00  0.00    -0.265 OA
ENDBRANCH  40  44
ENDBRANCH  35  38
ENDBRANCH  28  31
ENDBRANCH  26  27
ENDBRANCH  18  26
BRANCH  19  49
HETATM   49  C18 UNL     1      21.782 -10.741  25.738  1.00  0.00     0.324 C 
BRANCH  49  50
HETATM   50  N12 UNL     1      23.139 -10.168  25.732  1.00  0.00    -0.053 N 
ATOM     51 3H12 UNL     1      23.694 -10.445  24.922  1.00  0.00     0.277 HD
ATOM     52 2H12 UNL     1      23.154  -9.163  25.556  1.00  0.00     0.277 HD
ATOM     53 1H12 UNL     1      23.562 -10.430  26.622  1.00  0.00     0.277 HD
ENDBRANCH  49  50
BRANCH  49  54
HETATM   54  O5  UNL     1      21.892 -11.958  26.345  1.00  0.00    -0.369 OA
ATOM     55  H5  UNL     1      22.760 -12.182  26.659  1.00  0.00     0.212 HD
ENDBRANCH  49  54
ENDBRANCH  19  49
ENDBRANCH   1  14
TORSDOF 14
ENDMDL
MODEL 3
REMARK VINA RESULT: -8.550847107      1.519      2.075
REMARK  14 active torsions:
REMARK  status: ('A' for Active; 'I' for Inactive)
REMARK       I    between atoms: N1_2  and  C2_4 
REMARK    1  A    between atoms: C2_4  and  C3_6 
REMARK    2  A    between atoms: C5_8  and  N2_9 
REMARK    3  A    between atoms: C6_13  and  C7_14 
REMARK       I    between atoms: C7_14  and  N5_16 
REMARK    4  A    between atoms: N5_16  and  N6_18 
REMARK    5  A    between atoms: N6_18  and  C8_19 
REMARK    6  A    between atoms: C9_20  and  O3_21 
REMARK    7  A    between atoms: C10_23  and  N7_24 
REMARK    8  A    between atoms: C12_29  and  N8_30 
REMARK    9  A    between atoms: C13_32  and  N10_35 
REMARK   10  A    between atoms: N10_35  and  O4_37 
REMARK   11  A    between atoms: O4_37  and  C15_38 
REMARK   12  A    between atoms: C17_43  and  C18_44 
REMARK   13  A    between atoms: C18_44  and  N12_45 
REMARK   14  A    between atoms: C18_44  and  O5_49 
ROOT
HETATM    1  N8  UNL     1      25.705 -13.646  23.497  1.00  0.00    -0.361 N 
ATOM      2  H8  UNL     1      26.334 -13.112  22.897  1.00  0.00     0.162 HD
HETATM    3  C13 UNL     1      25.838 -14.847  23.281  1.00  0.00     0.204 C 
HETATM    4  C14 UNL     1      26.798 -15.278  22.283  1.00  0.00     0.138 C 
HETATM    5  N9  UNL     1      27.581 -15.611  21.489  1.00  0.00    -0.188 NA
ENDROOT
BRANCH   3   6
HETATM    6  N10 UNL     1      25.101 -15.860  23.930  1.00  0.00    -0.239 N 
ATOM      7  H10 UNL     1      24.095 -15.932  23.773  1.00  0.00     0.197 HD
BRANCH   6   8
HETATM    8  O4  UNL     1      25.707 -16.727  24.749  1.00  0.00    -0.243 OA
BRANCH   8   9
HETATM    9  C15 UNL     1      24.873 -17.284  25.687  1.00  0.00     0.376 A 
HETATM   10  C16 UNL     1      24.861 -16.706  27.091  1.00  0.00     0.299 A 
HETATM   11  N11 UNL     1      23.803 -16.412  26.125  1.00  0.00    -0.041 N 
ATOM     12 2H11 UNL     1      23.412 -15.544  25.758  1.00  0.00     0.280 HD
ATOM     13 1H11 UNL     1      22.788 -16.506  26.148  1.00  0.00     0.280 HD
ENDBRANCH   8   9
ENDBRANCH   6   8
ENDBRANCH   3   6
BRANCH   1  14
HETATM   14  C12 UNL     1      24.962 -12.775  24.308  1.00  0.00     0.096 C 
HETATM   15  C11 UNL     1      25.156 -12.998  25.779  1.00  0.00     0.061 C 
HETATM   16  C10 UNL     1      24.123 -12.475  26.690  1.00  0.00     0.215 C 
HETATM   17  C9  UNL     1      23.210 -11.449  26.084  1.00  0.00     0.170 C 
HETATM   18  C8  UNL     1      22.625 -11.932  24.797  1.00  0.00     0.140 C 
HETATM   19  C17 UNL     1      23.532 -12.716  23.912  1.00  0.00     0.088 C 
BRANCH  16  20
HETATM   20  N7  UNL     1      23.255 -13.508  27.256  1.00  0.00    -0.072 N 
ATOM     21  H73 UNL     1      22.366 -13.147  27.601  1.00  0.00     0.274 HD
ATOM     22  H72 UNL     1      22.869 -14.142  26.556  1.00  0.00     0.274 HD
ATOM     23  H71 UNL     1      23.807 -13.981  27.972  1.00  0.00     0.274 HD
ENDBRANCH  16  20
BRANCH  17  24
HETATM   24  O3  UNL     1      23.798 -10.192  26.016  1.00  0.00    -0.392 OA
ATOM     25  H3  UNL     1      23.699  -9.665  26.800  1.00  0.00     0.210 HD
ENDBRANCH  17  24
BRANCH  18  26
HETATM   26  N6  UNL     1      21.980 -10.830  24.069  1.00  0.00    -0.130 NA
BRANCH  26  27
HETATM   27  N5  UNL     1      20.683 -10.687  24.535  1.00  0.00    -0.268 N 
HETATM   28  C7  UNL     1      20.371  -9.758  25.529  1.00  0.00     0.288 C 
HETATM   29  O2  UNL     1      21.250  -9.027  26.027  1.00  0.00    -0.264 OA
ATOM     30  H5  UNL     1      19.944 -11.271  24.145  1.00  0.00     0.185 HD
BRANCH  28  31
HETATM   31  C6  UNL     1      18.993  -9.640  25.990  1.00  0.00     0.158 A 
HETATM   32  N4  UNL     1      18.502 -10.072  27.190  1.00  0.00    -0.275 N 
HETATM   33  N3  UNL     1      17.212  -9.793  27.248  1.00  0.00    -0.012 NA
ATOM     34  H4  UNL     1      19.043 -10.534  27.922  1.00  0.00     0.184 HD
HETATM   35  N2  UNL     1      16.809  -9.189  26.135  1.00  0.00    -0.206 N 
HETATM   36  C19 UNL     1      17.906  -9.091  25.354  1.00  0.00     0.171 A 
HETATM   37  N13 UNL     1      17.911  -8.502  24.059  1.00  0.00    -0.078 NA
BRANCH  35  38
HETATM   38  C5  UNL     1      15.481  -8.760  25.874  1.00  0.00     0.150 A 
HETATM   39  C4  UNL     1      15.096  -7.549  25.345  1.00  0.00     0.097 A 
HETATM   40  C3  UNL     1      13.724  -7.518  25.241  1.00  0.00     0.170 A 
HETATM   41  O6  UNL     1      13.316  -8.684  25.699  1.00  0.00    -0.231 OA
HETATM   42  N14 UNL     1      14.331  -9.423  26.073  1.00  0.00    -0.243 N 
ATOM     43  H14 UNL     1      14.257 -10.364  26.459  1.00  0.00     0.196 HD
BRANCH  40  44
HETATM   44  C2  UNL     1      12.896  -6.418  24.728  1.00  0.00     0.277 C 
HETATM   45  N1  UNL     1      11.863  -6.764  23.804  1.00  0.00    -0.360 N 
HETATM   46  C1  UNL     1      11.028  -5.717  23.276  1.00  0.00     0.149 C 
ATOM     47  H1  UNL     1      11.720  -7.734  23.524  1.00  0.00     0.162 HD
HETATM   48  O1  UNL     1      13.055  -5.236  25.057  1.00  0.00    -0.265 OA
ENDBRANCH  40  44
ENDBRANCH  35  38
ENDBRANCH  28  31
ENDBRANCH  26  27
ENDBRANCH  18  26
BRANCH  19  49
HETATM   49  C18 UNL     1      23.330 -12.210  22.495  1.00  0.00     0.324 C 
BRANCH  49  50
HETATM   50  N12 UNL     1      22.859 -13.363  21.709  1.00  0.00    -0.053 N 
ATOM     51 3H12 UNL     1      23.272 -14.249  22.001  1.00  0.00     0.277 HD
ATOM     52 2H12 UNL     1      21.887 -13.611  21.895  1.00  0.00     0.277 HD
ATOM     53 1H12 UNL     1      23.039 -13.134  20.732  1.00  0.00     0.277 HD
ENDBRANCH  49  50
BRANCH  49  54
HETATM   54  O5  UNL     1      24.455 -11.762  21.866  1.00  0.00    -0.369 OA
ATOM     55  H5  UNL     1      24.337 -11.485  20.964  1.00  0.00     0.212 HD
ENDBRANCH  49  54
ENDBRANCH  19  49
ENDBRANCH   1  14
TORSDOF 14
ENDMDL
MODEL 4
REMARK VINA RESULT: -8.459493585      0.923      1.096
REMARK  14 active torsions:
REMARK  status: ('A' for Active; 'I' for Inactive)
REMARK       I    between atoms: N1_2  and  C2_4 
REMARK    1  A    between atoms: C2_4  and  C3_6 
REMARK    2  A    between atoms: C5_8  and  N2_9 
REMARK    3  A    between atoms: C6_13  and  C7_14 
REMARK       I    between atoms: C7_14  and  N5_16 
REMARK    4  A    between atoms: N5_16  and  N6_18 
REMARK    5  A    between atoms: N6_18  and  C8_19 
REMARK    6  A    between atoms: C9_20  and  O3_21 
REMARK    7  A    between atoms: C10_23  and  N7_24 
REMARK    8  A    between atoms: C12_29  and  N8_30 
REMARK    9  A    between atoms: C13_32  and  N10_35 
REMARK   10  A    between atoms: N10_35  and  O4_37 
REMARK   11  A    between atoms: O4_37  and  C15_38 
REMARK   12  A    between atoms: C17_43  and  C18_44 
REMARK   13  A    between atoms: C18_44  and  N12_45 
REMARK   14  A    between atoms: C18_44  and  O5_49 
ROOT
HETATM    1  N8  UNL     1      25.580 -13.871  23.676  1.00  0.00    -0.361 N 
ATOM      2  H8  UNL     1      26.435 -13.452  23.312  1.00  0.00     0.162 HD
HETATM    3  C13 UNL     1      25.192 -14.758  22.921  1.00  0.00     0.204 C 
HETATM    4  C14 UNL     1      25.959 -15.043  21.724  1.00  0.00     0.138 C 
HETATM    5  N9  UNL     1      26.589 -15.270  20.772  1.00  0.00    -0.188 NA
ENDROOT
BRANCH   3   6
HETATM    6  N10 UNL     1      24.025 -15.524  23.124  1.00  0.00    -0.239 N 
ATOM      7  H10 UNL     1      23.257 -15.140  23.675  1.00  0.00     0.197 HD
BRANCH   6   8
HETATM    8  O4  UNL     1      23.915 -16.751  22.601  1.00  0.00    -0.243 OA
BRANCH   8   9
HETATM    9  C15 UNL     1      23.189 -17.623  23.375  1.00  0.00     0.376 A 
HETATM   10  C16 UNL     1      22.112 -18.465  22.715  1.00  0.00     0.299 A 
HETATM   11  N11 UNL     1      23.417 -19.020  23.072  1.00  0.00    -0.041 N 
ATOM     12 2H11 UNL     1      24.136 -19.514  22.542  1.00  0.00     0.280 HD
ATOM     13 1H11 UNL     1      23.708 -19.820  23.633  1.00  0.00     0.280 HD
ENDBRANCH   8   9
ENDBRANCH   6   8
ENDBRANCH   3   6
BRANCH   1  14
HETATM   14  C12 UNL     1      25.218 -13.252  24.882  1.00  0.00     0.096 C 
HETATM   15  C11 UNL     1      25.393 -14.124  26.091  1.00  0.00     0.061 C 
HETATM   16  C10 UNL     1      24.645 -13.761  27.307  1.00  0.00     0.215 C 
HETATM   17  C9  UNL     1      24.112 -12.358  27.324  1.00  0.00     0.170 C 
HETATM   18  C8  UNL     1      23.338 -12.055  26.082  1.00  0.00     0.140 C 
HETATM   19  C17 UNL     1      23.878 -12.616  24.813  1.00  0.00     0.088 C 
BRANCH  16  20
HETATM   20  N7  UNL     1      23.502 -14.633  27.582  1.00  0.00    -0.072 N 
ATOM     21  H73 UNL     1      22.978 -14.365  28.415  1.00  0.00     0.274 HD
ATOM     22  H72 UNL     1      22.739 -14.525  26.914  1.00  0.00     0.274 HD
ATOM     23  H71 UNL     1      23.874 -15.583  27.624  1.00  0.00     0.274 HD
ENDBRANCH  16  20
BRANCH  17  24
HETATM   24  O3  UNL     1      25.092 -11.424  27.637  1.00  0.00    -0.392 OA
ATOM     25  H3  UNL     1      25.870 -11.788  28.042  1.00  0.00     0.210 HD
ENDBRANCH  17  24
BRANCH  18  26
HETATM   26  N6  UNL     1      23.077 -10.612  25.968  1.00  0.00    -0.130 NA
BRANCH  26  27
HETATM   27  N5  UNL     1      21.788 -10.357  26.406  1.00  0.00    -0.268 N 
HETATM   28  C7  UNL     1      20.761 -10.069  25.504  1.00  0.00     0.288 C 
HETATM   29  O2  UNL     1      20.974 -10.035  24.276  1.00  0.00    -0.264 OA
ATOM     30  H5  UNL     1      21.585 -10.379  27.405  1.00  0.00     0.185 HD
BRANCH  28  31
HETATM   31  C6  UNL     1      19.418  -9.807  26.009  1.00  0.00     0.158 A 
HETATM   32  N4  UNL     1      18.984 -10.000  27.290  1.00  0.00    -0.275 N 
HETATM   33  N3  UNL     1      17.712  -9.653  27.364  1.00  0.00    -0.012 NA
ATOM     34  H4  UNL     1      19.550 -10.353  28.062  1.00  0.00     0.184 HD
HETATM   35  N2  UNL     1      17.266  -9.233  26.186  1.00  0.00    -0.206 N 
HETATM   36  C19 UNL     1      18.317  -9.325  25.343  1.00  0.00     0.171 A 
HETATM   37  N13 UNL     1      18.268  -8.971  23.966  1.00  0.00    -0.078 NA
BRANCH  35  38
HETATM   38  C5  UNL     1      15.943  -8.793  25.922  1.00  0.00     0.150 A 
HETATM   39  C4  UNL     1      15.562  -7.544  25.484  1.00  0.00     0.097 A 
HETATM   40  C3  UNL     1      14.194  -7.513  25.344  1.00  0.00     0.170 A 
HETATM   41  O6  UNL     1      13.783  -8.716  25.692  1.00  0.00    -0.231 OA
HETATM   42  N14 UNL     1      14.793  -9.477  26.033  1.00  0.00    -0.243 N 
ATOM     43  H14 UNL     1      14.717 -10.447  26.339  1.00  0.00     0.196 HD
BRANCH  40  44
HETATM   44  C2  UNL     1      13.371  -6.380  24.899  1.00  0.00     0.277 C 
HETATM   45  N1  UNL     1      12.191  -6.691  24.156  1.00  0.00    -0.360 N 
HETATM   46  C1  UNL     1      11.355  -5.611  23.701  1.00  0.00     0.149 C 
ATOM     47  H1  UNL     1      11.945  -7.659  23.952  1.00  0.00     0.162 HD
HETATM   48  O1  UNL     1      13.653  -5.200  25.137  1.00  0.00    -0.265 OA
ENDBRANCH  40  44
ENDBRANCH  35  38
ENDBRANCH  28  31
ENDBRANCH  26  27
ENDBRANCH  18  26
BRANCH  19  49
HETATM   49  C18 UNL     1      23.797 -11.521  23.764  1.00  0.00     0.324 C 
BRANCH  49  50
HETATM   50  N12 UNL     1      22.940 -12.046  22.687  1.00  0.00    -0.053 N 
ATOM     51 3H12 UNL     1      22.414 -11.322  22.197  1.00  0.00     0.277 HD
ATOM     52 2H12 UNL     1      23.464 -12.387  21.881  1.00  0.00     0.277 HD
ATOM     53 1H12 UNL     1      22.348 -12.757  23.116  1.00  0.00     0.277 HD
ENDBRANCH  49  50
BRANCH  49  54
HETATM   54  O5  UNL     1      24.980 -11.186  23.172  1.00  0.00    -0.369 OA
ATOM     55  H5  UNL     1      25.121 -11.549  22.305  1.00  0.00     0.212 HD
ENDBRANCH  49  54
ENDBRANCH  19  49
ENDBRANCH   1  14
TORSDOF 14
ENDMDL
MODEL 5
REMARK VINA RESULT: -8.059299373      2.063      3.580
REMARK  14 active torsions:
REMARK  status: ('A' for Active; 'I' for Inactive)
REMARK       I    between atoms: N1_2  and  C2_4 
REMARK    1  A    between atoms: C2_4  and  C3_6 
REMARK    2  A    between atoms: C5_8  and  N2_9 
REMARK    3  A    between atoms: C6_13  and  C7_14 
REMARK       I    between atoms: C7_14  and  N5_16 
REMARK    4  A    between atoms: N5_16  and  N6_18 
REMARK    5  A    between atoms: N6_18  and  C8_19 
REMARK    6  A    between atoms: C9_20  and  O3_21 
REMARK    7  A    between atoms: C10_23  and  N7_24 
REMARK    8  A    between atoms: C12_29  and  N8_30 
REMARK    9  A    between atoms: C13_32  and  N10_35 
REMARK   10  A    between atoms: N10_35  and  O4_37 
REMARK   11  A    between atoms: O4_37  and  C15_38 
REMARK   12  A    between atoms: C17_43  and  C18_44 
REMARK   13  A    between atoms: C18_44  and  N12_45 
REMARK   14  A    between atoms: C18_44  and  O5_49 
ROOT
HETATM    1  N8  UNL     1      24.707 -14.550  21.587  1.00  0.00    -0.361 N 
ATOM      2  H8  UNL     1      25.163 -13.924  20.923  1.00  0.00     0.162 HD
HETATM    3  C13 UNL     1      25.495 -15.416  21.956  1.00  0.00     0.204 C 
HETATM    4  C14 UNL     1      26.845 -15.407  21.426  1.00  0.00     0.138 C 
HETATM    5  N9  UNL     1      27.929 -15.381  21.003  1.00  0.00    -0.188 NA
ENDROOT
BRANCH   3   6
HETATM    6  N10 UNL     1      25.176 -16.452  22.859  1.00  0.00    -0.239 N 
ATOM      7  H10 UNL     1      24.542 -17.197  22.570  1.00  0.00     0.197 HD
BRANCH   6   8
HETATM    8  O4  UNL     1      25.696 -16.465  24.092  1.00  0.00    -0.243 OA
BRANCH   8   9
HETATM    9  C15 UNL     1      25.120 -17.390  24.929  1.00  0.00     0.376 A 
HETATM   10  C16 UNL     1      25.447 -17.341  26.411  1.00  0.00     0.299 A 
HETATM   11  N11 UNL     1      24.183 -16.831  25.881  1.00  0.00    -0.041 N 
ATOM     12 2H11 UNL     1      23.708 -15.931  25.950  1.00  0.00     0.280 HD
ATOM     13 1H11 UNL     1      23.205 -17.023  26.097  1.00  0.00     0.280 HD
ENDBRANCH   8   9
ENDBRANCH   6   8
ENDBRANCH   3   6
BRANCH   1  14
HETATM   14  C12 UNL     1      23.378 -14.149  21.791  1.00  0.00     0.096 C 
HETATM   15  C11 UNL     1      22.549 -14.132  20.540  1.00  0.00     0.061 C 
HETATM   16  C10 UNL     1      21.318 -13.321  20.549  1.00  0.00     0.215 C 
HETATM   17  C9  UNL     1      20.832 -12.930  21.914  1.00  0.00     0.170 C 
HETATM   18  C8  UNL     1      21.921 -12.299  22.720  1.00  0.00     0.140 C 
HETATM   19  C17 UNL     1      23.280 -12.889  22.571  1.00  0.00     0.088 C 
BRANCH  16  20
HETATM   20  N7  UNL     1      21.422 -12.079  19.783  1.00  0.00    -0.072 N 
ATOM     21  H73 UNL     1      20.767 -11.359  20.086  1.00  0.00     0.274 HD
ATOM     22  H72 UNL     1      22.278 -11.556  19.971  1.00  0.00     0.274 HD
ATOM     23  H71 UNL     1      21.314 -12.340  18.803  1.00  0.00     0.274 HD
ENDBRANCH  16  20
BRANCH  17  24
HETATM   24  O3  UNL     1      20.164 -13.967  22.555  1.00  0.00    -0.392 OA
ATOM     25  H3  UNL     1      19.223 -13.855  22.612  1.00  0.00     0.210 HD
ENDBRANCH  17  24
BRANCH  18  26
HETATM   26  N6  UNL     1      21.530 -12.192  24.134  1.00  0.00    -0.130 NA
BRANCH  26  27
HETATM   27  N5  UNL     1      20.487 -11.288  24.240  1.00  0.00    -0.268 N 
HETATM   28  C7  UNL     1      20.212 -10.641  25.447  1.00  0.00     0.288 C 
HETATM   29  O2  UNL     1      20.898 -10.858  26.466  1.00  0.00    -0.264 OA
ATOM     30  H5  UNL     1      19.910 -11.090  23.423  1.00  0.00     0.185 HD
BRANCH  28  31
HETATM   31  C6  UNL     1      19.104  -9.695  25.515  1.00  0.00     0.158 A 
HETATM   32  N4  UNL     1      19.206  -8.339  25.656  1.00  0.00    -0.275 N 
HETATM   33  N3  UNL     1      17.991  -7.822  25.681  1.00  0.00    -0.012 NA
ATOM     34  H4  UNL     1      20.077  -7.813  25.730  1.00  0.00     0.184 HD
HETATM   35  N2  UNL     1      17.070  -8.771  25.562  1.00  0.00    -0.206 N 
HETATM   36  C19 UNL     1      17.752  -9.932  25.459  1.00  0.00     0.171 A 
HETATM   37  N13 UNL     1      17.137 -11.207  25.316  1.00  0.00    -0.078 NA
BRANCH  35  38
HETATM   38  C5  UNL     1      15.667  -8.553  25.556  1.00  0.00     0.150 A 
HETATM   39  C4  UNL     1      15.009  -7.443  25.075  1.00  0.00     0.097 A 
HETATM   40  C3  UNL     1      13.654  -7.614  25.245  1.00  0.00     0.170 A 
HETATM   41  O6  UNL     1      13.523  -8.796  25.812  1.00  0.00    -0.231 OA
HETATM   42  N14 UNL     1      14.691  -9.359  26.001  1.00  0.00    -0.243 N 
ATOM     43  H14 UNL     1      14.836 -10.275  26.424  1.00  0.00     0.196 HD
BRANCH  40  44
HETATM   44  C2  UNL     1      12.586  -6.677  24.871  1.00  0.00     0.277 C 
HETATM   45  N1  UNL     1      12.902  -5.284  24.921  1.00  0.00    -0.360 N 
HETATM   46  C1  UNL     1      11.885  -4.331  24.563  1.00  0.00     0.149 C 
ATOM     47  H1  UNL     1      13.830  -4.972  25.205  1.00  0.00     0.162 HD
HETATM   48  O1  UNL     1      11.456  -7.037  24.524  1.00  0.00    -0.265 OA
ENDBRANCH  40  44
ENDBRANCH  35  38
ENDBRANCH  28  31
ENDBRANCH  26  27
ENDBRANCH  18  26
BRANCH  19  49
HETATM   49  C18 UNL     1      23.877 -13.007  23.962  1.00  0.00     0.324 C 
BRANCH  49  50
HETATM   50  N12 UNL     1      25.303 -12.663  23.828  1.00  0.00    -0.053 N 
ATOM     51 3H12 UNL     1      25.926 -13.464  23.935  1.00  0.00     0.277 HD
ATOM     52 2H12 UNL     1      25.574 -12.421  22.875  1.00  0.00     0.277 HD
ATOM     53 1H12 UNL     1      25.481 -11.919  24.502  1.00  0.00     0.277 HD
ENDBRANCH  49  50
BRANCH  49  54
HETATM   54  O5  UNL     1      23.843 -14.256  24.512  1.00  0.00    -0.369 OA
ATOM     55  H5  UNL     1      24.571 -14.471  25.083  1.00  0.00     0.212 HD
ENDBRANCH  49  54
ENDBRANCH  19  49
ENDBRANCH   1  14
TORSDOF 14
ENDMDL
