MODEL 1
REMARK VINA RESULT: -7.287632705      0.000      0.000
REMARK  12 active torsions:
REMARK  status: ('A' for Active; 'I' for Inactive)
REMARK    1  A    between atoms: N1_1  and  C1_4 
REMARK    2  A    between atoms: C3_10  and  S1_11 
REMARK    3  A    between atoms: S1_11  and  C4_12 
REMARK    4  A    between atoms: C6_15  and  O2_16 
REMARK    5  A    between atoms: C6_15  and  C7_18 
REMARK    6  A    between atoms: C7_18  and  N4_19 
REMARK    7  A    between atoms: C7_18  and  O3_23 
REMARK    8  A    between atoms: C8_25  and  C9_26 
REMARK    9  A    between atoms: C11_30  and  N5_31 
REMARK   10  A    between atoms: C13_35  and  C14_36 
REMARK   11  A    between atoms: C15_41  and  C16_42 
REMARK   12  A    between atoms: N8_46  and  N9_47 
ROOT
HETATM    1  C4  UNL     1      24.544 -13.870  25.199  1.00  0.00     0.164 C 
HETATM    2  C5  UNL     1      24.709 -15.497  24.897  1.00  0.00     0.187 C 
HETATM    3  O1  UNL     1      25.261 -16.042  25.655  1.00  0.00    -0.293 OA
HETATM    4  C6  UNL     1      24.051 -16.044  23.581  1.00  0.00     0.206 C 
HETATM    5  C8  UNL     1      24.252 -15.328  22.378  1.00  0.00     0.168 C 
HETATM    6  C10 UNL     1      23.171 -14.178  21.982  1.00  0.00     0.110 C 
HETATM    7  C11 UNL     1      22.766 -13.529  23.289  1.00  0.00     0.094 C 
HETATM    8  C12 UNL     1      23.683 -13.759  24.074  1.00  0.00     0.026 C 
HETATM    9  C13 UNL     1      24.974 -13.244  23.011  1.00  0.00     0.117 C 
HETATM   10  N6  UNL     1      25.414 -14.404  22.439  1.00  0.00    -0.362 N 
ATOM     11  H6  UNL     1      26.362 -14.599  22.115  1.00  0.00     0.161 HD
ENDROOT
BRANCH   1  12
HETATM   12  S1  UNL     1      24.047 -13.541  26.862  1.00  0.00    -0.091 SA
BRANCH  12  13
HETATM   13  C3  UNL     1      25.068 -14.492  28.019  1.00  0.00     0.123 A 
HETATM   14  N3  UNL     1      24.834 -15.793  28.411  1.00  0.00    -0.181 N 
HETATM   15  C2  UNL     1      25.679 -16.088  29.393  1.00  0.00     0.722 A 
ATOM     16  H3  UNL     1      24.134 -16.420  28.015  1.00  0.00     0.185 HD
HETATM   17  N2  UNL     1      26.036 -17.065  30.292  1.00  0.00    -0.018 N 
HETATM   18  N7  UNL     1      26.447 -15.045  29.654  1.00  0.00    -0.040 N 
HETATM   19  C1  UNL     1      27.014 -16.591  31.089  1.00  0.00     0.727 A 
ATOM     20  H2  UNL     1      25.627 -17.997  30.346  1.00  0.00     0.203 HD
HETATM   21  N8  UNL     1      27.255 -15.349  30.681  1.00  0.00    -0.005 N 
HETATM   22  C15 UNL     1      26.088 -14.039  28.798  1.00  0.00     0.187 A 
BRANCH  19  23
HETATM   23  N1  UNL     1      27.598 -17.229  32.052  1.00  0.00    -0.231 N 
ATOM     24  H12 UNL     1      28.101 -18.114  31.994  1.00  0.00     0.174 HD
ATOM     25  H11 UNL     1      27.642 -16.943  33.030  1.00  0.00     0.174 HD
ENDBRANCH  19  23
BRANCH  21  26
HETATM   26  N9  UNL     1      28.214 -14.476  31.242  1.00  0.00    -0.308 N 
ATOM     27  H92 UNL     1      28.853 -14.720  31.998  1.00  0.00     0.179 HD
ATOM     28  H91 UNL     1      28.372 -13.510  30.954  1.00  0.00     0.179 HD
ENDBRANCH  21  26
BRANCH  22  29
HETATM   29  C16 UNL     1      26.801 -12.793  28.610  1.00  0.00     0.232 C 
HETATM   30  O10 UNL     1      28.085 -12.863  28.745  1.00  0.00    -0.643 OA
HETATM   31  O11 UNL     1      26.266 -11.564  28.307  1.00  0.00    -0.643 OA
ENDBRANCH  22  29
ENDBRANCH  12  13
ENDBRANCH   1  12
BRANCH   4  32
HETATM   32  O2  UNL     1      22.672 -16.057  23.865  1.00  0.00    -0.375 OA
ATOM     33  H2  UNL     1      22.520 -16.917  24.238  1.00  0.00     0.211 HD
ENDBRANCH   4  32
BRANCH   4  34
HETATM   34  C7  UNL     1      24.560 -17.470  23.652  1.00  0.00     0.361 C 
BRANCH  34  35
HETATM   35  N4  UNL     1      23.468 -18.370  23.235  1.00  0.00    -0.050 N 
ATOM     36  H43 UNL     1      23.562 -18.681  22.269  1.00  0.00     0.277 HD
ATOM     37  H42 UNL     1      23.521 -19.286  23.680  1.00  0.00     0.277 HD
ATOM     38  H41 UNL     1      22.581 -17.898  23.411  1.00  0.00     0.277 HD
ENDBRANCH  34  35
BRANCH  34  39
HETATM   39  O3  UNL     1      25.692 -17.838  23.067  1.00  0.00    -0.367 OA
ATOM     40  H3  UNL     1      26.409 -18.219  23.559  1.00  0.00     0.212 HD
ENDBRANCH  34  39
ENDBRANCH   4  34
BRANCH   7  41
HETATM   41  N5  UNL     1      21.462 -12.932  23.341  1.00  0.00    -0.119 N 
HETATM   42  O6  UNL     1      21.144 -11.915  23.947  1.00  0.00    -0.532 OA
HETATM   43  O7  UNL     1      20.450 -13.584  22.680  1.00  0.00    -0.532 OA
ENDBRANCH   7  41
BRANCH   9  44
HETATM   44  C14 UNL     1      24.813 -12.027  22.378  1.00  0.00     0.227 C 
HETATM   45  O8  UNL     1      24.804 -11.040  23.257  1.00  0.00    -0.643 OA
HETATM   46  O9  UNL     1      24.671 -11.563  21.114  1.00  0.00    -0.643 OA
ENDBRANCH   9  44
BRANCH   5  47
HETATM   47  C9  UNL     1      24.342 -15.958  21.069  1.00  0.00     0.206 C 
HETATM   48  O4  UNL     1      25.406 -16.010  20.365  1.00  0.00    -0.646 OA
HETATM   49  O5  UNL     1      23.249 -16.616  20.422  1.00  0.00    -0.646 OA
ENDBRANCH   5  47
TORSDOF 12
ENDMDL
MODEL 2
REMARK VINA RESULT: -7.215639571      4.205      6.933
REMARK  12 active torsions:
REMARK  status: ('A' for Active; 'I' for Inactive)
REMARK    1  A    between atoms: N1_1  and  C1_4 
REMARK    2  A    between atoms: C3_10  and  S1_11 
REMARK    3  A    between atoms: S1_11  and  C4_12 
REMARK    4  A    between atoms: C6_15  and  O2_16 
REMARK    5  A    between atoms: C6_15  and  C7_18 
REMARK    6  A    between atoms: C7_18  and  N4_19 
REMARK    7  A    between atoms: C7_18  and  O3_23 
REMARK    8  A    between atoms: C8_25  and  C9_26 
REMARK    9  A    between atoms: C11_30  and  N5_31 
REMARK   10  A    between atoms: C13_35  and  C14_36 
REMARK   11  A    between atoms: C15_41  and  C16_42 
REMARK   12  A    between atoms: N8_46  and  N9_47 
ROOT
HETATM    1  C4  UNL     1      22.405 -14.677  22.259  1.00  0.00     0.164 C 
HETATM    2  C5  UNL     1      23.061 -15.349  20.887  1.00  0.00     0.187 C 
HETATM    3  O1  UNL     1      22.353 -15.887  20.267  1.00  0.00    -0.293 OA
HETATM    4  C6  UNL     1      24.596 -15.120  20.650  1.00  0.00     0.206 C 
HETATM    5  C8  UNL     1      25.483 -15.322  21.733  1.00  0.00     0.168 C 
HETATM    6  C10 UNL     1      25.833 -14.048  22.683  1.00  0.00     0.110 C 
HETATM    7  C11 UNL     1      24.551 -13.248  22.784  1.00  0.00     0.094 C 
HETATM    8  C12 UNL     1      23.645 -14.036  22.527  1.00  0.00     0.026 C 
HETATM    9  C13 UNL     1      24.175 -15.296  23.618  1.00  0.00     0.117 C 
HETATM   10  N6  UNL     1      24.894 -16.143  22.822  1.00  0.00    -0.362 N 
ATOM     11  H6  UNL     1      25.004 -17.149  22.951  1.00  0.00     0.161 HD
ENDROOT
BRANCH   1  12
HETATM   12  S1  UNL     1      20.896 -13.817  21.933  1.00  0.00    -0.091 SA
BRANCH  12  13
HETATM   13  C3  UNL     1      20.740 -12.387  23.035  1.00  0.00     0.123 A 
HETATM   14  N3  UNL     1      21.252 -12.300  24.312  1.00  0.00    -0.181 N 
HETATM   15  C2  UNL     1      20.788 -11.186  24.869  1.00  0.00     0.722 A 
ATOM     16  H3  UNL     1      21.878 -12.974  24.752  1.00  0.00     0.185 HD
HETATM   17  N2  UNL     1      20.772 -10.452  26.031  1.00  0.00    -0.018 N 
HETATM   18  N7  UNL     1      20.005 -10.550  24.016  1.00  0.00    -0.040 N 
HETATM   19  C1  UNL     1      19.970  -9.381  25.863  1.00  0.00     0.727 A 
ATOM     20  H2  UNL     1      21.284 -10.680  26.882  1.00  0.00     0.203 HD
HETATM   21  N8  UNL     1      19.510  -9.457  24.618  1.00  0.00    -0.005 N 
HETATM   22  C15 UNL     1      19.971 -11.278  22.859  1.00  0.00     0.187 A 
BRANCH  19  23
HETATM   23  N1  UNL     1      19.712  -8.468  26.742  1.00  0.00    -0.231 N 
ATOM     24  H12 UNL     1      20.258  -8.235  27.572  1.00  0.00     0.174 HD
ATOM     25  H11 UNL     1      18.913  -7.834  26.742  1.00  0.00     0.174 HD
ENDBRANCH  19  23
BRANCH  21  26
HETATM   26  N9  UNL     1      18.628  -8.531  24.015  1.00  0.00    -0.308 N 
ATOM     27  H92 UNL     1      18.434  -7.595  24.370  1.00  0.00     0.179 HD
ATOM     28  H91 UNL     1      18.094  -8.696  23.162  1.00  0.00     0.179 HD
ENDBRANCH  21  26
BRANCH  22  29
HETATM   29  C16 UNL     1      19.392 -10.846  21.603  1.00  0.00     0.232 C 
HETATM   30  O10 UNL     1      19.829  -9.716  21.152  1.00  0.00    -0.643 OA
HETATM   31  O11 UNL     1      18.443 -11.500  20.854  1.00  0.00    -0.643 OA
ENDBRANCH  22  29
ENDBRANCH  12  13
ENDBRANCH   1  12
BRANCH   4  32
HETATM   32  O2  UNL     1      24.685 -13.773  20.248  1.00  0.00    -0.375 OA
ATOM     33  H2  UNL     1      23.936 -13.652  19.676  1.00  0.00     0.211 HD
ENDBRANCH   4  32
BRANCH   4  34
HETATM   34  C7  UNL     1      24.765 -15.991  19.422  1.00  0.00     0.361 C 
BRANCH  34  35
HETATM   35  N4  UNL     1      25.748 -15.345  18.531  1.00  0.00    -0.050 N 
ATOM     36  H43 UNL     1      25.795 -14.335  18.664  1.00  0.00     0.277 HD
ATOM     37  H42 UNL     1      26.711 -15.563  18.783  1.00  0.00     0.277 HD
ATOM     38  H41 UNL     1      25.525 -15.605  17.569  1.00  0.00     0.277 HD
ENDBRANCH  34  35
BRANCH  34  39
HETATM   39  O3  UNL     1      25.031 -17.287  19.515  1.00  0.00    -0.367 OA
ATOM     40  H3  UNL     1      24.719 -17.910  18.870  1.00  0.00     0.212 HD
ENDBRANCH  34  39
ENDBRANCH   4  34
BRANCH   7  41
HETATM   41  N5  UNL     1      24.682 -11.840  23.035  1.00  0.00    -0.119 N 
HETATM   42  O6  UNL     1      24.212 -11.216  23.979  1.00  0.00    -0.532 OA
HETATM   43  O7  UNL     1      25.368 -11.102  22.103  1.00  0.00    -0.532 OA
ENDBRANCH   7  41
BRANCH   9  44
HETATM   44  C14 UNL     1      24.494 -14.913  24.906  1.00  0.00     0.227 C 
HETATM   45  O8  UNL     1      25.327 -15.778  25.458  1.00  0.00    -0.643 OA
HETATM   46  O9  UNL     1      24.200 -13.901  25.755  1.00  0.00    -0.643 OA
ENDBRANCH   9  44
BRANCH   5  47
HETATM   47  C9  UNL     1      26.842 -15.820  21.581  1.00  0.00     0.206 C 
HETATM   48  O4  UNL     1      27.300 -16.858  22.167  1.00  0.00    -0.646 OA
HETATM   49  O5  UNL     1      27.825 -15.215  20.736  1.00  0.00    -0.646 OA
ENDBRANCH   5  47
TORSDOF 12
ENDMDL
MODEL 3
REMARK VINA RESULT: -7.215605250      3.188      5.602
REMARK  12 active torsions:
REMARK  status: ('A' for Active; 'I' for Inactive)
REMARK    1  A    between atoms: N1_1  and  C1_4 
REMARK    2  A    between atoms: C3_10  and  S1_11 
REMARK    3  A    between atoms: S1_11  and  C4_12 
REMARK    4  A    between atoms: C6_15  and  O2_16 
REMARK    5  A    between atoms: C6_15  and  C7_18 
REMARK    6  A    between atoms: C7_18  and  N4_19 
REMARK    7  A    between atoms: C7_18  and  O3_23 
REMARK    8  A    between atoms: C8_25  and  C9_26 
REMARK    9  A    between atoms: C11_30  and  N5_31 
REMARK   10  A    between atoms: C13_35  and  C14_36 
REMARK   11  A    between atoms: C15_41  and  C16_42 
REMARK   12  A    between atoms: N8_46  and  N9_47 
ROOT
HETATM    1  C4  UNL     1      22.156 -12.526  20.954  1.00  0.00     0.164 C 
HETATM    2  C5  UNL     1      21.609 -14.090  20.811  1.00  0.00     0.187 C 
HETATM    3  O1  UNL     1      22.247 -14.738  20.219  1.00  0.00    -0.293 OA
HETATM    4  C6  UNL     1      20.265 -14.442  21.543  1.00  0.00     0.206 C 
HETATM    5  C8  UNL     1      19.172 -13.556  21.405  1.00  0.00     0.168 C 
HETATM    6  C10 UNL     1      19.008 -12.366  22.503  1.00  0.00     0.110 C 
HETATM    7  C11 UNL     1      20.417 -11.918  22.833  1.00  0.00     0.094 C 
HETATM    8  C12 UNL     1      21.108 -12.255  21.876  1.00  0.00     0.026 C 
HETATM    9  C13 UNL     1      20.063 -11.584  20.643  1.00  0.00     0.117 C 
HETATM   10  N6  UNL     1      19.303 -12.645  20.239  1.00  0.00    -0.362 N 
ATOM     11  H6  UNL     1      18.902 -12.786  19.311  1.00  0.00     0.161 HD
ENDROOT
BRANCH   1  12
HETATM   12  S1  UNL     1      23.874 -12.448  21.357  1.00  0.00    -0.091 SA
BRANCH  12  13
HETATM   13  C3  UNL     1      24.118 -12.786  23.121  1.00  0.00     0.123 A 
HETATM   14  N3  UNL     1      24.363 -11.839  24.092  1.00  0.00    -0.181 N 
HETATM   15  C2  UNL     1      24.663 -12.471  25.221  1.00  0.00     0.722 A 
ATOM     16  H3  UNL     1      24.322 -10.828  23.965  1.00  0.00     0.185 HD
HETATM   17  N2  UNL     1      25.054 -12.285  26.526  1.00  0.00    -0.018 N 
HETATM   18  N7  UNL     1      24.623 -13.778  25.029  1.00  0.00    -0.040 N 
HETATM   19  C1  UNL     1      25.250 -13.488  27.102  1.00  0.00     0.727 A 
ATOM     20  H2  UNL     1      25.176 -11.382  26.984  1.00  0.00     0.203 HD
HETATM   21  N8  UNL     1      24.978 -14.393  26.168  1.00  0.00    -0.005 N 
HETATM   22  C15 UNL     1      24.272 -13.996  23.725  1.00  0.00     0.187 A 
BRANCH  19  23
HETATM   23  N1  UNL     1      25.623 -13.705  28.322  1.00  0.00    -0.231 N 
ATOM     24  H12 UNL     1      25.472 -14.549  28.875  1.00  0.00     0.174 HD
ATOM     25  H11 UNL     1      26.128 -13.058  28.926  1.00  0.00     0.174 HD
ENDBRANCH  19  23
BRANCH  21  26
HETATM   26  N9  UNL     1      25.053 -15.794  26.340  1.00  0.00    -0.308 N 
ATOM     27  H92 UNL     1      24.459 -16.337  26.966  1.00  0.00     0.179 HD
ATOM     28  H91 UNL     1      25.705 -16.414  25.858  1.00  0.00     0.179 HD
ENDBRANCH  21  26
BRANCH  22  29
HETATM   29  C16 UNL     1      23.924 -15.277  23.144  1.00  0.00     0.232 C 
HETATM   30  O10 UNL     1      24.740 -15.717  22.243  1.00  0.00    -0.643 OA
HETATM   31  O11 UNL     1      22.836 -16.060  23.445  1.00  0.00    -0.643 OA
ENDBRANCH  22  29
ENDBRANCH  12  13
ENDBRANCH   1  12
BRANCH   4  32
HETATM   32  O2  UNL     1      20.620 -14.503  22.904  1.00  0.00    -0.375 OA
ATOM     33  H2  UNL     1      20.171 -15.275  23.226  1.00  0.00     0.211 HD
ENDBRANCH   4  32
BRANCH   4  34
HETATM   34  C7  UNL     1      20.098 -15.860  21.035  1.00  0.00     0.361 C 
BRANCH  34  35
HETATM   35  N4  UNL     1      19.923 -15.808  19.571  1.00  0.00    -0.050 N 
ATOM     36  H43 UNL     1      20.011 -14.863  19.198  1.00  0.00     0.277 HD
ATOM     37  H42 UNL     1      20.703 -16.228  19.067  1.00  0.00     0.277 HD
ATOM     38  H41 UNL     1      19.028 -16.240  19.342  1.00  0.00     0.277 HD
ENDBRANCH  34  35
BRANCH  34  39
HETATM   39  O3  UNL     1      20.957 -16.821  21.349  1.00  0.00    -0.367 OA
ATOM     40  H3  UNL     1      21.300 -17.420  20.697  1.00  0.00     0.212 HD
ENDBRANCH  34  39
ENDBRANCH   4  34
BRANCH   7  41
HETATM   41  N5  UNL     1      20.627 -11.341  24.131  1.00  0.00    -0.119 N 
HETATM   42  O6  UNL     1      19.878 -11.419  25.098  1.00  0.00    -0.532 OA
HETATM   43  O7  UNL     1      21.761 -10.587  24.302  1.00  0.00    -0.532 OA
ENDBRANCH   7  41
BRANCH   9  44
HETATM   44  C14 UNL     1      19.625 -10.288  20.834  1.00  0.00     0.227 C 
HETATM   45  O8  UNL     1      18.474 -10.087  20.216  1.00  0.00    -0.643 OA
HETATM   46  O9  UNL     1      20.039  -9.173  21.481  1.00  0.00    -0.643 OA
ENDBRANCH   9  44
BRANCH   5  47
HETATM   47  C9  UNL     1      17.782 -13.987  21.390  1.00  0.00     0.206 C 
HETATM   48  O4  UNL     1      16.962 -13.816  22.355  1.00  0.00    -0.646 OA
HETATM   49  O5  UNL     1      17.158 -14.636  20.278  1.00  0.00    -0.646 OA
ENDBRANCH   5  47
TORSDOF 12
ENDMDL
MODEL 4
REMARK VINA RESULT: -7.184797845      5.758      7.150
REMARK  12 active torsions:
REMARK  status: ('A' for Active; 'I' for Inactive)
REMARK    1  A    between atoms: N1_1  and  C1_4 
REMARK    2  A    between atoms: C3_10  and  S1_11 
REMARK    3  A    between atoms: S1_11  and  C4_12 
REMARK    4  A    between atoms: C6_15  and  O2_16 
REMARK    5  A    between atoms: C6_15  and  C7_18 
REMARK    6  A    between atoms: C7_18  and  N4_19 
REMARK    7  A    between atoms: C7_18  and  O3_23 
REMARK    8  A    between atoms: C8_25  and  C9_26 
REMARK    9  A    between atoms: C11_30  and  N5_31 
REMARK   10  A    between atoms: C13_35  and  C14_36 
REMARK   11  A    between atoms: C15_41  and  C16_42 
REMARK   12  A    between atoms: N8_46  and  N9_47 
ROOT
HETATM    1  C4  UNL     1      21.731 -13.425  21.245  1.00  0.00     0.164 C 
HETATM    2  C5  UNL     1      20.682 -14.685  21.525  1.00  0.00     0.187 C 
HETATM    3  O1  UNL     1      21.072 -15.458  22.179  1.00  0.00    -0.293 OA
HETATM    4  C6  UNL     1      19.275 -14.604  20.834  1.00  0.00     0.206 C 
HETATM    5  C8  UNL     1      19.215 -14.249  19.467  1.00  0.00     0.168 C 
HETATM    6  C10 UNL     1      19.061 -12.673  19.091  1.00  0.00     0.110 C 
HETATM    7  C11 UNL     1      19.885 -11.925  20.118  1.00  0.00     0.094 C 
HETATM    8  C12 UNL     1      20.701 -12.736  20.547  1.00  0.00     0.026 C 
HETATM    9  C13 UNL     1      21.247 -13.299  18.983  1.00  0.00     0.117 C 
HETATM   10  N6  UNL     1      20.511 -14.429  18.762  1.00  0.00    -0.362 N 
ATOM     11  H6  UNL     1      20.797 -15.242  18.216  1.00  0.00     0.161 HD
ENDROOT
BRANCH   1  12
HETATM   12  S1  UNL     1      22.486 -12.834  22.729  1.00  0.00    -0.091 SA
BRANCH  12  13
HETATM   13  C3  UNL     1      21.267 -11.962  23.747  1.00  0.00     0.123 A 
HETATM   14  N3  UNL     1      19.905 -11.954  23.535  1.00  0.00    -0.181 N 
HETATM   15  C2  UNL     1      19.362 -11.071  24.367  1.00  0.00     0.722 A 
ATOM     16  H3  UNL     1      19.402 -12.525  22.857  1.00  0.00     0.185 HD
HETATM   17  N2  UNL     1      18.180 -10.470  24.728  1.00  0.00    -0.018 N 
HETATM   18  N7  UNL     1      20.304 -10.511  25.106  1.00  0.00    -0.040 N 
HETATM   19  C1  UNL     1      18.428  -9.548  25.679  1.00  0.00     0.727 A 
ATOM     20  H2  UNL     1      17.263 -10.687  24.338  1.00  0.00     0.203 HD
HETATM   21  N8  UNL     1      19.738  -9.589  25.900  1.00  0.00    -0.005 N 
HETATM   22  C15 UNL     1      21.501 -11.063  24.743  1.00  0.00     0.187 A 
BRANCH  19  23
HETATM   23  N1  UNL     1      17.557  -8.786  26.258  1.00  0.00    -0.231 N 
ATOM     24  H12 UNL     1      16.667  -8.462  25.878  1.00  0.00     0.174 HD
ATOM     25  H11 UNL     1      17.628  -8.384  27.192  1.00  0.00     0.174 HD
ENDBRANCH  19  23
BRANCH  21  26
HETATM   26  N9  UNL     1      20.436  -8.784  26.828  1.00  0.00    -0.308 N 
ATOM     27  H92 UNL     1      20.926  -7.920  26.597  1.00  0.00     0.179 HD
ATOM     28  H91 UNL     1      20.525  -8.975  27.827  1.00  0.00     0.179 HD
ENDBRANCH  21  26
BRANCH  22  29
HETATM   29  C16 UNL     1      22.762 -10.880  25.431  1.00  0.00     0.232 C 
HETATM   30  O10 UNL     1      23.132  -9.651  25.592  1.00  0.00    -0.643 OA
HETATM   31  O11 UNL     1      23.593 -11.857  25.924  1.00  0.00    -0.643 OA
ENDBRANCH  22  29
ENDBRANCH  12  13
ENDBRANCH   1  12
BRANCH   4  32
HETATM   32  O2  UNL     1      18.582 -13.629  21.577  1.00  0.00    -0.375 OA
ATOM     33  H2  UNL     1      17.786 -13.481  21.080  1.00  0.00     0.211 HD
ENDBRANCH   4  32
BRANCH   4  34
HETATM   34  C7  UNL     1      18.748 -15.966  21.238  1.00  0.00     0.361 C 
BRANCH  34  35
HETATM   35  N4  UNL     1      19.602 -16.994  20.611  1.00  0.00    -0.050 N 
ATOM     36  H43 UNL     1      20.537 -16.650  20.396  1.00  0.00     0.277 HD
ATOM     37  H42 UNL     1      19.872 -17.731  21.262  1.00  0.00     0.277 HD
ATOM     38  H41 UNL     1      19.116 -17.354  19.789  1.00  0.00     0.277 HD
ENDBRANCH  34  35
BRANCH  34  39
HETATM   39  O3  UNL     1      18.526 -16.282  22.507  1.00  0.00    -0.367 OA
ATOM     40  H3  UNL     1      17.789 -15.927  22.989  1.00  0.00     0.212 HD
ENDBRANCH  34  39
ENDBRANCH   4  34
BRANCH   7  41
HETATM   41  N5  UNL     1      19.489 -10.576  20.410  1.00  0.00    -0.119 N 
HETATM   42  O6  UNL     1      20.009  -9.819  21.222  1.00  0.00    -0.532 OA
HETATM   43  O7  UNL     1      18.390 -10.091  19.747  1.00  0.00    -0.532 OA
ENDBRANCH   7  41
BRANCH   9  44
HETATM   44  C14 UNL     1      21.568 -12.333  18.050  1.00  0.00     0.227 C 
HETATM   45  O8  UNL     1      21.262 -12.741  16.831  1.00  0.00    -0.643 OA
HETATM   46  O9  UNL     1      22.100 -11.088  18.034  1.00  0.00    -0.643 OA
ENDBRANCH   9  44
BRANCH   5  47
HETATM   47  C9  UNL     1      18.213 -14.759  18.544  1.00  0.00     0.206 C 
HETATM   48  O4  UNL     1      17.130 -14.151  18.245  1.00  0.00    -0.646 OA
HETATM   49  O5  UNL     1      18.331 -15.999  17.840  1.00  0.00    -0.646 OA
ENDBRANCH   5  47
TORSDOF 12
ENDMDL
MODEL 5
REMARK VINA RESULT: -7.167035950      8.470     11.629
REMARK  12 active torsions:
REMARK  status: ('A' for Active; 'I' for Inactive)
REMARK    1  A    between atoms: N1_1  and  C1_4 
REMARK    2  A    between atoms: C3_10  and  S1_11 
REMARK    3  A    between atoms: S1_11  and  C4_12 
REMARK    4  A    between atoms: C6_15  and  O2_16 
REMARK    5  A    between atoms: C6_15  and  C7_18 
REMARK    6  A    between atoms: C7_18  and  N4_19 
REMARK    7  A    between atoms: C7_18  and  O3_23 
REMARK    8  A    between atoms: C8_25  and  C9_26 
REMARK    9  A    between atoms: C11_30  and  N5_31 
REMARK   10  A    between atoms: C13_35  and  C14_36 
REMARK   11  A    between atoms: C15_41  and  C16_42 
REMARK   12  A    between atoms: N8_46  and  N9_47 
ROOT
HETATM    1  C4  UNL     1      17.235 -17.081  20.740  1.00  0.00     0.164 C 
HETATM    2  C5  UNL     1      16.884 -16.390  22.212  1.00  0.00     0.187 C 
HETATM    3  O1  UNL     1      17.727 -16.327  22.892  1.00  0.00    -0.293 OA
HETATM    4  C6  UNL     1      15.406 -15.910  22.435  1.00  0.00     0.206 C 
HETATM    5  C8  UNL     1      14.353 -16.779  22.071  1.00  0.00     0.168 C 
HETATM    6  C10 UNL     1      13.753 -16.664  20.562  1.00  0.00     0.110 C 
HETATM    7  C11 UNL     1      14.940 -16.362  19.672  1.00  0.00     0.094 C 
HETATM    8  C12 UNL     1      15.928 -16.755  20.287  1.00  0.00     0.026 C 
HETATM    9  C13 UNL     1      15.291 -18.339  20.674  1.00  0.00     0.117 C 
HETATM   10  N6  UNL     1      14.786 -18.194  21.935  1.00  0.00    -0.362 N 
ATOM     11  H6  UNL     1      14.720 -18.920  22.648  1.00  0.00     0.161 HD
ENDROOT
BRANCH   1  12
HETATM   12  S1  UNL     1      18.719 -16.436  20.030  1.00  0.00    -0.091 SA
BRANCH  12  13
HETATM   13  C3  UNL     1      18.451 -14.737  19.459  1.00  0.00     0.123 A 
HETATM   14  N3  UNL     1      18.145 -14.364  18.168  1.00  0.00    -0.181 N 
HETATM   15  C2  UNL     1      18.201 -13.039  18.095  1.00  0.00     0.722 A 
ATOM     16  H3  UNL     1      17.916 -14.997  17.401  1.00  0.00     0.185 HD
HETATM   17  N2  UNL     1      18.096 -11.971  17.236  1.00  0.00    -0.018 N 
HETATM   18  N7  UNL     1      18.526 -12.537  19.273  1.00  0.00    -0.040 N 
HETATM   19  C1  UNL     1      18.366 -10.836  17.912  1.00  0.00     0.727 A 
ATOM     20  H2  UNL     1      17.852 -12.028  16.248  1.00  0.00     0.203 HD
HETATM   21  N8  UNL     1      18.626 -11.203  19.162  1.00  0.00    -0.005 N 
HETATM   22  C15 UNL     1      18.675 -13.582  20.144  1.00  0.00     0.187 A 
BRANCH  19  23
HETATM   23  N1  UNL     1      18.364  -9.635  17.430  1.00  0.00    -0.231 N 
ATOM     24  H12 UNL     1      17.654  -9.206  16.837  1.00  0.00     0.174 HD
ATOM     25  H11 UNL     1      19.084  -8.925  17.567  1.00  0.00     0.174 HD
ENDBRANCH  19  23
BRANCH  21  26
HETATM   26  N9  UNL     1      18.960 -10.327  20.219  1.00  0.00    -0.308 N 
ATOM     27  H92 UNL     1      19.492  -9.463  20.114  1.00  0.00     0.179 HD
ATOM     28  H91 UNL     1      18.707 -10.460  21.199  1.00  0.00     0.179 HD
ENDBRANCH  21  26
BRANCH  22  29
HETATM   29  C16 UNL     1      18.837 -13.472  21.579  1.00  0.00     0.232 C 
HETATM   30  O10 UNL     1      17.869 -12.883  22.202  1.00  0.00    -0.643 OA
HETATM   31  O11 UNL     1      19.893 -13.920  22.336  1.00  0.00    -0.643 OA
ENDBRANCH  22  29
ENDBRANCH  12  13
ENDBRANCH   1  12
BRANCH   4  32
HETATM   32  O2  UNL     1      15.304 -14.738  21.661  1.00  0.00    -0.375 OA
ATOM     33  H2  UNL     1      14.465 -14.369  21.909  1.00  0.00     0.211 HD
ENDBRANCH   4  32
BRANCH   4  34
HETATM   34  C7  UNL     1      15.521 -15.504  23.891  1.00  0.00     0.361 C 
BRANCH  34  35
HETATM   35  N4  UNL     1      15.836 -14.064  23.945  1.00  0.00    -0.050 N 
ATOM     36  H43 UNL     1      16.283 -13.792  24.820  1.00  0.00     0.277 HD
ATOM     37  H42 UNL     1      16.595 -13.804  23.316  1.00  0.00     0.277 HD
ATOM     38  H41 UNL     1      14.979 -13.543  23.762  1.00  0.00     0.277 HD
ENDBRANCH  34  35
BRANCH  34  39
HETATM   39  O3  UNL     1      14.570 -15.787  24.772  1.00  0.00    -0.367 OA
ATOM     40  H3  UNL     1      13.669 -15.927  24.509  1.00  0.00     0.212 HD
ENDBRANCH  34  39
ENDBRANCH   4  34
BRANCH   7  41
HETATM   41  N5  UNL     1      14.674 -15.648  18.455  1.00  0.00    -0.119 N 
HETATM   42  O6  UNL     1      15.487 -15.351  17.587  1.00  0.00    -0.532 OA
HETATM   43  O7  UNL     1      13.388 -15.212  18.256  1.00  0.00    -0.532 OA
ENDBRANCH   7  41
BRANCH   9  44
HETATM   44  C14 UNL     1      14.719 -19.051  19.638  1.00  0.00     0.227 C 
HETATM   45  O8  UNL     1      13.743 -19.822  20.084  1.00  0.00    -0.643 OA
HETATM   46  O9  UNL     1      14.872 -19.174  18.298  1.00  0.00    -0.643 OA
ENDBRANCH   9  44
BRANCH   5  47
HETATM   47  C9  UNL     1      13.080 -16.843  22.773  1.00  0.00     0.206 C 
HETATM   48  O4  UNL     1      12.743 -17.779  23.574  1.00  0.00    -0.646 OA
HETATM   49  O5  UNL     1      12.057 -15.849  22.665  1.00  0.00    -0.646 OA
ENDBRANCH   5  47
TORSDOF 12
ENDMDL
