MODEL 1
REMARK VINA RESULT: -7.253425718      0.000      0.000
REMARK  7 active torsions:
REMARK  status: ('A' for Active; 'I' for Inactive)
REMARK    1  A    between atoms: C1_2  and  S2_4 
REMARK    2  A    between atoms: S2_4  and  C2_5 
REMARK    3  A    between atoms: C2_5  and  C3_6 
REMARK       I    between atoms: C3_6  and  N2_8 
REMARK    4  A    between atoms: N2_8  and  C4_10 
REMARK    5  A    between atoms: C5_13  and  C6_14 
REMARK    6  A    between atoms: C6_14  and  N4_15 
REMARK    7  A    between atoms: N5_18  and  C9_19 
ROOT
HETATM    1  C4  UNL     1      20.635 -14.847  -3.153  1.00  0.00     0.151 A 
HETATM    2  N3  UNL     1      21.193 -14.723  -4.352  1.00  0.00    -0.335 N 
ATOM      3  H3  UNL     1      20.855 -15.276  -5.139  1.00  0.00     0.168 HD
HETATM    4  C5  UNL     1      22.180 -13.882  -4.511  1.00  0.00     0.056 A 
HETATM    5  C17 UNL     1      22.583 -13.169  -3.410  1.00  0.00     0.084 A 
HETATM    6  S3  UNL     1      21.525 -13.741  -2.202  1.00  0.00    -0.063 SA
ENDROOT
BRANCH   4   7
HETATM    7  C6  UNL     1      22.902 -13.645  -5.835  1.00  0.00     0.125 C 
BRANCH   7   8
HETATM    8  N4  UNL     1      23.432 -14.811  -6.381  1.00  0.00    -0.345 N 
HETATM    9  C7  UNL     1      22.855 -15.395  -7.527  1.00  0.00     0.088 C 
HETATM   10  C8  UNL     1      23.025 -16.855  -7.676  1.00  0.00     0.168 C 
HETATM   11  N5  UNL     1      24.239 -17.424  -7.148  1.00  0.00    -0.371 N 
HETATM   12  C15 UNL     1      25.148 -16.563  -6.458  1.00  0.00     0.168 C 
HETATM   13  C16 UNL     1      24.373 -15.552  -5.664  1.00  0.00     0.088 C 
BRANCH  11  14
HETATM   14  C9  UNL     1      24.538 -18.804  -7.303  1.00  0.00     0.030 A 
HETATM   15  C10 UNL     1      23.647 -19.761  -6.916  1.00  0.00     0.029 A 
HETATM   16  C11 UNL     1      23.959 -21.112  -7.083  1.00  0.00     0.002 A 
HETATM   17  C12 UNL     1      25.172 -21.443  -7.642  1.00  0.00     0.000 A 
HETATM   18  C13 UNL     1      26.087 -20.502  -8.040  1.00  0.00     0.002 A 
HETATM   19  C14 UNL     1      25.756 -19.172  -7.864  1.00  0.00     0.029 A 
ENDBRANCH  11  14
ENDBRANCH   7   8
ENDBRANCH   4   7
BRANCH   1  20
HETATM   20  N2  UNL     1      19.640 -15.632  -2.790  1.00  0.00    -0.306 N 
HETATM   21  C3  UNL     1      19.666 -16.092  -1.451  1.00  0.00     0.233 C 
HETATM   22  O1  UNL     1      19.418 -15.278  -0.514  1.00  0.00    -0.272 OA
ATOM     23  H2  UNL     1      18.895 -15.892  -3.437  1.00  0.00     0.171 HD
BRANCH  21  24
HETATM   24  C2  UNL     1      19.970 -17.492  -1.082  1.00  0.00     0.184 C 
BRANCH  24  25
HETATM   25  S2  UNL     1      18.525 -18.552  -1.290  1.00  0.00    -0.094 SA
BRANCH  25  26
HETATM   26  C1  UNL     1      19.021 -20.161  -1.862  1.00  0.00     0.150 C 
HETATM   27  N1  UNL     1      18.219 -20.850  -2.790  1.00  0.00    -0.082 NA
HETATM   28  S1  UNL     1      20.399 -20.812  -1.292  1.00  0.00    -0.056 SA
ENDBRANCH  25  26
ENDBRANCH  24  25
ENDBRANCH  21  24
ENDBRANCH   1  20
TORSDOF 7
ENDMDL
MODEL 2
REMARK VINA RESULT: -7.135360686      3.315      7.634
REMARK  7 active torsions:
REMARK  status: ('A' for Active; 'I' for Inactive)
REMARK    1  A    between atoms: C1_2  and  S2_4 
REMARK    2  A    between atoms: S2_4  and  C2_5 
REMARK    3  A    between atoms: C2_5  and  C3_6 
REMARK       I    between atoms: C3_6  and  N2_8 
REMARK    4  A    between atoms: N2_8  and  C4_10 
REMARK    5  A    between atoms: C5_13  and  C6_14 
REMARK    6  A    between atoms: C6_14  and  N4_15 
REMARK    7  A    between atoms: N5_18  and  C9_19 
ROOT
HETATM    1  C4  UNL     1      22.110 -14.492  -4.451  1.00  0.00     0.151 A 
HETATM    2  N3  UNL     1      21.570 -14.488  -3.237  1.00  0.00    -0.335 N 
ATOM      3  H3  UNL     1      21.303 -15.364  -2.789  1.00  0.00     0.168 HD
HETATM    4  C5  UNL     1      21.387 -13.349  -2.625  1.00  0.00     0.056 A 
HETATM    5  C17 UNL     1      21.772 -12.210  -3.287  1.00  0.00     0.084 A 
HETATM    6  S3  UNL     1      22.376 -12.831  -4.755  1.00  0.00    -0.063 SA
ENDROOT
BRANCH   4   7
HETATM    7  C6  UNL     1      20.781 -13.210  -1.231  1.00  0.00     0.125 C 
BRANCH   7   8
HETATM    8  N4  UNL     1      20.087 -14.347  -0.824  1.00  0.00    -0.345 N 
HETATM    9  C7  UNL     1      20.770 -15.551  -0.563  1.00  0.00     0.088 C 
HETATM   10  C8  UNL     1      19.999 -16.797  -0.753  1.00  0.00     0.168 C 
HETATM   11  N5  UNL     1      18.586 -16.733  -0.483  1.00  0.00    -0.371 N 
HETATM   12  C15 UNL     1      18.019 -15.469  -0.131  1.00  0.00     0.168 C 
HETATM   13  C16 UNL     1      18.695 -14.382  -0.915  1.00  0.00     0.088 C 
BRANCH  11  14
HETATM   14  C9  UNL     1      17.764 -17.889  -0.562  1.00  0.00     0.030 A 
HETATM   15  C10 UNL     1      16.663 -18.020   0.232  1.00  0.00     0.029 A 
HETATM   16  C11 UNL     1      15.865 -19.161   0.133  1.00  0.00     0.002 A 
HETATM   17  C12 UNL     1      16.216 -20.134  -0.773  1.00  0.00     0.000 A 
HETATM   18  C13 UNL     1      17.318 -20.029  -1.585  1.00  0.00     0.002 A 
HETATM   19  C14 UNL     1      18.092 -18.890  -1.469  1.00  0.00     0.029 A 
ENDBRANCH  11  14
ENDBRANCH   7   8
ENDBRANCH   4   7
BRANCH   1  20
HETATM   20  N2  UNL     1      22.373 -15.524  -5.227  1.00  0.00    -0.306 N 
HETATM   21  C3  UNL     1      23.615 -15.492  -5.906  1.00  0.00     0.233 C 
HETATM   22  O1  UNL     1      24.683 -15.663  -5.249  1.00  0.00    -0.272 OA
ATOM     23  H2  UNL     1      21.721 -16.301  -5.332  1.00  0.00     0.171 HD
BRANCH  21  24
HETATM   24  C2  UNL     1      23.735 -15.267  -7.364  1.00  0.00     0.184 C 
BRANCH  24  25
HETATM   25  S2  UNL     1      23.339 -16.763  -8.291  1.00  0.00    -0.094 SA
BRANCH  25  26
HETATM   26  C1  UNL     1      24.258 -18.144  -7.648  1.00  0.00     0.150 C 
HETATM   27  N1  UNL     1      23.627 -19.064  -6.792  1.00  0.00    -0.082 NA
HETATM   28  S1  UNL     1      25.822 -18.314  -8.062  1.00  0.00    -0.056 SA
ENDBRANCH  25  26
ENDBRANCH  24  25
ENDBRANCH  21  24
ENDBRANCH   1  20
TORSDOF 7
ENDMDL
MODEL 3
REMARK VINA RESULT: -7.004770541      0.917      1.760
REMARK  7 active torsions:
REMARK  status: ('A' for Active; 'I' for Inactive)
REMARK    1  A    between atoms: C1_2  and  S2_4 
REMARK    2  A    between atoms: S2_4  and  C2_5 
REMARK    3  A    between atoms: C2_5  and  C3_6 
REMARK       I    between atoms: C3_6  and  N2_8 
REMARK    4  A    between atoms: N2_8  and  C4_10 
REMARK    5  A    between atoms: C5_13  and  C6_14 
REMARK    6  A    between atoms: C6_14  and  N4_15 
REMARK    7  A    between atoms: N5_18  and  C9_19 
ROOT
HETATM    1  C4  UNL     1      20.399 -14.835  -2.743  1.00  0.00     0.151 A 
HETATM    2  N3  UNL     1      20.881 -14.932  -3.978  1.00  0.00    -0.335 N 
ATOM      3  H3  UNL     1      20.551 -15.665  -4.604  1.00  0.00     0.168 HD
HETATM    4  C5  UNL     1      21.781 -14.076  -4.379  1.00  0.00     0.056 A 
HETATM    5  C17 UNL     1      22.179 -13.114  -3.484  1.00  0.00     0.084 A 
HETATM    6  S3  UNL     1      21.240 -13.488  -2.111  1.00  0.00    -0.063 SA
ENDROOT
BRANCH   4   7
HETATM    7  C6  UNL     1      22.410 -14.078  -5.770  1.00  0.00     0.125 C 
BRANCH   7   8
HETATM    8  N4  UNL     1      23.202 -15.199  -6.007  1.00  0.00    -0.345 N 
HETATM    9  C7  UNL     1      24.480 -15.312  -5.424  1.00  0.00     0.088 C 
HETATM   10  C8  UNL     1      25.465 -16.134  -6.157  1.00  0.00     0.168 C 
HETATM   11  N5  UNL     1      24.949 -17.248  -6.909  1.00  0.00    -0.371 N 
HETATM   12  C15 UNL     1      23.532 -17.436  -6.960  1.00  0.00     0.168 C 
HETATM   13  C16 UNL     1      22.853 -16.098  -7.016  1.00  0.00     0.088 C 
BRANCH  11  14
HETATM   14  C9  UNL     1      25.814 -18.146  -7.590  1.00  0.00     0.030 A 
HETATM   15  C10 UNL     1      26.798 -17.682  -8.412  1.00  0.00     0.029 A 
HETATM   16  C11 UNL     1      27.641 -18.583  -9.065  1.00  0.00     0.002 A 
HETATM   17  C12 UNL     1      27.453 -19.930  -8.859  1.00  0.00     0.000 A 
HETATM   18  C13 UNL     1      26.472 -20.425  -8.038  1.00  0.00     0.002 A 
HETATM   19  C14 UNL     1      25.649 -19.514  -7.402  1.00  0.00     0.029 A 
ENDBRANCH  11  14
ENDBRANCH   7   8
ENDBRANCH   4   7
BRANCH   1  20
HETATM   20  N2  UNL     1      19.496 -15.593  -2.155  1.00  0.00    -0.306 N 
HETATM   21  C3  UNL     1      19.939 -16.331  -1.030  1.00  0.00     0.233 C 
HETATM   22  O1  UNL     1      20.188 -15.720   0.050  1.00  0.00    -0.272 OA
ATOM     23  H2  UNL     1      18.534 -15.645  -2.490  1.00  0.00     0.171 HD
BRANCH  21  24
HETATM   24  C2  UNL     1      20.130 -17.798  -1.049  1.00  0.00     0.184 C 
BRANCH  24  25
HETATM   25  S2  UNL     1      18.590 -18.652  -1.442  1.00  0.00    -0.094 SA
BRANCH  25  26
HETATM   26  C1  UNL     1      18.930 -20.313  -1.983  1.00  0.00     0.150 C 
HETATM   27  N1  UNL     1      18.010 -20.978  -2.813  1.00  0.00    -0.082 NA
HETATM   28  S1  UNL     1      20.304 -21.036  -1.499  1.00  0.00    -0.056 SA
ENDBRANCH  25  26
ENDBRANCH  24  25
ENDBRANCH  21  24
ENDBRANCH   1  20
TORSDOF 7
ENDMDL
MODEL 4
REMARK VINA RESULT: -6.975852745      4.503      7.094
REMARK  7 active torsions:
REMARK  status: ('A' for Active; 'I' for Inactive)
REMARK    1  A    between atoms: C1_2  and  S2_4 
REMARK    2  A    between atoms: S2_4  and  C2_5 
REMARK    3  A    between atoms: C2_5  and  C3_6 
REMARK       I    between atoms: C3_6  and  N2_8 
REMARK    4  A    between atoms: N2_8  and  C4_10 
REMARK    5  A    between atoms: C5_13  and  C6_14 
REMARK    6  A    between atoms: C6_14  and  N4_15 
REMARK    7  A    between atoms: N5_18  and  C9_19 
ROOT
HETATM    1  C4  UNL     1      18.273 -19.861  -1.663  1.00  0.00     0.151 A 
HETATM    2  N3  UNL     1      17.911 -18.650  -1.250  1.00  0.00    -0.335 N 
ATOM      3  H3  UNL     1      16.951 -18.330  -1.370  1.00  0.00     0.168 HD
HETATM    4  C5  UNL     1      18.801 -17.877  -0.689  1.00  0.00     0.056 A 
HETATM    5  C17 UNL     1      20.074 -18.373  -0.558  1.00  0.00     0.084 A 
HETATM    6  S3  UNL     1      19.930 -19.925  -1.249  1.00  0.00    -0.063 SA
ENDROOT
BRANCH   4   7
HETATM    7  C6  UNL     1      18.513 -16.470  -0.171  1.00  0.00     0.125 C 
BRANCH   7   8
HETATM    8  N4  UNL     1      19.182 -15.480  -0.886  1.00  0.00    -0.345 N 
HETATM    9  C7  UNL     1      19.279 -15.550  -2.291  1.00  0.00     0.088 C 
HETATM   10  C8  UNL     1      20.451 -14.890  -2.901  1.00  0.00     0.168 C 
HETATM   11  N5  UNL     1      20.959 -13.720  -2.232  1.00  0.00    -0.371 N 
HETATM   12  C15 UNL     1      20.352 -13.327  -0.998  1.00  0.00     0.168 C 
HETATM   13  C16 UNL     1      19.976 -14.551  -0.214  1.00  0.00     0.088 C 
BRANCH  11  14
HETATM   14  C9  UNL     1      22.035 -12.966  -2.772  1.00  0.00     0.030 A 
HETATM   15  C10 UNL     1      21.883 -11.643  -3.068  1.00  0.00     0.029 A 
HETATM   16  C11 UNL     1      22.956 -10.919  -3.591  1.00  0.00     0.002 A 
HETATM   17  C12 UNL     1      24.151 -11.568  -3.796  1.00  0.00     0.000 A 
HETATM   18  C13 UNL     1      24.332 -12.898  -3.507  1.00  0.00     0.002 A 
HETATM   19  C14 UNL     1      23.256 -13.593  -2.990  1.00  0.00     0.029 A 
ENDBRANCH  11  14
ENDBRANCH   7   8
ENDBRANCH   4   7
BRANCH   1  20
HETATM   20  N2  UNL     1      17.533 -20.781  -2.247  1.00  0.00    -0.306 N 
HETATM   21  C3  UNL     1      17.909 -22.126  -2.010  1.00  0.00     0.233 C 
HETATM   22  O1  UNL     1      17.707 -22.631  -0.867  1.00  0.00    -0.272 OA
ATOM     23  H2  UNL     1      16.736 -20.540  -2.835  1.00  0.00     0.171 HD
BRANCH  21  24
HETATM   24  C2  UNL     1      18.535 -22.985  -3.040  1.00  0.00     0.184 C 
BRANCH  24  25
HETATM   25  S2  UNL     1      20.183 -23.516  -2.534  1.00  0.00    -0.094 SA
BRANCH  25  26
HETATM   26  C1  UNL     1      21.275 -23.550  -3.938  1.00  0.00     0.150 C 
HETATM   27  N1  UNL     1      20.755 -23.798  -5.221  1.00  0.00    -0.082 NA
HETATM   28  S1  UNL     1      22.865 -23.299  -3.708  1.00  0.00    -0.056 SA
ENDBRANCH  25  26
ENDBRANCH  24  25
ENDBRANCH  21  24
ENDBRANCH   1  20
TORSDOF 7
ENDMDL
MODEL 5
REMARK VINA RESULT: -6.956612382      3.378      7.846
REMARK  7 active torsions:
REMARK  status: ('A' for Active; 'I' for Inactive)
REMARK    1  A    between atoms: C1_2  and  S2_4 
REMARK    2  A    between atoms: S2_4  and  C2_5 
REMARK    3  A    between atoms: C2_5  and  C3_6 
REMARK       I    between atoms: C3_6  and  N2_8 
REMARK    4  A    between atoms: N2_8  and  C4_10 
REMARK    5  A    between atoms: C5_13  and  C6_14 
REMARK    6  A    between atoms: C6_14  and  N4_15 
REMARK    7  A    between atoms: N5_18  and  C9_19 
ROOT
HETATM    1  C4  UNL     1      22.111 -14.465  -4.453  1.00  0.00     0.151 A 
HETATM    2  N3  UNL     1      21.550 -14.466  -3.249  1.00  0.00    -0.335 N 
ATOM      3  H3  UNL     1      21.219 -15.336  -2.835  1.00  0.00     0.168 HD
HETATM    4  C5  UNL     1      21.429 -13.338  -2.602  1.00  0.00     0.056 A 
HETATM    5  C17 UNL     1      21.898 -12.205  -3.219  1.00  0.00     0.084 A 
HETATM    6  S3  UNL     1      22.488 -12.816  -4.697  1.00  0.00    -0.063 SA
ENDROOT
BRANCH   4   7
HETATM    7  C6  UNL     1      20.808 -13.206  -1.213  1.00  0.00     0.125 C 
BRANCH   7   8
HETATM    8  N4  UNL     1      20.105 -14.343  -0.822  1.00  0.00    -0.345 N 
HETATM    9  C7  UNL     1      20.785 -15.539  -0.520  1.00  0.00     0.088 C 
HETATM   10  C8  UNL     1      20.031 -16.793  -0.727  1.00  0.00     0.168 C 
HETATM   11  N5  UNL     1      18.608 -16.736  -0.515  1.00  0.00    -0.371 N 
HETATM   12  C15 UNL     1      18.018 -15.472  -0.200  1.00  0.00     0.168 C 
HETATM   13  C16 UNL     1      18.718 -14.389  -0.968  1.00  0.00     0.088 C 
BRANCH  11  14
HETATM   14  C9  UNL     1      17.798 -17.899  -0.613  1.00  0.00     0.030 A 
HETATM   15  C10 UNL     1      18.108 -18.896  -1.490  1.00  0.00     0.029 A 
HETATM   16  C11 UNL     1      17.302 -20.033  -1.565  1.00  0.00     0.002 A 
HETATM   17  C12 UNL     1      16.202 -20.117  -0.742  1.00  0.00     0.000 A 
HETATM   18  C13 UNL     1      15.866 -19.129   0.149  1.00  0.00     0.002 A 
HETATM   19  C14 UNL     1      16.680 -18.013   0.205  1.00  0.00     0.029 A 
ENDBRANCH  11  14
ENDBRANCH   7   8
ENDBRANCH   4   7
BRANCH   1  20
HETATM   20  N2  UNL     1      22.322 -15.486  -5.259  1.00  0.00    -0.306 N 
HETATM   21  C3  UNL     1      23.548 -15.477  -5.968  1.00  0.00     0.233 C 
HETATM   22  O1  UNL     1      24.625 -15.698  -5.341  1.00  0.00    -0.272 OA
ATOM     23  H2  UNL     1      21.642 -16.239  -5.366  1.00  0.00     0.171 HD
BRANCH  21  24
HETATM   24  C2  UNL     1      23.640 -15.221  -7.422  1.00  0.00     0.184 C 
BRANCH  24  25
HETATM   25  S2  UNL     1      23.447 -16.745  -8.368  1.00  0.00    -0.094 SA
BRANCH  25  26
HETATM   26  C1  UNL     1      24.980 -17.647  -8.398  1.00  0.00     0.150 C 
HETATM   27  N1  UNL     1      25.977 -17.298  -9.326  1.00  0.00    -0.082 NA
HETATM   28  S1  UNL     1      25.197 -18.871  -7.349  1.00  0.00    -0.056 SA
ENDBRANCH  25  26
ENDBRANCH  24  25
ENDBRANCH  21  24
ENDBRANCH   1  20
TORSDOF 7
ENDMDL
