MODEL 1
REMARK VINA RESULT: -6.530157772      0.000      0.000
REMARK  6 active torsions:
REMARK  status: ('A' for Active; 'I' for Inactive)
REMARK    1  A    between atoms: C2_2  and  C3_3 
REMARK    2  A    between atoms: N1_4  and  N2_6 
REMARK       I    between atoms: C4_8  and  N3_9 
REMARK       I    between atoms: C4_8  and  N4_12 
REMARK    3  A    between atoms: N4_12  and  S1_14 
REMARK    4  A    between atoms: S1_14  and  C6_17 
REMARK    5  A    between atoms: C11_22  and  S2_23 
REMARK    6  A    between atoms: S2_23  and  C12_26 
ROOT
HETATM    1  S1  UNL     1      22.051 -13.226  -2.931  1.00  0.00     0.278 S 
HETATM    2  O1  UNL     1      21.196 -13.852  -4.019  1.00  0.00    -0.200 OA
HETATM    3  O2  UNL     1      23.052 -14.182  -2.368  1.00  0.00    -0.200 OA
ENDROOT
BRANCH   1   4
HETATM    4  N4  UNL     1      20.908 -12.973  -1.623  1.00  0.00    -0.111 N 
HETATM    5  C4  UNL     1      20.307 -14.061  -0.927  1.00  0.00     0.702 C 
HETATM    6  N2  UNL     1      20.430 -15.293  -1.270  1.00  0.00    -0.132 N 
HETATM    7  N3  UNL     1      19.486 -13.811   0.212  1.00  0.00    -0.229 N 
ATOM      8  H2  UNL     1      21.024 -15.444  -2.085  1.00  0.00     0.205 HD
HETATM    9  C5  UNL     1      19.932 -12.916   1.263  1.00  0.00     0.165 C 
ATOM     10  H3  UNL     1      18.576 -14.266   0.288  1.00  0.00     0.177 HD
ATOM     11  H4  UNL     1      20.667 -12.019  -1.353  1.00  0.00     0.197 HD
BRANCH   6  12
HETATM   12  N1  UNL     1      19.934 -16.370  -0.768  1.00  0.00    -0.298 N 
HETATM   13  C3  UNL     1      19.347 -17.424  -0.708  1.00  0.00     0.107 C 
ATOM     14  H1  UNL     1      20.224 -16.267   0.205  1.00  0.00     0.186 HD
BRANCH  13  15
HETATM   15  C2  UNL     1      18.699 -18.112  -1.792  1.00  0.00     0.008 C 
HETATM   16  C1  UNL     1      18.320 -19.359  -1.670  1.00  0.00     0.013 C 
ENDBRANCH  13  15
ENDBRANCH   6  12
ENDBRANCH   1   4
BRANCH   1  17
HETATM   17  C6  UNL     1      22.682 -11.701  -3.419  1.00  0.00     0.102 A 
HETATM   18  C7  UNL     1      21.936 -10.549  -3.108  1.00  0.00     0.027 A 
HETATM   19  C8  UNL     1      22.317  -9.289  -3.485  1.00  0.00     0.002 A 
HETATM   20  C9  UNL     1      23.478  -9.162  -4.199  1.00  0.00     0.002 A 
HETATM   21  C10 UNL     1      24.209 -10.274  -4.506  1.00  0.00     0.025 A 
HETATM   22  C11 UNL     1      23.838 -11.590  -4.127  1.00  0.00     0.087 A 
BRANCH  22  23
HETATM   23  S2  UNL     1      24.847 -12.898  -4.558  1.00  0.00     0.208 S 
HETATM   24  O3  UNL     1      26.110 -12.314  -5.230  1.00  0.00    -0.217 OA
HETATM   25  O4  UNL     1      25.435 -13.621  -3.367  1.00  0.00    -0.217 OA
BRANCH  23  26
HETATM   26  C12 UNL     1      24.256 -14.060  -5.672  1.00  0.00     0.064 A 
HETATM   27  C13 UNL     1      24.421 -15.418  -5.457  1.00  0.00     0.024 A 
HETATM   28  C14 UNL     1      23.874 -16.326  -6.325  1.00  0.00     0.002 A 
HETATM   29  C15 UNL     1      23.154 -15.930  -7.424  1.00  0.00     0.000 A 
HETATM   30  C16 UNL     1      22.979 -14.581  -7.656  1.00  0.00     0.002 A 
HETATM   31  C17 UNL     1      23.531 -13.671  -6.779  1.00  0.00     0.024 A 
ENDBRANCH  23  26
ENDBRANCH  22  23
ENDBRANCH   1  17
TORSDOF 6
ENDMDL
MODEL 2
REMARK VINA RESULT: -6.375976113      3.381      5.381
REMARK  6 active torsions:
REMARK  status: ('A' for Active; 'I' for Inactive)
REMARK    1  A    between atoms: C2_2  and  C3_3 
REMARK    2  A    between atoms: N1_4  and  N2_6 
REMARK       I    between atoms: C4_8  and  N3_9 
REMARK       I    between atoms: C4_8  and  N4_12 
REMARK    3  A    between atoms: N4_12  and  S1_14 
REMARK    4  A    between atoms: S1_14  and  C6_17 
REMARK    5  A    between atoms: C11_22  and  S2_23 
REMARK    6  A    between atoms: S2_23  and  C12_26 
ROOT
HETATM    1  S1  UNL     1      23.475 -13.946  -6.550  1.00  0.00     0.278 S 
HETATM    2  O1  UNL     1      23.519 -13.821  -8.063  1.00  0.00    -0.200 OA
HETATM    3  O2  UNL     1      22.265 -14.681  -6.071  1.00  0.00    -0.200 OA
ENDROOT
BRANCH   1   4
HETATM    4  N4  UNL     1      23.216 -12.292  -6.021  1.00  0.00    -0.111 N 
HETATM    5  C4  UNL     1      22.654 -11.988  -4.747  1.00  0.00     0.702 C 
HETATM    6  N2  UNL     1      22.167 -12.865  -3.945  1.00  0.00    -0.132 N 
HETATM    7  N3  UNL     1      22.582 -10.633  -4.307  1.00  0.00    -0.229 N 
ATOM      8  H2  UNL     1      22.234 -13.826  -4.283  1.00  0.00     0.205 HD
HETATM    9  C5  UNL     1      23.736  -9.761  -4.407  1.00  0.00     0.165 C 
ATOM     10  H3  UNL     1      21.710 -10.275  -3.917  1.00  0.00     0.177 HD
ATOM     11  H4  UNL     1      23.475 -11.527  -6.644  1.00  0.00     0.197 HD
BRANCH   6  12
HETATM   12  N1  UNL     1      21.609 -12.747  -2.791  1.00  0.00    -0.298 N 
HETATM   13  C3  UNL     1      20.945 -13.027  -1.822  1.00  0.00     0.107 C 
ATOM     14  H1  UNL     1      21.941 -11.820  -2.522  1.00  0.00     0.186 HD
BRANCH  13  15
HETATM   15  C2  UNL     1      20.207 -14.243  -1.605  1.00  0.00     0.008 C 
HETATM   16  C1  UNL     1      20.419 -14.982  -0.546  1.00  0.00     0.013 C 
ENDBRANCH  13  15
ENDBRANCH   6  12
ENDBRANCH   1   4
BRANCH   1  17
HETATM   17  C6  UNL     1      24.975 -14.503  -5.915  1.00  0.00     0.102 A 
HETATM   18  C7  UNL     1      25.742 -13.603  -5.153  1.00  0.00     0.027 A 
HETATM   19  C8  UNL     1      26.970 -13.921  -4.636  1.00  0.00     0.002 A 
HETATM   20  C9  UNL     1      27.460 -15.174  -4.885  1.00  0.00     0.002 A 
HETATM   21  C10 UNL     1      26.723 -16.055  -5.625  1.00  0.00     0.025 A 
HETATM   22  C11 UNL     1      25.448 -15.752  -6.169  1.00  0.00     0.087 A 
BRANCH  22  23
HETATM   23  S2  UNL     1      24.618 -16.947  -7.062  1.00  0.00     0.208 S 
HETATM   24  O3  UNL     1      23.404 -17.403  -6.223  1.00  0.00    -0.217 OA
HETATM   25  O4  UNL     1      23.950 -16.410  -8.308  1.00  0.00    -0.217 OA
BRANCH  23  26
HETATM   26  C12 UNL     1      25.443 -18.397  -7.461  1.00  0.00     0.064 A 
HETATM   27  C13 UNL     1      24.966 -19.634  -7.062  1.00  0.00     0.024 A 
HETATM   28  C14 UNL     1      25.605 -20.780  -7.456  1.00  0.00     0.002 A 
HETATM   29  C15 UNL     1      26.724 -20.746  -8.250  1.00  0.00     0.000 A 
HETATM   30  C16 UNL     1      27.214 -19.523  -8.659  1.00  0.00     0.002 A 
HETATM   31  C17 UNL     1      26.567 -18.371  -8.259  1.00  0.00     0.024 A 
ENDBRANCH  23  26
ENDBRANCH  22  23
ENDBRANCH   1  17
TORSDOF 6
ENDMDL
MODEL 3
REMARK VINA RESULT: -6.335571423      4.057      6.835
REMARK  6 active torsions:
REMARK  status: ('A' for Active; 'I' for Inactive)
REMARK    1  A    between atoms: C2_2  and  C3_3 
REMARK    2  A    between atoms: N1_4  and  N2_6 
REMARK       I    between atoms: C4_8  and  N3_9 
REMARK       I    between atoms: C4_8  and  N4_12 
REMARK    3  A    between atoms: N4_12  and  S1_14 
REMARK    4  A    between atoms: S1_14  and  C6_17 
REMARK    5  A    between atoms: C11_22  and  S2_23 
REMARK    6  A    between atoms: S2_23  and  C12_26 
ROOT
HETATM    1  S1  UNL     1      23.252  -9.681  -2.897  1.00  0.00     0.278 S 
HETATM    2  O1  UNL     1      23.537  -9.987  -1.437  1.00  0.00    -0.200 OA
HETATM    3  O2  UNL     1      21.886  -9.111  -3.106  1.00  0.00    -0.200 OA
ENDROOT
BRANCH   1   4
HETATM    4  N4  UNL     1      23.175 -11.274  -3.630  1.00  0.00    -0.111 N 
HETATM    5  C4  UNL     1      22.254 -12.265  -3.182  1.00  0.00     0.702 C 
HETATM    6  N2  UNL     1      21.512 -12.143  -2.140  1.00  0.00    -0.132 N 
HETATM    7  N3  UNL     1      22.136 -13.498  -3.889  1.00  0.00    -0.229 N 
ATOM      8  H2  UNL     1      21.613 -11.251  -1.655  1.00  0.00     0.205 HD
HETATM    9  C5  UNL     1      22.004 -13.513  -5.333  1.00  0.00     0.165 C 
ATOM     10  H3  UNL     1      22.145 -14.379  -3.373  1.00  0.00     0.177 HD
ATOM     11  H4  UNL     1      23.807 -11.497  -4.398  1.00  0.00     0.197 HD
BRANCH   6  12
HETATM   12  N1  UNL     1      20.664 -12.947  -1.600  1.00  0.00    -0.298 N 
HETATM   13  C3  UNL     1      20.111 -13.603  -0.750  1.00  0.00     0.107 C 
ATOM     14  H1  UNL     1      20.092 -13.181  -2.411  1.00  0.00     0.186 HD
BRANCH  13  15
HETATM   15  C2  UNL     1      20.467 -13.687   0.642  1.00  0.00     0.008 C 
HETATM   16  C1  UNL     1      19.818 -13.000   1.548  1.00  0.00     0.013 C 
ENDBRANCH  13  15
ENDBRANCH   6  12
ENDBRANCH   1   4
BRANCH   1  17
HETATM   17  C6  UNL     1      24.538  -8.798  -3.623  1.00  0.00     0.102 A 
HETATM   18  C7  UNL     1      25.402  -9.488  -4.494  1.00  0.00     0.027 A 
HETATM   19  C8  UNL     1      26.484  -8.900  -5.093  1.00  0.00     0.002 A 
HETATM   20  C9  UNL     1      26.724  -7.581  -4.819  1.00  0.00     0.002 A 
HETATM   21  C10 UNL     1      25.892  -6.902  -3.975  1.00  0.00     0.025 A 
HETATM   22  C11 UNL     1      24.763  -7.487  -3.343  1.00  0.00     0.087 A 
BRANCH  22  23
HETATM   23  S2  UNL     1      23.790  -6.526  -2.321  1.00  0.00     0.208 S 
HETATM   24  O3  UNL     1      24.350  -5.087  -2.356  1.00  0.00    -0.217 OA
HETATM   25  O4  UNL     1      22.385  -6.326  -2.845  1.00  0.00    -0.217 OA
BRANCH  23  26
HETATM   26  C12 UNL     1      23.705  -6.923  -0.654  1.00  0.00     0.064 A 
HETATM   27  C13 UNL     1      24.848  -7.138   0.097  1.00  0.00     0.024 A 
HETATM   28  C14 UNL     1      24.755  -7.380   1.442  1.00  0.00     0.002 A 
HETATM   29  C15 UNL     1      23.543  -7.418   2.086  1.00  0.00     0.000 A 
HETATM   30  C16 UNL     1      22.393  -7.206   1.355  1.00  0.00     0.002 A 
HETATM   31  C17 UNL     1      22.492  -6.962   0.000  1.00  0.00     0.024 A 
ENDBRANCH  23  26
ENDBRANCH  22  23
ENDBRANCH   1  17
TORSDOF 6
ENDMDL
MODEL 4
REMARK VINA RESULT: -6.248680287      2.522      3.238
REMARK  6 active torsions:
REMARK  status: ('A' for Active; 'I' for Inactive)
REMARK    1  A    between atoms: C2_2  and  C3_3 
REMARK    2  A    between atoms: N1_4  and  N2_6 
REMARK       I    between atoms: C4_8  and  N3_9 
REMARK       I    between atoms: C4_8  and  N4_12 
REMARK    3  A    between atoms: N4_12  and  S1_14 
REMARK    4  A    between atoms: S1_14  and  C6_17 
REMARK    5  A    between atoms: C11_22  and  S2_23 
REMARK    6  A    between atoms: S2_23  and  C12_26 
ROOT
HETATM    1  S1  UNL     1      22.091 -13.312  -4.412  1.00  0.00     0.278 S 
HETATM    2  O1  UNL     1      21.942 -11.946  -5.061  1.00  0.00    -0.200 OA
HETATM    3  O2  UNL     1      21.279 -14.363  -5.096  1.00  0.00    -0.200 OA
ENDROOT
BRANCH   1   4
HETATM    4  N4  UNL     1      21.306 -13.100  -2.856  1.00  0.00    -0.111 N 
HETATM    5  C4  UNL     1      20.490 -14.117  -2.280  1.00  0.00     0.702 C 
HETATM    6  N2  UNL     1      20.147 -15.196  -2.885  1.00  0.00    -0.132 N 
HETATM    7  N3  UNL     1      19.978 -13.954  -0.958  1.00  0.00    -0.229 N 
ATOM      8  H2  UNL     1      20.529 -15.289  -3.827  1.00  0.00     0.205 HD
HETATM    9  C5  UNL     1      20.847 -13.534   0.125  1.00  0.00     0.165 C 
ATOM     10  H3  UNL     1      18.992 -14.135  -0.773  1.00  0.00     0.177 HD
ATOM     11  H4  UNL     1      21.436 -12.224  -2.351  1.00  0.00     0.197 HD
BRANCH   6  12
HETATM   12  N1  UNL     1      19.405 -16.181  -2.514  1.00  0.00    -0.298 N 
HETATM   13  C3  UNL     1      19.011 -17.115  -1.858  1.00  0.00     0.107 C 
ATOM     14  H1  UNL     1      18.693 -16.157  -3.244  1.00  0.00     0.186 HD
BRANCH  13  15
HETATM   15  C2  UNL     1      19.614 -17.645  -0.665  1.00  0.00     0.008 C 
HETATM   16  C1  UNL     1      20.136 -18.846  -0.648  1.00  0.00     0.013 C 
ENDBRANCH  13  15
ENDBRANCH   6  12
ENDBRANCH   1   4
BRANCH   1  17
HETATM   17  C6  UNL     1      23.744 -13.711  -4.148  1.00  0.00     0.102 A 
HETATM   18  C7  UNL     1      24.295 -13.439  -2.882  1.00  0.00     0.027 A 
HETATM   19  C8  UNL     1      25.608 -13.673  -2.573  1.00  0.00     0.002 A 
HETATM   20  C9  UNL     1      26.409 -14.194  -3.553  1.00  0.00     0.002 A 
HETATM   21  C10 UNL     1      25.885 -14.461  -4.785  1.00  0.00     0.025 A 
HETATM   22  C11 UNL     1      24.528 -14.230  -5.131  1.00  0.00     0.087 A 
BRANCH  22  23
HETATM   23  S2  UNL     1      23.990 -14.623  -6.703  1.00  0.00     0.208 S 
HETATM   24  O3  UNL     1      22.883 -15.692  -6.566  1.00  0.00    -0.217 OA
HETATM   25  O4  UNL     1      23.250 -13.495  -7.384  1.00  0.00    -0.217 OA
BRANCH  23  26
HETATM   26  C12 UNL     1      25.113 -15.295  -7.812  1.00  0.00     0.064 A 
HETATM   27  C13 UNL     1      25.080 -16.637  -8.150  1.00  0.00     0.024 A 
HETATM   28  C14 UNL     1      25.941 -17.133  -9.095  1.00  0.00     0.002 A 
HETATM   29  C15 UNL     1      26.854 -16.328  -9.730  1.00  0.00     0.000 A 
HETATM   30  C16 UNL     1      26.901 -14.988  -9.407  1.00  0.00     0.002 A 
HETATM   31  C17 UNL     1      26.032 -14.495  -8.456  1.00  0.00     0.024 A 
ENDBRANCH  23  26
ENDBRANCH  22  23
ENDBRANCH   1  17
TORSDOF 6
ENDMDL
MODEL 5
REMARK VINA RESULT: -6.171928704      3.748      7.237
REMARK  6 active torsions:
REMARK  status: ('A' for Active; 'I' for Inactive)
REMARK    1  A    between atoms: C2_2  and  C3_3 
REMARK    2  A    between atoms: N1_4  and  N2_6 
REMARK       I    between atoms: C4_8  and  N3_9 
REMARK       I    between atoms: C4_8  and  N4_12 
REMARK    3  A    between atoms: N4_12  and  S1_14 
REMARK    4  A    between atoms: S1_14  and  C6_17 
REMARK    5  A    between atoms: C11_22  and  S2_23 
REMARK    6  A    between atoms: S2_23  and  C12_26 
ROOT
HETATM    1  S1  UNL     1      22.909 -14.008  -5.491  1.00  0.00     0.278 S 
HETATM    2  O1  UNL     1      22.653 -15.368  -6.118  1.00  0.00    -0.200 OA
HETATM    3  O2  UNL     1      22.737 -12.887  -6.465  1.00  0.00    -0.200 OA
ENDROOT
BRANCH   1   4
HETATM    4  N4  UNL     1      24.633 -14.039  -5.164  1.00  0.00    -0.111 N 
HETATM    5  C4  UNL     1      25.600 -13.984  -6.210  1.00  0.00     0.702 C 
HETATM    6  N2  UNL     1      25.314 -14.047  -7.460  1.00  0.00    -0.132 N 
HETATM    7  N3  UNL     1      26.986 -13.880  -5.893  1.00  0.00    -0.229 N 
ATOM      8  H2  UNL     1      24.316 -14.117  -7.660  1.00  0.00     0.205 HD
HETATM    9  C5  UNL     1      27.452 -12.907  -4.923  1.00  0.00     0.165 C 
ATOM     10  H3  UNL     1      27.657 -14.496  -6.353  1.00  0.00     0.177 HD
ATOM     11  H4  UNL     1      24.953 -14.098  -4.197  1.00  0.00     0.197 HD
BRANCH   6  12
HETATM   12  N1  UNL     1      26.064 -14.039  -8.507  1.00  0.00    -0.298 N 
HETATM   13  C3  UNL     1      26.789 -14.448  -9.381  1.00  0.00     0.107 C 
ATOM     14  H1  UNL     1      26.013 -13.052  -8.759  1.00  0.00     0.186 HD
BRANCH  13  15
HETATM   15  C2  UNL     1      27.238 -15.802  -9.566  1.00  0.00     0.008 C 
HETATM   16  C1  UNL     1      26.389 -16.799  -9.579  1.00  0.00     0.013 C 
ENDBRANCH  13  15
ENDBRANCH   6  12
ENDBRANCH   1   4
BRANCH   1  17
HETATM   17  C6  UNL     1      22.065 -13.827  -4.003  1.00  0.00     0.102 A 
HETATM   18  C7  UNL     1      21.132 -14.819  -3.649  1.00  0.00     0.027 A 
HETATM   19  C8  UNL     1      20.371 -14.757  -2.512  1.00  0.00     0.002 A 
HETATM   20  C9  UNL     1      20.537 -13.672  -1.694  1.00  0.00     0.002 A 
HETATM   21  C10 UNL     1      21.440 -12.704  -2.028  1.00  0.00     0.025 A 
HETATM   22  C11 UNL     1      22.241 -12.744  -3.199  1.00  0.00     0.087 A 
BRANCH  22  23
HETATM   23  S2  UNL     1      23.347 -11.478  -3.496  1.00  0.00     0.208 S 
HETATM   24  O3  UNL     1      24.766 -12.017  -3.210  1.00  0.00    -0.217 OA
HETATM   25  O4  UNL     1      23.447 -11.098  -4.956  1.00  0.00    -0.217 OA
BRANCH  23  26
HETATM   26  C12 UNL     1      23.227 -10.046  -2.560  1.00  0.00     0.064 A 
HETATM   27  C13 UNL     1      24.002  -9.853  -1.429  1.00  0.00     0.024 A 
HETATM   28  C14 UNL     1      23.941  -8.669  -0.742  1.00  0.00     0.002 A 
HETATM   29  C15 UNL     1      23.120  -7.645  -1.144  1.00  0.00     0.000 A 
HETATM   30  C16 UNL     1      22.340  -7.817  -2.269  1.00  0.00     0.002 A 
HETATM   31  C17 UNL     1      22.406  -9.011  -2.957  1.00  0.00     0.024 A 
ENDBRANCH  23  26
ENDBRANCH  22  23
ENDBRANCH   1  17
TORSDOF 6
ENDMDL
