MODEL 1
REMARK VINA RESULT: -8.320620821      0.000      0.000
REMARK  6 active torsions:
REMARK  status: ('A' for Active; 'I' for Inactive)
REMARK    1  A    between atoms: C2_2  and  C3_3 
REMARK       I    between atoms: C3_3  and  N1_5 
REMARK    2  A    between atoms: N1_5  and  S1_7 
REMARK    3  A    between atoms: S1_7  and  C4_10 
REMARK    4  A    between atoms: C7_13  and  N2_14 
REMARK       I    between atoms: N2_14  and  C8_16 
REMARK    5  A    between atoms: C8_16  and  C9_18 
REMARK    6  A    between atoms: C12_21  and  N3_22 
ROOT
HETATM    1  N2  UNL     1      21.194 -12.365  -1.982  1.00  0.00    -0.323 N 
ATOM      2  H2  UNL     1      20.617 -11.547  -1.791  1.00  0.00     0.169 HD
HETATM    3  C8  UNL     1      22.456 -12.162  -2.532  1.00  0.00     0.256 C 
HETATM    4  O4  UNL     1      23.215 -13.142  -2.775  1.00  0.00    -0.267 OA
ENDROOT
BRANCH   1   5
HETATM    5  C7  UNL     1      20.668 -13.632  -1.675  1.00  0.00     0.035 A 
HETATM    6  C6  UNL     1      20.340 -14.026  -0.407  1.00  0.00     0.031 A 
HETATM    7  C5  UNL     1      19.795 -15.273  -0.121  1.00  0.00     0.027 A 
HETATM    8  C4  UNL     1      19.567 -16.156  -1.130  1.00  0.00     0.080 A 
HETATM    9  C19 UNL     1      19.894 -15.770  -2.408  1.00  0.00     0.027 A 
HETATM   10  C18 UNL     1      20.428 -14.554  -2.702  1.00  0.00     0.031 A 
BRANCH   8  11
HETATM   11  S1  UNL     1      18.870 -17.720  -0.840  1.00  0.00     0.265 S 
HETATM   12  O2  UNL     1      18.601 -18.454  -2.137  1.00  0.00    -0.200 OA
HETATM   13  O3  UNL     1      19.787 -18.573   0.006  1.00  0.00    -0.200 OA
BRANCH  11  14
HETATM   14  N1  UNL     1      17.376 -17.576  -0.012  1.00  0.00    -0.250 N 
HETATM   15  C3  UNL     1      16.380 -18.566  -0.164  1.00  0.00     0.230 C 
HETATM   16  O1  UNL     1      16.526 -19.573  -0.889  1.00  0.00    -0.273 OA
ATOM     17  H1  UNL     1      17.205 -16.773   0.594  1.00  0.00     0.181 HD
BRANCH  15  18
HETATM   18  C2  UNL     1      15.066 -18.465   0.548  1.00  0.00     0.099 C 
HETATM   19  C1  UNL     1      14.721 -17.042   0.888  1.00  0.00     0.014 C 
ENDBRANCH  15  18
ENDBRANCH  11  14
ENDBRANCH   8  11
ENDBRANCH   1   5
BRANCH   3  20
HETATM   20  C9  UNL     1      22.955 -10.793  -2.851  1.00  0.00     0.032 A 
HETATM   21  C10 UNL     1      22.208  -9.854  -3.505  1.00  0.00     0.019 A 
HETATM   22  C11 UNL     1      22.720  -8.586  -3.774  1.00  0.00     0.031 A 
HETATM   23  C12 UNL     1      23.996  -8.238  -3.390  1.00  0.00     0.039 A 
HETATM   24  C16 UNL     1      24.739  -9.194  -2.732  1.00  0.00     0.031 A 
HETATM   25  C17 UNL     1      24.232 -10.460  -2.462  1.00  0.00     0.019 A 
BRANCH  23  26
HETATM   26  N3  UNL     1      24.504  -6.936  -3.672  1.00  0.00    -0.317 N 
HETATM   27  C13 UNL     1      23.775  -5.801  -3.747  1.00  0.00     0.115 A 
HETATM   28  C14 UNL     1      24.569  -4.721  -4.035  1.00  0.00     0.106 A 
HETATM   29  N4  UNL     1      25.827  -5.218  -4.139  1.00  0.00    -0.360 N 
HETATM   30  C15 UNL     1      25.768  -6.554  -3.917  1.00  0.00     0.188 A 
ATOM     31  H4  UNL     1      26.669  -4.680  -4.347  1.00  0.00     0.166 HD
ENDBRANCH  23  26
ENDBRANCH   3  20
TORSDOF 6
ENDMDL
MODEL 2
REMARK VINA RESULT: -7.562755068      1.943      2.570
REMARK  6 active torsions:
REMARK  status: ('A' for Active; 'I' for Inactive)
REMARK    1  A    between atoms: C2_2  and  C3_3 
REMARK       I    between atoms: C3_3  and  N1_5 
REMARK    2  A    between atoms: N1_5  and  S1_7 
REMARK    3  A    between atoms: S1_7  and  C4_10 
REMARK    4  A    between atoms: C7_13  and  N2_14 
REMARK       I    between atoms: N2_14  and  C8_16 
REMARK    5  A    between atoms: C8_16  and  C9_18 
REMARK    6  A    between atoms: C12_21  and  N3_22 
ROOT
HETATM    1  N2  UNL     1      21.138 -12.480  -1.973  1.00  0.00    -0.323 N 
ATOM      2  H2  UNL     1      20.565 -11.672  -1.730  1.00  0.00     0.169 HD
HETATM    3  C8  UNL     1      22.375 -12.250  -2.568  1.00  0.00     0.256 C 
HETATM    4  O4  UNL     1      23.128 -13.216  -2.874  1.00  0.00    -0.267 OA
ENDROOT
BRANCH   1   5
HETATM    5  C7  UNL     1      20.632 -13.759  -1.686  1.00  0.00     0.035 A 
HETATM    6  C6  UNL     1      20.335 -14.188  -0.421  1.00  0.00     0.031 A 
HETATM    7  C5  UNL     1      19.810 -15.447  -0.155  1.00  0.00     0.027 A 
HETATM    8  C4  UNL     1      19.570 -16.308  -1.181  1.00  0.00     0.080 A 
HETATM    9  C19 UNL     1      19.866 -15.888  -2.455  1.00  0.00     0.027 A 
HETATM   10  C18 UNL     1      20.380 -14.659  -2.730  1.00  0.00     0.031 A 
BRANCH   8  11
HETATM   11  S1  UNL     1      18.896 -17.886  -0.915  1.00  0.00     0.265 S 
HETATM   12  O2  UNL     1      17.761 -17.841   0.087  1.00  0.00    -0.200 OA
HETATM   13  O3  UNL     1      18.368 -18.474  -2.204  1.00  0.00    -0.200 OA
BRANCH  11  14
HETATM   14  N1  UNL     1      20.082 -18.960  -0.298  1.00  0.00    -0.250 N 
HETATM   15  C3  UNL     1      20.330 -20.191  -0.943  1.00  0.00     0.230 C 
HETATM   16  O1  UNL     1      19.719 -20.559  -1.968  1.00  0.00    -0.273 OA
ATOM     17  H1  UNL     1      20.611 -18.708   0.538  1.00  0.00     0.181 HD
BRANCH  15  18
HETATM   18  C2  UNL     1      21.361 -21.147  -0.425  1.00  0.00     0.099 C 
HETATM   19  C1  UNL     1      20.886 -22.572  -0.489  1.00  0.00     0.014 C 
ENDBRANCH  15  18
ENDBRANCH  11  14
ENDBRANCH   8  11
ENDBRANCH   1   5
BRANCH   3  20
HETATM   20  C9  UNL     1      22.853 -10.868  -2.861  1.00  0.00     0.032 A 
HETATM   21  C10 UNL     1      22.068  -9.906  -3.432  1.00  0.00     0.019 A 
HETATM   22  C11 UNL     1      22.561  -8.627  -3.681  1.00  0.00     0.031 A 
HETATM   23  C12 UNL     1      23.858  -8.291  -3.361  1.00  0.00     0.039 A 
HETATM   24  C16 UNL     1      24.640  -9.270  -2.787  1.00  0.00     0.031 A 
HETATM   25  C17 UNL     1      24.150 -10.547  -2.536  1.00  0.00     0.019 A 
BRANCH  23  26
HETATM   26  N3  UNL     1      24.347  -6.977  -3.620  1.00  0.00    -0.317 N 
HETATM   27  C13 UNL     1      25.638  -6.641  -3.835  1.00  0.00     0.115 A 
HETATM   28  C14 UNL     1      25.769  -5.294  -4.054  1.00  0.00     0.106 A 
HETATM   29  N4  UNL     1      24.511  -4.792  -3.969  1.00  0.00    -0.360 N 
HETATM   30  C15 UNL     1      23.668  -5.821  -3.707  1.00  0.00     0.188 A 
ATOM     31  H4  UNL     1      24.247  -3.813  -4.081  1.00  0.00     0.166 HD
ENDBRANCH  23  26
ENDBRANCH   3  20
TORSDOF 6
ENDMDL
MODEL 3
REMARK VINA RESULT: -7.453390404      1.940      2.887
REMARK  6 active torsions:
REMARK  status: ('A' for Active; 'I' for Inactive)
REMARK    1  A    between atoms: C2_2  and  C3_3 
REMARK       I    between atoms: C3_3  and  N1_5 
REMARK    2  A    between atoms: N1_5  and  S1_7 
REMARK    3  A    between atoms: S1_7  and  C4_10 
REMARK    4  A    between atoms: C7_13  and  N2_14 
REMARK       I    between atoms: N2_14  and  C8_16 
REMARK    5  A    between atoms: C8_16  and  C9_18 
REMARK    6  A    between atoms: C12_21  and  N3_22 
ROOT
HETATM    1  N2  UNL     1      21.154 -12.562  -1.942  1.00  0.00    -0.323 N 
ATOM      2  H2  UNL     1      20.663 -11.750  -1.569  1.00  0.00     0.169 HD
HETATM    3  C8  UNL     1      22.346 -12.348  -2.628  1.00  0.00     0.256 C 
HETATM    4  O4  UNL     1      22.998 -13.321  -3.098  1.00  0.00    -0.267 OA
ENDROOT
BRANCH   1   5
HETATM    5  C7  UNL     1      20.588 -13.831  -1.732  1.00  0.00     0.035 A 
HETATM    6  C6  UNL     1      20.214 -14.669  -2.748  1.00  0.00     0.031 A 
HETATM    7  C5  UNL     1      19.679 -15.932  -2.526  1.00  0.00     0.027 A 
HETATM    8  C4  UNL     1      19.512 -16.379  -1.252  1.00  0.00     0.080 A 
HETATM    9  C19 UNL     1      19.884 -15.546  -0.225  1.00  0.00     0.027 A 
HETATM   10  C18 UNL     1      20.408 -14.307  -0.427  1.00  0.00     0.031 A 
BRANCH   8  11
HETATM   11  S1  UNL     1      18.869 -17.956  -0.910  1.00  0.00     0.265 S 
HETATM   12  O2  UNL     1      17.748 -17.887   0.105  1.00  0.00    -0.200 OA
HETATM   13  O3  UNL     1      18.333 -18.606  -2.165  1.00  0.00    -0.200 OA
BRANCH  11  14
HETATM   14  N1  UNL     1      20.083 -18.982  -0.267  1.00  0.00    -0.250 N 
HETATM   15  C3  UNL     1      20.385 -20.208  -0.899  1.00  0.00     0.230 C 
HETATM   16  O1  UNL     1      19.805 -20.604  -1.931  1.00  0.00    -0.273 OA
ATOM     17  H1  UNL     1      20.588 -18.706   0.576  1.00  0.00     0.181 HD
BRANCH  15  18
HETATM   18  C2  UNL     1      21.441 -21.123  -0.358  1.00  0.00     0.099 C 
HETATM   19  C1  UNL     1      22.363 -21.615  -1.438  1.00  0.00     0.014 C 
ENDBRANCH  15  18
ENDBRANCH  11  14
ENDBRANCH   8  11
ENDBRANCH   1   5
BRANCH   3  20
HETATM   20  C9  UNL     1      22.890 -10.975  -2.833  1.00  0.00     0.032 A 
HETATM   21  C10 UNL     1      24.130 -10.587  -2.408  1.00  0.00     0.019 A 
HETATM   22  C11 UNL     1      24.596  -9.292  -2.628  1.00  0.00     0.031 A 
HETATM   23  C12 UNL     1      23.820  -8.360  -3.282  1.00  0.00     0.039 A 
HETATM   24  C16 UNL     1      22.571  -8.763  -3.705  1.00  0.00     0.031 A 
HETATM   25  C17 UNL     1      22.104 -10.055  -3.487  1.00  0.00     0.019 A 
BRANCH  23  26
HETATM   26  N3  UNL     1      24.311  -7.040  -3.501  1.00  0.00    -0.317 N 
HETATM   27  C13 UNL     1      23.575  -5.907  -3.475  1.00  0.00     0.115 A 
HETATM   28  C14 UNL     1      24.353  -4.806  -3.727  1.00  0.00     0.106 A 
HETATM   29  N4  UNL     1      25.607  -5.287  -3.914  1.00  0.00    -0.360 N 
HETATM   30  C15 UNL     1      25.563  -6.635  -3.775  1.00  0.00     0.188 A 
ATOM     31  H4  UNL     1      26.438  -4.732  -4.123  1.00  0.00     0.166 HD
ENDBRANCH  23  26
ENDBRANCH   3  20
TORSDOF 6
ENDMDL
MODEL 4
REMARK VINA RESULT: -7.252186321      4.131     11.641
REMARK  6 active torsions:
REMARK  status: ('A' for Active; 'I' for Inactive)
REMARK    1  A    between atoms: C2_2  and  C3_3 
REMARK       I    between atoms: C3_3  and  N1_5 
REMARK    2  A    between atoms: N1_5  and  S1_7 
REMARK    3  A    between atoms: S1_7  and  C4_10 
REMARK    4  A    between atoms: C7_13  and  N2_14 
REMARK       I    between atoms: N2_14  and  C8_16 
REMARK    5  A    between atoms: C8_16  and  C9_18 
REMARK    6  A    between atoms: C12_21  and  N3_22 
ROOT
HETATM    1  N2  UNL     1      22.383 -10.944  -2.154  1.00  0.00    -0.323 N 
ATOM      2  H2  UNL     1      22.091 -10.975  -1.177  1.00  0.00     0.169 HD
HETATM    3  C8  UNL     1      22.023 -12.006  -2.978  1.00  0.00     0.256 C 
HETATM    4  O4  UNL     1      22.348 -12.008  -4.199  1.00  0.00    -0.267 OA
ENDROOT
BRANCH   1   5
HETATM    5  C7  UNL     1      23.126  -9.833  -2.587  1.00  0.00     0.035 A 
HETATM    6  C6  UNL     1      22.578  -8.772  -3.256  1.00  0.00     0.031 A 
HETATM    7  C5  UNL     1      23.321  -7.667  -3.655  1.00  0.00     0.027 A 
HETATM    8  C4  UNL     1      24.651  -7.612  -3.378  1.00  0.00     0.080 A 
HETATM    9  C19 UNL     1      25.211  -8.672  -2.707  1.00  0.00     0.027 A 
HETATM   10  C18 UNL     1      24.498  -9.761  -2.311  1.00  0.00     0.031 A 
BRANCH   8  11
HETATM   11  S1  UNL     1      25.627  -6.250  -3.831  1.00  0.00     0.265 S 
HETATM   12  O2  UNL     1      26.107  -5.485  -2.615  1.00  0.00    -0.200 OA
HETATM   13  O3  UNL     1      26.838  -6.690  -4.623  1.00  0.00    -0.200 OA
BRANCH  11  14
HETATM   14  N1  UNL     1      24.734  -5.157  -4.805  1.00  0.00    -0.250 N 
HETATM   15  C3  UNL     1      25.354  -4.002  -5.329  1.00  0.00     0.230 C 
HETATM   16  O1  UNL     1      26.552  -3.717  -5.120  1.00  0.00    -0.273 OA
ATOM     17  H1  UNL     1      23.751  -5.343  -5.007  1.00  0.00     0.181 HD
BRANCH  15  18
HETATM   18  C2  UNL     1      24.597  -3.031  -6.183  1.00  0.00     0.099 C 
HETATM   19  C1  UNL     1      23.132  -3.013  -5.845  1.00  0.00     0.014 C 
ENDBRANCH  15  18
ENDBRANCH  11  14
ENDBRANCH   8  11
ENDBRANCH   1   5
BRANCH   3  20
HETATM   20  C9  UNL     1      21.245 -13.167  -2.458  1.00  0.00     0.032 A 
HETATM   21  C10 UNL     1      20.612 -13.166  -1.247  1.00  0.00     0.019 A 
HETATM   22  C11 UNL     1      19.893 -14.277  -0.808  1.00  0.00     0.031 A 
HETATM   23  C12 UNL     1      19.798 -15.412  -1.582  1.00  0.00     0.039 A 
HETATM   24  C16 UNL     1      20.442 -15.401  -2.801  1.00  0.00     0.031 A 
HETATM   25  C17 UNL     1      21.160 -14.295  -3.241  1.00  0.00     0.019 A 
BRANCH  23  26
HETATM   26  N3  UNL     1      19.058 -16.539  -1.120  1.00  0.00    -0.317 N 
HETATM   27  C13 UNL     1      19.072 -17.774  -1.668  1.00  0.00     0.115 A 
HETATM   28  C14 UNL     1      18.246 -18.629  -0.982  1.00  0.00     0.106 A 
HETATM   29  N4  UNL     1      17.711 -17.886   0.019  1.00  0.00    -0.360 N 
HETATM   30  C15 UNL     1      18.211 -16.630  -0.080  1.00  0.00     0.188 A 
ATOM     31  H4  UNL     1      17.049 -18.215   0.722  1.00  0.00     0.166 HD
ENDBRANCH  23  26
ENDBRANCH   3  20
TORSDOF 6
ENDMDL
MODEL 5
REMARK VINA RESULT: -7.250728678      4.109     11.394
REMARK  6 active torsions:
REMARK  status: ('A' for Active; 'I' for Inactive)
REMARK    1  A    between atoms: C2_2  and  C3_3 
REMARK       I    between atoms: C3_3  and  N1_5 
REMARK    2  A    between atoms: N1_5  and  S1_7 
REMARK    3  A    between atoms: S1_7  and  C4_10 
REMARK    4  A    between atoms: C7_13  and  N2_14 
REMARK       I    between atoms: N2_14  and  C8_16 
REMARK    5  A    between atoms: C8_16  and  C9_18 
REMARK    6  A    between atoms: C12_21  and  N3_22 
ROOT
HETATM    1  N2  UNL     1      22.273 -10.932  -2.233  1.00  0.00    -0.323 N 
ATOM      2  H2  UNL     1      21.760 -10.887  -1.353  1.00  0.00     0.169 HD
HETATM    3  C8  UNL     1      22.176 -12.096  -2.989  1.00  0.00     0.256 C 
HETATM    4  O4  UNL     1      22.782 -12.195  -4.092  1.00  0.00    -0.267 OA
ENDROOT
BRANCH   1   5
HETATM    5  C7  UNL     1      23.038  -9.814  -2.609  1.00  0.00     0.035 A 
HETATM    6  C6  UNL     1      22.586  -8.840  -3.457  1.00  0.00     0.031 A 
HETATM    7  C5  UNL     1      23.343  -7.726  -3.800  1.00  0.00     0.027 A 
HETATM    8  C4  UNL     1      24.592  -7.574  -3.282  1.00  0.00     0.080 A 
HETATM    9  C19 UNL     1      25.056  -8.547  -2.429  1.00  0.00     0.027 A 
HETATM   10  C18 UNL     1      24.326  -9.643  -2.085  1.00  0.00     0.031 A 
BRANCH   8  11
HETATM   11  S1  UNL     1      25.578  -6.195  -3.655  1.00  0.00     0.265 S 
HETATM   12  O2  UNL     1      25.833  -5.349  -2.425  1.00  0.00    -0.200 OA
HETATM   13  O3  UNL     1      26.913  -6.622  -4.222  1.00  0.00    -0.200 OA
BRANCH  11  14
HETATM   14  N1  UNL     1      24.811  -5.194  -4.817  1.00  0.00    -0.250 N 
HETATM   15  C3  UNL     1      23.759  -4.336  -4.431  1.00  0.00     0.230 C 
HETATM   16  O1  UNL     1      23.337  -4.258  -3.258  1.00  0.00    -0.273 OA
ATOM     17  H1  UNL     1      25.116  -5.218  -5.790  1.00  0.00     0.181 HD
BRANCH  15  18
HETATM   18  C2  UNL     1      23.071  -3.451  -5.426  1.00  0.00     0.099 C 
HETATM   19  C1  UNL     1      24.013  -2.977  -6.498  1.00  0.00     0.014 C 
ENDBRANCH  15  18
ENDBRANCH  11  14
ENDBRANCH   8  11
ENDBRANCH   1   5
BRANCH   3  20
HETATM   20  C9  UNL     1      21.360 -13.256  -2.530  1.00  0.00     0.032 A 
HETATM   21  C10 UNL     1      21.195 -14.397  -3.265  1.00  0.00     0.019 A 
HETATM   22  C11 UNL     1      20.425 -15.457  -2.788  1.00  0.00     0.031 A 
HETATM   23  C12 UNL     1      19.806 -15.388  -1.560  1.00  0.00     0.039 A 
HETATM   24  C16 UNL     1      19.979 -14.233  -0.829  1.00  0.00     0.031 A 
HETATM   25  C17 UNL     1      20.747 -13.174  -1.301  1.00  0.00     0.019 A 
BRANCH  23  26
HETATM   26  N3  UNL     1      19.024 -16.482  -1.085  1.00  0.00    -0.317 N 
HETATM   27  C13 UNL     1      19.036 -17.738  -1.581  1.00  0.00     0.115 A 
HETATM   28  C14 UNL     1      18.166 -18.549  -0.898  1.00  0.00     0.106 A 
HETATM   29  N4  UNL     1      17.604 -17.756   0.048  1.00  0.00    -0.360 N 
HETATM   30  C15 UNL     1      18.133 -16.514  -0.080  1.00  0.00     0.188 A 
ATOM     31  H4  UNL     1      16.906 -18.043   0.734  1.00  0.00     0.166 HD
ENDBRANCH  23  26
ENDBRANCH   3  20
TORSDOF 6
ENDMDL
