MODEL 1
REMARK VINA RESULT: -7.772438945      0.000      0.000
REMARK  11 active torsions:
REMARK  status: ('A' for Active; 'I' for Inactive)
REMARK    1  A    between atoms: O1_1  and  C1_3 
REMARK    2  A    between atoms: C1_3  and  C2_4 
REMARK    3  A    between atoms: C2_4  and  S1_5 
REMARK    4  A    between atoms: S1_5  and  C3_6 
REMARK    5  A    between atoms: C8_11  and  C9_12 
REMARK    6  A    between atoms: C9_12  and  N1_13 
REMARK    7  A    between atoms: N1_13  and  N2_15 
REMARK    8  A    between atoms: N2_15  and  C10_16 
REMARK    9  A    between atoms: C10_16  and  O2_17 
REMARK   10  A    between atoms: C10_16  and  C11_19 
REMARK   11  A    between atoms: N4_26  and  C16_28 
ROOT
HETATM    1  C3  UNL     1      20.457 -14.520  -1.933  1.00  0.00     0.012 A 
HETATM    2  C4  UNL     1      20.860 -13.569  -1.075  1.00  0.00     0.019 A 
HETATM    3  C5  UNL     1      20.290 -13.373   0.185  1.00  0.00     0.001 A 
HETATM    4  C6  UNL     1      19.227 -14.268   0.575  1.00  0.00     0.001 A 
HETATM    5  C7  UNL     1      18.853 -15.212  -0.300  1.00  0.00     0.014 A 
HETATM    6  C8  UNL     1      19.443 -15.350  -1.543  1.00  0.00    -0.002 A 
ENDROOT
BRANCH   6   7
HETATM    7  C9  UNL     1      19.084 -16.517  -2.384  1.00  0.00     0.133 C 
BRANCH   7   8
HETATM    8  N1  UNL     1      19.091 -17.641  -2.083  1.00  0.00    -0.244 N 
ATOM      9  H1  UNL     1      20.051 -17.968  -1.975  1.00  0.00     0.201 HD
BRANCH   8  10
HETATM   10  N2  UNL     1      18.244 -18.627  -1.836  1.00  0.00    -0.299 NA
BRANCH  10  11
HETATM   11  C10 UNL     1      17.365 -19.626  -1.582  1.00  0.00     0.250 C 
BRANCH  11  12
HETATM   12  O2  UNL     1      16.195 -19.427  -1.000  1.00  0.00    -0.333 OA
ATOM     13  H2  UNL     1      15.623 -20.136  -0.729  1.00  0.00     0.220 HD
ENDBRANCH  11  12
BRANCH  11  14
HETATM   14  C11 UNL     1      17.531 -21.068  -1.850  1.00  0.00     0.047 A 
HETATM   15  C12 UNL     1      18.332 -21.496  -2.882  1.00  0.00     0.020 A 
HETATM   16  C13 UNL     1      18.739 -22.841  -2.984  1.00  0.00     0.018 A 
HETATM   17  C14 UNL     1      18.321 -23.772  -2.010  1.00  0.00     0.087 A 
HETATM   18  N3  UNL     1      17.511 -23.242  -1.001  1.00  0.00    -0.374 N 
HETATM   19  C15 UNL     1      17.147 -21.992  -0.931  1.00  0.00     0.104 A 
ATOM     20  H3  UNL     1      17.184 -23.875  -0.270  1.00  0.00     0.164 HD
ENDBRANCH  11  14
ENDBRANCH  10  11
ENDBRANCH   8  10
ENDBRANCH   7   8
ENDBRANCH   6   7
BRANCH   1  21
HETATM   21  S1  UNL     1      21.006 -14.521  -3.677  1.00  0.00    -0.121 SA
BRANCH  21  22
HETATM   22  C2  UNL     1      22.426 -13.304  -3.615  1.00  0.00     0.163 C 
BRANCH  22  23
HETATM   23  C1  UNL     1      22.495 -12.629  -4.947  1.00  0.00     0.127 C 
HETATM   24  N4  UNL     1      23.097 -12.702  -6.114  1.00  0.00    -0.320 N 
ATOM     25  H4  UNL     1      23.246 -11.810  -6.586  1.00  0.00     0.169 HD
BRANCH  23  26
HETATM   26  O1  UNL     1      21.664 -11.518  -4.917  1.00  0.00    -0.349 OA
ATOM     27  H1  UNL     1      21.485 -11.254  -5.812  1.00  0.00     0.219 HD
ENDBRANCH  23  26
BRANCH  24  28
HETATM   28  C16 UNL     1      23.544 -13.785  -6.771  1.00  0.00     0.150 A 
HETATM   29  N5  UNL     1      24.607 -13.829  -7.514  1.00  0.00    -0.346 N 
HETATM   30  C17 UNL     1      25.001 -14.981  -7.995  1.00  0.00     0.097 A 
ATOM     31  H5  UNL     1      25.130 -12.977  -7.721  1.00  0.00     0.167 HD
HETATM   32  C18 UNL     1      24.258 -16.077  -7.675  1.00  0.00     0.070 A 
HETATM   33  S2  UNL     1      22.992 -15.373  -6.701  1.00  0.00    -0.064 SA
ENDBRANCH  24  28
ENDBRANCH  22  23
ENDBRANCH  21  22
ENDBRANCH   1  21
TORSDOF 11
ENDMDL
MODEL 2
REMARK VINA RESULT: -7.762626346      2.293      3.528
REMARK  11 active torsions:
REMARK  status: ('A' for Active; 'I' for Inactive)
REMARK    1  A    between atoms: O1_1  and  C1_3 
REMARK    2  A    between atoms: C1_3  and  C2_4 
REMARK    3  A    between atoms: C2_4  and  S1_5 
REMARK    4  A    between atoms: S1_5  and  C3_6 
REMARK    5  A    between atoms: C8_11  and  C9_12 
REMARK    6  A    between atoms: C9_12  and  N1_13 
REMARK    7  A    between atoms: N1_13  and  N2_15 
REMARK    8  A    between atoms: N2_15  and  C10_16 
REMARK    9  A    between atoms: C10_16  and  O2_17 
REMARK   10  A    between atoms: C10_16  and  C11_19 
REMARK   11  A    between atoms: N4_26  and  C16_28 
ROOT
HETATM    1  C3  UNL     1      20.436 -14.539  -1.729  1.00  0.00     0.012 A 
HETATM    2  C4  UNL     1      20.765 -13.607  -0.821  1.00  0.00     0.019 A 
HETATM    3  C5  UNL     1      20.075 -13.418   0.379  1.00  0.00     0.001 A 
HETATM    4  C6  UNL     1      18.964 -14.300   0.647  1.00  0.00     0.001 A 
HETATM    5  C7  UNL     1      18.665 -15.225  -0.275  1.00  0.00     0.014 A 
HETATM    6  C8  UNL     1      19.375 -15.357  -1.454  1.00  0.00    -0.002 A 
ENDROOT
BRANCH   6   7
HETATM    7  C9  UNL     1      19.084 -16.507  -2.345  1.00  0.00     0.133 C 
BRANCH   7   8
HETATM    8  N1  UNL     1      19.083 -17.637  -2.071  1.00  0.00    -0.244 N 
ATOM      9  H1  UNL     1      20.042 -17.977  -1.986  1.00  0.00     0.201 HD
BRANCH   8  10
HETATM   10  N2  UNL     1      18.230 -18.620  -1.834  1.00  0.00    -0.299 NA
BRANCH  10  11
HETATM   11  C10 UNL     1      17.350 -19.619  -1.580  1.00  0.00     0.250 C 
BRANCH  11  12
HETATM   12  O2  UNL     1      16.174 -19.416  -1.012  1.00  0.00    -0.333 OA
ATOM     13  H2  UNL     1      15.508 -20.091  -0.944  1.00  0.00     0.220 HD
ENDBRANCH  11  12
BRANCH  11  14
HETATM   14  C11 UNL     1      17.521 -21.062  -1.834  1.00  0.00     0.047 A 
HETATM   15  C12 UNL     1      18.312 -21.498  -2.870  1.00  0.00     0.020 A 
HETATM   16  C13 UNL     1      18.726 -22.842  -2.962  1.00  0.00     0.018 A 
HETATM   17  C14 UNL     1      18.324 -23.764  -1.973  1.00  0.00     0.087 A 
HETATM   18  N3  UNL     1      17.523 -23.227  -0.960  1.00  0.00    -0.374 N 
HETATM   19  C15 UNL     1      17.152 -21.978  -0.901  1.00  0.00     0.104 A 
ATOM     20  H3  UNL     1      17.207 -23.853  -0.219  1.00  0.00     0.164 HD
ENDBRANCH  11  14
ENDBRANCH  10  11
ENDBRANCH   8  10
ENDBRANCH   7   8
ENDBRANCH   6   7
BRANCH   1  21
HETATM   21  S1  UNL     1      21.157 -14.527  -3.409  1.00  0.00    -0.121 SA
BRANCH  21  22
HETATM   22  C2  UNL     1      22.454 -13.188  -3.241  1.00  0.00     0.163 C 
BRANCH  22  23
HETATM   23  C1  UNL     1      22.048 -12.058  -4.130  1.00  0.00     0.127 C 
HETATM   24  N4  UNL     1      21.785 -10.770  -4.111  1.00  0.00    -0.320 N 
ATOM     25  H4  UNL     1      21.090 -10.455  -4.789  1.00  0.00     0.169 HD
BRANCH  23  26
HETATM   26  O1  UNL     1      21.836 -12.561  -5.406  1.00  0.00    -0.349 OA
ATOM     27  H1  UNL     1      22.466 -12.160  -5.994  1.00  0.00     0.219 HD
ENDBRANCH  23  26
BRANCH  24  28
HETATM   28  C16 UNL     1      22.301  -9.811  -3.326  1.00  0.00     0.150 A 
HETATM   29  N5  UNL     1      21.723  -8.686  -3.030  1.00  0.00    -0.346 N 
HETATM   30  C17 UNL     1      22.281  -7.894  -2.150  1.00  0.00     0.097 A 
ATOM     31  H5  UNL     1      20.844  -8.424  -3.478  1.00  0.00     0.167 HD
HETATM   32  C18 UNL     1      23.451  -8.311  -1.590  1.00  0.00     0.070 A 
HETATM   33  S2  UNL     1      23.703  -9.839  -2.396  1.00  0.00    -0.064 SA
ENDBRANCH  24  28
ENDBRANCH  22  23
ENDBRANCH  21  22
ENDBRANCH   1  21
TORSDOF 11
ENDMDL
MODEL 3
REMARK VINA RESULT: -7.595414122      3.279      8.798
REMARK  11 active torsions:
REMARK  status: ('A' for Active; 'I' for Inactive)
REMARK    1  A    between atoms: O1_1  and  C1_3 
REMARK    2  A    between atoms: C1_3  and  C2_4 
REMARK    3  A    between atoms: C2_4  and  S1_5 
REMARK    4  A    between atoms: S1_5  and  C3_6 
REMARK    5  A    between atoms: C8_11  and  C9_12 
REMARK    6  A    between atoms: C9_12  and  N1_13 
REMARK    7  A    between atoms: N1_13  and  N2_15 
REMARK    8  A    between atoms: N2_15  and  C10_16 
REMARK    9  A    between atoms: C10_16  and  O2_17 
REMARK   10  A    between atoms: C10_16  and  C11_19 
REMARK   11  A    between atoms: N4_26  and  C16_28 
ROOT
HETATM    1  C3  UNL     1      17.672 -19.359  -1.151  1.00  0.00     0.012 A 
HETATM    2  C4  UNL     1      16.423 -19.747  -0.848  1.00  0.00     0.019 A 
HETATM    3  C5  UNL     1      15.601 -19.072   0.058  1.00  0.00     0.001 A 
HETATM    4  C6  UNL     1      16.138 -17.882   0.674  1.00  0.00     0.001 A 
HETATM    5  C7  UNL     1      17.384 -17.516   0.346  1.00  0.00     0.014 A 
HETATM    6  C8  UNL     1      18.158 -18.233  -0.547  1.00  0.00    -0.002 A 
ENDROOT
BRANCH   6   7
HETATM    7  C9  UNL     1      19.463 -17.674  -0.979  1.00  0.00     0.133 C 
BRANCH   7   8
HETATM    8  N1  UNL     1      20.002 -16.729  -0.569  1.00  0.00    -0.244 N 
ATOM      9  H1  UNL     1      20.423 -16.932   0.338  1.00  0.00     0.201 HD
BRANCH   8  10
HETATM   10  N2  UNL     1      20.242 -15.473  -0.910  1.00  0.00    -0.299 NA
BRANCH  10  11
HETATM   11  C10 UNL     1      20.480 -14.189  -1.272  1.00  0.00     0.250 C 
BRANCH  11  12
HETATM   12  O2  UNL     1      20.026 -13.152  -0.591  1.00  0.00    -0.333 OA
ATOM     13  H2  UNL     1      20.487 -12.776   0.151  1.00  0.00     0.220 HD
ENDBRANCH  11  12
BRANCH  11  14
HETATM   14  C11 UNL     1      21.221 -13.703  -2.453  1.00  0.00     0.047 A 
HETATM   15  C12 UNL     1      21.299 -14.472  -3.589  1.00  0.00     0.020 A 
HETATM   16  C13 UNL     1      21.740 -13.928  -4.812  1.00  0.00     0.018 A 
HETATM   17  C14 UNL     1      22.110 -12.568  -4.878  1.00  0.00     0.087 A 
HETATM   18  N3  UNL     1      21.995 -11.869  -3.672  1.00  0.00    -0.374 N 
HETATM   19  C15 UNL     1      21.586 -12.399  -2.553  1.00  0.00     0.104 A 
ATOM     20  H3  UNL     1      22.248 -10.881  -3.667  1.00  0.00     0.164 HD
ENDBRANCH  11  14
ENDBRANCH  10  11
ENDBRANCH   8  10
ENDBRANCH   7   8
ENDBRANCH   6   7
BRANCH   1  21
HETATM   21  S1  UNL     1      18.807 -20.450  -2.080  1.00  0.00    -0.121 SA
BRANCH  21  22
HETATM   22  C2  UNL     1      17.880 -22.075  -2.026  1.00  0.00     0.163 C 
BRANCH  22  23
HETATM   23  C1  UNL     1      18.521 -22.919  -0.973  1.00  0.00     0.127 C 
HETATM   24  N4  UNL     1      19.628 -23.579  -0.707  1.00  0.00    -0.320 N 
ATOM     25  H4  UNL     1      19.513 -24.409  -0.124  1.00  0.00     0.169 HD
BRANCH  23  26
HETATM   26  O1  UNL     1      17.610 -23.099   0.058  1.00  0.00    -0.349 OA
ATOM     27  H1  UNL     1      16.997 -23.778  -0.199  1.00  0.00     0.219 HD
ENDBRANCH  23  26
BRANCH  24  28
HETATM   28  C16 UNL     1      20.886 -23.314  -1.093  1.00  0.00     0.150 A 
HETATM   29  N5  UNL     1      21.381 -23.560  -2.269  1.00  0.00    -0.346 N 
HETATM   30  C17 UNL     1      22.585 -23.135  -2.554  1.00  0.00     0.097 A 
ATOM     31  H5  UNL     1      20.838 -24.078  -2.960  1.00  0.00     0.167 HD
HETATM   32  C18 UNL     1      23.251 -22.448  -1.585  1.00  0.00     0.070 A 
HETATM   33  S2  UNL     1      22.093 -22.473  -0.278  1.00  0.00    -0.064 SA
ENDBRANCH  24  28
ENDBRANCH  22  23
ENDBRANCH  21  22
ENDBRANCH   1  21
TORSDOF 11
ENDMDL
MODEL 4
REMARK VINA RESULT: -7.548491606      1.158      1.308
REMARK  11 active torsions:
REMARK  status: ('A' for Active; 'I' for Inactive)
REMARK    1  A    between atoms: O1_1  and  C1_3 
REMARK    2  A    between atoms: C1_3  and  C2_4 
REMARK    3  A    between atoms: C2_4  and  S1_5 
REMARK    4  A    between atoms: S1_5  and  C3_6 
REMARK    5  A    between atoms: C8_11  and  C9_12 
REMARK    6  A    between atoms: C9_12  and  N1_13 
REMARK    7  A    between atoms: N1_13  and  N2_15 
REMARK    8  A    between atoms: N2_15  and  C10_16 
REMARK    9  A    between atoms: C10_16  and  O2_17 
REMARK   10  A    between atoms: C10_16  and  C11_19 
REMARK   11  A    between atoms: N4_26  and  C16_28 
ROOT
HETATM    1  C3  UNL     1      20.584 -14.338  -1.733  1.00  0.00     0.012 A 
HETATM    2  C4  UNL     1      20.795 -13.383  -0.813  1.00  0.00     0.019 A 
HETATM    3  C5  UNL     1      20.081 -13.291   0.384  1.00  0.00     0.001 A 
HETATM    4  C6  UNL     1      19.083 -14.302   0.636  1.00  0.00     0.001 A 
HETATM    5  C7  UNL     1      18.901 -15.247  -0.297  1.00  0.00     0.014 A 
HETATM    6  C8  UNL     1      19.628 -15.279  -1.473  1.00  0.00    -0.002 A 
ENDROOT
BRANCH   6   7
HETATM    7  C9  UNL     1      19.481 -16.446  -2.377  1.00  0.00     0.133 C 
BRANCH   7   8
HETATM    8  N1  UNL     1      18.599 -17.203  -2.425  1.00  0.00    -0.244 N 
ATOM      9  H1  UNL     1      17.792 -16.771  -2.875  1.00  0.00     0.201 HD
BRANCH   8  10
HETATM   10  N2  UNL     1      18.314 -18.448  -2.080  1.00  0.00    -0.299 NA
BRANCH  10  11
HETATM   11  C10 UNL     1      18.018 -19.718  -1.712  1.00  0.00     0.250 C 
BRANCH  11  12
HETATM   12  O2  UNL     1      16.948 -20.033  -1.004  1.00  0.00    -0.333 OA
ATOM     13  H2  UNL     1      16.899 -20.806  -0.453  1.00  0.00     0.220 HD
ENDBRANCH  11  12
BRANCH  11  14
HETATM   14  C11 UNL     1      18.799 -20.942  -1.975  1.00  0.00     0.047 A 
HETATM   15  C12 UNL     1      18.245 -21.982  -2.682  1.00  0.00     0.020 A 
HETATM   16  C13 UNL     1      19.041 -23.026  -3.196  1.00  0.00     0.018 A 
HETATM   17  C14 UNL     1      20.435 -23.008  -2.984  1.00  0.00     0.087 A 
HETATM   18  N3  UNL     1      20.905 -21.910  -2.256  1.00  0.00    -0.374 N 
HETATM   19  C15 UNL     1      20.145 -20.959  -1.790  1.00  0.00     0.104 A 
ATOM     20  H3  UNL     1      21.908 -21.850  -2.078  1.00  0.00     0.164 HD
ENDBRANCH  11  14
ENDBRANCH  10  11
ENDBRANCH   8  10
ENDBRANCH   7   8
ENDBRANCH   6   7
BRANCH   1  21
HETATM   21  S1  UNL     1      21.307 -14.220  -3.408  1.00  0.00    -0.121 SA
BRANCH  21  22
HETATM   22  C2  UNL     1      22.361 -12.683  -3.246  1.00  0.00     0.163 C 
BRANCH  22  23
HETATM   23  C1  UNL     1      22.430 -12.044  -4.595  1.00  0.00     0.127 C 
HETATM   24  N4  UNL     1      23.066 -12.117  -5.743  1.00  0.00    -0.320 N 
ATOM     25  H4  UNL     1      23.180 -11.232  -6.238  1.00  0.00     0.169 HD
BRANCH  23  26
HETATM   26  O1  UNL     1      21.540 -10.979  -4.620  1.00  0.00    -0.349 OA
ATOM     27  H1  UNL     1      20.691 -11.292  -4.331  1.00  0.00     0.219 HD
ENDBRANCH  23  26
BRANCH  24  28
HETATM   28  C16 UNL     1      23.588 -13.192  -6.356  1.00  0.00     0.150 A 
HETATM   29  N5  UNL     1      23.637 -13.378  -7.640  1.00  0.00    -0.346 N 
HETATM   30  C17 UNL     1      24.288 -14.411  -8.110  1.00  0.00     0.097 A 
ATOM     31  H5  UNL     1      23.175 -12.726  -8.275  1.00  0.00     0.167 HD
HETATM   32  C18 UNL     1      24.885 -15.237  -7.206  1.00  0.00     0.070 A 
HETATM   33  S2  UNL     1      24.446 -14.480  -5.695  1.00  0.00    -0.064 SA
ENDBRANCH  24  28
ENDBRANCH  22  23
ENDBRANCH  21  22
ENDBRANCH   1  21
TORSDOF 11
ENDMDL
MODEL 5
REMARK VINA RESULT: -7.545157234      2.017      2.801
REMARK  11 active torsions:
REMARK  status: ('A' for Active; 'I' for Inactive)
REMARK    1  A    between atoms: O1_1  and  C1_3 
REMARK    2  A    between atoms: C1_3  and  C2_4 
REMARK    3  A    between atoms: C2_4  and  S1_5 
REMARK    4  A    between atoms: S1_5  and  C3_6 
REMARK    5  A    between atoms: C8_11  and  C9_12 
REMARK    6  A    between atoms: C9_12  and  N1_13 
REMARK    7  A    between atoms: N1_13  and  N2_15 
REMARK    8  A    between atoms: N2_15  and  C10_16 
REMARK    9  A    between atoms: C10_16  and  O2_17 
REMARK   10  A    between atoms: C10_16  and  C11_19 
REMARK   11  A    between atoms: N4_26  and  C16_28 
ROOT
HETATM    1  C3  UNL     1      20.414 -14.623  -1.777  1.00  0.00     0.012 A 
HETATM    2  C4  UNL     1      20.800 -13.774  -0.811  1.00  0.00     0.019 A 
HETATM    3  C5  UNL     1      20.110 -13.604   0.391  1.00  0.00     0.001 A 
HETATM    4  C6  UNL     1      18.932 -14.414   0.595  1.00  0.00     0.001 A 
HETATM    5  C7  UNL     1      18.577 -15.257  -0.383  1.00  0.00     0.014 A 
HETATM    6  C8  UNL     1      19.291 -15.372  -1.562  1.00  0.00    -0.002 A 
ENDROOT
BRANCH   6   7
HETATM    7  C9  UNL     1      18.927 -16.442  -2.523  1.00  0.00     0.133 C 
BRANCH   7   8
HETATM    8  N1  UNL     1      18.975 -17.592  -2.359  1.00  0.00    -0.244 N 
ATOM      9  H1  UNL     1      19.887 -17.949  -2.645  1.00  0.00     0.201 HD
BRANCH   8  10
HETATM   10  N2  UNL     1      18.218 -18.583  -1.917  1.00  0.00    -0.299 NA
BRANCH  10  11
HETATM   11  C10 UNL     1      17.433 -19.597  -1.477  1.00  0.00     0.250 C 
BRANCH  11  12
HETATM   12  O2  UNL     1      16.422 -19.417  -0.646  1.00  0.00    -0.333 OA
ATOM     13  H2  UNL     1      15.640 -19.958  -0.655  1.00  0.00     0.220 HD
ENDBRANCH  11  12
BRANCH  11  14
HETATM   14  C11 UNL     1      17.555 -21.035  -1.785  1.00  0.00     0.047 A 
HETATM   15  C12 UNL     1      18.334 -21.459  -2.834  1.00  0.00     0.020 A 
HETATM   16  C13 UNL     1      18.702 -22.812  -2.975  1.00  0.00     0.018 A 
HETATM   17  C14 UNL     1      18.264 -23.756  -2.022  1.00  0.00     0.087 A 
HETATM   18  N3  UNL     1      17.478 -23.230  -0.992  1.00  0.00    -0.374 N 
HETATM   19  C15 UNL     1      17.151 -21.972  -0.887  1.00  0.00     0.104 A 
ATOM     20  H3  UNL     1      17.137 -23.872  -0.276  1.00  0.00     0.164 HD
ENDBRANCH  11  14
ENDBRANCH  10  11
ENDBRANCH   8  10
ENDBRANCH   7   8
ENDBRANCH   6   7
BRANCH   1  21
HETATM   21  S1  UNL     1      21.158 -14.565  -3.446  1.00  0.00    -0.121 SA
BRANCH  21  22
HETATM   22  C2  UNL     1      22.390 -13.171  -3.251  1.00  0.00     0.163 C 
BRANCH  22  23
HETATM   23  C1  UNL     1      22.398 -12.399  -4.530  1.00  0.00     0.127 C 
HETATM   24  N4  UNL     1      22.685 -11.213  -5.022  1.00  0.00    -0.320 N 
ATOM     25  H4  UNL     1      22.119 -10.921  -5.818  1.00  0.00     0.169 HD
BRANCH  23  26
HETATM   26  O1  UNL     1      21.881 -13.208  -5.532  1.00  0.00    -0.349 OA
ATOM     27  H1  UNL     1      22.564 -13.362  -6.175  1.00  0.00     0.219 HD
ENDBRANCH  23  26
BRANCH  24  28
HETATM   28  C16 UNL     1      23.619 -10.334  -4.623  1.00  0.00     0.150 A 
HETATM   29  N5  UNL     1      24.897 -10.452  -4.818  1.00  0.00    -0.346 N 
HETATM   30  C17 UNL     1      25.686  -9.460  -4.490  1.00  0.00     0.097 A 
ATOM     31  H5  UNL     1      25.282 -11.307  -5.221  1.00  0.00     0.167 HD
HETATM   32  C18 UNL     1      25.103  -8.348  -3.960  1.00  0.00     0.070 A 
HETATM   33  S2  UNL     1      23.419  -8.810  -3.938  1.00  0.00    -0.064 SA
ENDBRANCH  24  28
ENDBRANCH  22  23
ENDBRANCH  21  22
ENDBRANCH   1  21
TORSDOF 11
ENDMDL
