MODEL 1
REMARK VINA RESULT: -7.974110614      0.000      0.000
REMARK  13 active torsions:
REMARK  status: ('A' for Active; 'I' for Inactive)
REMARK       I    between atoms: C1_4  and  N2_5 
REMARK       I    between atoms: C1_4  and  N4_10 
REMARK    1  A    between atoms: N2_5  and  N3_7 
REMARK    2  A    between atoms: N4_10  and  N5_12 
REMARK       I    between atoms: N5_12  and  C2_14 
REMARK    3  A    between atoms: C2_14  and  C3_16 
REMARK    4  A    between atoms: C3_16  and  N6_17 
REMARK    5  A    between atoms: C3_16  and  C4_21 
REMARK    6  A    between atoms: C3_16  and  C5_24 
REMARK    7  A    between atoms: C4_21  and  O2_22 
REMARK    8  A    between atoms: C5_24  and  C6_26 
REMARK    9  A    between atoms: C6_26  and  C7_27 
REMARK   10  A    between atoms: C7_27  and  O4_28 
REMARK   11  A    between atoms: O4_28  and  C8_29 
REMARK   12  A    between atoms: C9_30  and  S1_31 
REMARK   13  A    between atoms: S1_31  and  N7_32 
ROOT
HETATM    1  C3  UNL     1      26.256 -32.336 278.708  1.00  0.00     0.284 C 
ENDROOT
BRANCH   1   2
HETATM    2  C2  UNL     1      27.154 -31.735 279.736  1.00  0.00     0.282 C 
HETATM    3  N5  UNL     1      26.731 -30.848 280.754  1.00  0.00    -0.253 N 
ATOM      4  H5  UNL     1      25.745 -30.592 280.802  1.00  0.00     0.190 HD
HETATM    5  O1  UNL     1      28.412 -32.004 279.750  1.00  0.00    -0.268 OA
BRANCH   3   6
HETATM    6  N4  UNL     1      27.609 -30.311 281.697  1.00  0.00    -0.129 N 
HETATM    7  C1  UNL     1      28.388 -31.119 282.554  1.00  0.00     0.704 C 
HETATM    8  N1  UNL     1      29.670 -31.177 282.448  1.00  0.00    -0.232 N 
HETATM    9  N2  UNL     1      27.741 -31.875 283.555  1.00  0.00    -0.138 N 
ATOM     10  H12 UNL     1      30.232 -31.761 283.066  1.00  0.00     0.174 HD
ATOM     11  H11 UNL     1      30.137 -30.630 281.724  1.00  0.00     0.174 HD
ATOM     12  H2  UNL     1      26.841 -32.313 283.358  1.00  0.00     0.205 HD
ATOM     13  H4  UNL     1      27.691 -29.297 281.770  1.00  0.00     0.205 HD
BRANCH   9  14
HETATM   14  N3  UNL     1      28.323 -32.028 284.806  1.00  0.00    -0.331 N 
ATOM     15  H32 UNL     1      27.720 -32.192 285.612  1.00  0.00     0.177 HD
ATOM     16  H31 UNL     1      29.336 -31.976 284.913  1.00  0.00     0.177 HD
ENDBRANCH   9  14
ENDBRANCH   3   6
ENDBRANCH   1   2
BRANCH   1  17
HETATM   17  N6  UNL     1      25.337 -31.246 278.338  1.00  0.00    -0.052 N 
ATOM     18  H63 UNL     1      24.839 -30.836 279.128  1.00  0.00     0.276 HD
ATOM     19  H62 UNL     1      25.804 -30.390 278.041  1.00  0.00     0.276 HD
ATOM     20  H61 UNL     1      24.728 -31.655 277.629  1.00  0.00     0.276 HD
ENDBRANCH   1  17
BRANCH   1  21
HETATM   21  C4  UNL     1      27.058 -32.834 277.548  1.00  0.00     0.221 C 
BRANCH  21  22
HETATM   22  O2  UNL     1      27.948 -31.913 277.053  1.00  0.00    -0.397 OA
ATOM     23  H2  UNL     1      27.595 -31.372 276.357  1.00  0.00     0.209 HD
ENDBRANCH  21  22
ENDBRANCH   1  21
BRANCH   1  24
HETATM   24  C5  UNL     1      25.429 -33.428 279.306  1.00  0.00     0.176 C 
HETATM   25  O3  UNL     1      25.643 -34.560 278.878  1.00  0.00    -0.295 OA
BRANCH  24  26
HETATM   26  C6  UNL     1      24.414 -33.175 280.350  1.00  0.00     0.108 C 
BRANCH  26  27
HETATM   27  C7  UNL     1      24.783 -33.755 281.660  1.00  0.00     0.183 C 
BRANCH  27  28
HETATM   28  O4  UNL     1      25.210 -32.940 282.701  1.00  0.00    -0.343 OA
BRANCH  28  29
HETATM   29  C8  UNL     1      24.519 -32.967 283.929  1.00  0.00     0.177 A 
HETATM   30  C9  UNL     1      23.871 -31.807 284.269  1.00  0.00     0.192 A 
HETATM   31  N8  UNL     1      23.163 -31.790 285.447  1.00  0.00    -0.295 N 
HETATM   32  C10 UNL     1      23.084 -32.844 286.263  1.00  0.00     0.328 A 
ATOM     33  H8  UNL     1      22.674 -30.933 285.709  1.00  0.00     0.171 HD
HETATM   34  O7  UNL     1      22.408 -32.773 287.351  1.00  0.00    -0.247 OA
HETATM   35  N9  UNL     1      23.734 -33.947 285.896  1.00  0.00    -0.273 N 
HETATM   36  C11 UNL     1      24.462 -34.073 284.753  1.00  0.00     0.285 A 
ATOM     37  H9  UNL     1      23.682 -34.755 286.516  1.00  0.00     0.173 HD
HETATM   38  O8  UNL     1      25.043 -35.129 284.484  1.00  0.00    -0.265 OA
BRANCH  30  39
HETATM   39  S1  UNL     1      24.036 -30.319 283.399  1.00  0.00     0.275 S 
HETATM   40  O5  UNL     1      25.350 -29.727 283.241  1.00  0.00    -0.199 OA
HETATM   41  O6  UNL     1      23.234 -29.295 284.263  1.00  0.00    -0.199 OA
BRANCH  39  42
HETATM   42  N7  UNL     1      23.086 -30.366 281.930  1.00  0.00    -0.323 N 
ATOM     43  H72 UNL     1      22.125 -30.031 281.861  1.00  0.00     0.169 HD
ATOM     44  H71 UNL     1      23.630 -30.771 281.169  1.00  0.00     0.169 HD
ENDBRANCH  39  42
ENDBRANCH  30  39
ENDBRANCH  28  29
ENDBRANCH  27  28
ENDBRANCH  26  27
ENDBRANCH  24  26
ENDBRANCH   1  24
TORSDOF 13
ENDMDL
MODEL 2
REMARK VINA RESULT: -7.872974823      3.206      4.262
REMARK  13 active torsions:
REMARK  status: ('A' for Active; 'I' for Inactive)
REMARK       I    between atoms: C1_4  and  N2_5 
REMARK       I    between atoms: C1_4  and  N4_10 
REMARK    1  A    between atoms: N2_5  and  N3_7 
REMARK    2  A    between atoms: N4_10  and  N5_12 
REMARK       I    between atoms: N5_12  and  C2_14 
REMARK    3  A    between atoms: C2_14  and  C3_16 
REMARK    4  A    between atoms: C3_16  and  N6_17 
REMARK    5  A    between atoms: C3_16  and  C4_21 
REMARK    6  A    between atoms: C3_16  and  C5_24 
REMARK    7  A    between atoms: C4_21  and  O2_22 
REMARK    8  A    between atoms: C5_24  and  C6_26 
REMARK    9  A    between atoms: C6_26  and  C7_27 
REMARK   10  A    between atoms: C7_27  and  O4_28 
REMARK   11  A    between atoms: O4_28  and  C8_29 
REMARK   12  A    between atoms: C9_30  and  S1_31 
REMARK   13  A    between atoms: S1_31  and  N7_32 
ROOT
HETATM    1  C3  UNL     1      26.116 -33.325 278.183  1.00  0.00     0.284 C 
ENDROOT
BRANCH   1   2
HETATM    2  C2  UNL     1      25.544 -34.687 278.392  1.00  0.00     0.282 C 
HETATM    3  N5  UNL     1      24.553 -35.005 279.351  1.00  0.00    -0.253 N 
ATOM      4  H5  UNL     1      24.194 -34.261 279.950  1.00  0.00     0.190 HD
HETATM    5  O1  UNL     1      25.939 -35.684 277.682  1.00  0.00    -0.268 OA
BRANCH   3   6
HETATM    6  N4  UNL     1      24.046 -36.296 279.511  1.00  0.00    -0.129 N 
HETATM    7  C1  UNL     1      24.636 -37.239 280.381  1.00  0.00     0.704 C 
HETATM    8  N1  UNL     1      24.037 -37.642 281.447  1.00  0.00    -0.232 N 
HETATM    9  N2  UNL     1      25.912 -37.754 280.067  1.00  0.00    -0.138 N 
ATOM     10  H12 UNL     1      24.463 -38.323 282.076  1.00  0.00     0.174 HD
ATOM     11  H11 UNL     1      23.115 -37.269 281.674  1.00  0.00     0.174 HD
ATOM     12  H2  UNL     1      26.619 -37.144 279.656  1.00  0.00     0.205 HD
ATOM     13  H4  UNL     1      23.220 -36.569 278.979  1.00  0.00     0.205 HD
BRANCH   9  14
HETATM   14  N3  UNL     1      26.211 -39.087 280.315  1.00  0.00    -0.331 N 
ATOM     15  H32 UNL     1      26.746 -39.608 279.620  1.00  0.00     0.177 HD
ATOM     16  H31 UNL     1      25.901 -39.533 281.178  1.00  0.00     0.177 HD
ENDBRANCH   9  14
ENDBRANCH   3   6
ENDBRANCH   1   2
BRANCH   1  17
HETATM   17  N6  UNL     1      27.130 -33.184 279.242  1.00  0.00    -0.052 N 
ATOM     18  H63 UNL     1      26.803 -33.455 280.169  1.00  0.00     0.276 HD
ATOM     19  H62 UNL     1      27.888 -33.863 279.185  1.00  0.00     0.276 HD
ATOM     20  H61 UNL     1      27.435 -32.213 279.175  1.00  0.00     0.276 HD
ENDBRANCH   1  17
BRANCH   1  21
HETATM   21  C4  UNL     1      26.695 -33.214 276.809  1.00  0.00     0.221 C 
BRANCH  21  22
HETATM   22  O2  UNL     1      27.596 -34.205 276.505  1.00  0.00    -0.397 OA
ATOM     23  H2  UNL     1      27.364 -34.712 275.735  1.00  0.00     0.209 HD
ENDBRANCH  21  22
ENDBRANCH   1  21
BRANCH   1  24
HETATM   24  C5  UNL     1      25.077 -32.277 278.422  1.00  0.00     0.176 C 
HETATM   25  O3  UNL     1      24.179 -32.210 277.586  1.00  0.00    -0.295 OA
BRANCH  24  26
HETATM   26  C6  UNL     1      25.117 -31.372 279.590  1.00  0.00     0.108 C 
BRANCH  26  27
HETATM   27  C7  UNL     1      24.641 -32.019 280.832  1.00  0.00     0.183 C 
BRANCH  27  28
HETATM   28  O4  UNL     1      25.362 -33.055 281.412  1.00  0.00    -0.343 OA
BRANCH  28  29
HETATM   29  C8  UNL     1      25.390 -33.176 282.816  1.00  0.00     0.177 A 
HETATM   30  C9  UNL     1      26.278 -32.355 283.463  1.00  0.00     0.192 A 
HETATM   31  N8  UNL     1      26.328 -32.418 284.835  1.00  0.00    -0.295 N 
HETATM   32  C10 UNL     1      25.557 -33.239 285.552  1.00  0.00     0.328 A 
ATOM     33  H8  UNL     1      26.983 -31.810 285.327  1.00  0.00     0.171 HD
HETATM   34  O7  UNL     1      25.645 -33.257 286.833  1.00  0.00    -0.247 OA
HETATM   35  N9  UNL     1      24.715 -34.023 284.883  1.00  0.00    -0.273 N 
HETATM   36  C11 UNL     1      24.584 -34.040 283.528  1.00  0.00     0.285 A 
ATOM     37  H9  UNL     1      24.126 -34.656 285.424  1.00  0.00     0.173 HD
HETATM   38  O8  UNL     1      23.782 -34.802 282.978  1.00  0.00    -0.265 OA
BRANCH  30  39
HETATM   39  S1  UNL     1      27.455 -31.378 282.651  1.00  0.00     0.275 S 
HETATM   40  O5  UNL     1      28.184 -31.928 281.525  1.00  0.00    -0.199 OA
HETATM   41  O6  UNL     1      28.540 -31.121 283.745  1.00  0.00    -0.199 OA
BRANCH  39  42
HETATM   42  N7  UNL     1      26.829 -29.766 282.387  1.00  0.00    -0.323 N 
ATOM     43  H72 UNL     1      27.282 -29.067 281.799  1.00  0.00     0.169 HD
ATOM     44  H71 UNL     1      25.959 -29.635 282.902  1.00  0.00     0.169 HD
ENDBRANCH  39  42
ENDBRANCH  30  39
ENDBRANCH  28  29
ENDBRANCH  27  28
ENDBRANCH  26  27
ENDBRANCH  24  26
ENDBRANCH   1  24
TORSDOF 13
ENDMDL
MODEL 3
REMARK VINA RESULT: -7.827621187      2.853      6.098
REMARK  13 active torsions:
REMARK  status: ('A' for Active; 'I' for Inactive)
REMARK       I    between atoms: C1_4  and  N2_5 
REMARK       I    between atoms: C1_4  and  N4_10 
REMARK    1  A    between atoms: N2_5  and  N3_7 
REMARK    2  A    between atoms: N4_10  and  N5_12 
REMARK       I    between atoms: N5_12  and  C2_14 
REMARK    3  A    between atoms: C2_14  and  C3_16 
REMARK    4  A    between atoms: C3_16  and  N6_17 
REMARK    5  A    between atoms: C3_16  and  C4_21 
REMARK    6  A    between atoms: C3_16  and  C5_24 
REMARK    7  A    between atoms: C4_21  and  O2_22 
REMARK    8  A    between atoms: C5_24  and  C6_26 
REMARK    9  A    between atoms: C6_26  and  C7_27 
REMARK   10  A    between atoms: C7_27  and  O4_28 
REMARK   11  A    between atoms: O4_28  and  C8_29 
REMARK   12  A    between atoms: C9_30  and  S1_31 
REMARK   13  A    between atoms: S1_31  and  N7_32 
ROOT
HETATM    1  C3  UNL     1      24.885 -30.655 283.448  1.00  0.00     0.284 C 
ENDROOT
BRANCH   1   2
HETATM    2  C2  UNL     1      26.248 -30.366 282.913  1.00  0.00     0.282 C 
HETATM    3  N5  UNL     1      27.456 -30.682 283.577  1.00  0.00    -0.253 N 
ATOM      4  H5  UNL     1      27.409 -31.139 284.488  1.00  0.00     0.190 HD
HETATM    5  O1  UNL     1      26.399 -29.792 281.773  1.00  0.00    -0.268 OA
BRANCH   3   6
HETATM    6  N4  UNL     1      28.710 -30.394 283.036  1.00  0.00    -0.129 N 
HETATM    7  C1  UNL     1      29.912 -30.642 283.735  1.00  0.00     0.704 C 
HETATM    8  N1  UNL     1      30.745 -31.544 283.348  1.00  0.00    -0.232 N 
HETATM    9  N2  UNL     1      30.206 -29.875 284.883  1.00  0.00    -0.138 N 
ATOM     10  H12 UNL     1      31.613 -31.723 283.852  1.00  0.00     0.174 HD
ATOM     11  H11 UNL     1      30.532 -32.098 282.518  1.00  0.00     0.174 HD
ATOM     12  H2  UNL     1      29.457 -29.615 285.525  1.00  0.00     0.205 HD
ATOM     13  H4  UNL     1      28.760 -29.988 282.102  1.00  0.00     0.205 HD
BRANCH   9  14
HETATM   14  N3  UNL     1      31.509 -29.474 285.144  1.00  0.00    -0.331 N 
ATOM     15  H32 UNL     1      32.265 -30.147 285.021  1.00  0.00     0.177 HD
ATOM     16  H31 UNL     1      31.703 -28.521 285.453  1.00  0.00     0.177 HD
ENDBRANCH   9  14
ENDBRANCH   3   6
ENDBRANCH   1   2
BRANCH   1  17
HETATM   17  N6  UNL     1      24.900 -30.103 284.814  1.00  0.00    -0.052 N 
ATOM     18  H63 UNL     1      24.296 -29.291 284.941  1.00  0.00     0.276 HD
ATOM     19  H62 UNL     1      24.444 -30.694 285.508  1.00  0.00     0.276 HD
ATOM     20  H61 UNL     1      25.886 -29.923 285.005  1.00  0.00     0.276 HD
ENDBRANCH   1  17
BRANCH   1  21
HETATM   21  C4  UNL     1      23.844 -30.022 282.581  1.00  0.00     0.221 C 
BRANCH  21  22
HETATM   22  O2  UNL     1      23.575 -28.714 282.902  1.00  0.00    -0.397 OA
ATOM     23  H2  UNL     1      24.271 -28.286 283.386  1.00  0.00     0.209 HD
ENDBRANCH  21  22
ENDBRANCH   1  21
BRANCH   1  24
HETATM   24  C5  UNL     1      24.669 -32.129 283.570  1.00  0.00     0.176 C 
HETATM   25  O3  UNL     1      23.906 -32.488 284.464  1.00  0.00    -0.295 OA
BRANCH  24  26
HETATM   26  C6  UNL     1      25.327 -33.104 282.675  1.00  0.00     0.108 C 
BRANCH  26  27
HETATM   27  C7  UNL     1      24.403 -34.154 282.193  1.00  0.00     0.183 C 
BRANCH  27  28
HETATM   28  O4  UNL     1      23.848 -34.080 280.922  1.00  0.00    -0.343 OA
BRANCH  28  29
HETATM   29  C8  UNL     1      24.697 -34.062 279.797  1.00  0.00     0.177 A 
HETATM   30  C9  UNL     1      25.038 -35.291 279.294  1.00  0.00     0.192 A 
HETATM   31  N8  UNL     1      25.846 -35.328 278.182  1.00  0.00    -0.295 N 
HETATM   32  C10 UNL     1      26.309 -34.226 277.585  1.00  0.00     0.328 A 
ATOM     33  H8  UNL     1      26.104 -36.236 277.797  1.00  0.00     0.171 HD
HETATM   34  O7  UNL     1      27.061 -34.318 276.548  1.00  0.00    -0.247 OA
HETATM   35  N9  UNL     1      25.959 -33.056 278.112  1.00  0.00    -0.273 N 
HETATM   36  C11 UNL     1      25.164 -32.905 279.206  1.00  0.00     0.285 A 
ATOM     37  H9  UNL     1      26.312 -32.210 277.663  1.00  0.00     0.173 HD
HETATM   38  O8  UNL     1      24.887 -31.782 279.641  1.00  0.00    -0.265 OA
BRANCH  30  39
HETATM   39  S1  UNL     1      24.658 -36.791 280.071  1.00  0.00     0.275 S 
HETATM   40  O5  UNL     1      24.889 -36.935 281.495  1.00  0.00    -0.199 OA
HETATM   41  O6  UNL     1      25.632 -37.812 279.401  1.00  0.00    -0.199 OA
BRANCH  39  42
HETATM   42  N7  UNL     1      23.101 -37.379 279.530  1.00  0.00    -0.323 N 
ATOM     43  H72 UNL     1      22.522 -38.030 280.059  1.00  0.00     0.169 HD
ATOM     44  H71 UNL     1      22.866 -36.976 278.623  1.00  0.00     0.169 HD
ENDBRANCH  39  42
ENDBRANCH  30  39
ENDBRANCH  28  29
ENDBRANCH  27  28
ENDBRANCH  26  27
ENDBRANCH  24  26
ENDBRANCH   1  24
TORSDOF 13
ENDMDL
MODEL 4
REMARK VINA RESULT: -7.796407308      3.393      5.122
REMARK  13 active torsions:
REMARK  status: ('A' for Active; 'I' for Inactive)
REMARK       I    between atoms: C1_4  and  N2_5 
REMARK       I    between atoms: C1_4  and  N4_10 
REMARK    1  A    between atoms: N2_5  and  N3_7 
REMARK    2  A    between atoms: N4_10  and  N5_12 
REMARK       I    between atoms: N5_12  and  C2_14 
REMARK    3  A    between atoms: C2_14  and  C3_16 
REMARK    4  A    between atoms: C3_16  and  N6_17 
REMARK    5  A    between atoms: C3_16  and  C4_21 
REMARK    6  A    between atoms: C3_16  and  C5_24 
REMARK    7  A    between atoms: C4_21  and  O2_22 
REMARK    8  A    between atoms: C5_24  and  C6_26 
REMARK    9  A    between atoms: C6_26  and  C7_27 
REMARK   10  A    between atoms: C7_27  and  O4_28 
REMARK   11  A    between atoms: O4_28  and  C8_29 
REMARK   12  A    between atoms: C9_30  and  S1_31 
REMARK   13  A    between atoms: S1_31  and  N7_32 
ROOT
HETATM    1  C3  UNL     1      26.056 -33.193 278.900  1.00  0.00     0.284 C 
ENDROOT
BRANCH   1   2
HETATM    2  C2  UNL     1      25.550 -34.589 278.754  1.00  0.00     0.282 C 
HETATM    3  N5  UNL     1      24.616 -35.201 279.624  1.00  0.00    -0.253 N 
ATOM      4  H5  UNL     1      24.255 -34.663 280.411  1.00  0.00     0.190 HD
HETATM    5  O1  UNL     1      25.953 -35.339 277.790  1.00  0.00    -0.268 OA
BRANCH   3   6
HETATM    6  N4  UNL     1      24.170 -36.512 279.447  1.00  0.00    -0.129 N 
HETATM    7  C1  UNL     1      24.605 -37.577 280.266  1.00  0.00     0.704 C 
HETATM    8  N1  UNL     1      23.805 -38.173 281.081  1.00  0.00    -0.232 N 
HETATM    9  N2  UNL     1      25.949 -38.000 280.182  1.00  0.00    -0.138 N 
ATOM     10  H12 UNL     1      24.119 -38.942 281.672  1.00  0.00     0.174 HD
ATOM     11  H11 UNL     1      22.834 -37.867 281.141  1.00  0.00     0.174 HD
ATOM     12  H2  UNL     1      26.691 -37.311 280.054  1.00  0.00     0.205 HD
ATOM     13  H4  UNL     1      23.506 -36.708 278.698  1.00  0.00     0.205 HD
BRANCH   9  14
HETATM   14  N3  UNL     1      26.268 -39.347 280.272  1.00  0.00    -0.331 N 
ATOM     15  H32 UNL     1      26.222 -39.803 281.184  1.00  0.00     0.177 HD
ATOM     16  H31 UNL     1      26.543 -39.869 279.440  1.00  0.00     0.177 HD
ENDBRANCH   9  14
ENDBRANCH   3   6
ENDBRANCH   1   2
BRANCH   1  17
HETATM   17  N6  UNL     1      26.536 -33.118 280.290  1.00  0.00    -0.052 N 
ATOM     18  H63 UNL     1      26.378 -33.968 280.831  1.00  0.00     0.276 HD
ATOM     19  H62 UNL     1      27.551 -33.113 280.381  1.00  0.00     0.276 HD
ATOM     20  H61 UNL     1      26.080 -32.290 280.673  1.00  0.00     0.276 HD
ENDBRANCH   1  17
BRANCH   1  21
HETATM   21  C4  UNL     1      27.136 -32.928 277.901  1.00  0.00     0.221 C 
BRANCH  21  22
HETATM   22  O2  UNL     1      26.751 -33.134 276.599  1.00  0.00    -0.397 OA
ATOM     23  H2  UNL     1      27.373 -32.809 275.958  1.00  0.00     0.209 HD
ENDBRANCH  21  22
ENDBRANCH   1  21
BRANCH   1  24
HETATM   24  C5  UNL     1      24.937 -32.212 278.764  1.00  0.00     0.176 C 
HETATM   25  O3  UNL     1      24.521 -32.026 277.623  1.00  0.00    -0.295 OA
BRANCH  24  26
HETATM   26  C6  UNL     1      24.357 -31.503 279.924  1.00  0.00     0.108 C 
BRANCH  26  27
HETATM   27  C7  UNL     1      25.347 -30.667 280.639  1.00  0.00     0.183 C 
BRANCH  27  28
HETATM   28  O4  UNL     1      25.385 -30.645 282.027  1.00  0.00    -0.343 OA
BRANCH  28  29
HETATM   29  C8  UNL     1      26.608 -30.876 282.688  1.00  0.00     0.177 A 
HETATM   30  C9  UNL     1      26.574 -31.820 283.682  1.00  0.00     0.192 A 
HETATM   31  N8  UNL     1      27.747 -32.099 284.343  1.00  0.00    -0.295 N 
HETATM   32  C10 UNL     1      28.902 -31.492 284.059  1.00  0.00     0.328 A 
ATOM     33  H8  UNL     1      27.735 -32.802 285.082  1.00  0.00     0.171 HD
HETATM   34  O7  UNL     1      29.969 -31.791 284.708  1.00  0.00    -0.247 OA
HETATM   35  N9  UNL     1      28.887 -30.577 283.093  1.00  0.00    -0.273 N 
HETATM   36  C11 UNL     1      27.785 -30.226 282.375  1.00  0.00     0.285 A 
ATOM     37  H9  UNL     1      29.765 -30.106 282.873  1.00  0.00     0.173 HD
HETATM   38  O8  UNL     1      27.849 -29.362 281.495  1.00  0.00    -0.265 OA
BRANCH  30  39
HETATM   39  S1  UNL     1      25.118 -32.550 284.270  1.00  0.00     0.275 S 
HETATM   40  O5  UNL     1      24.203 -31.766 285.076  1.00  0.00    -0.199 OA
HETATM   41  O6  UNL     1      25.628 -33.678 285.223  1.00  0.00    -0.199 OA
BRANCH  39  42
HETATM   42  N7  UNL     1      24.348 -33.478 283.002  1.00  0.00    -0.323 N 
ATOM     43  H72 UNL     1      24.833 -34.160 282.420  1.00  0.00     0.169 HD
ATOM     44  H71 UNL     1      23.360 -33.235 282.936  1.00  0.00     0.169 HD
ENDBRANCH  39  42
ENDBRANCH  30  39
ENDBRANCH  28  29
ENDBRANCH  27  28
ENDBRANCH  26  27
ENDBRANCH  24  26
ENDBRANCH   1  24
TORSDOF 13
ENDMDL
MODEL 5
REMARK VINA RESULT: -7.760442444      2.596      6.743
REMARK  13 active torsions:
REMARK  status: ('A' for Active; 'I' for Inactive)
REMARK       I    between atoms: C1_4  and  N2_5 
REMARK       I    between atoms: C1_4  and  N4_10 
REMARK    1  A    between atoms: N2_5  and  N3_7 
REMARK    2  A    between atoms: N4_10  and  N5_12 
REMARK       I    between atoms: N5_12  and  C2_14 
REMARK    3  A    between atoms: C2_14  and  C3_16 
REMARK    4  A    between atoms: C3_16  and  N6_17 
REMARK    5  A    between atoms: C3_16  and  C4_21 
REMARK    6  A    between atoms: C3_16  and  C5_24 
REMARK    7  A    between atoms: C4_21  and  O2_22 
REMARK    8  A    between atoms: C5_24  and  C6_26 
REMARK    9  A    between atoms: C6_26  and  C7_27 
REMARK   10  A    between atoms: C7_27  and  O4_28 
REMARK   11  A    between atoms: O4_28  and  C8_29 
REMARK   12  A    between atoms: C9_30  and  S1_31 
REMARK   13  A    between atoms: S1_31  and  N7_32 
ROOT
HETATM    1  C3  UNL     1      24.489 -30.966 283.614  1.00  0.00     0.284 C 
ENDROOT
BRANCH   1   2
HETATM    2  C2  UNL     1      24.213 -32.067 284.582  1.00  0.00     0.282 C 
HETATM    3  N5  UNL     1      24.229 -31.925 285.989  1.00  0.00    -0.253 N 
ATOM      4  H5  UNL     1      24.443 -31.010 286.386  1.00  0.00     0.190 HD
HETATM    5  O1  UNL     1      23.934 -33.253 284.168  1.00  0.00    -0.268 OA
BRANCH   3   6
HETATM    6  N4  UNL     1      23.963 -32.986 286.857  1.00  0.00    -0.129 N 
HETATM    7  C1  UNL     1      24.982 -33.814 287.375  1.00  0.00     0.704 C 
HETATM    8  N1  UNL     1      25.290 -33.805 288.625  1.00  0.00    -0.232 N 
HETATM    9  N2  UNL     1      25.675 -34.676 286.497  1.00  0.00    -0.138 N 
ATOM     10  H12 UNL     1      26.026 -34.404 289.000  1.00  0.00     0.174 HD
ATOM     11  H11 UNL     1      24.789 -33.183 289.259  1.00  0.00     0.174 HD
ATOM     12  H2  UNL     1      25.903 -34.362 285.554  1.00  0.00     0.205 HD
ATOM     13  H4  UNL     1      22.997 -33.170 287.126  1.00  0.00     0.205 HD
BRANCH   9  14
HETATM   14  N3  UNL     1      26.049 -35.946 286.911  1.00  0.00    -0.331 N 
ATOM     15  H32 UNL     1      27.042 -36.173 286.966  1.00  0.00     0.177 HD
ATOM     16  H31 UNL     1      25.341 -36.638 287.156  1.00  0.00     0.177 HD
ENDBRANCH   9  14
ENDBRANCH   3   6
ENDBRANCH   1   2
BRANCH   1  17
HETATM   17  N6  UNL     1      23.679 -31.303 282.430  1.00  0.00    -0.052 N 
ATOM     18  H63 UNL     1      22.712 -31.544 282.643  1.00  0.00     0.276 HD
ATOM     19  H62 UNL     1      23.468 -30.507 281.829  1.00  0.00     0.276 HD
ATOM     20  H61 UNL     1      24.202 -32.046 281.968  1.00  0.00     0.276 HD
ENDBRANCH   1  17
BRANCH   1  21
HETATM   21  C4  UNL     1      24.116 -29.647 284.212  1.00  0.00     0.221 C 
BRANCH  21  22
HETATM   22  O2  UNL     1      22.803 -29.568 284.606  1.00  0.00    -0.397 OA
ATOM     23  H2  UNL     1      22.442 -28.690 284.567  1.00  0.00     0.209 HD
ENDBRANCH  21  22
ENDBRANCH   1  21
BRANCH   1  24
HETATM   24  C5  UNL     1      25.922 -30.985 283.190  1.00  0.00     0.176 C 
HETATM   25  O3  UNL     1      26.650 -31.770 283.794  1.00  0.00    -0.295 OA
BRANCH  24  26
HETATM   26  C6  UNL     1      26.443 -30.120 282.111  1.00  0.00     0.108 C 
BRANCH  26  27
HETATM   27  C7  UNL     1      26.410 -30.775 280.785  1.00  0.00     0.183 C 
BRANCH  27  28
HETATM   28  O4  UNL     1      26.782 -32.106 280.643  1.00  0.00    -0.343 OA
BRANCH  28  29
HETATM   29  C8  UNL     1      26.862 -32.667 279.352  1.00  0.00     0.177 A 
HETATM   30  C9  UNL     1      25.868 -33.555 279.031  1.00  0.00     0.192 A 
HETATM   31  N8  UNL     1      25.888 -34.113 277.775  1.00  0.00    -0.295 N 
HETATM   32  C10 UNL     1      26.827 -33.830 276.869  1.00  0.00     0.328 A 
ATOM     33  H8  UNL     1      25.151 -34.773 277.523  1.00  0.00     0.171 HD
HETATM   34  O7  UNL     1      26.798 -34.380 275.710  1.00  0.00    -0.247 OA
HETATM   35  N9  UNL     1      27.777 -32.968 277.226  1.00  0.00    -0.273 N 
HETATM   36  C11 UNL     1      27.851 -32.357 278.441  1.00  0.00     0.285 A 
ATOM     37  H9  UNL     1      28.500 -32.749 276.541  1.00  0.00     0.173 HD
HETATM   38  O8  UNL     1      28.768 -31.571 278.701  1.00  0.00    -0.265 OA
BRANCH  30  39
HETATM   39  S1  UNL     1      24.698 -34.145 280.163  1.00  0.00     0.275 S 
HETATM   40  O5  UNL     1      23.949 -35.348 279.853  1.00  0.00    -0.199 OA
HETATM   41  O6  UNL     1      23.629 -33.008 280.216  1.00  0.00    -0.199 OA
BRANCH  39  42
HETATM   42  N7  UNL     1      25.347 -34.099 281.787  1.00  0.00    -0.323 N 
ATOM     43  H72 UNL     1      25.439 -33.247 282.341  1.00  0.00     0.169 HD
ATOM     44  H71 UNL     1      25.614 -35.035 282.089  1.00  0.00     0.169 HD
ENDBRANCH  39  42
ENDBRANCH  30  39
ENDBRANCH  28  29
ENDBRANCH  27  28
ENDBRANCH  26  27
ENDBRANCH  24  26
ENDBRANCH   1  24
TORSDOF 13
ENDMDL
