MODEL 1
REMARK VINA RESULT: -7.623375284      0.000      0.000
REMARK  13 active torsions:
REMARK  status: ('A' for Active; 'I' for Inactive)
REMARK    1  A    between atoms: C2_2  and  C3_3 
REMARK    2  A    between atoms: C3_3  and  N1_4 
REMARK       I    between atoms: N1_4  and  C4_6 
REMARK       I    between atoms: C4_6  and  N2_8 
REMARK    3  A    between atoms: N2_8  and  C5_10 
REMARK    4  A    between atoms: C5_10  and  C6_11 
REMARK    5  A    between atoms: C5_10  and  N5_20 
REMARK    6  A    between atoms: C6_11  and  N3_12 
REMARK    7  A    between atoms: C6_11  and  N4_16 
REMARK    8  A    between atoms: C7_21  and  C8_22 
REMARK    9  A    between atoms: C8_22  and  O2_23 
REMARK   10  A    between atoms: C8_22  and  N6_25 
REMARK       I    between atoms: N6_25  and  C9_27 
REMARK       I    between atoms: C9_27  and  N7_28 
REMARK       I    between atoms: C9_27  and  N8_32 
REMARK   11  A    between atoms: C10_36  and  C11_37 
REMARK   12  A    between atoms: C12_40  and  O5_41 
REMARK   13  A    between atoms: C13_43  and  O6_44 
ROOT
HETATM    1  N5  UNL     1      25.799 -31.975 283.099  1.00  0.00    -0.326 N 
HETATM    2  C7  UNL     1      25.123 -33.006 282.273  1.00  0.00     0.101 C 
HETATM    3  C10 UNL     1      24.706 -34.033 282.985  1.00  0.00     0.081 C 
HETATM    4  C12 UNL     1      25.008 -34.105 284.466  1.00  0.00     0.208 C 
HETATM    5  C13 UNL     1      24.957 -32.831 285.203  1.00  0.00     0.207 C 
HETATM    6  C14 UNL     1      23.597 -32.335 285.469  1.00  0.00     0.261 C 
HETATM    7  O7  UNL     1      22.726 -32.380 286.371  1.00  0.00    -0.270 OA
HETATM    8  N9  UNL     1      23.612 -31.715 284.201  1.00  0.00    -0.334 N 
ATOM      9  H9  UNL     1      22.909 -31.451 283.511  1.00  0.00     0.164 HD
HETATM   10  C15 UNL     1      25.046 -31.615 284.302  1.00  0.00     0.236 C 
ENDROOT
BRANCH   1  11
HETATM   11  C5  UNL     1      27.064 -31.459 282.728  1.00  0.00     0.248 C 
BRANCH  11  12
HETATM   12  N2  UNL     1      27.963 -31.300 283.875  1.00  0.00    -0.318 N 
HETATM   13  C4  UNL     1      29.357 -31.193 283.735  1.00  0.00     0.317 C 
HETATM   14  N1  UNL     1      30.207 -31.040 284.861  1.00  0.00    -0.343 N 
HETATM   15  O1  UNL     1      29.882 -31.234 282.597  1.00  0.00    -0.247 OA
ATOM     16  H1  UNL     1      29.788 -31.006 285.791  1.00  0.00     0.164 HD
ATOM     17  H2  UNL     1      27.560 -31.265 284.811  1.00  0.00     0.166 HD
BRANCH  14  18
HETATM   18  C3  UNL     1      31.645 -30.929 284.739  1.00  0.00     0.124 C 
BRANCH  18  19
HETATM   19  C2  UNL     1      32.318 -31.958 285.610  1.00  0.00     0.015 C 
HETATM   20  C1  UNL     1      31.961 -33.369 285.206  1.00  0.00     0.006 C 
ENDBRANCH  18  19
ENDBRANCH  14  18
ENDBRANCH  11  12
BRANCH  11  21
HETATM   21  C6  UNL     1      26.925 -30.062 282.081  1.00  0.00     0.419 C 
BRANCH  21  22
HETATM   22  N3  UNL     1      27.360 -30.224 280.691  1.00  0.00    -0.047 N 
ATOM     23  H33 UNL     1      27.549 -31.192 280.433  1.00  0.00     0.276 HD
ATOM     24  H32 UNL     1      26.619 -30.058 280.009  1.00  0.00     0.276 HD
ATOM     25  H31 UNL     1      28.163 -29.606 280.580  1.00  0.00     0.276 HD
ENDBRANCH  21  22
BRANCH  21  26
HETATM   26  N4  UNL     1      25.512 -29.702 281.979  1.00  0.00    -0.047 N 
ATOM     27  H43 UNL     1      25.233 -29.035 282.698  1.00  0.00     0.276 HD
ATOM     28  H42 UNL     1      25.323 -29.124 281.160  1.00  0.00     0.276 HD
ATOM     29  H41 UNL     1      24.938 -30.545 281.995  1.00  0.00     0.276 HD
ENDBRANCH  21  26
ENDBRANCH  11  21
ENDBRANCH   1  11
BRANCH   2  30
HETATM   30  C8  UNL     1      25.288 -32.940 280.865  1.00  0.00     0.167 C 
BRANCH  30  31
HETATM   31  O2  UNL     1      24.639 -31.965 280.234  1.00  0.00    -0.345 OA
ATOM     32  H2  UNL     1      23.693 -32.042 280.189  1.00  0.00     0.219 HD
ENDBRANCH  30  31
BRANCH  30  33
HETATM   33  N6  UNL     1      26.022 -33.680 279.944  1.00  0.00    -0.320 N 
HETATM   34  C9  UNL     1      25.418 -34.159 278.671  1.00  0.00     0.482 C 
HETATM   35  N7  UNL     1      26.174 -33.575 277.580  1.00  0.00    -0.033 N 
HETATM   36  N8  UNL     1      25.542 -35.595 278.553  1.00  0.00    -0.033 N 
ATOM     37  H73 UNL     1      26.230 -32.557 277.635  1.00  0.00     0.278 HD
ATOM     38  H72 UNL     1      27.174 -33.767 277.642  1.00  0.00     0.278 HD
ATOM     39  H71 UNL     1      25.761 -33.903 276.707  1.00  0.00     0.278 HD
ATOM     40  H83 UNL     1      26.511 -35.899 278.650  1.00  0.00     0.278 HD
ATOM     41  H82 UNL     1      25.149 -36.075 279.363  1.00  0.00     0.278 HD
ATOM     42  H81 UNL     1      25.129 -35.923 277.681  1.00  0.00     0.278 HD
ATOM     43  H6  UNL     1      26.997 -33.899 280.145  1.00  0.00     0.165 HD
ENDBRANCH  30  33
ENDBRANCH   2  30
BRANCH   3  44
HETATM   44  C11 UNL     1      23.984 -35.162 282.458  1.00  0.00     0.210 C 
HETATM   45  O3  UNL     1      22.851 -35.400 283.023  1.00  0.00    -0.644 OA
HETATM   46  O4  UNL     1      24.240 -36.042 281.460  1.00  0.00    -0.644 OA
ENDBRANCH   3  44
BRANCH   5  47
HETATM   47  O6  UNL     1      25.781 -32.753 286.332  1.00  0.00    -0.374 OA
ATOM     48  H6  UNL     1      26.424 -33.447 286.418  1.00  0.00     0.211 HD
ENDBRANCH   5  47
BRANCH   4  49
HETATM   49  O5  UNL     1      24.151 -34.987 285.119  1.00  0.00    -0.387 OA
ATOM     50  H5  UNL     1      23.376 -34.542 285.442  1.00  0.00     0.210 HD
ENDBRANCH   4  49
TORSDOF 13
ENDMDL
MODEL 2
REMARK VINA RESULT: -7.615168451      1.917      4.799
REMARK  13 active torsions:
REMARK  status: ('A' for Active; 'I' for Inactive)
REMARK    1  A    between atoms: C2_2  and  C3_3 
REMARK    2  A    between atoms: C3_3  and  N1_4 
REMARK       I    between atoms: N1_4  and  C4_6 
REMARK       I    between atoms: C4_6  and  N2_8 
REMARK    3  A    between atoms: N2_8  and  C5_10 
REMARK    4  A    between atoms: C5_10  and  C6_11 
REMARK    5  A    between atoms: C5_10  and  N5_20 
REMARK    6  A    between atoms: C6_11  and  N3_12 
REMARK    7  A    between atoms: C6_11  and  N4_16 
REMARK    8  A    between atoms: C7_21  and  C8_22 
REMARK    9  A    between atoms: C8_22  and  O2_23 
REMARK   10  A    between atoms: C8_22  and  N6_25 
REMARK       I    between atoms: N6_25  and  C9_27 
REMARK       I    between atoms: C9_27  and  N7_28 
REMARK       I    between atoms: C9_27  and  N8_32 
REMARK   11  A    between atoms: C10_36  and  C11_37 
REMARK   12  A    between atoms: C12_40  and  O5_41 
REMARK   13  A    between atoms: C13_43  and  O6_44 
ROOT
HETATM    1  N5  UNL     1      25.771 -31.543 281.264  1.00  0.00    -0.326 N 
HETATM    2  C7  UNL     1      25.377 -32.860 281.823  1.00  0.00     0.101 C 
HETATM    3  C10 UNL     1      24.669 -33.579 280.976  1.00  0.00     0.081 C 
HETATM    4  C12 UNL     1      24.276 -33.004 279.633  1.00  0.00     0.208 C 
HETATM    5  C13 UNL     1      25.277 -32.151 278.971  1.00  0.00     0.207 C 
HETATM    6  C14 UNL     1      26.400 -32.886 278.366  1.00  0.00     0.261 C 
HETATM    7  O7  UNL     1      26.733 -33.373 277.259  1.00  0.00    -0.270 OA
HETATM    8  N9  UNL     1      27.052 -32.852 279.618  1.00  0.00    -0.334 N 
ATOM      9  H9  UNL     1      27.733 -33.438 280.100  1.00  0.00     0.164 HD
HETATM   10  C15 UNL     1      26.342 -31.635 279.918  1.00  0.00     0.236 C 
ENDROOT
BRANCH   1  11
HETATM   11  C5  UNL     1      25.553 -30.348 281.992  1.00  0.00     0.248 C 
BRANCH  11  12
HETATM   12  N2  UNL     1      26.512 -30.177 283.087  1.00  0.00    -0.318 N 
HETATM   13  C4  UNL     1      27.870 -30.517 282.965  1.00  0.00     0.317 C 
HETATM   14  N1  UNL     1      28.779 -30.342 284.040  1.00  0.00    -0.343 N 
HETATM   15  O1  UNL     1      28.307 -30.988 281.889  1.00  0.00    -0.247 OA
ATOM     16  H1  UNL     1      28.432 -29.958 284.919  1.00  0.00     0.164 HD
ATOM     17  H2  UNL     1      26.180 -29.796 283.973  1.00  0.00     0.166 HD
BRANCH  14  18
HETATM   18  C3  UNL     1      30.181 -30.686 283.935  1.00  0.00     0.124 C 
BRANCH  18  19
HETATM   19  C2  UNL     1      30.757 -30.929 285.306  1.00  0.00     0.015 C 
HETATM   20  C1  UNL     1      30.440 -32.314 285.820  1.00  0.00     0.006 C 
ENDBRANCH  18  19
ENDBRANCH  14  18
ENDBRANCH  11  12
BRANCH  11  21
HETATM   21  C6  UNL     1      24.147 -30.339 282.632  1.00  0.00     0.419 C 
BRANCH  21  22
HETATM   22  N3  UNL     1      24.047 -29.065 283.350  1.00  0.00    -0.047 N 
ATOM     23  H33 UNL     1      24.218 -29.146 284.352  1.00  0.00     0.276 HD
ATOM     24  H32 UNL     1      24.812 -28.421 283.148  1.00  0.00     0.276 HD
ATOM     25  H31 UNL     1      23.126 -28.691 283.121  1.00  0.00     0.276 HD
ENDBRANCH  21  22
BRANCH  21  26
HETATM   26  N4  UNL     1      23.127 -30.248 281.590  1.00  0.00    -0.047 N 
ATOM     27  H43 UNL     1      22.739 -29.308 281.514  1.00  0.00     0.276 HD
ATOM     28  H42 UNL     1      23.529 -30.318 280.654  1.00  0.00     0.276 HD
ATOM     29  H41 UNL     1      22.405 -30.949 281.750  1.00  0.00     0.276 HD
ENDBRANCH  21  26
ENDBRANCH  11  21
ENDBRANCH   1  11
BRANCH   2  30
HETATM   30  C8  UNL     1      25.504 -33.050 283.224  1.00  0.00     0.167 C 
BRANCH  30  31
HETATM   31  O2  UNL     1      26.718 -32.885 283.741  1.00  0.00    -0.345 OA
ATOM     32  H2  UNL     1      26.766 -32.454 284.586  1.00  0.00     0.219 HD
ENDBRANCH  30  31
BRANCH  30  33
HETATM   33  N6  UNL     1      24.607 -33.363 284.240  1.00  0.00    -0.320 N 
HETATM   34  C9  UNL     1      24.539 -32.564 285.493  1.00  0.00     0.482 C 
HETATM   35  N7  UNL     1      23.200 -32.015 285.590  1.00  0.00    -0.033 N 
HETATM   36  N8  UNL     1      24.738 -33.408 286.650  1.00  0.00    -0.033 N 
ATOM     37  H73 UNL     1      22.928 -31.482 284.764  1.00  0.00     0.278 HD
ATOM     38  H72 UNL     1      22.473 -32.729 285.534  1.00  0.00     0.278 HD
ATOM     39  H71 UNL     1      23.153 -31.468 286.450  1.00  0.00     0.278 HD
ATOM     40  H83 UNL     1      24.082 -34.190 286.665  1.00  0.00     0.278 HD
ATOM     41  H82 UNL     1      25.607 -33.938 286.586  1.00  0.00     0.278 HD
ATOM     42  H81 UNL     1      24.691 -32.861 287.509  1.00  0.00     0.278 HD
ATOM     43  H6  UNL     1      23.981 -34.160 284.123  1.00  0.00     0.165 HD
ENDBRANCH  30  33
ENDBRANCH   2  30
BRANCH   3  44
HETATM   44  C11 UNL     1      24.185 -34.911 281.231  1.00  0.00     0.210 C 
HETATM   45  O3  UNL     1      24.743 -35.840 280.534  1.00  0.00    -0.644 OA
HETATM   46  O4  UNL     1      23.255 -35.413 282.079  1.00  0.00    -0.644 OA
ENDBRANCH   3  44
BRANCH   5  47
HETATM   47  O6  UNL     1      24.764 -31.169 278.117  1.00  0.00    -0.374 OA
ATOM     48  H6  UNL     1      25.234 -30.344 278.113  1.00  0.00     0.211 HD
ENDBRANCH   5  47
BRANCH   4  49
HETATM   49  O5  UNL     1      23.935 -34.007 278.729  1.00  0.00    -0.387 OA
ATOM     50  H5  UNL     1      24.633 -34.645 278.639  1.00  0.00     0.210 HD
ENDBRANCH   4  49
TORSDOF 13
ENDMDL
MODEL 3
REMARK VINA RESULT: -7.579137959      2.426      5.879
REMARK  13 active torsions:
REMARK  status: ('A' for Active; 'I' for Inactive)
REMARK    1  A    between atoms: C2_2  and  C3_3 
REMARK    2  A    between atoms: C3_3  and  N1_4 
REMARK       I    between atoms: N1_4  and  C4_6 
REMARK       I    between atoms: C4_6  and  N2_8 
REMARK    3  A    between atoms: N2_8  and  C5_10 
REMARK    4  A    between atoms: C5_10  and  C6_11 
REMARK    5  A    between atoms: C5_10  and  N5_20 
REMARK    6  A    between atoms: C6_11  and  N3_12 
REMARK    7  A    between atoms: C6_11  and  N4_16 
REMARK    8  A    between atoms: C7_21  and  C8_22 
REMARK    9  A    between atoms: C8_22  and  O2_23 
REMARK   10  A    between atoms: C8_22  and  N6_25 
REMARK       I    between atoms: N6_25  and  C9_27 
REMARK       I    between atoms: C9_27  and  N7_28 
REMARK       I    between atoms: C9_27  and  N8_32 
REMARK   11  A    between atoms: C10_36  and  C11_37 
REMARK   12  A    between atoms: C12_40  and  O5_41 
REMARK   13  A    between atoms: C13_43  and  O6_44 
ROOT
HETATM    1  N5  UNL     1      25.186 -31.224 281.781  1.00  0.00    -0.326 N 
HETATM    2  C7  UNL     1      26.602 -31.028 281.382  1.00  0.00     0.101 C 
HETATM    3  C10 UNL     1      27.011 -31.923 280.507  1.00  0.00     0.081 C 
HETATM    4  C12 UNL     1      26.090 -33.046 280.079  1.00  0.00     0.208 C 
HETATM    5  C13 UNL     1      24.667 -32.699 279.930  1.00  0.00     0.207 C 
HETATM    6  C14 UNL     1      24.351 -31.931 278.715  1.00  0.00     0.261 C 
HETATM    7  O7  UNL     1      23.969 -32.127 277.536  1.00  0.00    -0.270 OA
HETATM    8  N9  UNL     1      24.667 -30.749 279.420  1.00  0.00    -0.334 N 
ATOM      9  H9  UNL     1      25.015 -29.823 279.172  1.00  0.00     0.164 HD
HETATM   10  C15 UNL     1      24.287 -31.415 280.641  1.00  0.00     0.236 C 
ENDROOT
BRANCH   1  11
HETATM   11  C5  UNL     1      24.812 -31.254 283.146  1.00  0.00     0.248 C 
BRANCH  11  12
HETATM   12  N2  UNL     1      24.555 -32.615 283.627  1.00  0.00    -0.318 N 
HETATM   13  C4  UNL     1      25.092 -33.108 284.829  1.00  0.00     0.317 C 
HETATM   14  N1  UNL     1      24.829 -34.428 285.273  1.00  0.00    -0.343 N 
HETATM   15  O1  UNL     1      25.825 -32.377 285.538  1.00  0.00    -0.247 OA
ATOM     16  H1  UNL     1      24.234 -35.029 284.702  1.00  0.00     0.164 HD
ATOM     17  H2  UNL     1      23.963 -33.228 283.067  1.00  0.00     0.166 HD
BRANCH  14  18
HETATM   18  C3  UNL     1      25.373 -34.955 286.507  1.00  0.00     0.124 C 
BRANCH  18  19
HETATM   19  C2  UNL     1      24.384 -34.768 287.628  1.00  0.00     0.015 C 
HETATM   20  C1  UNL     1      24.868 -33.773 288.656  1.00  0.00     0.006 C 
ENDBRANCH  18  19
ENDBRANCH  14  18
ENDBRANCH  11  12
BRANCH  11  21
HETATM   21  C6  UNL     1      23.512 -30.452 283.381  1.00  0.00     0.419 C 
BRANCH  21  22
HETATM   22  N3  UNL     1      23.244 -30.545 284.819  1.00  0.00    -0.047 N 
ATOM     23  H33 UNL     1      22.807 -29.709 285.208  1.00  0.00     0.276 HD
ATOM     24  H32 UNL     1      22.494 -31.195 285.054  1.00  0.00     0.276 HD
ATOM     25  H31 UNL     1      24.138 -30.778 285.252  1.00  0.00     0.276 HD
ENDBRANCH  21  22
BRANCH  21  26
HETATM   26  N4  UNL     1      23.758 -29.030 283.150  1.00  0.00    -0.047 N 
ATOM     27  H43 UNL     1      23.138 -28.645 282.438  1.00  0.00     0.276 HD
ATOM     28  H42 UNL     1      23.455 -28.456 283.937  1.00  0.00     0.276 HD
ATOM     29  H41 UNL     1      24.742 -28.882 282.924  1.00  0.00     0.276 HD
ENDBRANCH  21  26
ENDBRANCH  11  21
ENDBRANCH   1  11
BRANCH   2  30
HETATM   30  C8  UNL     1      27.403 -30.171 282.181  1.00  0.00     0.167 C 
BRANCH  30  31
HETATM   31  O2  UNL     1      27.752 -29.007 281.642  1.00  0.00    -0.345 OA
ATOM     32  H2  UNL     1      28.392 -29.038 280.940  1.00  0.00     0.219 HD
ENDBRANCH  30  31
BRANCH  30  33
HETATM   33  N6  UNL     1      27.919 -30.257 283.470  1.00  0.00    -0.320 N 
HETATM   34  C9  UNL     1      29.112 -31.091 283.778  1.00  0.00     0.482 C 
HETATM   35  N7  UNL     1      30.139 -30.210 284.301  1.00  0.00    -0.033 N 
HETATM   36  N8  UNL     1      28.811 -32.055 284.813  1.00  0.00    -0.033 N 
ATOM     37  H73 UNL     1      30.349 -29.430 283.678  1.00  0.00     0.278 HD
ATOM     38  H72 UNL     1      29.821 -29.660 285.100  1.00  0.00     0.278 HD
ATOM     39  H71 UNL     1      30.957 -30.781 284.513  1.00  0.00     0.278 HD
ATOM     40  H83 UNL     1      28.437 -31.606 285.650  1.00  0.00     0.278 HD
ATOM     41  H82 UNL     1      28.002 -32.627 284.571  1.00  0.00     0.278 HD
ATOM     42  H81 UNL     1      29.629 -32.626 285.024  1.00  0.00     0.278 HD
ATOM     43  H6  UNL     1      27.468 -29.737 284.222  1.00  0.00     0.165 HD
ENDBRANCH  30  33
ENDBRANCH   2  30
BRANCH   3  44
HETATM   44  C11 UNL     1      28.323 -31.956 279.913  1.00  0.00     0.210 C 
HETATM   45  O3  UNL     1      29.300 -31.769 280.732  1.00  0.00    -0.644 OA
HETATM   46  O4  UNL     1      28.763 -32.162 278.648  1.00  0.00    -0.644 OA
ENDBRANCH   3  44
BRANCH   5  47
HETATM   47  O6  UNL     1      23.764 -33.746 280.146  1.00  0.00    -0.374 OA
ATOM     48  H6  UNL     1      24.013 -34.584 279.774  1.00  0.00     0.211 HD
ENDBRANCH   5  47
BRANCH   4  49
HETATM   49  O5  UNL     1      26.499 -33.610 278.874  1.00  0.00    -0.387 OA
ATOM     50  H5  UNL     1      26.031 -34.416 278.691  1.00  0.00     0.210 HD
ENDBRANCH   4  49
TORSDOF 13
ENDMDL
MODEL 4
REMARK VINA RESULT: -7.345842472      2.790      6.275
REMARK  13 active torsions:
REMARK  status: ('A' for Active; 'I' for Inactive)
REMARK    1  A    between atoms: C2_2  and  C3_3 
REMARK    2  A    between atoms: C3_3  and  N1_4 
REMARK       I    between atoms: N1_4  and  C4_6 
REMARK       I    between atoms: C4_6  and  N2_8 
REMARK    3  A    between atoms: N2_8  and  C5_10 
REMARK    4  A    between atoms: C5_10  and  C6_11 
REMARK    5  A    between atoms: C5_10  and  N5_20 
REMARK    6  A    between atoms: C6_11  and  N3_12 
REMARK    7  A    between atoms: C6_11  and  N4_16 
REMARK    8  A    between atoms: C7_21  and  C8_22 
REMARK    9  A    between atoms: C8_22  and  O2_23 
REMARK   10  A    between atoms: C8_22  and  N6_25 
REMARK       I    between atoms: N6_25  and  C9_27 
REMARK       I    between atoms: C9_27  and  N7_28 
REMARK       I    between atoms: C9_27  and  N8_32 
REMARK   11  A    between atoms: C10_36  and  C11_37 
REMARK   12  A    between atoms: C12_40  and  O5_41 
REMARK   13  A    between atoms: C13_43  and  O6_44 
ROOT
HETATM    1  N5  UNL     1      24.782 -32.832 281.914  1.00  0.00    -0.326 N 
HETATM    2  C7  UNL     1      25.970 -32.052 282.340  1.00  0.00     0.101 C 
HETATM    3  C10 UNL     1      26.912 -32.018 281.419  1.00  0.00     0.081 C 
HETATM    4  C12 UNL     1      26.744 -32.796 280.132  1.00  0.00     0.208 C 
HETATM    5  C13 UNL     1      25.385 -32.837 279.568  1.00  0.00     0.207 C 
HETATM    6  C14 UNL     1      24.960 -31.590 278.910  1.00  0.00     0.261 C 
HETATM    7  O7  UNL     1      24.940 -31.076 277.766  1.00  0.00    -0.270 OA
HETATM    8  N9  UNL     1      24.531 -31.113 280.168  1.00  0.00    -0.334 N 
ATOM      9  H9  UNL     1      24.424 -30.196 280.602  1.00  0.00     0.164 HD
HETATM   10  C15 UNL     1      24.309 -32.478 280.574  1.00  0.00     0.236 C 
ENDROOT
BRANCH   1  11
HETATM   11  C5  UNL     1      24.230 -33.833 282.750  1.00  0.00     0.248 C 
BRANCH  11  12
HETATM   12  N2  UNL     1      25.143 -34.228 283.827  1.00  0.00    -0.318 N 
HETATM   13  C4  UNL     1      24.709 -34.440 285.147  1.00  0.00     0.317 C 
HETATM   14  N1  UNL     1      25.611 -34.822 286.173  1.00  0.00    -0.343 N 
HETATM   15  O1  UNL     1      23.500 -34.291 285.445  1.00  0.00    -0.247 OA
ATOM     16  H1  UNL     1      26.596 -34.946 285.940  1.00  0.00     0.164 HD
ATOM     17  H2  UNL     1      26.131 -34.355 283.610  1.00  0.00     0.166 HD
BRANCH  14  18
HETATM   18  C3  UNL     1      25.185 -35.044 287.539  1.00  0.00     0.124 C 
BRANCH  18  19
HETATM   19  C2  UNL     1      25.005 -33.725 288.244  1.00  0.00     0.015 C 
HETATM   20  C1  UNL     1      25.399 -33.798 289.700  1.00  0.00     0.006 C 
ENDBRANCH  18  19
ENDBRANCH  14  18
ENDBRANCH  11  12
BRANCH  11  21
HETATM   21  C6  UNL     1      23.918 -35.115 281.946  1.00  0.00     0.419 C 
BRANCH  21  22
HETATM   22  N3  UNL     1      25.060 -36.008 282.164  1.00  0.00    -0.047 N 
ATOM     23  H33 UNL     1      25.879 -35.537 282.547  1.00  0.00     0.276 HD
ATOM     24  H32 UNL     1      24.925 -36.663 282.935  1.00  0.00     0.276 HD
ATOM     25  H31 UNL     1      25.230 -36.463 281.267  1.00  0.00     0.276 HD
ENDBRANCH  21  22
BRANCH  21  26
HETATM   26  N4  UNL     1      22.789 -35.817 282.551  1.00  0.00    -0.047 N 
ATOM     27  H43 UNL     1      23.019 -36.194 283.470  1.00  0.00     0.276 HD
ATOM     28  H42 UNL     1      22.047 -35.176 282.835  1.00  0.00     0.276 HD
ATOM     29  H41 UNL     1      22.449 -36.539 281.915  1.00  0.00     0.276 HD
ENDBRANCH  21  26
ENDBRANCH  11  21
ENDBRANCH   1  11
BRANCH   2  30
HETATM   30  C8  UNL     1      26.096 -31.736 283.718  1.00  0.00     0.167 C 
BRANCH  30  31
HETATM   31  O2  UNL     1      27.189 -32.179 284.334  1.00  0.00    -0.345 OA
ATOM     32  H2  UNL     1      27.055 -32.689 285.124  1.00  0.00     0.219 HD
ENDBRANCH  30  31
BRANCH  30  33
HETATM   33  N6  UNL     1      25.317 -31.017 284.618  1.00  0.00    -0.320 N 
HETATM   34  C9  UNL     1      23.928 -30.597 284.285  1.00  0.00     0.482 C 
HETATM   35  N7  UNL     1      23.041 -31.207 285.257  1.00  0.00    -0.033 N 
HETATM   36  N8  UNL     1      23.781 -29.165 284.414  1.00  0.00    -0.033 N 
ATOM     37  H73 UNL     1      23.148 -32.221 285.311  1.00  0.00     0.278 HD
ATOM     38  H72 UNL     1      23.301 -30.994 286.220  1.00  0.00     0.278 HD
ATOM     39  H71 UNL     1      22.090 -30.920 285.028  1.00  0.00     0.278 HD
ATOM     40  H83 UNL     1      24.062 -28.838 285.339  1.00  0.00     0.278 HD
ATOM     41  H82 UNL     1      24.471 -28.662 283.857  1.00  0.00     0.278 HD
ATOM     42  H81 UNL     1      22.829 -28.877 284.186  1.00  0.00     0.278 HD
ATOM     43  H6  UNL     1      25.706 -30.771 285.528  1.00  0.00     0.165 HD
ENDBRANCH  30  33
ENDBRANCH   2  30
BRANCH   3  44
HETATM   44  C11 UNL     1      28.156 -31.305 281.539  1.00  0.00     0.210 C 
HETATM   45  O3  UNL     1      28.276 -30.279 280.770  1.00  0.00    -0.644 OA
HETATM   46  O4  UNL     1      29.252 -31.476 282.319  1.00  0.00    -0.644 OA
ENDBRANCH   3  44
BRANCH   5  47
HETATM   47  O6  UNL     1      25.081 -33.970 278.804  1.00  0.00    -0.374 OA
ATOM     48  H6  UNL     1      24.620 -33.804 277.991  1.00  0.00     0.211 HD
ENDBRANCH   5  47
BRANCH   4  49
HETATM   49  O5  UNL     1      27.585 -32.314 279.132  1.00  0.00    -0.387 OA
ATOM     50  H5  UNL     1      28.499 -32.430 279.361  1.00  0.00     0.210 HD
ENDBRANCH   4  49
TORSDOF 13
ENDMDL
MODEL 5
REMARK VINA RESULT: -7.279630074      2.364      6.301
REMARK  13 active torsions:
REMARK  status: ('A' for Active; 'I' for Inactive)
REMARK    1  A    between atoms: C2_2  and  C3_3 
REMARK    2  A    between atoms: C3_3  and  N1_4 
REMARK       I    between atoms: N1_4  and  C4_6 
REMARK       I    between atoms: C4_6  and  N2_8 
REMARK    3  A    between atoms: N2_8  and  C5_10 
REMARK    4  A    between atoms: C5_10  and  C6_11 
REMARK    5  A    between atoms: C5_10  and  N5_20 
REMARK    6  A    between atoms: C6_11  and  N3_12 
REMARK    7  A    between atoms: C6_11  and  N4_16 
REMARK    8  A    between atoms: C7_21  and  C8_22 
REMARK    9  A    between atoms: C8_22  and  O2_23 
REMARK   10  A    between atoms: C8_22  and  N6_25 
REMARK       I    between atoms: N6_25  and  C9_27 
REMARK       I    between atoms: C9_27  and  N7_28 
REMARK       I    between atoms: C9_27  and  N8_32 
REMARK   11  A    between atoms: C10_36  and  C11_37 
REMARK   12  A    between atoms: C12_40  and  O5_41 
REMARK   13  A    between atoms: C13_43  and  O6_44 
ROOT
HETATM    1  N5  UNL     1      25.215 -31.276 281.872  1.00  0.00    -0.326 N 
HETATM    2  C7  UNL     1      26.620 -31.073 281.439  1.00  0.00     0.101 C 
HETATM    3  C10 UNL     1      27.013 -31.967 280.555  1.00  0.00     0.081 C 
HETATM    4  C12 UNL     1      26.088 -33.096 280.152  1.00  0.00     0.208 C 
HETATM    5  C13 UNL     1      24.659 -32.757 280.036  1.00  0.00     0.207 C 
HETATM    6  C14 UNL     1      24.310 -31.993 278.828  1.00  0.00     0.261 C 
HETATM    7  O7  UNL     1      23.901 -32.193 277.659  1.00  0.00    -0.270 OA
HETATM    8  N9  UNL     1      24.637 -30.809 279.524  1.00  0.00    -0.334 N 
ATOM      9  H9  UNL     1      24.973 -29.881 279.266  1.00  0.00     0.164 HD
HETATM   10  C15 UNL     1      24.290 -31.474 280.754  1.00  0.00     0.236 C 
ENDROOT
BRANCH   1  11
HETATM   11  C5  UNL     1      24.874 -31.306 283.245  1.00  0.00     0.248 C 
BRANCH  11  12
HETATM   12  N2  UNL     1      24.167 -32.534 283.621  1.00  0.00    -0.318 N 
HETATM   13  C4  UNL     1      23.980 -32.922 284.959  1.00  0.00     0.317 C 
HETATM   14  N1  UNL     1      23.292 -34.115 285.297  1.00  0.00    -0.343 N 
HETATM   15  O1  UNL     1      24.426 -32.209 285.889  1.00  0.00    -0.247 OA
ATOM     16  H1  UNL     1      22.927 -34.701 284.546  1.00  0.00     0.164 HD
ATOM     17  H2  UNL     1      23.796 -33.131 282.882  1.00  0.00     0.166 HD
BRANCH  14  18
HETATM   18  C3  UNL     1      23.090 -34.532 286.668  1.00  0.00     0.124 C 
BRANCH  18  19
HETATM   19  C2  UNL     1      21.790 -33.977 287.191  1.00  0.00     0.015 C 
HETATM   20  C1  UNL     1      21.330 -34.682 288.444  1.00  0.00     0.006 C 
ENDBRANCH  18  19
ENDBRANCH  14  18
ENDBRANCH  11  12
BRANCH  11  21
HETATM   21  C6  UNL     1      23.938 -30.131 283.609  1.00  0.00     0.419 C 
BRANCH  21  22
HETATM   22  N3  UNL     1      24.548 -29.484 284.774  1.00  0.00    -0.047 N 
ATOM     23  H33 UNL     1      24.038 -28.663 285.099  1.00  0.00     0.276 HD
ATOM     24  H32 UNL     1      24.465 -30.027 285.633  1.00  0.00     0.276 HD
ATOM     25  H31 UNL     1      25.512 -29.287 284.507  1.00  0.00     0.276 HD
ENDBRANCH  21  22
BRANCH  21  26
HETATM   26  N4  UNL     1      23.990 -29.114 282.562  1.00  0.00    -0.047 N 
ATOM     27  H43 UNL     1      23.150 -28.535 282.547  1.00  0.00     0.276 HD
ATOM     28  H42 UNL     1      24.669 -28.382 282.771  1.00  0.00     0.276 HD
ATOM     29  H41 UNL     1      24.167 -29.555 281.659  1.00  0.00     0.276 HD
ENDBRANCH  21  26
ENDBRANCH  11  21
ENDBRANCH   1  11
BRANCH   2  30
HETATM   30  C8  UNL     1      27.435 -30.210 282.216  1.00  0.00     0.167 C 
BRANCH  30  31
HETATM   31  O2  UNL     1      27.774 -29.050 281.662  1.00  0.00    -0.345 OA
ATOM     32  H2  UNL     1      27.970 -28.335 282.257  1.00  0.00     0.219 HD
ENDBRANCH  30  31
BRANCH  30  33
HETATM   33  N6  UNL     1      27.974 -30.287 283.496  1.00  0.00    -0.320 N 
HETATM   34  C9  UNL     1      29.226 -31.044 283.771  1.00  0.00     0.482 C 
HETATM   35  N7  UNL     1      30.198 -30.106 284.298  1.00  0.00    -0.033 N 
HETATM   36  N8  UNL     1      29.006 -32.047 284.789  1.00  0.00    -0.033 N 
ATOM     37  H73 UNL     1      30.346 -29.302 283.689  1.00  0.00     0.278 HD
ATOM     38  H72 UNL     1      29.856 -29.596 285.113  1.00  0.00     0.278 HD
ATOM     39  H71 UNL     1      31.056 -30.625 284.487  1.00  0.00     0.278 HD
ATOM     40  H83 UNL     1      28.615 -31.642 285.640  1.00  0.00     0.278 HD
ATOM     41  H82 UNL     1      28.234 -32.668 284.546  1.00  0.00     0.278 HD
ATOM     42  H81 UNL     1      29.863 -32.565 284.977  1.00  0.00     0.278 HD
ATOM     43  H6  UNL     1      27.500 -29.814 284.265  1.00  0.00     0.165 HD
ENDBRANCH  30  33
ENDBRANCH   2  30
BRANCH   3  44
HETATM   44  C11 UNL     1      28.310 -31.994 279.930  1.00  0.00     0.210 C 
HETATM   45  O3  UNL     1      29.302 -31.754 280.716  1.00  0.00    -0.644 OA
HETATM   46  O4  UNL     1      28.723 -32.238 278.663  1.00  0.00    -0.644 OA
ENDBRANCH   3  44
BRANCH   5  47
HETATM   47  O6  UNL     1      23.768 -33.809 280.275  1.00  0.00    -0.374 OA
ATOM     48  H6  UNL     1      23.195 -34.032 279.552  1.00  0.00     0.211 HD
ENDBRANCH   5  47
BRANCH   4  49
HETATM   49  O5  UNL     1      26.471 -33.660 278.938  1.00  0.00    -0.387 OA
ATOM     50  H5  UNL     1      25.779 -34.198 278.571  1.00  0.00     0.210 HD
ENDBRANCH   4  49
TORSDOF 13
ENDMDL
