MODEL 1
REMARK VINA RESULT: -8.660823345      0.000      0.000
REMARK  14 active torsions:
REMARK  status: ('A' for Active; 'I' for Inactive)
REMARK    1  A    between atoms: N1_1  and  N2_4 
REMARK    2  A    between atoms: N2_4  and  C1_5 
REMARK    3  A    between atoms: C1_5  and  C2_6 
REMARK    4  A    between atoms: C1_5  and  C14_38 
REMARK       I    between atoms: C2_6  and  N3_8 
REMARK       I    between atoms: N3_8  and  C3_10 
REMARK    5  A    between atoms: C3_10  and  C4_12 
REMARK    6  A    between atoms: C4_12  and  N4_13 
REMARK    7  A    between atoms: C4_12  and  C13_35 
REMARK       I    between atoms: N4_13  and  C5_15 
REMARK    8  A    between atoms: C5_15  and  C6_17 
REMARK    9  A    between atoms: C9_21  and  C10_22 
REMARK   10  A    between atoms: C10_22  and  O4_23 
REMARK   11  A    between atoms: C10_22  and  O5_25 
REMARK   12  A    between atoms: C11_27  and  N6_28 
REMARK   13  A    between atoms: C14_38  and  O8_39 
REMARK   14  A    between atoms: C14_38  and  O9_41 
ROOT
HETATM    1  N4  UNL     1      28.303 -31.258 282.348  1.00  0.00    -0.337 N 
ATOM      2  H4  UNL     1      28.938 -31.792 281.754  1.00  0.00     0.164 HD
HETATM    3  C5  UNL     1      27.120 -30.784 281.781  1.00  0.00     0.245 C 
HETATM    4  O3  UNL     1      26.289 -30.107 282.485  1.00  0.00    -0.271 OA
ENDROOT
BRANCH   1   5
HETATM    5  C4  UNL     1      28.688 -31.036 283.736  1.00  0.00     0.279 C 
BRANCH   5   6
HETATM    6  C3  UNL     1      28.086 -32.021 284.639  1.00  0.00     0.257 C 
HETATM    7  N3  UNL     1      26.687 -32.205 284.677  1.00  0.00    -0.294 N 
HETATM    8  C2  UNL     1      26.031 -33.119 285.514  1.00  0.00     0.250 C 
ATOM      9  H3  UNL     1      26.115 -31.636 284.055  1.00  0.00     0.171 HD
HETATM   10  O1  UNL     1      26.703 -33.834 286.292  1.00  0.00    -0.271 OA
HETATM   11  O2  UNL     1      28.798 -32.717 285.394  1.00  0.00    -0.270 OA
BRANCH   8  12
HETATM   12  C1  UNL     1      24.563 -33.262 285.503  1.00  0.00     0.245 C 
BRANCH  12  13
HETATM   13  N2  UNL     1      24.136 -34.462 284.815  1.00  0.00    -0.129 NA
BRANCH  13  14
HETATM   14  N1  UNL     1      24.852 -34.653 283.636  1.00  0.00    -0.347 N 
ATOM     15  H12 UNL     1      24.484 -35.158 282.831  1.00  0.00     0.172 HD
ATOM     16  H11 UNL     1      25.777 -34.226 283.689  1.00  0.00     0.172 HD
ENDBRANCH  13  14
ENDBRANCH  12  13
BRANCH  12  17
HETATM   17  C14 UNL     1      23.878 -32.029 284.945  1.00  0.00     0.284 C 
BRANCH  17  18
HETATM   18  O8  UNL     1      24.374 -30.857 285.508  1.00  0.00    -0.369 OA
ATOM     19  H8  UNL     1      24.309 -30.862 286.456  1.00  0.00     0.212 HD
ENDBRANCH  17  18
BRANCH  17  20
HETATM   20  O9  UNL     1      24.053 -31.957 283.568  1.00  0.00    -0.369 OA
ATOM     21  H9  UNL     1      23.295 -31.556 283.157  1.00  0.00     0.212 HD
ENDBRANCH  17  20
ENDBRANCH  12  17
ENDBRANCH   8  12
ENDBRANCH   5   6
BRANCH   5  22
HETATM   22  C13 UNL     1      30.177 -31.212 283.760  1.00  0.00     0.206 C 
HETATM   23  O6  UNL     1      30.824 -31.810 282.884  1.00  0.00    -0.646 OA
HETATM   24  O7  UNL     1      30.869 -30.672 284.827  1.00  0.00    -0.646 OA
ENDBRANCH   5  22
ENDBRANCH   1   5
BRANCH   3  25
HETATM   25  C6  UNL     1      26.810 -31.053 280.373  1.00  0.00     0.206 C 
HETATM   26  C7  UNL     1      25.664 -31.998 280.297  1.00  0.00     0.031 C 
HETATM   27  C8  UNL     1      25.107 -32.594 279.116  1.00  0.00     0.034 C 
HETATM   28  N5  UNL     1      24.457 -31.596 278.229  1.00  0.00    -0.107 NA
HETATM   29  C9  UNL     1      25.682 -33.736 278.342  1.00  0.00     0.131 C 
HETATM   30  C11 UNL     1      27.209 -33.589 278.047  1.00  0.00     0.285 C 
HETATM   31  C12 UNL     1      27.672 -32.564 278.883  1.00  0.00    -0.040 C 
HETATM   32  N7  UNL     1      28.043 -31.544 279.675  1.00  0.00    -0.341 N 
ATOM     33  H7  UNL     1      28.987 -31.172 279.782  1.00  0.00     0.170 HD
BRANCH  29  34
HETATM   34  C10 UNL     1      25.439 -35.078 278.989  1.00  0.00     0.266 C 
BRANCH  34  35
HETATM   35  O4  UNL     1      25.598 -36.102 278.056  1.00  0.00    -0.371 OA
ATOM     36  H4  UNL     1      25.090 -36.863 278.312  1.00  0.00     0.212 HD
ENDBRANCH  34  35
BRANCH  34  37
HETATM   37  O5  UNL     1      24.179 -35.196 279.522  1.00  0.00    -0.371 OA
ATOM     38  H5  UNL     1      23.549 -35.553 278.907  1.00  0.00     0.212 HD
ENDBRANCH  34  37
ENDBRANCH  29  34
BRANCH  30  39
HETATM   39  N6  UNL     1      27.393 -33.369 276.595  1.00  0.00    -0.063 N 
ATOM     40  H63 UNL     1      27.581 -32.393 276.369  1.00  0.00     0.275 HD
ATOM     41  H62 UNL     1      28.266 -33.766 276.248  1.00  0.00     0.275 HD
ATOM     42  H61 UNL     1      26.577 -33.733 276.104  1.00  0.00     0.275 HD
ENDBRANCH  30  39
ENDBRANCH   3  25
TORSDOF 14
ENDMDL
MODEL 2
REMARK VINA RESULT: -8.526559796      2.666      7.767
REMARK  14 active torsions:
REMARK  status: ('A' for Active; 'I' for Inactive)
REMARK    1  A    between atoms: N1_1  and  N2_4 
REMARK    2  A    between atoms: N2_4  and  C1_5 
REMARK    3  A    between atoms: C1_5  and  C2_6 
REMARK    4  A    between atoms: C1_5  and  C14_38 
REMARK       I    between atoms: C2_6  and  N3_8 
REMARK       I    between atoms: N3_8  and  C3_10 
REMARK    5  A    between atoms: C3_10  and  C4_12 
REMARK    6  A    between atoms: C4_12  and  N4_13 
REMARK    7  A    between atoms: C4_12  and  C13_35 
REMARK       I    between atoms: N4_13  and  C5_15 
REMARK    8  A    between atoms: C5_15  and  C6_17 
REMARK    9  A    between atoms: C9_21  and  C10_22 
REMARK   10  A    between atoms: C10_22  and  O4_23 
REMARK   11  A    between atoms: C10_22  and  O5_25 
REMARK   12  A    between atoms: C11_27  and  N6_28 
REMARK   13  A    between atoms: C14_38  and  O8_39 
REMARK   14  A    between atoms: C14_38  and  O9_41 
ROOT
HETATM    1  N4  UNL     1      24.552 -31.803 282.943  1.00  0.00    -0.337 N 
ATOM      2  H4  UNL     1      24.788 -32.699 282.517  1.00  0.00     0.164 HD
HETATM    3  C5  UNL     1      24.096 -31.804 284.261  1.00  0.00     0.245 C 
HETATM    4  O3  UNL     1      23.787 -30.703 284.841  1.00  0.00    -0.271 OA
ENDROOT
BRANCH   1   5
HETATM    5  C4  UNL     1      24.713 -30.599 282.137  1.00  0.00     0.279 C 
BRANCH   5   6
HETATM    6  C3  UNL     1      26.045 -30.513 281.532  1.00  0.00     0.257 C 
HETATM    7  N3  UNL     1      26.438 -31.418 280.521  1.00  0.00    -0.294 N 
HETATM    8  C2  UNL     1      27.693 -31.409 279.897  1.00  0.00     0.250 C 
ATOM      9  H3  UNL     1      25.765 -32.124 280.226  1.00  0.00     0.171 HD
HETATM   10  O1  UNL     1      28.544 -30.555 280.234  1.00  0.00    -0.271 OA
HETATM   11  O2  UNL     1      26.859 -29.640 281.898  1.00  0.00    -0.270 OA
BRANCH   8  12
HETATM   12  C1  UNL     1      28.039 -32.383 278.844  1.00  0.00     0.245 C 
BRANCH  12  13
HETATM   13  N2  UNL     1      28.979 -31.841 277.886  1.00  0.00    -0.129 NA
BRANCH  13  14
HETATM   14  N1  UNL     1      28.373 -30.902 277.056  1.00  0.00    -0.347 N 
ATOM     15  H12 UNL     1      27.363 -30.781 276.987  1.00  0.00     0.172 HD
ATOM     16  H11 UNL     1      29.065 -30.362 276.537  1.00  0.00     0.172 HD
ENDBRANCH  13  14
ENDBRANCH  12  13
BRANCH  12  17
HETATM   17  C14 UNL     1      26.805 -32.938 278.158  1.00  0.00     0.284 C 
BRANCH  17  18
HETATM   18  O8  UNL     1      25.859 -31.949 277.907  1.00  0.00    -0.369 OA
ATOM     19  H8  UNL     1      25.176 -32.250 277.319  1.00  0.00     0.212 HD
ENDBRANCH  17  18
BRANCH  17  20
HETATM   20  O9  UNL     1      27.146 -33.531 276.948  1.00  0.00    -0.369 OA
ATOM     21  H9  UNL     1      26.365 -33.795 276.476  1.00  0.00     0.212 HD
ENDBRANCH  17  20
ENDBRANCH  12  17
ENDBRANCH   8  12
ENDBRANCH   5   6
BRANCH   5  22
HETATM   22  C13 UNL     1      23.697 -30.725 281.042  1.00  0.00     0.206 C 
HETATM   23  O6  UNL     1      23.850 -31.421 280.024  1.00  0.00    -0.646 OA
HETATM   24  O7  UNL     1      22.516 -30.022 281.178  1.00  0.00    -0.646 OA
ENDBRANCH   5  22
ENDBRANCH   1   5
BRANCH   3  25
HETATM   25  C6  UNL     1      23.964 -33.064 285.001  1.00  0.00     0.206 C 
HETATM   26  C7  UNL     1      23.465 -32.775 286.372  1.00  0.00     0.031 C 
HETATM   27  C8  UNL     1      23.290 -33.710 287.447  1.00  0.00     0.034 C 
HETATM   28  N5  UNL     1      22.217 -34.699 287.170  1.00  0.00    -0.107 NA
HETATM   29  C9  UNL     1      24.367 -34.284 288.309  1.00  0.00     0.131 C 
HETATM   30  C11 UNL     1      25.602 -34.807 287.507  1.00  0.00     0.285 C 
HETATM   31  C12 UNL     1      25.475 -34.287 286.211  1.00  0.00    -0.040 C 
HETATM   32  N7  UNL     1      25.272 -33.796 284.977  1.00  0.00    -0.341 N 
ATOM     33  H7  UNL     1      25.892 -33.901 284.174  1.00  0.00     0.170 HD
BRANCH  29  34
HETATM   34  C10 UNL     1      24.849 -33.330 289.376  1.00  0.00     0.266 C 
BRANCH  34  35
HETATM   35  O4  UNL     1      24.774 -32.015 288.919  1.00  0.00    -0.371 OA
ATOM     36  H4  UNL     1      24.067 -31.554 289.355  1.00  0.00     0.212 HD
ENDBRANCH  34  35
BRANCH  34  37
HETATM   37  O5  UNL     1      26.147 -33.562 289.757  1.00  0.00    -0.371 OA
ATOM     38  H5  UNL     1      26.543 -32.819 290.196  1.00  0.00     0.212 HD
ENDBRANCH  34  37
ENDBRANCH  29  34
BRANCH  30  39
HETATM   39  N6  UNL     1      25.643 -36.283 287.608  1.00  0.00    -0.063 N 
ATOM     40  H63 UNL     1      26.557 -36.628 287.901  1.00  0.00     0.275 HD
ATOM     41  H62 UNL     1      25.100 -36.635 288.396  1.00  0.00     0.275 HD
ATOM     42  H61 UNL     1      25.343 -36.679 286.718  1.00  0.00     0.275 HD
ENDBRANCH  30  39
ENDBRANCH   3  25
TORSDOF 14
ENDMDL
MODEL 3
REMARK VINA RESULT: -8.233960920      1.880      4.434
REMARK  14 active torsions:
REMARK  status: ('A' for Active; 'I' for Inactive)
REMARK    1  A    between atoms: N1_1  and  N2_4 
REMARK    2  A    between atoms: N2_4  and  C1_5 
REMARK    3  A    between atoms: C1_5  and  C2_6 
REMARK    4  A    between atoms: C1_5  and  C14_38 
REMARK       I    between atoms: C2_6  and  N3_8 
REMARK       I    between atoms: N3_8  and  C3_10 
REMARK    5  A    between atoms: C3_10  and  C4_12 
REMARK    6  A    between atoms: C4_12  and  N4_13 
REMARK    7  A    between atoms: C4_12  and  C13_35 
REMARK       I    between atoms: N4_13  and  C5_15 
REMARK    8  A    between atoms: C5_15  and  C6_17 
REMARK    9  A    between atoms: C9_21  and  C10_22 
REMARK   10  A    between atoms: C10_22  and  O4_23 
REMARK   11  A    between atoms: C10_22  and  O5_25 
REMARK   12  A    between atoms: C11_27  and  N6_28 
REMARK   13  A    between atoms: C14_38  and  O8_39 
REMARK   14  A    between atoms: C14_38  and  O9_41 
ROOT
HETATM    1  N4  UNL     1      26.003 -32.194 283.037  1.00  0.00    -0.337 N 
ATOM      2  H4  UNL     1      26.481 -31.300 282.927  1.00  0.00     0.164 HD
HETATM    3  C5  UNL     1      25.473 -32.797 281.897  1.00  0.00     0.245 C 
HETATM    4  O3  UNL     1      24.862 -33.922 281.983  1.00  0.00    -0.271 OA
ENDROOT
BRANCH   1   5
HETATM    5  C4  UNL     1      25.916 -32.763 284.376  1.00  0.00     0.279 C 
BRANCH   5   6
HETATM    6  C3  UNL     1      27.210 -32.752 285.065  1.00  0.00     0.257 C 
HETATM    7  N3  UNL     1      28.309 -32.049 284.526  1.00  0.00    -0.294 N 
HETATM    8  C2  UNL     1      29.579 -31.993 285.117  1.00  0.00     0.250 C 
ATOM      9  H3  UNL     1      28.170 -31.549 283.649  1.00  0.00     0.171 HD
HETATM   10  O1  UNL     1      29.785 -32.595 286.195  1.00  0.00    -0.271 OA
HETATM   11  O2  UNL     1      27.366 -33.364 286.143  1.00  0.00    -0.270 OA
BRANCH   8  12
HETATM   12  C1  UNL     1      30.686 -31.237 284.500  1.00  0.00     0.245 C 
BRANCH  12  13
HETATM   13  N2  UNL     1      31.741 -32.105 284.023  1.00  0.00    -0.129 NA
BRANCH  13  14
HETATM   14  N1  UNL     1      32.272 -32.875 285.054  1.00  0.00    -0.347 N 
ATOM     15  H12 UNL     1      33.026 -33.548 284.923  1.00  0.00     0.172 HD
ATOM     16  H11 UNL     1      31.810 -32.676 285.942  1.00  0.00     0.172 HD
ENDBRANCH  13  14
ENDBRANCH  12  13
BRANCH  12  17
HETATM   17  C14 UNL     1      31.227 -30.167 285.430  1.00  0.00     0.284 C 
BRANCH  17  18
HETATM   18  O8  UNL     1      32.618 -30.116 285.412  1.00  0.00    -0.369 OA
ATOM     19  H8  UNL     1      32.989 -30.724 284.784  1.00  0.00     0.212 HD
ENDBRANCH  17  18
BRANCH  17  20
HETATM   20  O9  UNL     1      30.741 -28.917 285.068  1.00  0.00    -0.369 OA
ATOM     21  H9  UNL     1      29.791 -28.921 285.054  1.00  0.00     0.212 HD
ENDBRANCH  17  20
ENDBRANCH  12  17
ENDBRANCH   8  12
ENDBRANCH   5   6
BRANCH   5  22
HETATM   22  C13 UNL     1      24.970 -31.868 285.119  1.00  0.00     0.206 C 
HETATM   23  O6  UNL     1      24.623 -32.044 286.299  1.00  0.00    -0.646 OA
HETATM   24  O7  UNL     1      24.456 -30.778 284.444  1.00  0.00    -0.646 OA
ENDBRANCH   5  22
ENDBRANCH   1   5
BRANCH   3  25
HETATM   25  C6  UNL     1      25.605 -32.155 280.585  1.00  0.00     0.206 C 
HETATM   26  C7  UNL     1      25.163 -33.104 279.529  1.00  0.00     0.031 C 
HETATM   27  C8  UNL     1      25.223 -32.911 278.108  1.00  0.00     0.034 C 
HETATM   28  N5  UNL     1      24.314 -31.832 277.643  1.00  0.00    -0.107 NA
HETATM   29  C9  UNL     1      26.439 -33.023 277.247  1.00  0.00     0.131 C 
HETATM   30  C11 UNL     1      27.684 -32.271 277.816  1.00  0.00     0.285 C 
HETATM   31  C12 UNL     1      27.381 -31.968 279.151  1.00  0.00    -0.040 C 
HETATM   32  N7  UNL     1      27.012 -31.668 280.408  1.00  0.00    -0.341 N 
ATOM     33  H7  UNL     1      27.583 -31.198 281.111  1.00  0.00     0.170 HD
BRANCH  29  34
HETATM   34  C10 UNL     1      26.828 -34.452 276.949  1.00  0.00     0.266 C 
BRANCH  34  35
HETATM   35  O4  UNL     1      25.974 -35.334 277.610  1.00  0.00    -0.371 OA
ATOM     36  H4  UNL     1      26.468 -36.059 277.975  1.00  0.00     0.212 HD
ENDBRANCH  34  35
BRANCH  34  37
HETATM   37  O5  UNL     1      28.111 -34.750 277.336  1.00  0.00    -0.371 OA
ATOM     38  H5  UNL     1      28.180 -34.956 278.261  1.00  0.00     0.212 HD
ENDBRANCH  34  37
ENDBRANCH  29  34
BRANCH  30  39
HETATM   39  N6  UNL     1      27.978 -31.113 276.944  1.00  0.00    -0.063 N 
ATOM     40  H63 UNL     1      27.955 -31.355 275.953  1.00  0.00     0.275 HD
ATOM     41  H62 UNL     1      27.224 -30.427 276.938  1.00  0.00     0.275 HD
ATOM     42  H61 UNL     1      28.871 -30.709 277.226  1.00  0.00     0.275 HD
ENDBRANCH  30  39
ENDBRANCH   3  25
TORSDOF 14
ENDMDL
MODEL 4
REMARK VINA RESULT: -8.193908977      2.496      7.722
REMARK  14 active torsions:
REMARK  status: ('A' for Active; 'I' for Inactive)
REMARK    1  A    between atoms: N1_1  and  N2_4 
REMARK    2  A    between atoms: N2_4  and  C1_5 
REMARK    3  A    between atoms: C1_5  and  C2_6 
REMARK    4  A    between atoms: C1_5  and  C14_38 
REMARK       I    between atoms: C2_6  and  N3_8 
REMARK       I    between atoms: N3_8  and  C3_10 
REMARK    5  A    between atoms: C3_10  and  C4_12 
REMARK    6  A    between atoms: C4_12  and  N4_13 
REMARK    7  A    between atoms: C4_12  and  C13_35 
REMARK       I    between atoms: N4_13  and  C5_15 
REMARK    8  A    between atoms: C5_15  and  C6_17 
REMARK    9  A    between atoms: C9_21  and  C10_22 
REMARK   10  A    between atoms: C10_22  and  O4_23 
REMARK   11  A    between atoms: C10_22  and  O5_25 
REMARK   12  A    between atoms: C11_27  and  N6_28 
REMARK   13  A    between atoms: C14_38  and  O8_39 
REMARK   14  A    between atoms: C14_38  and  O9_41 
ROOT
HETATM    1  N4  UNL     1      24.851 -31.842 283.058  1.00  0.00    -0.337 N 
ATOM      2  H4  UNL     1      25.113 -32.753 282.681  1.00  0.00     0.164 HD
HETATM    3  C5  UNL     1      24.262 -31.802 284.321  1.00  0.00     0.245 C 
HETATM    4  O3  UNL     1      23.914 -30.682 284.839  1.00  0.00    -0.271 OA
ENDROOT
BRANCH   1   5
HETATM    5  C4  UNL     1      25.114 -30.662 282.243  1.00  0.00     0.279 C 
BRANCH   5   6
HETATM    6  C3  UNL     1      26.201 -30.884 281.285  1.00  0.00     0.257 C 
HETATM    7  N3  UNL     1      26.114 -31.911 280.320  1.00  0.00    -0.294 N 
HETATM    8  C2  UNL     1      27.108 -32.193 279.374  1.00  0.00     0.250 C 
ATOM      9  H3  UNL     1      25.271 -32.485 280.310  1.00  0.00     0.171 HD
HETATM   10  O1  UNL     1      28.157 -31.509 279.357  1.00  0.00    -0.271 OA
HETATM   11  O2  UNL     1      27.226 -30.170 281.304  1.00  0.00    -0.270 OA
BRANCH   8  12
HETATM   12  C1  UNL     1      26.953 -33.282 278.390  1.00  0.00     0.245 C 
BRANCH  12  13
HETATM   13  N2  UNL     1      26.851 -32.784 277.035  1.00  0.00    -0.129 NA
BRANCH  13  14
HETATM   14  N1  UNL     1      27.006 -33.808 276.105  1.00  0.00    -0.347 N 
ATOM     15  H12 UNL     1      26.636 -34.749 276.237  1.00  0.00     0.172 HD
ATOM     16  H11 UNL     1      27.531 -33.493 275.289  1.00  0.00     0.172 HD
ENDBRANCH  13  14
ENDBRANCH  12  13
BRANCH  12  17
HETATM   17  C14 UNL     1      25.790 -34.194 278.734  1.00  0.00     0.284 C 
BRANCH  17  18
HETATM   18  O8  UNL     1      24.567 -33.641 278.365  1.00  0.00    -0.369 OA
ATOM     19  H8  UNL     1      24.494 -32.731 278.627  1.00  0.00     0.212 HD
ENDBRANCH  17  18
BRANCH  17  20
HETATM   20  O9  UNL     1      25.925 -35.419 278.091  1.00  0.00    -0.369 OA
ATOM     21  H9  UNL     1      25.488 -36.103 278.584  1.00  0.00     0.212 HD
ENDBRANCH  17  20
ENDBRANCH  12  17
ENDBRANCH   8  12
ENDBRANCH   5   6
BRANCH   5  22
HETATM   22  C13 UNL     1      23.845 -30.425 281.481  1.00  0.00     0.206 C 
HETATM   23  O6  UNL     1      22.930 -29.676 281.863  1.00  0.00    -0.646 OA
HETATM   24  O7  UNL     1      23.688 -31.083 280.276  1.00  0.00    -0.646 OA
ENDBRANCH   5  22
ENDBRANCH   1   5
BRANCH   3  25
HETATM   25  C6  UNL     1      24.033 -33.039 285.075  1.00  0.00     0.206 C 
HETATM   26  C7  UNL     1      23.546 -32.699 286.438  1.00  0.00     0.031 C 
HETATM   27  C8  UNL     1      23.296 -33.605 287.522  1.00  0.00     0.034 C 
HETATM   28  N5  UNL     1      22.156 -34.517 287.248  1.00  0.00    -0.107 NA
HETATM   29  C9  UNL     1      24.322 -34.246 288.400  1.00  0.00     0.131 C 
HETATM   30  C11 UNL     1      25.521 -34.866 287.615  1.00  0.00     0.285 C 
HETATM   31  C12 UNL     1      25.442 -34.355 286.312  1.00  0.00    -0.040 C 
HETATM   32  N7  UNL     1      25.285 -33.865 285.071  1.00  0.00    -0.341 N 
ATOM     33  H7  UNL     1      25.902 -34.024 284.274  1.00  0.00     0.170 HD
BRANCH  29  34
HETATM   34  C10 UNL     1      24.863 -33.316 289.460  1.00  0.00     0.266 C 
BRANCH  34  35
HETATM   35  O4  UNL     1      24.795 -31.993 289.025  1.00  0.00    -0.371 OA
ATOM     36  H4  UNL     1      24.990 -31.400 289.741  1.00  0.00     0.212 HD
ENDBRANCH  34  35
BRANCH  34  37
HETATM   37  O5  UNL     1      26.171 -33.577 289.785  1.00  0.00    -0.371 OA
ATOM     38  H5  UNL     1      26.630 -32.814 290.117  1.00  0.00     0.212 HD
ENDBRANCH  34  37
ENDBRANCH  29  34
BRANCH  30  39
HETATM   39  N6  UNL     1      25.454 -36.340 287.733  1.00  0.00    -0.063 N 
ATOM     40  H63 UNL     1      24.566 -36.717 287.403  1.00  0.00     0.275 HD
ATOM     41  H62 UNL     1      26.065 -36.813 287.068  1.00  0.00     0.275 HD
ATOM     42  H61 UNL     1      25.653 -36.599 288.699  1.00  0.00     0.275 HD
ENDBRANCH  30  39
ENDBRANCH   3  25
TORSDOF 14
ENDMDL
MODEL 5
REMARK VINA RESULT: -8.142541197      2.696      7.881
REMARK  14 active torsions:
REMARK  status: ('A' for Active; 'I' for Inactive)
REMARK    1  A    between atoms: N1_1  and  N2_4 
REMARK    2  A    between atoms: N2_4  and  C1_5 
REMARK    3  A    between atoms: C1_5  and  C2_6 
REMARK    4  A    between atoms: C1_5  and  C14_38 
REMARK       I    between atoms: C2_6  and  N3_8 
REMARK       I    between atoms: N3_8  and  C3_10 
REMARK    5  A    between atoms: C3_10  and  C4_12 
REMARK    6  A    between atoms: C4_12  and  N4_13 
REMARK    7  A    between atoms: C4_12  and  C13_35 
REMARK       I    between atoms: N4_13  and  C5_15 
REMARK    8  A    between atoms: C5_15  and  C6_17 
REMARK    9  A    between atoms: C9_21  and  C10_22 
REMARK   10  A    between atoms: C10_22  and  O4_23 
REMARK   11  A    between atoms: C10_22  and  O5_25 
REMARK   12  A    between atoms: C11_27  and  N6_28 
REMARK   13  A    between atoms: C14_38  and  O8_39 
REMARK   14  A    between atoms: C14_38  and  O9_41 
ROOT
HETATM    1  N4  UNL     1      23.982 -31.541 283.942  1.00  0.00    -0.337 N 
ATOM      2  H4  UNL     1      23.036 -31.537 284.322  1.00  0.00     0.164 HD
HETATM    3  C5  UNL     1      24.827 -32.591 284.303  1.00  0.00     0.245 C 
HETATM    4  O3  UNL     1      26.026 -32.642 283.852  1.00  0.00    -0.271 OA
ENDROOT
BRANCH   1   5
HETATM    5  C4  UNL     1      24.369 -30.452 283.054  1.00  0.00     0.279 C 
BRANCH   5   6
HETATM    6  C3  UNL     1      24.171 -30.794 281.643  1.00  0.00     0.257 C 
HETATM    7  N3  UNL     1      25.085 -31.632 280.968  1.00  0.00    -0.294 N 
HETATM    8  C2  UNL     1      24.973 -32.002 279.621  1.00  0.00     0.250 C 
ATOM      9  H3  UNL     1      25.879 -31.993 281.496  1.00  0.00     0.171 HD
HETATM   10  O1  UNL     1      24.011 -31.577 278.942  1.00  0.00    -0.271 OA
HETATM   11  O2  UNL     1      23.191 -30.350 281.008  1.00  0.00    -0.270 OA
BRANCH   8  12
HETATM   12  C1  UNL     1      25.964 -32.885 278.976  1.00  0.00     0.245 C 
BRANCH  12  13
HETATM   13  N2  UNL     1      26.217 -32.512 277.601  1.00  0.00    -0.129 NA
BRANCH  13  14
HETATM   14  N1  UNL     1      27.563 -32.649 277.276  1.00  0.00    -0.347 N 
ATOM     15  H12 UNL     1      28.205 -31.862 277.194  1.00  0.00     0.172 HD
ATOM     16  H11 UNL     1      27.813 -33.628 277.134  1.00  0.00     0.172 HD
ENDBRANCH  13  14
ENDBRANCH  12  13
BRANCH  12  17
HETATM   17  C14 UNL     1      25.578 -34.348 279.092  1.00  0.00     0.284 C 
BRANCH  17  18
HETATM   18  O8  UNL     1      24.261 -34.508 279.512  1.00  0.00    -0.369 OA
ATOM     19  H8  UNL     1      23.666 -33.934 279.045  1.00  0.00     0.212 HD
ENDBRANCH  17  18
BRANCH  17  20
HETATM   20  O9  UNL     1      25.725 -34.988 277.867  1.00  0.00    -0.369 OA
ATOM     21  H9  UNL     1      24.986 -34.796 277.301  1.00  0.00     0.212 HD
ENDBRANCH  17  20
ENDBRANCH  12  17
ENDBRANCH   8  12
ENDBRANCH   5   6
BRANCH   5  22
HETATM   22  C13 UNL     1      23.451 -29.319 283.406  1.00  0.00     0.206 C 
HETATM   23  O6  UNL     1      23.544 -28.174 282.934  1.00  0.00    -0.646 OA
HETATM   24  O7  UNL     1      22.440 -29.571 284.311  1.00  0.00    -0.646 OA
ENDBRANCH   5  22
ENDBRANCH   1   5
BRANCH   3  25
HETATM   25  C6  UNL     1      24.356 -33.649 285.203  1.00  0.00     0.206 C 
HETATM   26  C7  UNL     1      23.857 -33.034 286.462  1.00  0.00     0.031 C 
HETATM   27  C8  UNL     1      23.400 -33.715 287.639  1.00  0.00     0.034 C 
HETATM   28  N5  UNL     1      22.143 -34.472 287.406  1.00  0.00    -0.107 NA
HETATM   29  C9  UNL     1      24.256 -34.366 288.677  1.00  0.00     0.131 C 
HETATM   30  C11 UNL     1      25.380 -35.276 288.085  1.00  0.00     0.285 C 
HETATM   31  C12 UNL     1      25.459 -34.962 286.721  1.00  0.00    -0.040 C 
HETATM   32  N7  UNL     1      25.454 -34.648 285.415  1.00  0.00    -0.341 N 
ATOM     33  H7  UNL     1      26.080 -35.021 284.700  1.00  0.00     0.170 HD
BRANCH  29  34
HETATM   34  C10 UNL     1      24.883 -33.381 289.636  1.00  0.00     0.266 C 
BRANCH  34  35
HETATM   35  O4  UNL     1      24.742 -32.080 289.154  1.00  0.00    -0.371 OA
ATOM     36  H4  UNL     1      25.535 -31.805 288.709  1.00  0.00     0.212 HD
ENDBRANCH  34  35
BRANCH  34  37
HETATM   37  O5  UNL     1      26.222 -33.604 289.834  1.00  0.00    -0.371 OA
ATOM     38  H5  UNL     1      26.587 -33.073 290.532  1.00  0.00     0.212 HD
ENDBRANCH  34  37
ENDBRANCH  29  34
BRANCH  30  39
HETATM   39  N6  UNL     1      25.065 -36.686 288.405  1.00  0.00    -0.063 N 
ATOM     40  H63 UNL     1      25.878 -37.201 288.742  1.00  0.00     0.275 HD
ATOM     41  H62 UNL     1      24.484 -36.777 289.238  1.00  0.00     0.275 HD
ATOM     42  H61 UNL     1      24.641 -37.120 287.585  1.00  0.00     0.275 HD
ENDBRANCH  30  39
ENDBRANCH   3  25
TORSDOF 14
ENDMDL
