MODEL 1
REMARK VINA RESULT: -9.025798741      0.000      0.000
REMARK  14 active torsions:
REMARK  status: ('A' for Active; 'I' for Inactive)
REMARK    1  A    between atoms: N1_1  and  N2_4 
REMARK       I    between atoms: N2_4  and  C1_6 
REMARK    2  A    between atoms: C1_6  and  C2_8 
REMARK    3  A    between atoms: C2_8  and  C3_9 
REMARK    4  A    between atoms: C3_9  and  C4_10 
REMARK    5  A    between atoms: C3_9  and  N12_41 
REMARK    6  A    between atoms: C4_10  and  C5_11 
REMARK    7  A    between atoms: C5_11  and  N3_12 
REMARK    8  A    between atoms: C5_11  and  C6_16 
REMARK    9  A    between atoms: C6_16  and  O2_17 
REMARK   10  A    between atoms: C6_16  and  N4_19 
REMARK   11  A    between atoms: N4_19  and  C7_21 
REMARK   12  A    between atoms: C8_24  and  C9_25 
REMARK   13  A    between atoms: C11_29  and  N7_30 
REMARK   14  A    between atoms: N7_30  and  C12_32 
REMARK       I    between atoms: N12_41  and  C14_43 
ROOT
HETATM    1  C6  UNL     1      24.045 -30.252 283.790  1.00  0.00     0.265 C 
ENDROOT
BRANCH   1   2
HETATM    2  C5  UNL     1      24.529 -29.792 282.429  1.00  0.00     0.234 C 
BRANCH   2   3
HETATM    3  C4  UNL     1      23.717 -30.373 281.301  1.00  0.00     0.063 C 
BRANCH   3   4
HETATM    4  C3  UNL     1      24.523 -31.441 280.639  1.00  0.00     0.096 C 
BRANCH   4   5
HETATM    5  C2  UNL     1      24.621 -31.328 279.156  1.00  0.00     0.129 C 
BRANCH   5   6
HETATM    6  C1  UNL     1      25.378 -32.394 278.494  1.00  0.00     0.237 C 
HETATM    7  N2  UNL     1      26.682 -32.103 278.013  1.00  0.00    -0.277 N 
ATOM      8  H2  UNL     1      27.051 -31.160 278.144  1.00  0.00     0.189 HD
HETATM    9  O1  UNL     1      24.961 -33.572 278.311  1.00  0.00    -0.272 OA
BRANCH   7  10
HETATM   10  N1  UNL     1      27.485 -33.051 277.369  1.00  0.00    -0.343 N 
ATOM     11  H12 UNL     1      28.360 -33.314 277.823  1.00  0.00     0.176 HD
ATOM     12  H11 UNL     1      27.232 -33.479 276.479  1.00  0.00     0.176 HD
ENDBRANCH   7  10
ENDBRANCH   5   6
ENDBRANCH   4   5
BRANCH   4  13
HETATM   13  N12 UNL     1      24.121 -32.771 281.002  1.00  0.00    -0.340 N 
HETATM   14  C14 UNL     1      24.827 -33.584 281.914  1.00  0.00     0.329 C 
HETATM   15  N13 UNL     1      24.386 -34.887 282.233  1.00  0.00    -0.040 NA
HETATM   16  O4  UNL     1      25.867 -33.151 282.454  1.00  0.00    -0.251 OA
ATOM     17  H12 UNL     1      23.276 -33.150 280.575  1.00  0.00     0.164 HD
ENDBRANCH   4  13
ENDBRANCH   3   4
ENDBRANCH   2   3
BRANCH   2  18
HETATM   18  N3  UNL     1      25.937 -30.054 282.243  1.00  0.00    -0.071 N 
ATOM     19  H33 UNL     1      26.146 -30.319 281.280  1.00  0.00     0.274 HD
ATOM     20  H32 UNL     1      26.488 -29.196 282.290  1.00  0.00     0.274 HD
ATOM     21  H31 UNL     1      26.270 -30.752 282.907  1.00  0.00     0.274 HD
ENDBRANCH   2  18
ENDBRANCH   1   2
BRANCH   1  22
HETATM   22  O2  UNL     1      23.768 -29.062 284.495  1.00  0.00    -0.374 OA
ATOM     23  H2  UNL     1      23.001 -29.263 285.019  1.00  0.00     0.212 HD
ENDBRANCH   1  22
BRANCH   1  24
HETATM   24  N4  UNL     1      25.017 -31.015 284.498  1.00  0.00    -0.198 N 
ATOM     25  H4  UNL     1      26.003 -30.764 284.446  1.00  0.00     0.180 HD
BRANCH  24  26
HETATM   26  C7  UNL     1      24.641 -32.023 285.204  1.00  0.00     0.682 A 
HETATM   27  N5  UNL     1      23.427 -32.081 285.769  1.00  0.00    -0.187 N 
HETATM   28  C8  UNL     1      23.022 -33.138 286.514  1.00  0.00     0.117 A 
ATOM     29  H5  UNL     1      22.784 -31.300 285.634  1.00  0.00     0.184 HD
HETATM   30  C10 UNL     1      23.867 -34.193 286.708  1.00  0.00     0.084 A 
HETATM   31  C11 UNL     1      25.123 -34.152 286.132  1.00  0.00     0.126 A 
HETATM   32  N11 UNL     1      25.484 -33.075 285.396  1.00  0.00    -0.177 N 
ATOM     33  H11 UNL     1      26.412 -33.050 284.975  1.00  0.00     0.186 HD
BRANCH  28  34
HETATM   34  C9  UNL     1      21.700 -33.114 287.084  1.00  0.00     0.282 C 
HETATM   35  N6  UNL     1      21.199 -34.106 287.968  1.00  0.00    -0.056 NA
HETATM   36  O3  UNL     1      20.923 -32.170 286.797  1.00  0.00    -0.269 OA
ENDBRANCH  28  34
BRANCH  31  37
HETATM   37  N7  UNL     1      25.925 -35.144 286.311  1.00  0.00    -0.313 N 
ATOM     38  H7  UNL     1      26.573 -35.433 285.578  1.00  0.00     0.170 HD
BRANCH  37  39
HETATM   39  C12 UNL     1      25.880 -35.827 287.562  1.00  0.00     0.194 C 
HETATM   40  N8  UNL     1      25.547 -35.362 288.716  1.00  0.00    -0.346 N 
HETATM   41  C13 UNL     1      25.635 -36.388 289.732  1.00  0.00     0.259 C 
ATOM     42  H8  UNL     1      25.260 -34.398 288.890  1.00  0.00     0.163 HD
HETATM   43  N9  UNL     1      26.361 -37.490 289.127  1.00  0.00    -0.119 NA
HETATM   44  N10 UNL     1      26.205 -37.198 287.769  1.00  0.00    -0.274 N 
ATOM     45  H10 UNL     1      26.311 -37.882 287.020  1.00  0.00     0.185 HD
ENDBRANCH  37  39
ENDBRANCH  31  37
ENDBRANCH  24  26
ENDBRANCH   1  24
TORSDOF 14
ENDMDL
MODEL 2
REMARK VINA RESULT: -8.998418625      2.700      6.251
REMARK  14 active torsions:
REMARK  status: ('A' for Active; 'I' for Inactive)
REMARK    1  A    between atoms: N1_1  and  N2_4 
REMARK       I    between atoms: N2_4  and  C1_6 
REMARK    2  A    between atoms: C1_6  and  C2_8 
REMARK    3  A    between atoms: C2_8  and  C3_9 
REMARK    4  A    between atoms: C3_9  and  C4_10 
REMARK    5  A    between atoms: C3_9  and  N12_41 
REMARK    6  A    between atoms: C4_10  and  C5_11 
REMARK    7  A    between atoms: C5_11  and  N3_12 
REMARK    8  A    between atoms: C5_11  and  C6_16 
REMARK    9  A    between atoms: C6_16  and  O2_17 
REMARK   10  A    between atoms: C6_16  and  N4_19 
REMARK   11  A    between atoms: N4_19  and  C7_21 
REMARK   12  A    between atoms: C8_24  and  C9_25 
REMARK   13  A    between atoms: C11_29  and  N7_30 
REMARK   14  A    between atoms: N7_30  and  C12_32 
REMARK       I    between atoms: N12_41  and  C14_43 
ROOT
HETATM    1  C6  UNL     1      23.941 -30.096 282.827  1.00  0.00     0.265 C 
ENDROOT
BRANCH   1   2
HETATM    2  C5  UNL     1      24.453 -30.618 284.155  1.00  0.00     0.234 C 
BRANCH   2   3
HETATM    3  C4  UNL     1      23.507 -31.602 284.793  1.00  0.00     0.063 C 
BRANCH   3   4
HETATM    4  C3  UNL     1      24.310 -32.628 285.521  1.00  0.00     0.096 C 
BRANCH   4   5
HETATM    5  C2  UNL     1      25.115 -33.531 284.650  1.00  0.00     0.129 C 
BRANCH   5   6
HETATM    6  C1  UNL     1      24.389 -34.127 283.525  1.00  0.00     0.237 C 
HETATM    7  N2  UNL     1      24.763 -33.759 282.205  1.00  0.00    -0.277 N 
ATOM      8  H2  UNL     1      25.524 -33.091 282.082  1.00  0.00     0.189 HD
HETATM    9  O1  UNL     1      23.442 -34.955 283.631  1.00  0.00    -0.272 OA
BRANCH   7  10
HETATM   10  N1  UNL     1      24.133 -34.270 281.065  1.00  0.00    -0.343 N 
ATOM     11  H12 UNL     1      23.113 -34.312 281.069  1.00  0.00     0.176 HD
ATOM     12  H11 UNL     1      24.646 -34.597 280.247  1.00  0.00     0.176 HD
ENDBRANCH   7  10
ENDBRANCH   5   6
ENDBRANCH   4   5
BRANCH   4  13
HETATM   13  N12 UNL     1      23.542 -33.403 286.453  1.00  0.00    -0.340 N 
HETATM   14  C14 UNL     1      23.767 -33.410 287.845  1.00  0.00     0.329 C 
HETATM   15  N13 UNL     1      22.979 -34.194 288.716  1.00  0.00    -0.040 NA
HETATM   16  O4  UNL     1      24.683 -32.710 288.328  1.00  0.00    -0.251 OA
ATOM     17  H12 UNL     1      22.788 -33.984 286.085  1.00  0.00     0.164 HD
ENDBRANCH   4  13
ENDBRANCH   3   4
ENDBRANCH   2   3
BRANCH   2  18
HETATM   18  N3  UNL     1      24.775 -29.544 285.066  1.00  0.00    -0.071 N 
ATOM     19  H33 UNL     1      24.071 -29.448 285.798  1.00  0.00     0.274 HD
ATOM     20  H32 UNL     1      25.577 -29.777 285.653  1.00  0.00     0.274 HD
ATOM     21  H31 UNL     1      24.919 -28.668 284.564  1.00  0.00     0.274 HD
ENDBRANCH   2  18
ENDBRANCH   1   2
BRANCH   1  22
HETATM   22  O2  UNL     1      23.472 -31.240 282.148  1.00  0.00    -0.374 OA
ATOM     23  H2  UNL     1      22.857 -31.644 282.748  1.00  0.00     0.212 HD
ENDBRANCH   1  22
BRANCH   1  24
HETATM   24  N4  UNL     1      24.952 -29.457 282.054  1.00  0.00    -0.198 N 
ATOM     25  H4  UNL     1      24.866 -28.471 281.812  1.00  0.00     0.180 HD
BRANCH  24  26
HETATM   26  C7  UNL     1      25.973 -30.135 281.661  1.00  0.00     0.682 A 
HETATM   27  N5  UNL     1      25.921 -30.944 280.594  1.00  0.00    -0.187 N 
HETATM   28  C8  UNL     1      26.991 -31.661 280.173  1.00  0.00     0.117 A 
ATOM     29  H5  UNL     1      25.044 -31.022 280.079  1.00  0.00     0.184 HD
HETATM   30  C10 UNL     1      28.175 -31.570 280.848  1.00  0.00     0.084 A 
HETATM   31  C11 UNL     1      28.248 -30.741 281.952  1.00  0.00     0.126 A 
HETATM   32  N11 UNL     1      27.153 -30.044 282.335  1.00  0.00    -0.177 N 
ATOM     33  H11 UNL     1      27.213 -29.435 283.150  1.00  0.00     0.186 HD
BRANCH  28  34
HETATM   34  C9  UNL     1      26.844 -32.504 279.016  1.00  0.00     0.282 C 
HETATM   35  N6  UNL     1      27.484 -32.263 277.771  1.00  0.00    -0.056 NA
HETATM   36  O3  UNL     1      26.111 -33.522 279.085  1.00  0.00    -0.269 OA
ENDBRANCH  28  34
BRANCH  31  37
HETATM   37  N7  UNL     1      29.362 -30.651 282.592  1.00  0.00    -0.313 N 
ATOM     38  H7  UNL     1      30.143 -30.117 282.213  1.00  0.00     0.170 HD
BRANCH  37  39
HETATM   39  C12 UNL     1      29.470 -31.319 283.847  1.00  0.00     0.194 C 
HETATM   40  N8  UNL     1      30.505 -31.432 284.607  1.00  0.00    -0.346 N 
HETATM   41  C13 UNL     1      30.191 -32.191 285.798  1.00  0.00     0.259 C 
ATOM     42  H8  UNL     1      31.422 -31.039 284.396  1.00  0.00     0.163 HD
HETATM   43  N9  UNL     1      28.900 -32.807 285.553  1.00  0.00    -0.119 NA
HETATM   44  N10 UNL     1      28.416 -32.007 284.514  1.00  0.00    -0.274 N 
ATOM     45  H10 UNL     1      27.431 -31.925 284.264  1.00  0.00     0.185 HD
ENDBRANCH  37  39
ENDBRANCH  31  37
ENDBRANCH  24  26
ENDBRANCH   1  24
TORSDOF 14
ENDMDL
MODEL 3
REMARK VINA RESULT: -8.961566980      1.608      2.740
REMARK  14 active torsions:
REMARK  status: ('A' for Active; 'I' for Inactive)
REMARK    1  A    between atoms: N1_1  and  N2_4 
REMARK       I    between atoms: N2_4  and  C1_6 
REMARK    2  A    between atoms: C1_6  and  C2_8 
REMARK    3  A    between atoms: C2_8  and  C3_9 
REMARK    4  A    between atoms: C3_9  and  C4_10 
REMARK    5  A    between atoms: C3_9  and  N12_41 
REMARK    6  A    between atoms: C4_10  and  C5_11 
REMARK    7  A    between atoms: C5_11  and  N3_12 
REMARK    8  A    between atoms: C5_11  and  C6_16 
REMARK    9  A    between atoms: C6_16  and  O2_17 
REMARK   10  A    between atoms: C6_16  and  N4_19 
REMARK   11  A    between atoms: N4_19  and  C7_21 
REMARK   12  A    between atoms: C8_24  and  C9_25 
REMARK   13  A    between atoms: C11_29  and  N7_30 
REMARK   14  A    between atoms: N7_30  and  C12_32 
REMARK       I    between atoms: N12_41  and  C14_43 
ROOT
HETATM    1  C6  UNL     1      23.772 -30.212 283.801  1.00  0.00     0.265 C 
ENDROOT
BRANCH   1   2
HETATM    2  C5  UNL     1      23.959 -30.611 282.350  1.00  0.00     0.234 C 
BRANCH   2   3
HETATM    3  C4  UNL     1      25.270 -30.130 281.783  1.00  0.00     0.063 C 
BRANCH   3   4
HETATM    4  C3  UNL     1      25.906 -31.257 281.039  1.00  0.00     0.096 C 
BRANCH   4   5
HETATM    5  C2  UNL     1      27.383 -31.366 281.204  1.00  0.00     0.129 C 
BRANCH   5   6
HETATM    6  C1  UNL     1      27.865 -31.297 282.587  1.00  0.00     0.237 C 
HETATM    7  N2  UNL     1      28.927 -30.403 282.891  1.00  0.00    -0.277 N 
ATOM      8  H2  UNL     1      29.319 -29.838 282.138  1.00  0.00     0.189 HD
HETATM    9  O1  UNL     1      27.410 -31.977 283.548  1.00  0.00    -0.272 OA
BRANCH   7  10
HETATM   10  N1  UNL     1      29.458 -30.263 284.178  1.00  0.00    -0.343 N 
ATOM     11  H12 UNL     1      29.458 -31.086 284.780  1.00  0.00     0.176 HD
ATOM     12  H11 UNL     1      29.838 -29.383 284.529  1.00  0.00     0.176 HD
ENDBRANCH   7  10
ENDBRANCH   5   6
ENDBRANCH   4   5
BRANCH   4  13
HETATM   13  N12 UNL     1      25.567 -31.287 279.644  1.00  0.00    -0.340 N 
HETATM   14  C14 UNL     1      24.727 -32.258 279.060  1.00  0.00     0.329 C 
HETATM   15  N13 UNL     1      24.428 -32.240 277.680  1.00  0.00    -0.040 NA
HETATM   16  O4  UNL     1      24.234 -33.160 279.771  1.00  0.00    -0.251 OA
ATOM     17  H12 UNL     1      25.956 -30.562 279.040  1.00  0.00     0.164 HD
ENDBRANCH   4  13
ENDBRANCH   3   4
ENDBRANCH   2   3
BRANCH   2  18
HETATM   18  N3  UNL     1      22.851 -30.185 281.528  1.00  0.00    -0.071 N 
ATOM     19  H33 UNL     1      23.161 -29.895 280.600  1.00  0.00     0.274 HD
ATOM     20  H32 UNL     1      22.261 -30.971 281.254  1.00  0.00     0.274 HD
ATOM     21  H31 UNL     1      22.312 -29.453 281.991  1.00  0.00     0.274 HD
ENDBRANCH   2  18
ENDBRANCH   1   2
BRANCH   1  22
HETATM   22  O2  UNL     1      23.925 -28.810 283.811  1.00  0.00    -0.374 OA
ATOM     23  H2  UNL     1      24.578 -28.641 284.480  1.00  0.00     0.212 HD
ENDBRANCH   1  22
BRANCH   1  24
HETATM   24  N4  UNL     1      24.730 -30.807 284.670  1.00  0.00    -0.198 N 
ATOM     25  H4  UNL     1      25.654 -30.389 284.777  1.00  0.00     0.180 HD
BRANCH  24  26
HETATM   26  C7  UNL     1      24.422 -31.875 285.318  1.00  0.00     0.682 A 
HETATM   27  N5  UNL     1      23.213 -32.045 285.872  1.00  0.00    -0.187 N 
HETATM   28  C8  UNL     1      22.879 -33.165 286.557  1.00  0.00     0.117 A 
ATOM     29  H5  UNL     1      22.519 -31.304 285.774  1.00  0.00     0.184 HD
HETATM   30  C10 UNL     1      23.793 -34.170 286.700  1.00  0.00     0.084 A 
HETATM   31  C11 UNL     1      25.046 -34.013 286.135  1.00  0.00     0.126 A 
HETATM   32  N11 UNL     1      25.334 -32.875 285.460  1.00  0.00    -0.177 N 
ATOM     33  H11 UNL     1      26.260 -32.765 285.047  1.00  0.00     0.186 HD
BRANCH  28  34
HETATM   34  C9  UNL     1      21.557 -33.262 287.118  1.00  0.00     0.282 C 
HETATM   35  N6  UNL     1      21.098 -34.369 287.881  1.00  0.00    -0.056 NA
HETATM   36  O3  UNL     1      20.740 -32.325 286.937  1.00  0.00    -0.269 OA
ENDBRANCH  28  34
BRANCH  31  37
HETATM   37  N7  UNL     1      25.913 -34.956 286.266  1.00  0.00    -0.313 N 
ATOM     38  H7  UNL     1      26.594 -35.148 285.531  1.00  0.00     0.170 HD
BRANCH  37  39
HETATM   39  C12 UNL     1      25.893 -35.724 287.467  1.00  0.00     0.194 C 
HETATM   40  N8  UNL     1      25.571 -35.344 288.655  1.00  0.00    -0.346 N 
HETATM   41  C13 UNL     1      25.685 -36.436 289.597  1.00  0.00     0.259 C 
ATOM     42  H8  UNL     1      25.275 -34.399 288.900  1.00  0.00     0.163 HD
HETATM   43  N9  UNL     1      26.415 -37.485 288.908  1.00  0.00    -0.119 NA
HETATM   44  N10 UNL     1      26.237 -37.102 287.575  1.00  0.00    -0.274 N 
ATOM     45  H10 UNL     1      26.340 -37.731 286.779  1.00  0.00     0.185 HD
ENDBRANCH  37  39
ENDBRANCH  31  37
ENDBRANCH  24  26
ENDBRANCH   1  24
TORSDOF 14
ENDMDL
MODEL 4
REMARK VINA RESULT: -8.945300230      3.288      7.601
REMARK  14 active torsions:
REMARK  status: ('A' for Active; 'I' for Inactive)
REMARK    1  A    between atoms: N1_1  and  N2_4 
REMARK       I    between atoms: N2_4  and  C1_6 
REMARK    2  A    between atoms: C1_6  and  C2_8 
REMARK    3  A    between atoms: C2_8  and  C3_9 
REMARK    4  A    between atoms: C3_9  and  C4_10 
REMARK    5  A    between atoms: C3_9  and  N12_41 
REMARK    6  A    between atoms: C4_10  and  C5_11 
REMARK    7  A    between atoms: C5_11  and  N3_12 
REMARK    8  A    between atoms: C5_11  and  C6_16 
REMARK    9  A    between atoms: C6_16  and  O2_17 
REMARK   10  A    between atoms: C6_16  and  N4_19 
REMARK   11  A    between atoms: N4_19  and  C7_21 
REMARK   12  A    between atoms: C8_24  and  C9_25 
REMARK   13  A    between atoms: C11_29  and  N7_30 
REMARK   14  A    between atoms: N7_30  and  C12_32 
REMARK       I    between atoms: N12_41  and  C14_43 
ROOT
HETATM    1  C6  UNL     1      24.778 -32.094 285.837  1.00  0.00     0.265 C 
ENDROOT
BRANCH   1   2
HETATM    2  C5  UNL     1      23.454 -32.831 285.784  1.00  0.00     0.234 C 
BRANCH   2   3
HETATM    3  C4  UNL     1      22.686 -32.733 287.076  1.00  0.00     0.063 C 
BRANCH   3   4
HETATM    4  C3  UNL     1      22.989 -33.939 287.902  1.00  0.00     0.096 C 
BRANCH   4   5
HETATM    5  C2  UNL     1      21.801 -34.592 288.522  1.00  0.00     0.129 C 
BRANCH   5   6
HETATM    6  C1  UNL     1      21.021 -35.453 287.628  1.00  0.00     0.237 C 
HETATM    7  N2  UNL     1      20.203 -36.463 288.202  1.00  0.00    -0.277 N 
ATOM      8  H2  UNL     1      20.185 -36.556 289.218  1.00  0.00     0.189 HD
HETATM    9  O1  UNL     1      21.014 -35.372 286.368  1.00  0.00    -0.272 OA
BRANCH   7  10
HETATM   10  N1  UNL     1      19.421 -37.334 287.436  1.00  0.00    -0.343 N 
ATOM     11  H12 UNL     1      18.705 -36.922 286.838  1.00  0.00     0.176 HD
ATOM     12  H11 UNL     1      19.539 -38.347 287.456  1.00  0.00     0.176 HD
ENDBRANCH   7  10
ENDBRANCH   5   6
ENDBRANCH   4   5
BRANCH   4  13
HETATM   13  N12 UNL     1      23.999 -33.715 288.896  1.00  0.00    -0.340 N 
HETATM   14  C14 UNL     1      25.338 -34.140 288.768  1.00  0.00     0.329 C 
HETATM   15  N13 UNL     1      26.291 -33.892 289.780  1.00  0.00    -0.040 NA
HETATM   16  O4  UNL     1      25.699 -34.752 287.739  1.00  0.00    -0.251 OA
ATOM     17  H12 UNL     1      23.733 -33.218 289.747  1.00  0.00     0.164 HD
ENDBRANCH   4  13
ENDBRANCH   3   4
ENDBRANCH   2   3
BRANCH   2  18
HETATM   18  N3  UNL     1      23.622 -34.210 285.385  1.00  0.00    -0.071 N 
ATOM     19  H33 UNL     1      24.397 -34.653 285.879  1.00  0.00     0.274 HD
ATOM     20  H32 UNL     1      22.862 -34.796 285.732  1.00  0.00     0.274 HD
ATOM     21  H31 UNL     1      23.726 -34.287 284.374  1.00  0.00     0.274 HD
ENDBRANCH   2  18
ENDBRANCH   1   2
BRANCH   1  22
HETATM   22  O2  UNL     1      24.551 -30.895 285.129  1.00  0.00    -0.374 OA
ATOM     23  H2  UNL     1      25.328 -30.777 284.596  1.00  0.00     0.212 HD
ENDBRANCH   1  22
BRANCH   1  24
HETATM   24  N4  UNL     1      25.843 -32.818 285.229  1.00  0.00    -0.198 N 
ATOM     25  H4  UNL     1      26.240 -33.634 285.694  1.00  0.00     0.180 HD
BRANCH  24  26
HETATM   26  C7  UNL     1      26.300 -32.435 284.088  1.00  0.00     0.682 A 
HETATM   27  N5  UNL     1      25.765 -32.853 282.932  1.00  0.00    -0.187 N 
HETATM   28  C8  UNL     1      26.239 -32.456 281.727  1.00  0.00     0.117 A 
ATOM     29  H5  UNL     1      24.972 -33.493 282.961  1.00  0.00     0.184 HD
HETATM   30  C10 UNL     1      27.301 -31.599 281.666  1.00  0.00     0.084 A 
HETATM   31  C11 UNL     1      27.867 -31.157 282.848  1.00  0.00     0.126 A 
HETATM   32  N11 UNL     1      27.358 -31.581 284.029  1.00  0.00    -0.177 N 
ATOM     33  H11 UNL     1      27.780 -31.252 284.897  1.00  0.00     0.186 HD
BRANCH  28  34
HETATM   34  C9  UNL     1      25.603 -32.955 280.537  1.00  0.00     0.282 C 
HETATM   35  N6  UNL     1      24.329 -33.582 280.521  1.00  0.00    -0.056 NA
HETATM   36  O3  UNL     1      26.189 -32.842 279.431  1.00  0.00    -0.269 OA
ENDBRANCH  28  34
BRANCH  31  37
HETATM   37  N7  UNL     1      28.868 -30.348 282.797  1.00  0.00    -0.313 N 
ATOM     38  H7  UNL     1      28.861 -29.544 282.171  1.00  0.00     0.170 HD
BRANCH  37  39
HETATM   39  C12 UNL     1      29.986 -30.611 283.642  1.00  0.00     0.194 C 
HETATM   40  N8  UNL     1      30.858 -31.554 283.546  1.00  0.00    -0.346 N 
HETATM   41  C13 UNL     1      31.836 -31.466 284.609  1.00  0.00     0.259 C 
ATOM     42  H8  UNL     1      30.859 -32.269 282.818  1.00  0.00     0.163 HD
HETATM   43  N9  UNL     1      31.296 -30.522 285.572  1.00  0.00    -0.119 NA
HETATM   44  N10 UNL     1      30.356 -29.848 284.787  1.00  0.00    -0.274 N 
ATOM     45  H10 UNL     1      29.982 -28.926 285.006  1.00  0.00     0.185 HD
ENDBRANCH  37  39
ENDBRANCH  31  37
ENDBRANCH  24  26
ENDBRANCH   1  24
TORSDOF 14
ENDMDL
MODEL 5
REMARK VINA RESULT: -8.930019561      2.134      4.067
REMARK  14 active torsions:
REMARK  status: ('A' for Active; 'I' for Inactive)
REMARK    1  A    between atoms: N1_1  and  N2_4 
REMARK       I    between atoms: N2_4  and  C1_6 
REMARK    2  A    between atoms: C1_6  and  C2_8 
REMARK    3  A    between atoms: C2_8  and  C3_9 
REMARK    4  A    between atoms: C3_9  and  C4_10 
REMARK    5  A    between atoms: C3_9  and  N12_41 
REMARK    6  A    between atoms: C4_10  and  C5_11 
REMARK    7  A    between atoms: C5_11  and  N3_12 
REMARK    8  A    between atoms: C5_11  and  C6_16 
REMARK    9  A    between atoms: C6_16  and  O2_17 
REMARK   10  A    between atoms: C6_16  and  N4_19 
REMARK   11  A    between atoms: N4_19  and  C7_21 
REMARK   12  A    between atoms: C8_24  and  C9_25 
REMARK   13  A    between atoms: C11_29  and  N7_30 
REMARK   14  A    between atoms: N7_30  and  C12_32 
REMARK       I    between atoms: N12_41  and  C14_43 
ROOT
HETATM    1  C6  UNL     1      23.441 -29.698 283.527  1.00  0.00     0.265 C 
ENDROOT
BRANCH   1   2
HETATM    2  C5  UNL     1      23.584 -30.458 282.223  1.00  0.00     0.234 C 
BRANCH   2   3
HETATM    3  C4  UNL     1      24.932 -30.257 281.582  1.00  0.00     0.063 C 
BRANCH   3   4
HETATM    4  C3  UNL     1      25.651 -31.566 281.571  1.00  0.00     0.096 C 
BRANCH   4   5
HETATM    5  C2  UNL     1      27.135 -31.468 281.475  1.00  0.00     0.129 C 
BRANCH   5   6
HETATM    6  C1  UNL     1      27.840 -31.359 282.755  1.00  0.00     0.237 C 
HETATM    7  N2  UNL     1      28.871 -30.389 282.881  1.00  0.00    -0.277 N 
ATOM      8  H2  UNL     1      29.088 -29.800 282.077  1.00  0.00     0.189 HD
HETATM    9  O1  UNL     1      27.605 -32.066 283.774  1.00  0.00    -0.272 OA
BRANCH   7  10
HETATM   10  N1  UNL     1      29.603 -30.206 284.060  1.00  0.00    -0.343 N 
ATOM     11  H12 UNL     1      29.097 -30.274 284.944  1.00  0.00     0.176 HD
ATOM     12  H11 UNL     1      30.603 -30.009 284.067  1.00  0.00     0.176 HD
ENDBRANCH   7  10
ENDBRANCH   5   6
ENDBRANCH   4   5
BRANCH   4  13
HETATM   13  N12 UNL     1      25.156 -32.483 280.584  1.00  0.00    -0.340 N 
HETATM   14  C14 UNL     1      25.124 -32.209 279.201  1.00  0.00     0.329 C 
HETATM   15  N13 UNL     1      24.625 -33.150 278.274  1.00  0.00    -0.040 NA
HETATM   16  O4  UNL     1      25.543 -31.110 278.777  1.00  0.00    -0.251 OA
ATOM     17  H12 UNL     1      24.807 -33.388 280.902  1.00  0.00     0.164 HD
ENDBRANCH   4  13
ENDBRANCH   3   4
ENDBRANCH   2   3
BRANCH   2  18
HETATM   18  N3  UNL     1      22.519 -30.144 281.299  1.00  0.00    -0.071 N 
ATOM     19  H33 UNL     1      22.606 -29.195 280.933  1.00  0.00     0.274 HD
ATOM     20  H32 UNL     1      22.619 -30.657 280.423  1.00  0.00     0.274 HD
ATOM     21  H31 UNL     1      21.606 -30.301 281.725  1.00  0.00     0.274 HD
ENDBRANCH   2  18
ENDBRANCH   1   2
BRANCH   1  22
HETATM   22  O2  UNL     1      23.681 -28.350 283.187  1.00  0.00    -0.374 OA
ATOM     23  H2  UNL     1      23.140 -27.848 283.785  1.00  0.00     0.212 HD
ENDBRANCH   1  22
BRANCH   1  24
HETATM   24  N4  UNL     1      24.372 -30.117 284.520  1.00  0.00    -0.198 N 
ATOM     25  H4  UNL     1      25.203 -29.559 284.711  1.00  0.00     0.180 HD
BRANCH  24  26
HETATM   26  C7  UNL     1      24.157 -31.205 285.173  1.00  0.00     0.682 A 
HETATM   27  N5  UNL     1      25.137 -32.079 285.438  1.00  0.00    -0.187 N 
HETATM   28  C8  UNL     1      24.921 -33.227 286.124  1.00  0.00     0.117 A 
ATOM     29  H5  UNL     1      26.082 -31.873 285.112  1.00  0.00     0.184 HD
HETATM   30  C10 UNL     1      23.664 -33.523 286.571  1.00  0.00     0.084 A 
HETATM   31  C11 UNL     1      22.640 -32.633 286.306  1.00  0.00     0.126 A 
HETATM   32  N11 UNL     1      22.904 -31.498 285.617  1.00  0.00    -0.177 N 
ATOM     33  H11 UNL     1      22.144 -30.847 285.424  1.00  0.00     0.186 HD
BRANCH  28  34
HETATM   34  C9  UNL     1      26.034 -34.108 286.364  1.00  0.00     0.282 C 
HETATM   35  N6  UNL     1      25.901 -35.462 286.772  1.00  0.00    -0.056 NA
HETATM   36  O3  UNL     1      27.204 -33.678 286.211  1.00  0.00    -0.269 OA
ENDBRANCH  28  34
BRANCH  31  37
HETATM   37  N7  UNL     1      21.452 -32.906 286.724  1.00  0.00    -0.313 N 
ATOM     38  H7  UNL     1      20.685 -32.247 286.590  1.00  0.00     0.170 HD
BRANCH  37  39
HETATM   39  C12 UNL     1      21.242 -34.154 287.380  1.00  0.00     0.194 C 
HETATM   40  N8  UNL     1      20.631 -35.198 286.936  1.00  0.00    -0.346 N 
HETATM   41  C13 UNL     1      20.639 -36.259 287.920  1.00  0.00     0.259 C 
ATOM     42  H8  UNL     1      20.199 -35.267 286.015  1.00  0.00     0.163 HD
HETATM   43  N9  UNL     1      21.070 -35.649 289.164  1.00  0.00    -0.119 NA
HETATM   44  N10 UNL     1      21.686 -34.486 288.692  1.00  0.00    -0.274 N 
ATOM     45  H10 UNL     1      22.368 -33.943 289.221  1.00  0.00     0.185 HD
ENDBRANCH  37  39
ENDBRANCH  31  37
ENDBRANCH  24  26
ENDBRANCH   1  24
TORSDOF 14
ENDMDL
