MODEL 1
REMARK VINA RESULT: -7.583896053      0.000      0.000
REMARK  8 active torsions:
REMARK  status: ('A' for Active; 'I' for Inactive)
REMARK    1  A    between atoms: C2_2  and  C15_26 
REMARK    2  A    between atoms: C3_3  and  N1_4 
REMARK    3  A    between atoms: C3_3  and  C12_15 
REMARK    4  A    between atoms: N1_4  and  C4_6 
REMARK    5  A    between atoms: C4_6  and  C5_7 
REMARK    6  A    between atoms: C5_7  and  C6_8 
REMARK    7  A    between atoms: C6_8  and  N2_9 
REMARK    8  A    between atoms: N5_22  and  N6_23 
ROOT
HETATM    1  C1  UNL     1      -2.618 -31.670   2.727  1.00  0.00     0.046 C 
HETATM    2  C2  UNL     1      -3.129 -33.046   3.059  1.00  0.00    -0.048 C 
HETATM    3  C3  UNL     1      -2.324 -33.859   3.696  1.00  0.00     0.078 C 
ENDROOT
BRANCH   3   4
HETATM    4  N1  UNL     1      -0.996 -33.569   4.107  1.00  0.00    -0.383 N 
ATOM      5  H1  UNL     1      -0.615 -32.642   3.917  1.00  0.00     0.160 HD
BRANCH   4   6
HETATM    6  C4  UNL     1      -0.147 -34.557   4.797  1.00  0.00     0.148 C 
BRANCH   6   7
HETATM    7  C5  UNL     1       1.213 -34.640   4.255  1.00  0.00     0.004 C 
BRANCH   7   8
HETATM    8  C6  UNL     1       2.096 -33.500   4.074  1.00  0.00     0.057 C 
BRANCH   8   9
HETATM    9  N2  UNL     1       1.655 -32.156   4.119  1.00  0.00    -0.293 NA
HETATM   10  C7  UNL     1       2.182 -31.423   5.193  1.00  0.00     0.095 C 
HETATM   11  C8  UNL     1       2.054 -29.929   5.067  1.00  0.00     0.015 C 
HETATM   12  C9  UNL     1       1.235 -29.449   3.915  1.00  0.00     0.002 C 
HETATM   13  C10 UNL     1       1.489 -30.206   2.640  1.00  0.00     0.015 C 
HETATM   14  C11 UNL     1       2.096 -31.543   2.857  1.00  0.00     0.095 C 
ENDBRANCH   8   9
ENDBRANCH   7   8
ENDBRANCH   6   7
ENDBRANCH   4   6
ENDBRANCH   3   4
BRANCH   3  15
HETATM   15  C12 UNL     1      -2.784 -35.198   4.128  1.00  0.00     0.171 A 
HETATM   16  N3  UNL     1      -2.592 -36.344   3.445  1.00  0.00    -0.278 N 
HETATM   17  N4  UNL     1      -3.069 -37.323   4.170  1.00  0.00    -0.269 N 
ATOM     18  H3  UNL     1      -2.155 -36.432   2.528  1.00  0.00     0.189 HD
HETATM   19  C13 UNL     1      -3.060 -38.738   3.805  1.00  0.00     0.180 C 
HETATM   20  C14 UNL     1      -3.564 -36.797   5.304  1.00  0.00     0.215 A 
HETATM   21  S1  UNL     1      -4.266 -37.623   6.498  1.00  0.00    -0.037 SA
HETATM   22  N5  UNL     1      -3.386 -35.439   5.293  1.00  0.00    -0.215 N 
BRANCH  22  23
HETATM   23  N6  UNL     1      -3.757 -34.597   6.333  1.00  0.00    -0.334 N 
ATOM     24  H62 UNL     1      -3.332 -34.611   7.260  1.00  0.00     0.177 HD
ATOM     25  H61 UNL     1      -4.442 -33.842   6.382  1.00  0.00     0.177 HD
ENDBRANCH  22  23
ENDBRANCH   3  15
BRANCH   2  26
HETATM   26  C15 UNL     1      -4.475 -33.427   2.596  1.00  0.00     0.036 A 
HETATM   27  C16 UNL     1      -5.433 -32.511   1.963  1.00  0.00     0.031 A 
HETATM   28  C17 UNL     1      -4.774 -33.624   1.141  1.00  0.00     0.091 A 
HETATM   29 CL1  UNL     1      -3.620 -33.182  -0.106  1.00  0.00    -0.124 Cl
ENDBRANCH   2  26
TORSDOF 8
ENDMDL
MODEL 2
REMARK VINA RESULT: -7.456789747      1.033      1.827
REMARK  8 active torsions:
REMARK  status: ('A' for Active; 'I' for Inactive)
REMARK    1  A    between atoms: C2_2  and  C15_26 
REMARK    2  A    between atoms: C3_3  and  N1_4 
REMARK    3  A    between atoms: C3_3  and  C12_15 
REMARK    4  A    between atoms: N1_4  and  C4_6 
REMARK    5  A    between atoms: C4_6  and  C5_7 
REMARK    6  A    between atoms: C5_7  and  C6_8 
REMARK    7  A    between atoms: C6_8  and  N2_9 
REMARK    8  A    between atoms: N5_22  and  N6_23 
ROOT
HETATM    1  C1  UNL     1      -2.488 -32.502   1.251  1.00  0.00     0.046 C 
HETATM    2  C2  UNL     1      -3.161 -33.286   2.345  1.00  0.00    -0.048 C 
HETATM    3  C3  UNL     1      -2.403 -33.806   3.277  1.00  0.00     0.078 C 
ENDROOT
BRANCH   3   4
HETATM    4  N1  UNL     1      -0.989 -33.706   3.359  1.00  0.00    -0.383 N 
ATOM      5  H1  UNL     1      -0.581 -32.946   3.904  1.00  0.00     0.160 HD
BRANCH   4   6
HETATM    6  C4  UNL     1      -0.086 -34.658   2.686  1.00  0.00     0.148 C 
BRANCH   6   7
HETATM    7  C5  UNL     1       1.334 -34.395   2.939  1.00  0.00     0.004 C 
BRANCH   7   8
HETATM    8  C6  UNL     1       1.834 -33.533   3.997  1.00  0.00     0.057 C 
BRANCH   8   9
HETATM    9  N2  UNL     1       1.530 -32.154   4.090  1.00  0.00    -0.293 NA
HETATM   10  C7  UNL     1       2.132 -31.515   5.185  1.00  0.00     0.095 C 
HETATM   11  C8  UNL     1       2.153 -30.012   5.111  1.00  0.00     0.015 C 
HETATM   12  C9  UNL     1       1.382 -29.414   3.981  1.00  0.00     0.002 C 
HETATM   13  C10 UNL     1       1.555 -30.148   2.679  1.00  0.00     0.015 C 
HETATM   14  C11 UNL     1       2.026 -31.545   2.846  1.00  0.00     0.095 C 
ENDBRANCH   8   9
ENDBRANCH   7   8
ENDBRANCH   6   7
ENDBRANCH   4   6
ENDBRANCH   3   4
BRANCH   3  15
HETATM   15  C12 UNL     1      -2.999 -34.520   4.429  1.00  0.00     0.171 A 
HETATM   16  N3  UNL     1      -3.578 -33.930   5.494  1.00  0.00    -0.278 N 
HETATM   17  N4  UNL     1      -4.050 -34.877   6.264  1.00  0.00    -0.269 N 
ATOM     18  H3  UNL     1      -3.637 -32.927   5.669  1.00  0.00     0.189 HD
HETATM   19  C13 UNL     1      -4.762 -34.677   7.524  1.00  0.00     0.180 C 
HETATM   20  C14 UNL     1      -3.767 -36.059   5.689  1.00  0.00     0.215 A 
HETATM   21  S1  UNL     1      -4.145 -37.510   6.284  1.00  0.00    -0.037 SA
HETATM   22  N5  UNL     1      -3.097 -35.846   4.514  1.00  0.00    -0.215 N 
BRANCH  22  23
HETATM   23  N6  UNL     1      -2.686 -36.860   3.658  1.00  0.00    -0.334 N 
ATOM     24  H62 UNL     1      -3.176 -37.117   2.801  1.00  0.00     0.177 HD
ATOM     25  H61 UNL     1      -1.878 -37.481   3.680  1.00  0.00     0.177 HD
ENDBRANCH  22  23
ENDBRANCH   3  15
BRANCH   2  26
HETATM   26  C15 UNL     1      -4.619 -33.483   2.274  1.00  0.00     0.036 A 
HETATM   27  C16 UNL     1      -5.592 -32.428   1.961  1.00  0.00     0.031 A 
HETATM   28  C17 UNL     1      -5.335 -33.560   0.960  1.00  0.00     0.091 A 
HETATM   29 CL1  UNL     1      -4.528 -33.183  -0.553  1.00  0.00    -0.124 Cl
ENDBRANCH   2  26
TORSDOF 8
ENDMDL
MODEL 3
REMARK VINA RESULT: -7.168582198      1.292      1.387
REMARK  8 active torsions:
REMARK  status: ('A' for Active; 'I' for Inactive)
REMARK    1  A    between atoms: C2_2  and  C15_26 
REMARK    2  A    between atoms: C3_3  and  N1_4 
REMARK    3  A    between atoms: C3_3  and  C12_15 
REMARK    4  A    between atoms: N1_4  and  C4_6 
REMARK    5  A    between atoms: C4_6  and  C5_7 
REMARK    6  A    between atoms: C5_7  and  C6_8 
REMARK    7  A    between atoms: C6_8  and  N2_9 
REMARK    8  A    between atoms: N5_22  and  N6_23 
ROOT
HETATM    1  C1  UNL     1      -2.898 -32.528   3.194  1.00  0.00     0.046 C 
HETATM    2  C2  UNL     1      -3.130 -33.940   3.660  1.00  0.00    -0.048 C 
HETATM    3  C3  UNL     1      -2.079 -34.691   3.878  1.00  0.00     0.078 C 
ENDROOT
BRANCH   3   4
HETATM    4  N1  UNL     1      -0.723 -34.301   3.712  1.00  0.00    -0.383 N 
ATOM      5  H1  UNL     1      -0.302 -33.683   4.405  1.00  0.00     0.160 HD
BRANCH   4   6
HETATM    6  C4  UNL     1       0.099 -34.757   2.577  1.00  0.00     0.148 C 
BRANCH   6   7
HETATM    7  C5  UNL     1       1.517 -34.402   2.702  1.00  0.00     0.004 C 
BRANCH   7   8
HETATM    8  C6  UNL     1       2.053 -33.515   3.720  1.00  0.00     0.057 C 
BRANCH   8   9
HETATM    9  N2  UNL     1       1.624 -32.178   3.897  1.00  0.00    -0.293 NA
HETATM   10  C7  UNL     1       2.055 -31.600   5.101  1.00  0.00     0.095 C 
HETATM   11  C8  UNL     1       1.954 -30.100   5.158  1.00  0.00     0.015 C 
HETATM   12  C9  UNL     1       1.254 -29.459   4.006  1.00  0.00     0.002 C 
HETATM   13  C10 UNL     1       1.620 -30.052   2.674  1.00  0.00     0.015 C 
HETATM   14  C11 UNL     1       2.190 -31.420   2.771  1.00  0.00     0.095 C 
ENDBRANCH   8   9
ENDBRANCH   7   8
ENDBRANCH   6   7
ENDBRANCH   4   6
ENDBRANCH   3   4
BRANCH   3  15
HETATM   15  C12 UNL     1      -2.225 -36.062   4.415  1.00  0.00     0.171 A 
HETATM   16  N3  UNL     1      -2.314 -37.183   3.671  1.00  0.00    -0.278 N 
HETATM   17  N4  UNL     1      -2.358 -38.201   4.491  1.00  0.00    -0.269 N 
ATOM     18  H3  UNL     1      -2.343 -37.229   2.652  1.00  0.00     0.189 HD
HETATM   19  C13 UNL     1      -2.450 -39.607   4.102  1.00  0.00     0.180 C 
HETATM   20  C14 UNL     1      -2.301 -37.725   5.747  1.00  0.00     0.215 A 
HETATM   21  S1  UNL     1      -2.336 -38.613   7.093  1.00  0.00    -0.037 SA
HETATM   22  N5  UNL     1      -2.213 -36.360   5.714  1.00  0.00    -0.215 N 
BRANCH  22  23
HETATM   23  N6  UNL     1      -2.104 -35.558   6.844  1.00  0.00    -0.334 N 
ATOM     24  H62 UNL     1      -1.295 -34.974   7.055  1.00  0.00     0.177 HD
ATOM     25  H61 UNL     1      -2.752 -35.377   7.611  1.00  0.00     0.177 HD
ENDBRANCH  22  23
ENDBRANCH   3  15
BRANCH   2  26
HETATM   26  C15 UNL     1      -4.516 -34.422   3.782  1.00  0.00     0.036 A 
HETATM   27  C16 UNL     1      -5.650 -33.604   4.235  1.00  0.00     0.031 A 
HETATM   28  C17 UNL     1      -5.562 -34.057   2.774  1.00  0.00     0.091 A 
HETATM   29 CL1  UNL     1      -5.265 -32.851   1.533  1.00  0.00    -0.124 Cl
ENDBRANCH   2  26
TORSDOF 8
ENDMDL
MODEL 4
REMARK VINA RESULT: -7.073136765      2.650      4.106
REMARK  8 active torsions:
REMARK  status: ('A' for Active; 'I' for Inactive)
REMARK    1  A    between atoms: C2_2  and  C15_26 
REMARK    2  A    between atoms: C3_3  and  N1_4 
REMARK    3  A    between atoms: C3_3  and  C12_15 
REMARK    4  A    between atoms: N1_4  and  C4_6 
REMARK    5  A    between atoms: C4_6  and  C5_7 
REMARK    6  A    between atoms: C5_7  and  C6_8 
REMARK    7  A    between atoms: C6_8  and  N2_9 
REMARK    8  A    between atoms: N5_22  and  N6_23 
ROOT
HETATM    1  C1  UNL     1      -4.094 -33.932   5.964  1.00  0.00     0.046 C 
HETATM    2  C2  UNL     1      -3.034 -34.921   5.555  1.00  0.00    -0.048 C 
HETATM    3  C3  UNL     1      -2.856 -35.129   4.275  1.00  0.00     0.078 C 
ENDROOT
BRANCH   3   4
HETATM    4  N1  UNL     1      -3.576 -34.511   3.218  1.00  0.00    -0.383 N 
ATOM      5  H1  UNL     1      -4.576 -34.694   3.133  1.00  0.00     0.160 HD
BRANCH   4   6
HETATM    6  C4  UNL     1      -2.934 -33.614   2.240  1.00  0.00     0.148 C 
BRANCH   6   7
HETATM    7  C5  UNL     1      -2.277 -32.455   2.853  1.00  0.00     0.004 C 
BRANCH   7   8
HETATM    8  C6  UNL     1      -0.968 -31.955   2.465  1.00  0.00     0.057 C 
BRANCH   8   9
HETATM    9  N2  UNL     1      -0.056 -31.367   3.373  1.00  0.00    -0.293 NA
HETATM   10  C7  UNL     1       0.635 -32.298   4.163  1.00  0.00     0.095 C 
HETATM   11  C8  UNL     1       1.861 -31.762   4.852  1.00  0.00     0.015 C 
HETATM   12  C9  UNL     1       2.066 -30.288   4.742  1.00  0.00     0.002 C 
HETATM   13  C10 UNL     1       1.780 -29.741   3.370  1.00  0.00     0.015 C 
HETATM   14  C11 UNL     1       0.910 -30.622   2.552  1.00  0.00     0.095 C 
ENDBRANCH   8   9
ENDBRANCH   7   8
ENDBRANCH   6   7
ENDBRANCH   4   6
ENDBRANCH   3   4
BRANCH   3  15
HETATM   15  C12 UNL     1      -1.779 -36.024   3.795  1.00  0.00     0.171 A 
HETATM   16  N3  UNL     1      -0.502 -35.653   3.574  1.00  0.00    -0.278 N 
HETATM   17  N4  UNL     1       0.168 -36.723   3.229  1.00  0.00    -0.269 N 
ATOM     18  H3  UNL     1      -0.125 -34.709   3.660  1.00  0.00     0.189 HD
HETATM   19  C13 UNL     1       1.592 -36.771   2.906  1.00  0.00     0.180 C 
HETATM   20  C14 UNL     1      -0.684 -37.763   3.227  1.00  0.00     0.215 A 
HETATM   21  S1  UNL     1      -0.310 -39.287   2.853  1.00  0.00    -0.037 SA
HETATM   22  N5  UNL     1      -1.932 -37.332   3.589  1.00  0.00    -0.215 N 
BRANCH  22  23
HETATM   23  N6  UNL     1      -3.037 -38.164   3.718  1.00  0.00    -0.334 N 
ATOM     24  H62 UNL     1      -3.072 -39.125   3.379  1.00  0.00     0.177 HD
ATOM     25  H61 UNL     1      -3.946 -38.020   4.159  1.00  0.00     0.177 HD
ENDBRANCH  22  23
ENDBRANCH   3  15
BRANCH   2  26
HETATM   26  C15 UNL     1      -2.304 -35.645   6.610  1.00  0.00     0.036 A 
HETATM   27  C16 UNL     1      -2.654 -35.625   8.036  1.00  0.00     0.031 A 
HETATM   28  C17 UNL     1      -2.847 -36.903   7.214  1.00  0.00     0.091 A 
HETATM   29 CL1  UNL     1      -4.480 -37.455   6.882  1.00  0.00    -0.124 Cl
ENDBRANCH   2  26
TORSDOF 8
ENDMDL
MODEL 5
REMARK VINA RESULT: -6.974002450      2.630      4.091
REMARK  8 active torsions:
REMARK  status: ('A' for Active; 'I' for Inactive)
REMARK    1  A    between atoms: C2_2  and  C15_26 
REMARK    2  A    between atoms: C3_3  and  N1_4 
REMARK    3  A    between atoms: C3_3  and  C12_15 
REMARK    4  A    between atoms: N1_4  and  C4_6 
REMARK    5  A    between atoms: C4_6  and  C5_7 
REMARK    6  A    between atoms: C5_7  and  C6_8 
REMARK    7  A    between atoms: C6_8  and  N2_9 
REMARK    8  A    between atoms: N5_22  and  N6_23 
ROOT
HETATM    1  C1  UNL     1      -0.238 -38.586   3.840  1.00  0.00     0.046 C 
HETATM    2  C2  UNL     1      -1.471 -37.814   4.225  1.00  0.00    -0.048 C 
HETATM    3  C3  UNL     1      -1.380 -36.509   4.286  1.00  0.00     0.078 C 
ENDROOT
BRANCH   3   4
HETATM    4  N1  UNL     1      -0.216 -35.739   4.025  1.00  0.00    -0.383 N 
ATOM      5  H1  UNL     1       0.453 -35.589   4.781  1.00  0.00     0.160 HD
BRANCH   4   6
HETATM    6  C4  UNL     1       0.064 -35.146   2.704  1.00  0.00     0.148 C 
BRANCH   6   7
HETATM    7  C5  UNL     1       1.258 -34.295   2.686  1.00  0.00     0.004 C 
BRANCH   7   8
HETATM    8  C6  UNL     1       1.733 -33.525   3.823  1.00  0.00     0.057 C 
BRANCH   8   9
HETATM    9  N2  UNL     1       1.466 -32.147   4.000  1.00  0.00    -0.293 NA
HETATM   10  C7  UNL     1       2.061 -31.598   5.146  1.00  0.00     0.095 C 
HETATM   11  C8  UNL     1       2.126 -30.094   5.171  1.00  0.00     0.015 C 
HETATM   12  C9  UNL     1       1.397 -29.402   4.068  1.00  0.00     0.002 C 
HETATM   13  C10 UNL     1       1.577 -30.055   2.725  1.00  0.00     0.015 C 
HETATM   14  C11 UNL     1       2.005 -31.473   2.809  1.00  0.00     0.095 C 
ENDBRANCH   8   9
ENDBRANCH   7   8
ENDBRANCH   6   7
ENDBRANCH   4   6
ENDBRANCH   3   4
BRANCH   3  15
HETATM   15  C12 UNL     1      -2.570 -35.678   4.577  1.00  0.00     0.171 A 
HETATM   16  N3  UNL     1      -3.487 -35.289   3.669  1.00  0.00    -0.278 N 
HETATM   17  N4  UNL     1      -4.423 -34.634   4.306  1.00  0.00    -0.269 N 
ATOM     18  H3  UNL     1      -3.456 -35.472   2.666  1.00  0.00     0.189 HD
HETATM   19  C13 UNL     1      -5.614 -34.043   3.701  1.00  0.00     0.180 C 
HETATM   20  C14 UNL     1      -4.096 -34.607   5.610  1.00  0.00     0.215 A 
HETATM   21  S1  UNL     1      -4.950 -33.897   6.780  1.00  0.00    -0.037 SA
HETATM   22  N5  UNL     1      -2.915 -35.272   5.798  1.00  0.00    -0.215 N 
BRANCH  22  23
HETATM   23  N6  UNL     1      -2.313 -35.456   7.037  1.00  0.00    -0.334 N 
ATOM     24  H62 UNL     1      -1.652 -36.204   7.246  1.00  0.00     0.177 HD
ATOM     25  H61 UNL     1      -2.373 -34.924   7.905  1.00  0.00     0.177 HD
ENDBRANCH  22  23
ENDBRANCH   3  15
BRANCH   2  26
HETATM   26  C15 UNL     1      -2.690 -38.564   4.575  1.00  0.00     0.036 A 
HETATM   27  C16 UNL     1      -2.746 -40.016   4.790  1.00  0.00     0.031 A 
HETATM   28  C17 UNL     1      -2.932 -39.055   5.969  1.00  0.00     0.091 A 
HETATM   29 CL1  UNL     1      -1.686 -38.980   7.203  1.00  0.00    -0.124 Cl
ENDBRANCH   2  26
TORSDOF 8
ENDMDL
