MODEL 1
REMARK VINA RESULT: -8.232092338      0.000      0.000
REMARK  8 active torsions:
REMARK  status: ('A' for Active; 'I' for Inactive)
REMARK    1  A    between atoms: C2_2  and  C3_3 
REMARK    2  A    between atoms: C4_4  and  O1_5 
REMARK    3  A    between atoms: N1_7  and  O2_8 
REMARK    4  A    between atoms: N2_12  and  C6_13 
REMARK    5  A    between atoms: C6_13  and  C7_14 
REMARK    6  A    between atoms: C8_15  and  C9_16 
REMARK    7  A    between atoms: C9_16  and  C10_17 
REMARK    8  A    between atoms: C10_17  and  C11_18 
ROOT
HETATM    1  C7  UNL     1      -0.780 -36.651   5.417  1.00  0.00    -0.011 C 
HETATM    2  C8  UNL     1       0.047 -36.214   4.515  1.00  0.00    -0.029 C 
ENDROOT
BRANCH   2   3
HETATM    3  C9  UNL     1      -0.191 -36.093   3.067  1.00  0.00     0.030 C 
BRANCH   3   4
HETATM    4  C10 UNL     1       0.154 -34.725   2.508  1.00  0.00     0.045 C 
BRANCH   4   5
HETATM    5  C11 UNL     1       0.102 -33.606   3.468  1.00  0.00     0.098 A 
HETATM    6  O4  UNL     1      -0.893 -33.379   4.370  1.00  0.00    -0.365 OA
HETATM    7  C12 UNL     1      -1.080 -32.652   3.229  1.00  0.00     0.192 A 
HETATM    8  C13 UNL     1      -0.495 -31.307   2.987  1.00  0.00     0.207 C 
HETATM    9  F1  UNL     1      -1.141 -30.768   1.867  1.00  0.00    -0.246 F 
HETATM   10  C14 UNL     1       0.932 -31.644   2.530  1.00  0.00     0.033 C 
HETATM   11  C15 UNL     1       1.814 -30.459   2.490  1.00  0.00     0.008 C 
HETATM   12  C19 UNL     1       1.304 -32.653   3.586  1.00  0.00    -0.004 C 
HETATM   13  C16 UNL     1       2.495 -30.112   3.767  1.00  0.00     0.001 C 
HETATM   14  C17 UNL     1       1.899 -30.658   5.001  1.00  0.00     0.001 C 
HETATM   15  C18 UNL     1       1.302 -32.010   4.920  1.00  0.00     0.013 C 
HETATM   16  C20 UNL     1       2.581 -33.370   3.346  1.00  0.00     0.019 C 
ENDBRANCH   4   5
ENDBRANCH   3   4
ENDBRANCH   2   3
BRANCH   1  17
HETATM   17  C6  UNL     1      -2.145 -37.121   5.164  1.00  0.00     0.161 C 
BRANCH  17  18
HETATM   18  N2  UNL     1      -3.122 -36.089   5.539  1.00  0.00    -0.294 N 
HETATM   19  C3  UNL     1      -3.584 -35.880   6.783  1.00  0.00     0.069 A 
HETATM   20  C4  UNL     1      -4.486 -34.813   6.700  1.00  0.00     0.195 A 
HETATM   21  N1  UNL     1      -4.538 -34.419   5.420  1.00  0.00    -0.147 N 
HETATM   22  C5  UNL     1      -3.703 -35.205   4.720  1.00  0.00     0.355 A 
HETATM   23  O3  UNL     1      -3.514 -35.100   3.486  1.00  0.00    -0.244 OA
BRANCH  19  24
HETATM   24  C2  UNL     1      -3.248 -36.599   8.040  1.00  0.00     0.057 C 
HETATM   25  C1  UNL     1      -2.243 -35.794   8.842  1.00  0.00     0.011 C 
ENDBRANCH  19  24
BRANCH  20  26
HETATM   26  O1  UNL     1      -5.187 -34.280   7.769  1.00  0.00    -0.343 OA
ATOM     27  H1  UNL     1      -4.846 -33.635   8.376  1.00  0.00     0.219 HD
ENDBRANCH  20  26
BRANCH  21  28
HETATM   28  O2  UNL     1      -5.315 -33.385   4.902  1.00  0.00    -0.277 OA
ATOM     29  H2  UNL     1      -5.055 -32.763   4.233  1.00  0.00     0.245 HD
ENDBRANCH  21  28
ENDBRANCH  17  18
ENDBRANCH   1  17
TORSDOF 8
ENDMDL
MODEL 2
REMARK VINA RESULT: -8.147475219      1.227      2.198
REMARK  8 active torsions:
REMARK  status: ('A' for Active; 'I' for Inactive)
REMARK    1  A    between atoms: C2_2  and  C3_3 
REMARK    2  A    between atoms: C4_4  and  O1_5 
REMARK    3  A    between atoms: N1_7  and  O2_8 
REMARK    4  A    between atoms: N2_12  and  C6_13 
REMARK    5  A    between atoms: C6_13  and  C7_14 
REMARK    6  A    between atoms: C8_15  and  C9_16 
REMARK    7  A    between atoms: C9_16  and  C10_17 
REMARK    8  A    between atoms: C10_17  and  C11_18 
ROOT
HETATM    1  C7  UNL     1      -1.556 -37.032   4.329  1.00  0.00    -0.011 C 
HETATM    2  C8  UNL     1      -0.563 -36.615   3.602  1.00  0.00    -0.029 C 
ENDROOT
BRANCH   2   3
HETATM    3  C9  UNL     1      -0.623 -35.721   2.434  1.00  0.00     0.030 C 
BRANCH   3   4
HETATM    4  C10 UNL     1       0.479 -34.677   2.412  1.00  0.00     0.045 C 
BRANCH   4   5
HETATM    5  C11 UNL     1       0.393 -33.630   3.447  1.00  0.00     0.098 A 
HETATM    6  O4  UNL     1      -0.529 -33.577   4.448  1.00  0.00    -0.365 OA
HETATM    7  C12 UNL     1      -0.909 -32.813   3.381  1.00  0.00     0.192 A 
HETATM    8  C13 UNL     1      -0.508 -31.396   3.180  1.00  0.00     0.207 C 
HETATM    9  F1  UNL     1      -1.317 -30.876   2.162  1.00  0.00    -0.246 F 
HETATM   10  C14 UNL     1       0.897 -31.532   2.575  1.00  0.00     0.033 C 
HETATM   11  C15 UNL     1       1.629 -30.249   2.537  1.00  0.00     0.008 C 
HETATM   12  C19 UNL     1       1.483 -32.547   3.521  1.00  0.00    -0.004 C 
HETATM   13  C16 UNL     1       2.386 -29.895   3.767  1.00  0.00     0.001 C 
HETATM   14  C17 UNL     1       1.981 -30.579   5.010  1.00  0.00     0.001 C 
HETATM   15  C18 UNL     1       1.537 -31.987   4.891  1.00  0.00     0.013 C 
HETATM   16  C20 UNL     1       2.804 -33.090   3.118  1.00  0.00     0.019 C 
ENDBRANCH   4   5
ENDBRANCH   3   4
ENDBRANCH   2   3
BRANCH   1  17
HETATM   17  C6  UNL     1      -2.966 -36.685   4.124  1.00  0.00     0.161 C 
BRANCH  17  18
HETATM   18  N2  UNL     1      -3.452 -35.840   5.223  1.00  0.00    -0.294 N 
HETATM   19  C3  UNL     1      -4.015 -34.630   5.074  1.00  0.00     0.069 A 
HETATM   20  C4  UNL     1      -4.332 -34.176   6.359  1.00  0.00     0.195 A 
HETATM   21  N1  UNL     1      -3.952 -35.118   7.233  1.00  0.00    -0.147 N 
HETATM   22  C5  UNL     1      -3.416 -36.130   6.529  1.00  0.00     0.355 A 
HETATM   23  O3  UNL     1      -2.959 -37.176   7.045  1.00  0.00    -0.244 OA
BRANCH  19  24
HETATM   24  C2  UNL     1      -4.278 -33.867   3.826  1.00  0.00     0.057 C 
HETATM   25  C1  UNL     1      -5.711 -34.089   3.378  1.00  0.00     0.011 C 
ENDBRANCH  19  24
BRANCH  20  26
HETATM   26  O1  UNL     1      -4.932 -32.961   6.648  1.00  0.00    -0.343 OA
ATOM     27  H1  UNL     1      -5.497 -32.796   7.392  1.00  0.00     0.219 HD
ENDBRANCH  20  26
BRANCH  21  28
HETATM   28  O2  UNL     1      -4.085 -35.067   8.619  1.00  0.00    -0.277 OA
ATOM     29  H2  UNL     1      -4.243 -35.801   9.200  1.00  0.00     0.245 HD
ENDBRANCH  21  28
ENDBRANCH  17  18
ENDBRANCH   1  17
TORSDOF 8
ENDMDL
MODEL 3
REMARK VINA RESULT: -8.053118524      1.643      2.561
REMARK  8 active torsions:
REMARK  status: ('A' for Active; 'I' for Inactive)
REMARK    1  A    between atoms: C2_2  and  C3_3 
REMARK    2  A    between atoms: C4_4  and  O1_5 
REMARK    3  A    between atoms: N1_7  and  O2_8 
REMARK    4  A    between atoms: N2_12  and  C6_13 
REMARK    5  A    between atoms: C6_13  and  C7_14 
REMARK    6  A    between atoms: C8_15  and  C9_16 
REMARK    7  A    between atoms: C9_16  and  C10_17 
REMARK    8  A    between atoms: C10_17  and  C11_18 
ROOT
HETATM    1  C7  UNL     1       1.163 -37.089   4.978  1.00  0.00    -0.011 C 
HETATM    2  C8  UNL     1       1.396 -36.358   3.928  1.00  0.00    -0.029 C 
ENDROOT
BRANCH   2   3
HETATM    3  C9  UNL     1       0.554 -36.220   2.729  1.00  0.00     0.030 C 
BRANCH   3   4
HETATM    4  C10 UNL     1       0.367 -34.782   2.282  1.00  0.00     0.045 C 
BRANCH   4   5
HETATM    5  C11 UNL     1       0.296 -33.777   3.360  1.00  0.00     0.098 A 
HETATM    6  O4  UNL     1      -0.598 -33.777   4.388  1.00  0.00    -0.365 OA
HETATM    7  C12 UNL     1      -1.018 -32.979   3.363  1.00  0.00     0.192 A 
HETATM    8  C13 UNL     1      -0.643 -31.549   3.207  1.00  0.00     0.207 C 
HETATM    9  F1  UNL     1      -1.489 -31.001   2.234  1.00  0.00    -0.246 F 
HETATM   10  C14 UNL     1       0.745 -31.639   2.558  1.00  0.00     0.033 C 
HETATM   11  C15 UNL     1       1.458 -30.345   2.550  1.00  0.00     0.008 C 
HETATM   12  C19 UNL     1       1.372 -32.682   3.446  1.00  0.00    -0.004 C 
HETATM   13  C16 UNL     1       2.245 -30.028   3.772  1.00  0.00     0.001 C 
HETATM   14  C17 UNL     1       1.885 -30.766   4.997  1.00  0.00     0.001 C 
HETATM   15  C18 UNL     1       1.458 -32.175   4.835  1.00  0.00     0.013 C 
HETATM   16  C20 UNL     1       2.689 -33.188   2.985  1.00  0.00     0.019 C 
ENDBRANCH   4   5
ENDBRANCH   3   4
ENDBRANCH   2   3
BRANCH   1  17
HETATM   17  C6  UNL     1      -0.015 -37.939   5.178  1.00  0.00     0.161 C 
BRANCH  17  18
HETATM   18  N2  UNL     1      -1.060 -37.207   5.908  1.00  0.00    -0.294 N 
HETATM   19  C3  UNL     1      -2.207 -36.761   5.372  1.00  0.00     0.069 A 
HETATM   20  C4  UNL     1      -2.909 -36.126   6.402  1.00  0.00     0.195 A 
HETATM   21  N1  UNL     1      -2.168 -36.208   7.515  1.00  0.00    -0.147 N 
HETATM   22  C5  UNL     1      -1.040 -36.869   7.203  1.00  0.00     0.355 A 
HETATM   23  O3  UNL     1      -0.127 -37.120   8.022  1.00  0.00    -0.244 OA
BRANCH  19  24
HETATM   24  C2  UNL     1      -2.697 -36.882   3.973  1.00  0.00     0.057 C 
HETATM   25  C1  UNL     1      -3.218 -38.286   3.729  1.00  0.00     0.011 C 
ENDBRANCH  19  24
BRANCH  20  26
HETATM   26  O1  UNL     1      -4.150 -35.526   6.266  1.00  0.00    -0.343 OA
ATOM     27  H1  UNL     1      -4.487 -35.148   5.463  1.00  0.00     0.219 HD
ENDBRANCH  20  26
BRANCH  21  28
HETATM   28  O2  UNL     1      -2.498 -35.703   8.771  1.00  0.00    -0.277 OA
ATOM     29  H2  UNL     1      -2.298 -34.836   9.103  1.00  0.00     0.245 HD
ENDBRANCH  21  28
ENDBRANCH  17  18
ENDBRANCH   1  17
TORSDOF 8
ENDMDL
MODEL 4
REMARK VINA RESULT: -8.052006615      2.869      4.919
REMARK  8 active torsions:
REMARK  status: ('A' for Active; 'I' for Inactive)
REMARK    1  A    between atoms: C2_2  and  C3_3 
REMARK    2  A    between atoms: C4_4  and  O1_5 
REMARK    3  A    between atoms: N1_7  and  O2_8 
REMARK    4  A    between atoms: N2_12  and  C6_13 
REMARK    5  A    between atoms: C6_13  and  C7_14 
REMARK    6  A    between atoms: C8_15  and  C9_16 
REMARK    7  A    between atoms: C9_16  and  C10_17 
REMARK    8  A    between atoms: C10_17  and  C11_18 
ROOT
HETATM    1  C7  UNL     1      -1.352 -31.673   2.386  1.00  0.00    -0.011 C 
HETATM    2  C8  UNL     1      -0.263 -31.227   2.938  1.00  0.00    -0.029 C 
ENDROOT
BRANCH   2   3
HETATM    3  C9  UNL     1       0.844 -32.017   3.500  1.00  0.00     0.030 C 
BRANCH   3   4
HETATM    4  C10 UNL     1       1.411 -33.041   2.534  1.00  0.00     0.045 C 
BRANCH   4   5
HETATM    5  C11 UNL     1       2.210 -34.123   3.140  1.00  0.00     0.098 A 
HETATM    6  O4  UNL     1       3.519 -34.033   3.506  1.00  0.00    -0.365 OA
HETATM    7  C12 UNL     1       3.387 -34.577   2.260  1.00  0.00     0.192 A 
HETATM    8  C13 UNL     1       3.181 -36.025   1.995  1.00  0.00     0.207 C 
HETATM    9  F1  UNL     1       3.392 -36.231   0.626  1.00  0.00    -0.246 F 
HETATM   10  C14 UNL     1       1.672 -36.192   2.220  1.00  0.00     0.033 C 
HETATM   11  C15 UNL     1       1.256 -37.608   2.287  1.00  0.00     0.008 C 
HETATM   12  C19 UNL     1       1.526 -35.447   3.522  1.00  0.00    -0.004 C 
HETATM   13  C16 UNL     1       1.348 -38.251   3.625  1.00  0.00     0.001 C 
HETATM   14  C17 UNL     1       2.237 -37.603   4.608  1.00  0.00     0.001 C 
HETATM   15  C18 UNL     1       2.308 -36.124   4.581  1.00  0.00     0.013 C 
HETATM   16  C20 UNL     1       0.127 -35.218   3.961  1.00  0.00     0.019 C 
ENDBRANCH   4   5
ENDBRANCH   3   4
ENDBRANCH   2   3
BRANCH   1  17
HETATM   17  C6  UNL     1      -1.699 -33.087   2.210  1.00  0.00     0.161 C 
BRANCH  17  18
HETATM   18  N2  UNL     1      -3.158 -33.258   2.186  1.00  0.00    -0.294 N 
HETATM   19  C3  UNL     1      -3.927 -33.482   3.264  1.00  0.00     0.069 A 
HETATM   20  C4  UNL     1      -5.244 -33.583   2.802  1.00  0.00     0.195 A 
HETATM   21  N1  UNL     1      -5.226 -33.418   1.472  1.00  0.00    -0.147 N 
HETATM   22  C5  UNL     1      -3.948 -33.222   1.106  1.00  0.00     0.355 A 
HETATM   23  O3  UNL     1      -3.580 -33.033  -0.077  1.00  0.00    -0.244 OA
BRANCH  19  24
HETATM   24  C2  UNL     1      -3.526 -33.611   4.689  1.00  0.00     0.057 C 
HETATM   25  C1  UNL     1      -3.427 -35.077   5.068  1.00  0.00     0.011 C 
ENDBRANCH  19  24
BRANCH  20  26
HETATM   26  O1  UNL     1      -6.351 -33.812   3.601  1.00  0.00    -0.343 OA
ATOM     27  H1  UNL     1      -6.949 -33.142   3.909  1.00  0.00     0.219 HD
ENDBRANCH  20  26
BRANCH  21  28
HETATM   28  O2  UNL     1      -6.326 -33.445   0.618  1.00  0.00    -0.277 OA
ATOM     29  H2  UNL     1      -6.351 -33.802  -0.262  1.00  0.00     0.245 HD
ENDBRANCH  21  28
ENDBRANCH  17  18
ENDBRANCH   1  17
TORSDOF 8
ENDMDL
MODEL 5
REMARK VINA RESULT: -8.000521692      1.893      2.965
REMARK  8 active torsions:
REMARK  status: ('A' for Active; 'I' for Inactive)
REMARK    1  A    between atoms: C2_2  and  C3_3 
REMARK    2  A    between atoms: C4_4  and  O1_5 
REMARK    3  A    between atoms: N1_7  and  O2_8 
REMARK    4  A    between atoms: N2_12  and  C6_13 
REMARK    5  A    between atoms: C6_13  and  C7_14 
REMARK    6  A    between atoms: C8_15  and  C9_16 
REMARK    7  A    between atoms: C9_16  and  C10_17 
REMARK    8  A    between atoms: C10_17  and  C11_18 
ROOT
HETATM    1  C7  UNL     1      -1.858 -37.267   4.406  1.00  0.00    -0.011 C 
HETATM    2  C8  UNL     1      -0.794 -36.645   3.992  1.00  0.00    -0.029 C 
ENDROOT
BRANCH   2   3
HETATM    3  C9  UNL     1      -0.732 -35.378   3.246  1.00  0.00     0.030 C 
BRANCH   3   4
HETATM    4  C10 UNL     1      -0.399 -34.178   4.114  1.00  0.00     0.045 C 
BRANCH   4   5
HETATM    5  C11 UNL     1       0.856 -33.476   3.785  1.00  0.00     0.098 A 
HETATM    6  O4  UNL     1       2.106 -34.017   3.841  1.00  0.00    -0.365 OA
HETATM    7  C12 UNL     1       1.807 -33.335   4.986  1.00  0.00     0.192 A 
HETATM    8  C13 UNL     1       2.032 -31.878   5.177  1.00  0.00     0.207 C 
HETATM    9  F1  UNL     1       1.891 -31.612   6.545  1.00  0.00    -0.246 F 
HETATM   10  C14 UNL     1       0.801 -31.261   4.497  1.00  0.00     0.033 C 
HETATM   11  C15 UNL     1       0.924 -29.801   4.308  1.00  0.00     0.008 C 
HETATM   12  C19 UNL     1       0.800 -32.050   3.213  1.00  0.00    -0.004 C 
HETATM   13  C16 UNL     1       1.612 -29.362   3.064  1.00  0.00     0.001 C 
HETATM   14  C17 UNL     1       2.477 -30.357   2.403  1.00  0.00     0.001 C 
HETATM   15  C18 UNL     1       2.036 -31.770   2.448  1.00  0.00     0.013 C 
HETATM   16  C20 UNL     1      -0.402 -31.862   2.363  1.00  0.00     0.019 C 
ENDBRANCH   4   5
ENDBRANCH   3   4
ENDBRANCH   2   3
BRANCH   1  17
HETATM   17  C6  UNL     1      -3.239 -36.817   4.206  1.00  0.00     0.161 C 
BRANCH  17  18
HETATM   18  N2  UNL     1      -3.640 -35.895   5.278  1.00  0.00    -0.294 N 
HETATM   19  C3  UNL     1      -4.069 -34.636   5.092  1.00  0.00     0.069 A 
HETATM   20  C4  UNL     1      -4.344 -34.117   6.362  1.00  0.00     0.195 A 
HETATM   21  N1  UNL     1      -4.072 -35.070   7.263  1.00  0.00    -0.147 N 
HETATM   22  C5  UNL     1      -3.642 -36.152   6.591  1.00  0.00     0.355 A 
HETATM   23  O3  UNL     1      -3.303 -37.227   7.139  1.00  0.00    -0.244 OA
BRANCH  19  24
HETATM   24  C2  UNL     1      -4.242 -33.883   3.823  1.00  0.00     0.057 C 
HETATM   25  C1  UNL     1      -5.677 -34.001   3.344  1.00  0.00     0.011 C 
ENDBRANCH  19  24
BRANCH  20  26
HETATM   26  O1  UNL     1      -4.813 -32.838   6.614  1.00  0.00    -0.343 OA
ATOM     27  H1  UNL     1      -4.833 -32.423   7.467  1.00  0.00     0.219 HD
ENDBRANCH  20  26
BRANCH  21  28
HETATM   28  O2  UNL     1      -4.207 -34.968   8.646  1.00  0.00    -0.277 OA
ATOM     29  H2  UNL     1      -4.910 -35.328   9.174  1.00  0.00     0.245 HD
ENDBRANCH  21  28
ENDBRANCH  17  18
ENDBRANCH   1  17
TORSDOF 8
ENDMDL
