MODEL 1
REMARK VINA RESULT: -5.274112680      0.000      0.000
REMARK  2 active torsions:
REMARK  status: ('A' for Active; 'I' for Inactive)
REMARK    1  A    between atoms: N1_2  and  C2_4 
REMARK    2  A    between atoms: C6_8  and  N2_9 
ROOT
HETATM    1  C2  UNL     1       0.766  71.117  22.436  1.00  0.00     0.078 C 
HETATM    2  C3  UNL     1       1.904  70.360  23.038  1.00  0.00     0.025 C 
HETATM    3  C4  UNL     1       1.867  70.200  24.510  1.00  0.00     0.004 C 
HETATM    4  C5  UNL     1       1.119  71.262  25.253  1.00  0.00     0.033 C 
HETATM    5  C6  UNL     1      -0.215  71.587  24.664  1.00  0.00     0.185 C 
HETATM    6  C7  UNL     1      -0.455  71.011  23.307  1.00  0.00     0.057 C 
ENDROOT
BRANCH   5   7
HETATM    7  N2  UNL     1      -1.282  71.096  25.541  1.00  0.00    -0.075 N 
ATOM      8  H23 UNL     1      -1.569  70.148  25.299  1.00  0.00     0.274 HD
ATOM      9  H22 UNL     1      -0.947  70.913  26.486  1.00  0.00     0.274 HD
ATOM     10  H21 UNL     1      -2.067  71.747  25.533  1.00  0.00     0.274 HD
ENDBRANCH   5   7
BRANCH   1  11
HETATM   11  N1  UNL     1       0.552  70.627  21.107  1.00  0.00    -0.421 N 
HETATM   12  C1  UNL     1      -0.651  71.068  20.480  1.00  0.00     0.140 C 
ATOM     13  H1  UNL     1       1.213  70.005  20.642  1.00  0.00     0.153 HD
ENDBRANCH   1  11
TORSDOF 2
ENDMDL
MODEL 2
REMARK VINA RESULT: -5.082211444      1.224      1.270
REMARK  2 active torsions:
REMARK  status: ('A' for Active; 'I' for Inactive)
REMARK    1  A    between atoms: N1_2  and  C2_4 
REMARK    2  A    between atoms: C6_8  and  N2_9 
ROOT
HETATM    1  C2  UNL     1       0.149  71.585  22.463  1.00  0.00     0.078 C 
HETATM    2  C3  UNL     1       1.229  70.552  22.465  1.00  0.00     0.025 C 
HETATM    3  C4  UNL     1       2.049  70.479  23.695  1.00  0.00     0.004 C 
HETATM    4  C5  UNL     1       2.143  71.748  24.483  1.00  0.00     0.033 C 
HETATM    5  C6  UNL     1       0.829  72.426  24.694  1.00  0.00     0.185 C 
HETATM    6  C7  UNL     1      -0.293  71.885  23.869  1.00  0.00     0.057 C 
ENDROOT
BRANCH   5   7
HETATM    7  N2  UNL     1       0.428  72.314  26.100  1.00  0.00    -0.075 N 
ATOM      8  H23 UNL     1       1.195  72.534  26.735  1.00  0.00     0.274 HD
ATOM      9  H22 UNL     1      -0.212  73.059  26.376  1.00  0.00     0.274 HD
ATOM     10  H21 UNL     1       0.038  71.389  26.278  1.00  0.00     0.274 HD
ENDBRANCH   5   7
BRANCH   1  11
HETATM   11  N1  UNL     1      -0.917  71.119  21.628  1.00  0.00    -0.421 N 
HETATM   12  C1  UNL     1      -0.542  70.770  20.297  1.00  0.00     0.140 C 
ATOM     13  H1  UNL     1      -1.878  71.043  21.962  1.00  0.00     0.153 HD
ENDBRANCH   1  11
TORSDOF 2
ENDMDL
MODEL 3
REMARK VINA RESULT: -4.801497451      1.278      2.130
REMARK  2 active torsions:
REMARK  status: ('A' for Active; 'I' for Inactive)
REMARK    1  A    between atoms: N1_2  and  C2_4 
REMARK    2  A    between atoms: C6_8  and  N2_9 
ROOT
HETATM    1  C2  UNL     1      -0.013  70.680  22.491  1.00  0.00     0.078 C 
HETATM    2  C3  UNL     1      -1.010  71.774  22.691  1.00  0.00     0.025 C 
HETATM    3  C4  UNL     1      -1.158  72.266  24.080  1.00  0.00     0.004 C 
HETATM    4  C5  UNL     1      -0.815  71.280  25.152  1.00  0.00     0.033 C 
HETATM    5  C6  UNL     1       0.473  70.559  24.920  1.00  0.00     0.185 C 
HETATM    6  C7  UNL     1       1.050  70.737  23.553  1.00  0.00     0.057 C 
ENDROOT
BRANCH   5   7
HETATM    7  N2  UNL     1       1.482  71.015  25.880  1.00  0.00    -0.075 N 
ATOM      8  H23 UNL     1       1.470  70.463  26.738  1.00  0.00     0.274 HD
ATOM      9  H22 UNL     1       2.429  70.795  25.574  1.00  0.00     0.274 HD
ATOM     10  H21 UNL     1       1.362  72.011  26.065  1.00  0.00     0.274 HD
ENDBRANCH   5   7
BRANCH   1  11
HETATM   11  N1  UNL     1       0.514  70.788  21.164  1.00  0.00    -0.421 N 
HETATM   12  C1  UNL     1      -0.452  70.722  20.116  1.00  0.00     0.140 C 
ATOM     13  H1  UNL     1       1.510  70.904  20.981  1.00  0.00     0.153 HD
ENDBRANCH   1  11
TORSDOF 2
ENDMDL
MODEL 4
REMARK VINA RESULT: -4.784742969      1.550      2.668
REMARK  2 active torsions:
REMARK  status: ('A' for Active; 'I' for Inactive)
REMARK    1  A    between atoms: N1_2  and  C2_4 
REMARK    2  A    between atoms: C6_8  and  N2_9 
ROOT
HETATM    1  C2  UNL     1      -0.194  71.046  23.020  1.00  0.00     0.078 C 
HETATM    2  C3  UNL     1      -0.048  72.290  23.834  1.00  0.00     0.025 C 
HETATM    3  C4  UNL     1       1.305  72.553  24.376  1.00  0.00     0.004 C 
HETATM    4  C5  UNL     1       2.158  71.342  24.591  1.00  0.00     0.033 C 
HETATM    5  C6  UNL     1       2.162  70.393  23.437  1.00  0.00     0.185 C 
HETATM    6  C7  UNL     1       1.123  70.668  22.399  1.00  0.00     0.057 C 
ENDROOT
BRANCH   5   7
HETATM    7  N2  UNL     1       3.465  70.427  22.767  1.00  0.00    -0.075 N 
ATOM      8  H23 UNL     1       3.644  71.327  22.322  1.00  0.00     0.274 HD
ATOM      9  H22 UNL     1       4.238  70.434  23.433  1.00  0.00     0.274 HD
ATOM     10  H21 UNL     1       3.537  69.653  22.106  1.00  0.00     0.274 HD
ENDBRANCH   5   7
BRANCH   1  11
HETATM   11  N1  UNL     1      -1.229  71.258  22.054  1.00  0.00    -0.421 N 
HETATM   12  C1  UNL     1      -0.808  71.224  20.691  1.00  0.00     0.140 C 
ATOM     13  H1  UNL     1      -2.199  71.423  22.321  1.00  0.00     0.153 HD
ENDBRANCH   1  11
TORSDOF 2
ENDMDL
MODEL 5
REMARK VINA RESULT: -4.742751365      1.565      2.275
REMARK  2 active torsions:
REMARK  status: ('A' for Active; 'I' for Inactive)
REMARK    1  A    between atoms: N1_2  and  C2_4 
REMARK    2  A    between atoms: C6_8  and  N2_9 
ROOT
HETATM    1  C2  UNL     1       0.552  71.075  23.026  1.00  0.00     0.078 C 
HETATM    2  C3  UNL     1       1.081  72.272  23.746  1.00  0.00     0.025 C 
HETATM    3  C4  UNL     1       0.340  72.673  24.963  1.00  0.00     0.004 C 
HETATM    4  C5  UNL     1      -1.105  72.285  24.994  1.00  0.00     0.033 C 
HETATM    5  C6  UNL     1      -1.359  70.869  24.593  1.00  0.00     0.185 C 
HETATM    6  C7  UNL     1      -0.188  70.175  23.977  1.00  0.00     0.057 C 
ENDROOT
BRANCH   5   7
HETATM    7  N2  UNL     1      -1.765  70.083  25.761  1.00  0.00    -0.075 N 
ATOM      8  H23 UNL     1      -0.978  69.592  26.184  1.00  0.00     0.274 HD
ATOM      9  H22 UNL     1      -2.014  70.676  26.553  1.00  0.00     0.274 HD
ATOM     10  H21 UNL     1      -2.522  69.447  25.508  1.00  0.00     0.274 HD
ENDBRANCH   5   7
BRANCH   1  11
HETATM   11  N1  UNL     1       1.646  70.422  22.373  1.00  0.00    -0.421 N 
HETATM   12  C1  UNL     1       2.906  70.533  23.033  1.00  0.00     0.140 C 
ATOM     13  H1  UNL     1       1.533  69.912  21.497  1.00  0.00     0.153 HD
ENDBRANCH   1  11
TORSDOF 2
ENDMDL
