MODEL 1
REMARK VINA RESULT: -5.268307162      0.000      0.000
REMARK  4 active torsions:
REMARK  status: ('A' for Active; 'I' for Inactive)
REMARK    1  A    between atoms: N1_1  and  C1_4 
REMARK    2  A    between atoms: C1_4  and  N2_5 
REMARK    3  A    between atoms: N2_5  and  N3_7 
REMARK    4  A    between atoms: N3_7  and  C2_9 
ROOT
HETATM    1  N3  UNL     1       0.902  70.580  21.808  1.00  0.00    -0.324 N 
ATOM      2  H3  UNL     1       1.791  70.218  21.465  1.00  0.00     0.181 HD
ENDROOT
BRANCH   1   3
HETATM    3  N2  UNL     1      -0.016  71.091  20.888  1.00  0.00    -0.255 N 
ATOM      4  H2  UNL     1      -0.323  72.063  20.922  1.00  0.00     0.198 HD
BRANCH   3   5
HETATM    5  C1  UNL     1      -0.455  70.273  19.993  1.00  0.00     0.060 C 
BRANCH   5   6
HETATM    6  N1  UNL     1      -0.657  69.480  19.013  1.00  0.00    -0.351 N 
ATOM      7  H12 UNL     1      -0.270  68.709  19.557  1.00  0.00     0.167 HD
ATOM      8  H11 UNL     1      -0.891  69.011  18.137  1.00  0.00     0.167 HD
ENDBRANCH   5   6
ENDBRANCH   3   5
ENDBRANCH   1   3
BRANCH   1   9
HETATM    9  C2  UNL     1       0.635  70.545  23.245  1.00  0.00     0.100 C 
HETATM   10  C3  UNL     1      -0.623  71.276  23.499  1.00  0.00     0.026 C 
HETATM   11  C4  UNL     1      -0.729  72.050  24.744  1.00  0.00     0.002 C 
HETATM   12  C5  UNL     1       0.541  72.464  25.393  1.00  0.00     0.000 C 
HETATM   13  C6  UNL     1       1.629  72.489  24.335  1.00  0.00     0.002 C 
HETATM   14  C7  UNL     1       1.845  71.038  23.947  1.00  0.00     0.026 C 
ENDBRANCH   1   9
TORSDOF 4
ENDMDL
MODEL 2
REMARK VINA RESULT: -5.105915731      0.666      1.104
REMARK  4 active torsions:
REMARK  status: ('A' for Active; 'I' for Inactive)
REMARK    1  A    between atoms: N1_1  and  C1_4 
REMARK    2  A    between atoms: C1_4  and  N2_5 
REMARK    3  A    between atoms: N2_5  and  N3_7 
REMARK    4  A    between atoms: N3_7  and  C2_9 
ROOT
HETATM    1  N3  UNL     1      -0.511  71.435  21.854  1.00  0.00    -0.324 N 
ATOM      2  H3  UNL     1      -1.229  72.120  21.623  1.00  0.00     0.181 HD
ENDROOT
BRANCH   1   3
HETATM    3  N2  UNL     1       0.255  70.889  20.821  1.00  0.00    -0.255 N 
ATOM      4  H2  UNL     1       1.265  71.020  20.778  1.00  0.00     0.198 HD
BRANCH   3   5
HETATM    5  C1  UNL     1      -0.379  70.212  19.926  1.00  0.00     0.060 C 
BRANCH   5   6
HETATM    6  N1  UNL     1      -0.777  69.473  18.964  1.00  0.00    -0.351 N 
ATOM      7  H12 UNL     1      -0.428  68.648  19.453  1.00  0.00     0.167 HD
ATOM      8  H11 UNL     1      -1.157  69.056  18.113  1.00  0.00     0.167 HD
ENDBRANCH   5   6
ENDBRANCH   3   5
ENDBRANCH   1   3
BRANCH   1   9
HETATM    9  C2  UNL     1      -0.321  71.060  23.254  1.00  0.00     0.100 C 
HETATM   10  C3  UNL     1      -0.485  72.271  24.083  1.00  0.00     0.026 C 
HETATM   11  C4  UNL     1       0.354  72.402  25.283  1.00  0.00     0.002 C 
HETATM   12  C5  UNL     1       1.613  71.616  25.316  1.00  0.00     0.000 C 
HETATM   13  C6  UNL     1       2.022  71.314  23.886  1.00  0.00     0.002 C 
HETATM   14  C7  UNL     1       0.974  70.347  23.366  1.00  0.00     0.026 C 
ENDBRANCH   1   9
TORSDOF 4
ENDMDL
MODEL 3
REMARK VINA RESULT: -4.786535554      1.123      1.894
REMARK  4 active torsions:
REMARK  status: ('A' for Active; 'I' for Inactive)
REMARK    1  A    between atoms: N1_1  and  C1_4 
REMARK    2  A    between atoms: C1_4  and  N2_5 
REMARK    3  A    between atoms: N2_5  and  N3_7 
REMARK    4  A    between atoms: N3_7  and  C2_9 
ROOT
HETATM    1  N3  UNL     1      -0.660  71.187  21.939  1.00  0.00    -0.324 N 
ATOM      2  H3  UNL     1      -1.478  70.737  22.348  1.00  0.00     0.181 HD
ENDROOT
BRANCH   1   3
HETATM    3  N2  UNL     1      -0.622  71.383  20.556  1.00  0.00    -0.255 N 
ATOM      4  H2  UNL     1      -0.536  72.315  20.150  1.00  0.00     0.198 HD
BRANCH   3   5
HETATM    5  C1  UNL     1      -0.700  70.328  19.820  1.00  0.00     0.060 C 
BRANCH   5   6
HETATM    6  N1  UNL     1      -0.557  69.362  18.996  1.00  0.00    -0.351 N 
ATOM      7  H12 UNL     1       0.344  69.135  19.419  1.00  0.00     0.167 HD
ATOM      8  H11 UNL     1      -0.623  68.650  18.268  1.00  0.00     0.167 HD
ENDBRANCH   5   6
ENDBRANCH   3   5
ENDBRANCH   1   3
BRANCH   1   9
HETATM    9  C2  UNL     1       0.429  71.603  22.820  1.00  0.00     0.100 C 
HETATM   10  C3  UNL     1       1.409  70.500  22.896  1.00  0.00     0.026 C 
HETATM   11  C4  UNL     1       2.101  70.281  24.175  1.00  0.00     0.002 C 
HETATM   12  C5  UNL     1       1.442  70.807  25.398  1.00  0.00     0.000 C 
HETATM   13  C6  UNL     1      -0.044  70.936  25.119  1.00  0.00     0.002 C 
HETATM   14  C7  UNL     1      -0.165  72.055  24.101  1.00  0.00     0.026 C 
ENDBRANCH   1   9
TORSDOF 4
ENDMDL
MODEL 4
REMARK VINA RESULT: -4.762876612      1.126      1.741
REMARK  4 active torsions:
REMARK  status: ('A' for Active; 'I' for Inactive)
REMARK    1  A    between atoms: N1_1  and  C1_4 
REMARK    2  A    between atoms: C1_4  and  N2_5 
REMARK    3  A    between atoms: N2_5  and  N3_7 
REMARK    4  A    between atoms: N3_7  and  C2_9 
ROOT
HETATM    1  N3  UNL     1      -1.248  71.198  22.280  1.00  0.00    -0.324 N 
ATOM      2  H3  UNL     1      -2.122  70.698  22.117  1.00  0.00     0.181 HD
ENDROOT
BRANCH   1   3
HETATM    3  N2  UNL     1      -0.439  71.511  21.185  1.00  0.00    -0.255 N 
ATOM      4  H2  UNL     1       0.141  72.350  21.171  1.00  0.00     0.198 HD
BRANCH   3   5
HETATM    5  C1  UNL     1      -0.463  70.688  20.193  1.00  0.00     0.060 C 
BRANCH   5   6
HETATM    6  N1  UNL     1      -0.400  69.705  19.380  1.00  0.00    -0.351 N 
ATOM      7  H12 UNL     1       0.026  70.313  18.680  1.00  0.00     0.167 HD
ATOM      8  H11 UNL     1      -0.434  68.816  18.880  1.00  0.00     0.167 HD
ENDBRANCH   5   6
ENDBRANCH   3   5
ENDBRANCH   1   3
BRANCH   1   9
HETATM    9  C2  UNL     1      -0.889  71.561  23.649  1.00  0.00     0.100 C 
HETATM   10  C3  UNL     1       0.149  72.610  23.592  1.00  0.00     0.026 C 
HETATM   11  C4  UNL     1       1.192  72.601  24.628  1.00  0.00     0.002 C 
HETATM   12  C5  UNL     1       1.441  71.314  25.326  1.00  0.00     0.000 C 
HETATM   13  C6  UNL     1       0.972  70.187  24.425  1.00  0.00     0.002 C 
HETATM   14  C7  UNL     1      -0.539  70.316  24.376  1.00  0.00     0.026 C 
ENDBRANCH   1   9
TORSDOF 4
ENDMDL
MODEL 5
REMARK VINA RESULT: -4.743307734      2.240      3.109
REMARK  4 active torsions:
REMARK  status: ('A' for Active; 'I' for Inactive)
REMARK    1  A    between atoms: N1_1  and  C1_4 
REMARK    2  A    between atoms: C1_4  and  N2_5 
REMARK    3  A    between atoms: N2_5  and  N3_7 
REMARK    4  A    between atoms: N3_7  and  C2_9 
ROOT
HETATM    1  N3  UNL     1       2.421  70.181  22.328  1.00  0.00    -0.324 N 
ATOM      2  H3  UNL     1       2.228  69.728  21.435  1.00  0.00     0.181 HD
ENDROOT
BRANCH   1   3
HETATM    3  N2  UNL     1       3.718  70.630  22.586  1.00  0.00    -0.255 N 
ATOM      4  H2  UNL     1       3.933  71.201  23.404  1.00  0.00     0.198 HD
BRANCH   3   5
HETATM    5  C1  UNL     1       4.629  70.288  21.741  1.00  0.00     0.060 C 
BRANCH   5   6
HETATM    6  N1  UNL     1       5.546  69.738  21.042  1.00  0.00    -0.351 N 
ATOM      7  H12 UNL     1       5.982  69.384  21.894  1.00  0.00     0.167 HD
ATOM      8  H11 UNL     1       6.179  69.378  20.328  1.00  0.00     0.167 HD
ENDBRANCH   5   6
ENDBRANCH   3   5
ENDBRANCH   1   3
BRANCH   1   9
HETATM    9  C2  UNL     1       1.331  70.335  23.289  1.00  0.00     0.100 C 
HETATM   10  C3  UNL     1       0.197  70.984  22.600  1.00  0.00     0.026 C 
HETATM   11  C4  UNL     1      -0.632  71.921  23.373  1.00  0.00     0.002 C 
HETATM   12  C5  UNL     1      -0.015  72.534  24.577  1.00  0.00     0.000 C 
HETATM   13  C6  UNL     1       1.493  72.497  24.409  1.00  0.00     0.002 C 
HETATM   14  C7  UNL     1       1.869  71.029  24.484  1.00  0.00     0.026 C 
ENDBRANCH   1   9
TORSDOF 4
ENDMDL
