MODEL 1
REMARK VINA RESULT: -8.456614908      0.000      0.000
REMARK  9 active torsions:
REMARK  status: ('A' for Active; 'I' for Inactive)
REMARK    1  A    between atoms: C2_2  and  C3_3 
REMARK    2  A    between atoms: C5_9  and  C6_10 
REMARK    3  A    between atoms: C8_14  and  N4_15 
REMARK    4  A    between atoms: N4_15  and  C9_17 
REMARK    5  A    between atoms: C9_17  and  C11_19 
REMARK    6  A    between atoms: C11_19  and  C12_20 
REMARK    7  A    between atoms: C20_31  and  C21_32 
REMARK    8  A    between atoms: C21_32  and  C22_33 
REMARK    9  A    between atoms: C22_33  and  C23_34 
ROOT
HETATM    1  C3  UNL     1      -8.506  79.927  10.345  1.00  0.00     0.030 A 
HETATM    2  N1  UNL     1      -8.875  78.669  10.134  1.00  0.00    -0.354 N 
ATOM      3  H1  UNL     1      -8.449  78.152   9.364  1.00  0.00     0.166 HD
HETATM    4  C4  UNL     1      -9.789  78.056  10.897  1.00  0.00     0.181 A 
HETATM    5  N2  UNL     1     -10.347  78.739  11.906  1.00  0.00    -0.350 N 
ATOM      6  H2  UNL     1     -11.041  78.263  12.482  1.00  0.00     0.166 HD
HETATM    7  C5  UNL     1     -10.043  80.015  12.203  1.00  0.00     0.065 A 
HETATM    8  C20 UNL     1      -9.107  80.614  11.409  1.00  0.00     0.068 A 
ENDROOT
BRANCH   7   9
HETATM    9  C6  UNL     1     -10.640  80.733  13.306  1.00  0.00     0.011 A 
HETATM   10  C7  UNL     1      -9.990  80.819  14.530  1.00  0.00     0.103 A 
HETATM   11  N3  UNL     1     -10.537  81.462  15.578  1.00  0.00    -0.349 N 
HETATM   12  C8  UNL     1     -11.736  82.070  15.552  1.00  0.00     0.140 A 
ATOM     13  H3  UNL     1     -10.007  81.490  16.450  1.00  0.00     0.167 HD
HETATM   14  C18 UNL     1     -12.422  82.005  14.336  1.00  0.00     0.160 A 
HETATM   15  F2  UNL     1     -13.626  82.592  14.244  1.00  0.00    -0.202 F 
HETATM   16  C19 UNL     1     -11.870  81.344  13.244  1.00  0.00     0.061 A 
BRANCH  12  17
HETATM   17  N4  UNL     1     -12.261  82.685  16.544  1.00  0.00    -0.366 N 
ATOM     18  H4  UNL     1     -13.255  82.521  16.703  1.00  0.00     0.161 HD
BRANCH  17  19
HETATM   19  C9  UNL     1     -11.615  83.573  17.449  1.00  0.00     0.116 C 
HETATM   20  C10 UNL     1     -11.613  83.065  18.877  1.00  0.00     0.035 C 
BRANCH  19  21
HETATM   21  C11 UNL     1     -12.327  84.917  17.444  1.00  0.00     0.110 C 
HETATM   22  C13 UNL     1     -13.030  85.111  18.753  1.00  0.00     0.076 C 
HETATM   23  C14 UNL     1     -13.798  86.403  18.707  1.00  0.00    -0.083 C 
HETATM   24  C15 UNL     1     -13.789  87.382  19.802  1.00  0.00     0.043 C 
HETATM   25  C16 UNL     1     -14.499  86.596  17.581  1.00  0.00     0.002 C 
HETATM   26  C17 UNL     1     -14.396  85.498  16.570  1.00  0.00     0.196 C 
HETATM   27  O1  UNL     1     -13.111  85.089  16.336  1.00  0.00    -0.372 OA
BRANCH  21  28
HETATM   28  C12 UNL     1     -11.228  85.990  17.377  1.00  0.00     0.262 C 
HETATM   29  F1  UNL     1     -11.134  86.461  16.075  1.00  0.00    -0.252 F 
ENDBRANCH  21  28
ENDBRANCH  19  21
ENDBRANCH  17  19
ENDBRANCH  12  17
ENDBRANCH   7   9
BRANCH   8  30
HETATM   30  C21 UNL     1      -8.701  81.960  11.677  1.00  0.00    -0.056 C 
BRANCH  30  31
HETATM   31  C22 UNL     1      -8.334  83.107  11.935  1.00  0.00    -0.043 C 
BRANCH  31  32
HETATM   32  C23 UNL     1      -7.882  84.432  12.229  1.00  0.00     0.094 A 
HETATM   33  N5  UNL     1      -6.717  84.957  11.791  1.00  0.00    -0.335 N 
HETATM   34  C24 UNL     1      -6.339  86.207  12.096  1.00  0.00     0.099 A 
ATOM     35  H5  UNL     1      -6.105  84.384  11.209  1.00  0.00     0.168 HD
HETATM   36  N6  UNL     1      -5.223  86.676  11.663  1.00  0.00    -0.385 N 
HETATM   37  C25 UNL     1      -7.122  87.022  12.876  1.00  0.00     0.048 A 
ATOM     38  H62 UNL     1      -4.641  86.071  11.084  1.00  0.00     0.157 HD
ATOM     39  H61 UNL     1      -4.936  87.626  11.895  1.00  0.00     0.157 HD
HETATM   40  C26 UNL     1      -8.313  86.530  13.343  1.00  0.00     0.013 A 
HETATM   41  C27 UNL     1      -8.673  85.243  13.012  1.00  0.00    -0.026 A 
HETATM   42  C28 UNL     1      -9.976  84.705  13.525  1.00  0.00     0.051 C 
ENDBRANCH  31  32
ENDBRANCH  30  31
ENDBRANCH   8  30
BRANCH   1  43
HETATM   43  C2  UNL     1      -7.502  80.647   9.535  1.00  0.00     0.054 C 
HETATM   44  C1  UNL     1      -6.087  80.293   9.923  1.00  0.00     0.011 C 
ENDBRANCH   1  43
TORSDOF 9
ENDMDL
MODEL 2
REMARK VINA RESULT: -8.344802578      1.643      2.226
REMARK  9 active torsions:
REMARK  status: ('A' for Active; 'I' for Inactive)
REMARK    1  A    between atoms: C2_2  and  C3_3 
REMARK    2  A    between atoms: C5_9  and  C6_10 
REMARK    3  A    between atoms: C8_14  and  N4_15 
REMARK    4  A    between atoms: N4_15  and  C9_17 
REMARK    5  A    between atoms: C9_17  and  C11_19 
REMARK    6  A    between atoms: C11_19  and  C12_20 
REMARK    7  A    between atoms: C20_31  and  C21_32 
REMARK    8  A    between atoms: C21_32  and  C22_33 
REMARK    9  A    between atoms: C22_33  and  C23_34 
ROOT
HETATM    1  C3  UNL     1      -8.244  79.607  12.697  1.00  0.00     0.030 A 
HETATM    2  N1  UNL     1      -8.522  78.333  12.945  1.00  0.00    -0.354 N 
ATOM      3  H1  UNL     1      -7.987  77.608  12.465  1.00  0.00     0.166 HD
HETATM    4  C4  UNL     1      -9.483  77.966  13.802  1.00  0.00     0.181 A 
HETATM    5  N2  UNL     1     -10.184  78.921  14.429  1.00  0.00    -0.350 N 
ATOM      6  H2  UNL     1     -10.914  78.633  15.081  1.00  0.00     0.166 HD
HETATM    7  C5  UNL     1      -9.981  80.238  14.247  1.00  0.00     0.065 A 
HETATM    8  C20 UNL     1      -8.995  80.582  13.368  1.00  0.00     0.068 A 
ENDROOT
BRANCH   7   9
HETATM    9  C6  UNL     1     -10.734  81.257  14.943  1.00  0.00     0.011 A 
HETATM   10  C7  UNL     1     -10.245  81.825  16.112  1.00  0.00     0.103 A 
HETATM   11  N3  UNL     1     -10.938  82.758  16.789  1.00  0.00    -0.349 N 
HETATM   12  C8  UNL     1     -12.144  83.223  16.418  1.00  0.00     0.140 A 
ATOM     13  H3  UNL     1     -10.522  83.136  17.641  1.00  0.00     0.167 HD
HETATM   14  C18 UNL     1     -12.671  82.675  15.246  1.00  0.00     0.160 A 
HETATM   15  F2  UNL     1     -13.873  83.097  14.821  1.00  0.00    -0.202 F 
HETATM   16  C19 UNL     1     -11.966  81.710  14.534  1.00  0.00     0.061 A 
BRANCH  12  17
HETATM   17  N4  UNL     1     -12.809  84.112  17.057  1.00  0.00    -0.366 N 
ATOM     18  H4  UNL     1     -13.336  83.787  17.867  1.00  0.00     0.161 HD
BRANCH  17  19
HETATM   19  C9  UNL     1     -12.895  85.502  16.763  1.00  0.00     0.116 C 
HETATM   20  C10 UNL     1     -11.562  86.214  16.871  1.00  0.00     0.035 C 
BRANCH  19  21
HETATM   21  C11 UNL     1     -13.852  86.173  17.736  1.00  0.00     0.110 C 
HETATM   22  C13 UNL     1     -13.969  87.627  17.394  1.00  0.00     0.076 C 
HETATM   23  C14 UNL     1     -14.850  88.298  18.411  1.00  0.00    -0.083 C 
HETATM   24  C15 UNL     1     -15.920  89.239  18.050  1.00  0.00     0.043 C 
HETATM   25  C16 UNL     1     -14.585  87.970  19.683  1.00  0.00     0.002 C 
HETATM   26  C17 UNL     1     -13.463  86.998  19.869  1.00  0.00     0.196 C 
HETATM   27  O1  UNL     1     -13.539  85.910  19.041  1.00  0.00    -0.372 OA
BRANCH  21  28
HETATM   28  C12 UNL     1     -15.235  85.553  17.481  1.00  0.00     0.262 C 
HETATM   29  F1  UNL     1     -15.625  85.838  16.180  1.00  0.00    -0.252 F 
ENDBRANCH  21  28
ENDBRANCH  19  21
ENDBRANCH  17  19
ENDBRANCH  12  17
ENDBRANCH   7   9
BRANCH   8  30
HETATM   30  C21 UNL     1      -8.691  81.963  13.142  1.00  0.00    -0.056 C 
BRANCH  30  31
HETATM   31  C22 UNL     1      -8.405  83.148  12.972  1.00  0.00    -0.043 C 
BRANCH  31  32
HETATM   32  C23 UNL     1      -8.052  84.522  12.789  1.00  0.00     0.094 A 
HETATM   33  N5  UNL     1      -6.864  84.948  12.308  1.00  0.00    -0.335 N 
HETATM   34  C24 UNL     1      -6.581  86.251  12.156  1.00  0.00     0.099 A 
ATOM     35  H5  UNL     1      -6.159  84.257  12.052  1.00  0.00     0.168 HD
HETATM   36  N6  UNL     1      -5.440  86.622  11.696  1.00  0.00    -0.385 N 
HETATM   37  C25 UNL     1      -7.493  87.225  12.486  1.00  0.00     0.048 A 
ATOM     38  H62 UNL     1      -4.764  85.899  11.451  1.00  0.00     0.157 HD
ATOM     39  H61 UNL     1      -5.226  87.612  11.580  1.00  0.00     0.157 HD
HETATM   40  C26 UNL     1      -8.712  86.837  12.979  1.00  0.00     0.013 A 
HETATM   41  C27 UNL     1      -8.971  85.493  13.123  1.00  0.00    -0.026 A 
HETATM   42  C28 UNL     1     -10.305  85.071  13.663  1.00  0.00     0.051 C 
ENDBRANCH  31  32
ENDBRANCH  30  31
ENDBRANCH   8  30
BRANCH   1  43
HETATM   43  C2  UNL     1      -7.193  80.063  11.762  1.00  0.00     0.054 C 
HETATM   44  C1  UNL     1      -6.490  78.914  11.081  1.00  0.00     0.011 C 
ENDBRANCH   1  43
TORSDOF 9
ENDMDL
MODEL 3
REMARK VINA RESULT: -8.255748538      1.030      1.317
REMARK  9 active torsions:
REMARK  status: ('A' for Active; 'I' for Inactive)
REMARK    1  A    between atoms: C2_2  and  C3_3 
REMARK    2  A    between atoms: C5_9  and  C6_10 
REMARK    3  A    between atoms: C8_14  and  N4_15 
REMARK    4  A    between atoms: N4_15  and  C9_17 
REMARK    5  A    between atoms: C9_17  and  C11_19 
REMARK    6  A    between atoms: C11_19  and  C12_20 
REMARK    7  A    between atoms: C20_31  and  C21_32 
REMARK    8  A    between atoms: C21_32  and  C22_33 
REMARK    9  A    between atoms: C22_33  and  C23_34 
ROOT
HETATM    1  C3  UNL     1      -8.504  79.847  10.578  1.00  0.00     0.030 A 
HETATM    2  N1  UNL     1      -8.879  78.582  10.423  1.00  0.00    -0.354 N 
ATOM      3  H1  UNL     1      -8.452  78.029   9.679  1.00  0.00     0.166 HD
HETATM    4  C4  UNL     1      -9.798  78.009  11.210  1.00  0.00     0.181 A 
HETATM    5  N2  UNL     1     -10.355  78.740  12.186  1.00  0.00    -0.350 N 
ATOM      6  H2  UNL     1     -11.054  78.294  12.780  1.00  0.00     0.166 HD
HETATM    7  C5  UNL     1     -10.046  80.026  12.425  1.00  0.00     0.065 A 
HETATM    8  C20 UNL     1      -9.105  80.585  11.607  1.00  0.00     0.068 A 
ENDROOT
BRANCH   7   9
HETATM    9  C6  UNL     1     -10.643  80.797  13.491  1.00  0.00     0.011 A 
HETATM   10  C7  UNL     1      -9.993  80.943  14.709  1.00  0.00     0.103 A 
HETATM   11  N3  UNL     1     -10.540  81.636  15.725  1.00  0.00    -0.349 N 
HETATM   12  C8  UNL     1     -11.739  82.241  15.670  1.00  0.00     0.140 A 
ATOM     13  H3  UNL     1     -10.009  81.707  16.594  1.00  0.00     0.167 HD
HETATM   14  C18 UNL     1     -12.426  82.117  14.460  1.00  0.00     0.160 A 
HETATM   15  F2  UNL     1     -13.630  82.698  14.339  1.00  0.00    -0.202 F 
HETATM   16  C19 UNL     1     -11.874  81.404  13.400  1.00  0.00     0.061 A 
BRANCH  12  17
HETATM   17  N4  UNL     1     -12.265  82.904  16.631  1.00  0.00    -0.366 N 
ATOM     18  H4  UNL     1     -13.284  82.924  16.662  1.00  0.00     0.161 HD
BRANCH  17  19
HETATM   19  C9  UNL     1     -11.587  83.615  17.661  1.00  0.00     0.116 C 
HETATM   20  C10 UNL     1     -11.511  82.843  18.962  1.00  0.00     0.035 C 
BRANCH  19  21
HETATM   21  C11 UNL     1     -12.315  84.920  17.946  1.00  0.00     0.110 C 
HETATM   22  C13 UNL     1     -13.413  85.104  16.943  1.00  0.00     0.076 C 
HETATM   23  C14 UNL     1     -14.072  86.434  17.181  1.00  0.00    -0.083 C 
HETATM   24  C15 UNL     1     -15.530  86.616  17.199  1.00  0.00     0.043 C 
HETATM   25  C16 UNL     1     -13.222  87.451  17.378  1.00  0.00     0.002 C 
HETATM   26  C17 UNL     1     -11.772  87.088  17.327  1.00  0.00     0.196 C 
HETATM   27  O1  UNL     1     -11.459  85.980  18.067  1.00  0.00    -0.372 OA
BRANCH  21  28
HETATM   28  C12 UNL     1     -12.998  84.746  19.312  1.00  0.00     0.262 C 
HETATM   29  F1  UNL     1     -12.542  85.735  20.174  1.00  0.00    -0.252 F 
ENDBRANCH  21  28
ENDBRANCH  19  21
ENDBRANCH  17  19
ENDBRANCH  12  17
ENDBRANCH   7   9
BRANCH   8  30
HETATM   30  C21 UNL     1      -8.694  81.940  11.814  1.00  0.00    -0.056 C 
BRANCH  30  31
HETATM   31  C22 UNL     1      -8.324  83.096  12.022  1.00  0.00    -0.043 C 
BRANCH  31  32
HETATM   32  C23 UNL     1      -7.870  84.431  12.263  1.00  0.00     0.094 A 
HETATM   33  N5  UNL     1      -6.704  84.935  11.804  1.00  0.00    -0.335 N 
HETATM   34  C24 UNL     1      -6.323  86.197  12.059  1.00  0.00     0.099 A 
ATOM     35  H5  UNL     1      -6.093  84.339  11.246  1.00  0.00     0.168 HD
HETATM   36  N6  UNL     1      -5.207  86.645  11.608  1.00  0.00    -0.385 N 
HETATM   37  C25 UNL     1      -7.106  87.044  12.806  1.00  0.00     0.048 A 
ATOM     38  H62 UNL     1      -4.626  86.016  11.053  1.00  0.00     0.157 HD
ATOM     39  H61 UNL     1      -4.918  87.604  11.801  1.00  0.00     0.157 HD
HETATM   40  C26 UNL     1      -8.297  86.573  13.292  1.00  0.00     0.013 A 
HETATM   41  C27 UNL     1      -8.660  85.274  13.013  1.00  0.00    -0.026 A 
HETATM   42  C28 UNL     1      -9.964  84.760  13.547  1.00  0.00     0.051 C 
ENDBRANCH  31  32
ENDBRANCH  30  31
ENDBRANCH   8  30
BRANCH   1  43
HETATM   43  C2  UNL     1      -7.494  80.525   9.739  1.00  0.00     0.054 C 
HETATM   44  C1  UNL     1      -6.082  80.164  10.132  1.00  0.00     0.011 C 
ENDBRANCH   1  43
TORSDOF 9
ENDMDL
MODEL 4
REMARK VINA RESULT: -8.123829536      1.604      2.165
REMARK  9 active torsions:
REMARK  status: ('A' for Active; 'I' for Inactive)
REMARK    1  A    between atoms: C2_2  and  C3_3 
REMARK    2  A    between atoms: C5_9  and  C6_10 
REMARK    3  A    between atoms: C8_14  and  N4_15 
REMARK    4  A    between atoms: N4_15  and  C9_17 
REMARK    5  A    between atoms: C9_17  and  C11_19 
REMARK    6  A    between atoms: C11_19  and  C12_20 
REMARK    7  A    between atoms: C20_31  and  C21_32 
REMARK    8  A    between atoms: C21_32  and  C22_33 
REMARK    9  A    between atoms: C22_33  and  C23_34 
ROOT
HETATM    1  C3  UNL     1      -8.633  79.433  12.604  1.00  0.00     0.030 A 
HETATM    2  N1  UNL     1      -8.822  78.143  12.854  1.00  0.00    -0.354 N 
ATOM      3  H1  UNL     1      -8.441  77.454  12.205  1.00  0.00     0.166 HD
HETATM    4  C4  UNL     1      -9.498  77.715  13.928  1.00  0.00     0.181 A 
HETATM    5  N2  UNL     1      -9.997  78.624  14.777  1.00  0.00    -0.350 N 
ATOM      6  H2  UNL     1     -10.510  78.289  15.593  1.00  0.00     0.166 HD
HETATM    7  C5  UNL     1      -9.862  79.952  14.614  1.00  0.00     0.065 A 
HETATM    8  C20 UNL     1      -9.168  80.359  13.511  1.00  0.00     0.068 A 
ENDROOT
BRANCH   7   9
HETATM    9  C6  UNL     1     -10.392  80.920  15.547  1.00  0.00     0.011 A 
HETATM   10  C7  UNL     1     -11.631  81.509  15.329  1.00  0.00     0.103 A 
HETATM   11  N3  UNL     1     -12.135  82.430  16.171  1.00  0.00    -0.349 N 
HETATM   12  C8  UNL     1     -11.510  82.866  17.279  1.00  0.00     0.140 A 
ATOM     13  H3  UNL     1     -13.051  82.823  15.955  1.00  0.00     0.167 HD
HETATM   14  C18 UNL     1     -10.259  82.297  17.533  1.00  0.00     0.160 A 
HETATM   15  F2  UNL     1      -9.582  82.690  18.624  1.00  0.00    -0.202 F 
HETATM   16  C19 UNL     1      -9.725  81.344  16.672  1.00  0.00     0.061 A 
BRANCH  12  17
HETATM   17  N4  UNL     1     -11.983  83.740  18.086  1.00  0.00    -0.366 N 
ATOM     18  H4  UNL     1     -12.724  83.424  18.711  1.00  0.00     0.161 HD
BRANCH  17  19
HETATM   19  C9  UNL     1     -11.593  85.103  18.207  1.00  0.00     0.116 C 
HETATM   20  C10 UNL     1     -11.348  85.523  19.642  1.00  0.00     0.035 C 
BRANCH  19  21
HETATM   21  C11 UNL     1     -12.687  86.001  17.650  1.00  0.00     0.110 C 
HETATM   22  C13 UNL     1     -13.663  86.327  18.738  1.00  0.00     0.076 C 
HETATM   23  C14 UNL     1     -14.784  87.145  18.159  1.00  0.00    -0.083 C 
HETATM   24  C15 UNL     1     -15.315  88.353  18.806  1.00  0.00     0.043 C 
HETATM   25  C16 UNL     1     -15.268  86.684  16.997  1.00  0.00     0.002 C 
HETATM   26  C17 UNL     1     -14.612  85.443  16.481  1.00  0.00     0.196 C 
HETATM   27  O1  UNL     1     -13.245  85.496  16.507  1.00  0.00    -0.372 OA
BRANCH  21  28
HETATM   28  C12 UNL     1     -12.008  87.324  17.263  1.00  0.00     0.262 C 
HETATM   29  F1  UNL     1     -11.144  87.095  16.200  1.00  0.00    -0.252 F 
ENDBRANCH  21  28
ENDBRANCH  19  21
ENDBRANCH  17  19
ENDBRANCH  12  17
ENDBRANCH   7   9
BRANCH   8  30
HETATM   30  C21 UNL     1      -8.949  81.755  13.280  1.00  0.00    -0.056 C 
BRANCH  30  31
HETATM   31  C22 UNL     1      -8.757  82.960  13.116  1.00  0.00    -0.043 C 
BRANCH  31  32
HETATM   32  C23 UNL     1      -8.508  84.355  12.923  1.00  0.00     0.094 A 
HETATM   33  N5  UNL     1      -7.364  84.863  12.413  1.00  0.00    -0.335 N 
HETATM   34  C24 UNL     1      -7.180  86.182  12.252  1.00  0.00     0.099 A 
ATOM     35  H5  UNL     1      -6.617  84.224  12.142  1.00  0.00     0.168 HD
HETATM   36  N6  UNL     1      -6.080  86.633  11.765  1.00  0.00    -0.385 N 
HETATM   37  C25 UNL     1      -8.151  87.089  12.601  1.00  0.00     0.048 A 
ATOM     38  H62 UNL     1      -5.359  85.960  11.505  1.00  0.00     0.157 HD
ATOM     39  H61 UNL     1      -5.940  87.636  11.642  1.00  0.00     0.157 HD
HETATM   40  C26 UNL     1      -9.327  86.617  13.123  1.00  0.00     0.013 A 
HETATM   41  C27 UNL     1      -9.486  85.258  13.276  1.00  0.00    -0.026 A 
HETATM   42  C28 UNL     1     -10.773  84.743  13.848  1.00  0.00     0.051 C 
ENDBRANCH  31  32
ENDBRANCH  30  31
ENDBRANCH   8  30
BRANCH   1  43
HETATM   43  C2  UNL     1      -7.895  79.956  11.435  1.00  0.00     0.054 C 
HETATM   44  C1  UNL     1      -8.687  79.842  10.156  1.00  0.00     0.011 C 
ENDBRANCH   1  43
TORSDOF 9
ENDMDL
MODEL 5
REMARK VINA RESULT: -7.989614886      1.847      2.813
REMARK  9 active torsions:
REMARK  status: ('A' for Active; 'I' for Inactive)
REMARK    1  A    between atoms: C2_2  and  C3_3 
REMARK    2  A    between atoms: C5_9  and  C6_10 
REMARK    3  A    between atoms: C8_14  and  N4_15 
REMARK    4  A    between atoms: N4_15  and  C9_17 
REMARK    5  A    between atoms: C9_17  and  C11_19 
REMARK    6  A    between atoms: C11_19  and  C12_20 
REMARK    7  A    between atoms: C20_31  and  C21_32 
REMARK    8  A    between atoms: C21_32  and  C22_33 
REMARK    9  A    between atoms: C22_33  and  C23_34 
ROOT
HETATM    1  C3  UNL     1      -8.529  79.924  10.568  1.00  0.00     0.030 A 
HETATM    2  N1  UNL     1      -8.869  78.654  10.383  1.00  0.00    -0.354 N 
ATOM      3  H1  UNL     1      -8.467  78.145   9.595  1.00  0.00     0.166 HD
HETATM    4  C4  UNL     1      -9.721  78.018  11.197  1.00  0.00     0.181 A 
HETATM    5  N2  UNL     1     -10.246  78.690  12.231  1.00  0.00    -0.350 N 
ATOM      6  H2  UNL     1     -10.894  78.198  12.846  1.00  0.00     0.166 HD
HETATM    7  C5  UNL     1      -9.967  79.977  12.504  1.00  0.00     0.065 A 
HETATM    8  C20 UNL     1      -9.095  80.600  11.658  1.00  0.00     0.068 A 
ENDROOT
BRANCH   7   9
HETATM    9  C6  UNL     1     -10.528  80.684  13.632  1.00  0.00     0.011 A 
HETATM   10  C7  UNL     1      -9.953  80.577  14.892  1.00  0.00     0.103 A 
HETATM   11  N3  UNL     1     -10.472  81.207  15.963  1.00  0.00    -0.349 N 
HETATM   12  C8  UNL     1     -11.569  81.983  15.927  1.00  0.00     0.140 A 
ATOM     13  H3  UNL     1     -10.001  81.088  16.860  1.00  0.00     0.167 HD
HETATM   14  C18 UNL     1     -12.177  82.116  14.676  1.00  0.00     0.160 A 
HETATM   15  F2  UNL     1     -13.278  82.877  14.572  1.00  0.00    -0.202 F 
HETATM   16  C19 UNL     1     -11.654  81.471  13.560  1.00  0.00     0.061 A 
BRANCH  12  17
HETATM   17  N4  UNL     1     -12.066  82.587  16.940  1.00  0.00    -0.366 N 
ATOM     18  H4  UNL     1     -13.025  82.342  17.187  1.00  0.00     0.161 HD
BRANCH  17  19
HETATM   19  C9  UNL     1     -11.432  83.562  17.761  1.00  0.00     0.116 C 
HETATM   20  C10 UNL     1     -10.130  84.070  17.176  1.00  0.00     0.035 C 
BRANCH  19  21
HETATM   21  C11 UNL     1     -11.119  82.961  19.122  1.00  0.00     0.110 C 
HETATM   22  C13 UNL     1      -9.998  83.727  19.756  1.00  0.00     0.076 C 
HETATM   23  C14 UNL     1      -9.640  83.075  21.062  1.00  0.00    -0.083 C 
HETATM   24  C15 UNL     1      -9.416  83.831  22.303  1.00  0.00     0.043 C 
HETATM   25  C16 UNL     1      -9.540  81.739  21.011  1.00  0.00     0.002 C 
HETATM   26  C17 UNL     1      -9.800  81.133  19.668  1.00  0.00     0.196 C 
HETATM   27  O1  UNL     1     -10.933  81.607  19.064  1.00  0.00    -0.372 OA
BRANCH  21  28
HETATM   28  C12 UNL     1     -12.359  83.199  19.997  1.00  0.00     0.262 C 
HETATM   29  F1  UNL     1     -12.836  81.975  20.448  1.00  0.00    -0.252 F 
ENDBRANCH  21  28
ENDBRANCH  19  21
ENDBRANCH  17  19
ENDBRANCH  12  17
ENDBRANCH   7   9
BRANCH   8  30
HETATM   30  C21 UNL     1      -8.718  81.961  11.896  1.00  0.00    -0.056 C 
BRANCH  30  31
HETATM   31  C22 UNL     1      -8.361  83.121  12.099  1.00  0.00    -0.043 C 
BRANCH  31  32
HETATM   32  C23 UNL     1      -7.924  84.465  12.322  1.00  0.00     0.094 A 
HETATM   33  N5  UNL     1      -6.742  84.963  11.898  1.00  0.00    -0.335 N 
HETATM   34  C24 UNL     1      -6.378  86.233  12.134  1.00  0.00     0.099 A 
ATOM     35  H5  UNL     1      -6.106  84.356  11.382  1.00  0.00     0.168 HD
HETATM   36  N6  UNL     1      -5.246  86.676  11.717  1.00  0.00    -0.385 N 
HETATM   37  C25 UNL     1      -7.194  87.095  12.826  1.00  0.00     0.048 A 
ATOM     38  H62 UNL     1      -4.640  86.036  11.204  1.00  0.00     0.157 HD
ATOM     39  H61 UNL     1      -4.970  87.641  11.897  1.00  0.00     0.157 HD
HETATM   40  C26 UNL     1      -8.402  86.630  13.276  1.00  0.00     0.013 A 
HETATM   41  C27 UNL     1      -8.747  85.323  13.017  1.00  0.00    -0.026 A 
HETATM   42  C28 UNL     1     -10.069  84.815  13.511  1.00  0.00     0.051 C 
ENDBRANCH  31  32
ENDBRANCH  30  31
ENDBRANCH   8  30
BRANCH   1  43
HETATM   43  C2  UNL     1      -7.592  80.670   9.701  1.00  0.00     0.054 C 
HETATM   44  C1  UNL     1      -6.152  80.301   9.959  1.00  0.00     0.011 C 
ENDBRANCH   1  43
TORSDOF 9
ENDMDL
