MODEL 1
REMARK VINA RESULT: -7.901736759      0.000      0.000
REMARK  9 active torsions:
REMARK  status: ('A' for Active; 'I' for Inactive)
REMARK    1  A    between atoms: N1_4  and  C4_5 
REMARK    2  A    between atoms: C10_11  and  C11_12 
REMARK    3  A    between atoms: C11_12  and  N2_13 
REMARK    4  A    between atoms: C14_16  and  C15_17 
REMARK    5  A    between atoms: C15_17  and  C16_18 
REMARK    6  A    between atoms: C18_20  and  N3_21 
REMARK    7  A    between atoms: C19_25  and  O1_26 
REMARK    8  A    between atoms: C19_25  and  C20_28 
REMARK    9  A    between atoms: C23_32  and  C24_33 
ROOT
HETATM    1  C16 UNL     1     -10.366  83.286  13.784  1.00  0.00     0.029 C 
HETATM    2  C17 UNL     1     -11.853  83.409  13.865  1.00  0.00     0.044 C 
HETATM    3  C18 UNL     1     -11.927  82.010  14.523  1.00  0.00     0.223 C 
HETATM    4  C19 UNL     1     -10.489  81.841  14.218  1.00  0.00     0.119 C 
ENDROOT
BRANCH   1   5
HETATM    5  C15 UNL     1      -9.622  84.161  14.711  1.00  0.00     0.013 C 
BRANCH   5   6
HETATM    6  C14 UNL     1      -8.735  85.204  14.177  1.00  0.00    -0.008 C 
HETATM    7  C13 UNL     1      -9.467  86.347  13.500  1.00  0.00     0.049 C 
HETATM    8  C12 UNL     1      -8.459  87.077  12.643  1.00  0.00     0.058 C 
HETATM    9  N2  UNL     1      -7.122  86.664  12.780  1.00  0.00    -0.393 N 
HETATM   10  C28 UNL     1      -6.604  86.401  14.067  1.00  0.00     0.122 C 
HETATM   11  C27 UNL     1      -7.643  85.762  14.998  1.00  0.00     0.024 C 
BRANCH   9  12
HETATM   12  C11 UNL     1      -6.475  86.083  11.663  1.00  0.00     0.126 C 
BRANCH  12  13
HETATM   13  C10 UNL     1      -5.952  84.684  11.975  1.00  0.00     0.010 C 
HETATM   14  C2  UNL     1      -4.568  84.458  11.437  1.00  0.00     0.015 C 
HETATM   15  C1  UNL     1      -3.589  84.052  12.490  1.00  0.00     0.012 C 
HETATM   16  C3  UNL     1      -4.545  83.425  10.330  1.00  0.00     0.278 C 
HETATM   17  N1  UNL     1      -5.013  82.150  10.803  1.00  0.00     0.097 N 
HETATM   18  C8  UNL     1      -6.240  82.272  11.522  1.00  0.00     0.274 C 
HETATM   19  C9  UNL     1      -6.870  83.642  11.378  1.00  0.00     0.037 C 
BRANCH  17  20
HETATM   20  C4  UNL     1      -5.061  81.198   9.730  1.00  0.00     0.149 C 
HETATM   21  C5  UNL     1      -3.692  80.892   9.173  1.00  0.00     0.048 C 
HETATM   22  C6  UNL     1      -5.938  81.629   8.575  1.00  0.00     0.048 C 
HETATM   23  C7  UNL     1      -5.631  79.855  10.209  1.00  0.00     0.048 C 
ENDBRANCH  17  20
ENDBRANCH  12  13
ENDBRANCH   9  12
ENDBRANCH   5   6
ENDBRANCH   1   5
BRANCH   4  24
HETATM   24  O1  UNL     1      -9.783  81.597  15.407  1.00  0.00    -0.382 OA
ATOM     25  H1  UNL     1     -10.328  81.736  16.173  1.00  0.00     0.211 HD
ENDBRANCH   4  24
BRANCH   4  26
HETATM   26  C20 UNL     1     -10.097  80.825  13.214  1.00  0.00     0.020 A 
HETATM   27  C21 UNL     1      -9.680  81.149  11.941  1.00  0.00     0.056 A 
HETATM   28  C22 UNL     1      -9.313  80.176  11.002  1.00  0.00     0.132 A 
HETATM   29  F1  UNL     1      -8.914  80.584   9.766  1.00  0.00    -0.205 F 
HETATM   30  C23 UNL     1      -9.360  78.844  11.335  1.00  0.00     0.070 A 
HETATM   31  C25 UNL     1      -9.770  78.491  12.596  1.00  0.00     0.062 A 
HETATM   32  C26 UNL     1     -10.129  79.475  13.509  1.00  0.00     0.127 A 
HETATM   33  F2  UNL     1     -10.530  79.060  14.750  1.00  0.00    -0.205 F 
BRANCH  30  34
HETATM   34  C24 UNL     1      -8.975  77.822  10.356  1.00  0.00     0.268 C 
HETATM   35  N4  UNL     1      -7.803  77.047  10.576  1.00  0.00    -0.057 NA
HETATM   36  O2  UNL     1      -9.647  77.606   9.328  1.00  0.00    -0.271 OA
ENDBRANCH  30  34
ENDBRANCH   4  26
BRANCH   3  37
HETATM   37  N3  UNL     1     -12.239  82.103  15.945  1.00  0.00    -0.072 N 
ATOM     38  H33 UNL     1     -11.392  82.119  16.513  1.00  0.00     0.274 HD
ATOM     39  H32 UNL     1     -12.608  83.023  16.187  1.00  0.00     0.274 HD
ATOM     40  H31 UNL     1     -12.870  81.358  16.239  1.00  0.00     0.274 HD
ENDBRANCH   3  37
TORSDOF 9
ENDMDL
MODEL 2
REMARK VINA RESULT: -7.769661219      3.864      7.587
REMARK  9 active torsions:
REMARK  status: ('A' for Active; 'I' for Inactive)
REMARK    1  A    between atoms: N1_4  and  C4_5 
REMARK    2  A    between atoms: C10_11  and  C11_12 
REMARK    3  A    between atoms: C11_12  and  N2_13 
REMARK    4  A    between atoms: C14_16  and  C15_17 
REMARK    5  A    between atoms: C15_17  and  C16_18 
REMARK    6  A    between atoms: C18_20  and  N3_21 
REMARK    7  A    between atoms: C19_25  and  O1_26 
REMARK    8  A    between atoms: C19_25  and  C20_28 
REMARK    9  A    between atoms: C23_32  and  C24_33 
ROOT
HETATM    1  C16 UNL     1     -10.456  81.970  15.711  1.00  0.00     0.029 C 
HETATM    2  C17 UNL     1     -10.512  83.376  15.209  1.00  0.00     0.044 C 
HETATM    3  C18 UNL     1     -11.587  82.958  14.176  1.00  0.00     0.223 C 
HETATM    4  C19 UNL     1     -11.334  81.549  14.552  1.00  0.00     0.119 C 
ENDROOT
BRANCH   1   5
HETATM    5  C15 UNL     1     -11.042  81.767  17.051  1.00  0.00     0.013 C 
BRANCH   5   6
HETATM    6  C14 UNL     1     -10.680  82.672  18.151  1.00  0.00    -0.008 C 
HETATM    7  C13 UNL     1     -11.030  82.138  19.527  1.00  0.00     0.049 C 
HETATM    8  C12 UNL     1     -11.017  83.313  20.478  1.00  0.00     0.058 C 
HETATM    9  N2  UNL     1     -10.556  84.530  19.945  1.00  0.00    -0.393 N 
HETATM   10  C28 UNL     1      -9.418  84.536  19.109  1.00  0.00     0.122 C 
HETATM   11  C27 UNL     1      -9.343  83.294  18.211  1.00  0.00     0.024 C 
BRANCH   9  12
HETATM   12  C11 UNL     1     -11.458  85.617  19.860  1.00  0.00     0.126 C 
BRANCH  12  13
HETATM   13  C10 UNL     1     -12.027  85.774  18.453  1.00  0.00     0.010 C 
HETATM   14  C2  UNL     1     -12.212  87.213  18.067  1.00  0.00     0.015 C 
HETATM   15  C1  UNL     1     -11.487  87.582  16.814  1.00  0.00     0.012 C 
HETATM   16  C3  UNL     1     -13.672  87.581  17.908  1.00  0.00     0.278 C 
HETATM   17  N1  UNL     1     -14.293  86.798  16.874  1.00  0.00     0.097 N 
HETATM   18  C8  UNL     1     -14.009  85.407  17.023  1.00  0.00     0.274 C 
HETATM   19  C9  UNL     1     -13.366  85.079  18.355  1.00  0.00     0.037 C 
BRANCH  17  20
HETATM   20  C4  UNL     1     -15.693  87.097  16.783  1.00  0.00     0.149 C 
HETATM   21  C5  UNL     1     -15.951  88.462  16.191  1.00  0.00     0.048 C 
HETATM   22  C6  UNL     1     -16.416  87.030  18.110  1.00  0.00     0.048 C 
HETATM   23  C7  UNL     1     -16.413  86.099  15.864  1.00  0.00     0.048 C 
ENDBRANCH  17  20
ENDBRANCH  12  13
ENDBRANCH   9  12
ENDBRANCH   5   6
ENDBRANCH   1   5
BRANCH   4  24
HETATM   24  O1  UNL     1     -12.529  80.960  14.996  1.00  0.00    -0.382 OA
ATOM     25  H1  UNL     1     -12.665  80.105  14.604  1.00  0.00     0.211 HD
ENDBRANCH   4  24
BRANCH   4  26
HETATM   26  C20 UNL     1     -10.705  80.656  13.552  1.00  0.00     0.020 A 
HETATM   27  C21 UNL     1     -10.502  81.023  12.239  1.00  0.00     0.056 A 
HETATM   28  C22 UNL     1      -9.907  80.165  11.305  1.00  0.00     0.132 A 
HETATM   29  F1  UNL     1      -9.744  80.608  10.028  1.00  0.00    -0.205 F 
HETATM   30  C23 UNL     1      -9.500  78.908  11.683  1.00  0.00     0.070 A 
HETATM   31  C25 UNL     1      -9.689  78.515  12.984  1.00  0.00     0.062 A 
HETATM   32  C26 UNL     1     -10.283  79.384  13.892  1.00  0.00     0.127 A 
HETATM   33  F2  UNL     1     -10.444  78.934  15.173  1.00  0.00    -0.205 F 
BRANCH  30  34
HETATM   34  C24 UNL     1      -8.875  78.008  10.708  1.00  0.00     0.268 C 
HETATM   35  N4  UNL     1      -7.573  77.497  10.962  1.00  0.00    -0.057 NA
HETATM   36  O2  UNL     1      -9.452  77.670   9.655  1.00  0.00    -0.271 OA
ENDBRANCH  30  34
ENDBRANCH   4  26
BRANCH   3  37
HETATM   37  N3  UNL     1     -12.907  83.457  14.546  1.00  0.00    -0.072 N 
ATOM     38  H33 UNL     1     -13.129  83.240  15.517  1.00  0.00     0.274 HD
ATOM     39  H32 UNL     1     -12.917  84.475  14.605  1.00  0.00     0.274 HD
ATOM     40  H31 UNL     1     -13.628  83.112  13.913  1.00  0.00     0.274 HD
ENDBRANCH   3  37
TORSDOF 9
ENDMDL
MODEL 3
REMARK VINA RESULT: -7.606149398      2.479      5.918
REMARK  9 active torsions:
REMARK  status: ('A' for Active; 'I' for Inactive)
REMARK    1  A    between atoms: N1_4  and  C4_5 
REMARK    2  A    between atoms: C10_11  and  C11_12 
REMARK    3  A    between atoms: C11_12  and  N2_13 
REMARK    4  A    between atoms: C14_16  and  C15_17 
REMARK    5  A    between atoms: C15_17  and  C16_18 
REMARK    6  A    between atoms: C18_20  and  N3_21 
REMARK    7  A    between atoms: C19_25  and  O1_26 
REMARK    8  A    between atoms: C19_25  and  C20_28 
REMARK    9  A    between atoms: C23_32  and  C24_33 
ROOT
HETATM    1  C16 UNL     1      -5.992  85.379  13.657  1.00  0.00     0.029 C 
HETATM    2  C17 UNL     1      -4.596  85.818  13.959  1.00  0.00     0.044 C 
HETATM    3  C18 UNL     1      -4.439  86.304  12.498  1.00  0.00     0.223 C 
HETATM    4  C19 UNL     1      -5.732  85.653  12.191  1.00  0.00     0.119 C 
ENDROOT
BRANCH   1   5
HETATM    5  C15 UNL     1      -7.048  86.203  14.275  1.00  0.00     0.013 C 
BRANCH   5   6
HETATM    6  C14 UNL     1      -8.286  85.569  14.750  1.00  0.00    -0.008 C 
HETATM    7  C13 UNL     1      -8.478  85.644  16.253  1.00  0.00     0.049 C 
HETATM    8  C12 UNL     1      -9.511  84.605  16.622  1.00  0.00     0.058 C 
HETATM    9  N2  UNL     1     -10.142  83.955  15.546  1.00  0.00    -0.393 N 
HETATM   10  C28 UNL     1     -10.552  84.708  14.424  1.00  0.00     0.122 C 
HETATM   11  C27 UNL     1      -9.578  85.846  14.093  1.00  0.00     0.024 C 
BRANCH   9  12
HETATM   12  C11 UNL     1      -9.945  82.563  15.387  1.00  0.00     0.126 C 
BRANCH  12  13
HETATM   13  C10 UNL     1     -10.257  82.104  13.965  1.00  0.00     0.010 C 
HETATM   14  C2  UNL     1     -11.245  80.974  13.933  1.00  0.00     0.015 C 
HETATM   15  C1  UNL     1     -12.455  81.276  13.110  1.00  0.00     0.012 C 
HETATM   16  C3  UNL     1     -10.627  79.686  13.430  1.00  0.00     0.278 C 
HETATM   17  N1  UNL     1     -10.135  79.839  12.088  1.00  0.00     0.097 N 
HETATM   18  C8  UNL     1      -9.338  81.014  11.948  1.00  0.00     0.274 C 
HETATM   19  C9  UNL     1      -8.990  81.649  13.278  1.00  0.00     0.037 C 
BRANCH  17  20
HETATM   20  C4  UNL     1      -9.482  78.640  11.647  1.00  0.00     0.149 C 
HETATM   21  C5  UNL     1      -9.482  77.564  12.707  1.00  0.00     0.048 C 
HETATM   22  C6  UNL     1      -8.049  78.853  11.212  1.00  0.00     0.048 C 
HETATM   23  C7  UNL     1     -10.202  78.032  10.434  1.00  0.00     0.048 C 
ENDBRANCH  17  20
ENDBRANCH  12  13
ENDBRANCH   9  12
ENDBRANCH   5   6
ENDBRANCH   1   5
BRANCH   4  24
HETATM   24  O1  UNL     1      -6.626  86.608  11.678  1.00  0.00    -0.382 OA
ATOM     25  H1  UNL     1      -6.348  87.493  11.882  1.00  0.00     0.211 HD
ENDBRANCH   4  24
BRANCH   4  26
HETATM   26  C20 UNL     1      -5.732  84.472  11.298  1.00  0.00     0.020 A 
HETATM   27  C21 UNL     1      -4.585  83.959  10.732  1.00  0.00     0.056 A 
HETATM   28  C22 UNL     1      -4.601  82.840   9.889  1.00  0.00     0.132 A 
HETATM   29  F1  UNL     1      -3.422  82.399   9.373  1.00  0.00    -0.205 F 
HETATM   30  C23 UNL     1      -5.789  82.212   9.599  1.00  0.00     0.070 A 
HETATM   31  C25 UNL     1      -6.947  82.701  10.148  1.00  0.00     0.062 A 
HETATM   32  C26 UNL     1      -6.904  83.812  10.982  1.00  0.00     0.127 A 
HETATM   33  F2  UNL     1      -8.093  84.252  11.498  1.00  0.00    -0.205 F 
BRANCH  30  34
HETATM   34  C24 UNL     1      -5.811  81.040   8.717  1.00  0.00     0.268 C 
HETATM   35  N4  UNL     1      -6.353  81.159   7.407  1.00  0.00    -0.057 NA
HETATM   36  O2  UNL     1      -5.366  79.933   9.078  1.00  0.00    -0.271 OA
ENDBRANCH  30  34
ENDBRANCH   4  26
BRANCH   3  37
HETATM   37  N3  UNL     1      -4.456  87.760  12.414  1.00  0.00    -0.072 N 
ATOM     38  H33 UNL     1      -4.117  88.086  11.509  1.00  0.00     0.274 HD
ATOM     39  H32 UNL     1      -5.410  88.120  12.363  1.00  0.00     0.274 HD
ATOM     40  H31 UNL     1      -3.936  88.186  13.181  1.00  0.00     0.274 HD
ENDBRANCH   3  37
TORSDOF 9
ENDMDL
MODEL 4
REMARK VINA RESULT: -7.563254634      3.086      6.643
REMARK  9 active torsions:
REMARK  status: ('A' for Active; 'I' for Inactive)
REMARK    1  A    between atoms: N1_4  and  C4_5 
REMARK    2  A    between atoms: C10_11  and  C11_12 
REMARK    3  A    between atoms: C11_12  and  N2_13 
REMARK    4  A    between atoms: C14_16  and  C15_17 
REMARK    5  A    between atoms: C15_17  and  C16_18 
REMARK    6  A    between atoms: C18_20  and  N3_21 
REMARK    7  A    between atoms: C19_25  and  O1_26 
REMARK    8  A    between atoms: C19_25  and  C20_28 
REMARK    9  A    between atoms: C23_32  and  C24_33 
ROOT
HETATM    1  C16 UNL     1     -11.445  82.261  13.482  1.00  0.00     0.029 C 
HETATM    2  C17 UNL     1     -10.048  82.622  13.871  1.00  0.00     0.044 C 
HETATM    3  C18 UNL     1     -10.406  82.379  15.358  1.00  0.00     0.223 C 
HETATM    4  C19 UNL     1     -11.822  82.251  14.948  1.00  0.00     0.119 C 
ENDROOT
BRANCH   1   5
HETATM    5  C15 UNL     1     -11.579  80.965  12.788  1.00  0.00     0.013 C 
BRANCH   5   6
HETATM    6  C14 UNL     1     -10.379  80.272  12.298  1.00  0.00    -0.008 C 
HETATM    7  C13 UNL     1     -10.055  78.995  13.051  1.00  0.00     0.049 C 
HETATM    8  C12 UNL     1      -8.615  78.653  12.749  1.00  0.00     0.058 C 
HETATM    9  N2  UNL     1      -7.984  79.449  11.775  1.00  0.00    -0.393 N 
HETATM   10  C28 UNL     1      -8.686  79.792  10.599  1.00  0.00     0.122 C 
HETATM   11  C27 UNL     1     -10.179  80.035  10.855  1.00  0.00     0.024 C 
BRANCH   9  12
HETATM   12  C11 UNL     1      -6.889  80.255  12.165  1.00  0.00     0.126 C 
BRANCH  12  13
HETATM   13  C10 UNL     1      -6.895  81.605  11.453  1.00  0.00     0.010 C 
HETATM   14  C2  UNL     1      -5.571  81.923  10.820  1.00  0.00     0.015 C 
HETATM   15  C1  UNL     1      -5.674  82.194   9.354  1.00  0.00     0.012 C 
HETATM   16  C3  UNL     1      -4.888  83.101  11.483  1.00  0.00     0.278 C 
HETATM   17  N1  UNL     1      -5.689  84.290  11.378  1.00  0.00     0.097 N 
HETATM   18  C8  UNL     1      -7.042  84.051  11.764  1.00  0.00     0.274 C 
HETATM   19  C9  UNL     1      -7.232  82.706  12.433  1.00  0.00     0.037 C 
BRANCH  17  20
HETATM   20  C4  UNL     1      -5.072  85.381  12.075  1.00  0.00     0.149 C 
HETATM   21  C5  UNL     1      -6.008  86.552  12.254  1.00  0.00     0.048 C 
HETATM   22  C6  UNL     1      -3.817  85.898  11.405  1.00  0.00     0.048 C 
HETATM   23  C7  UNL     1      -4.647  84.964  13.491  1.00  0.00     0.048 C 
ENDBRANCH  17  20
ENDBRANCH  12  13
ENDBRANCH   9  12
ENDBRANCH   5   6
ENDBRANCH   1   5
BRANCH   4  24
HETATM   24  O1  UNL     1     -12.314  80.997  15.346  1.00  0.00    -0.382 OA
ATOM     25  H1  UNL     1     -12.633  81.015  16.241  1.00  0.00     0.211 HD
ENDBRANCH   4  24
BRANCH   4  26
HETATM   26  C20 UNL     1     -12.778  83.297  15.380  1.00  0.00     0.020 A 
HETATM   27  C21 UNL     1     -12.462  84.266  16.306  1.00  0.00     0.056 A 
HETATM   28  C22 UNL     1     -13.377  85.249  16.705  1.00  0.00     0.132 A 
HETATM   29  F1  UNL     1     -12.982  86.169  17.627  1.00  0.00    -0.205 F 
HETATM   30  C23 UNL     1     -14.643  85.271  16.170  1.00  0.00     0.070 A 
HETATM   31  C25 UNL     1     -14.986  84.318  15.245  1.00  0.00     0.062 A 
HETATM   32  C26 UNL     1     -14.059  83.354  14.865  1.00  0.00     0.127 A 
HETATM   33  F2  UNL     1     -14.462  82.430  13.940  1.00  0.00    -0.205 F 
BRANCH  30  34
HETATM   34  C24 UNL     1     -15.604  86.298  16.584  1.00  0.00     0.268 C 
HETATM   35  N4  UNL     1     -16.452  86.055  17.700  1.00  0.00    -0.057 NA
HETATM   36  O2  UNL     1     -15.706  87.388  15.986  1.00  0.00    -0.271 OA
ENDBRANCH  30  34
ENDBRANCH   4  26
BRANCH   3  37
HETATM   37  N3  UNL     1      -9.805  81.148  15.859  1.00  0.00    -0.072 N 
ATOM     38  H33 UNL     1     -10.320  80.780  16.658  1.00  0.00     0.274 HD
ATOM     39  H32 UNL     1      -9.945  80.373  15.210  1.00  0.00     0.274 HD
ATOM     40  H31 UNL     1      -8.817  81.277  16.079  1.00  0.00     0.274 HD
ENDBRANCH   3  37
TORSDOF 9
ENDMDL
MODEL 5
REMARK VINA RESULT: -7.557328946      3.794      7.012
REMARK  9 active torsions:
REMARK  status: ('A' for Active; 'I' for Inactive)
REMARK    1  A    between atoms: N1_4  and  C4_5 
REMARK    2  A    between atoms: C10_11  and  C11_12 
REMARK    3  A    between atoms: C11_12  and  N2_13 
REMARK    4  A    between atoms: C14_16  and  C15_17 
REMARK    5  A    between atoms: C15_17  and  C16_18 
REMARK    6  A    between atoms: C18_20  and  N3_21 
REMARK    7  A    between atoms: C19_25  and  O1_26 
REMARK    8  A    between atoms: C19_25  and  C20_28 
REMARK    9  A    between atoms: C23_32  and  C24_33 
ROOT
HETATM    1  C16 UNL     1     -11.530  82.266  13.432  1.00  0.00     0.029 C 
HETATM    2  C17 UNL     1     -10.136  82.732  13.695  1.00  0.00     0.044 C 
HETATM    3  C18 UNL     1     -10.371  82.558  15.215  1.00  0.00     0.223 C 
HETATM    4  C19 UNL     1     -11.802  82.321  14.920  1.00  0.00     0.119 C 
ENDROOT
BRANCH   1   5
HETATM    5  C15 UNL     1     -11.630  80.925  12.823  1.00  0.00     0.013 C 
BRANCH   5   6
HETATM    6  C14 UNL     1     -10.417  80.249  12.341  1.00  0.00    -0.008 C 
HETATM    7  C13 UNL     1      -9.978  79.082  13.205  1.00  0.00     0.049 C 
HETATM    8  C12 UNL     1      -8.536  78.789  12.859  1.00  0.00     0.058 C 
HETATM    9  N2  UNL     1      -8.006  79.507  11.772  1.00  0.00    -0.393 N 
HETATM   10  C28 UNL     1      -8.786  79.681  10.608  1.00  0.00     0.122 C 
HETATM   11  C27 UNL     1     -10.276  79.867  10.922  1.00  0.00     0.024 C 
BRANCH   9  12
HETATM   12  C11 UNL     1      -6.944  80.411  12.011  1.00  0.00     0.126 C 
BRANCH  12  13
HETATM   13  C10 UNL     1      -5.591  79.807  11.647  1.00  0.00     0.010 C 
HETATM   14  C2  UNL     1      -5.546  78.324  11.876  1.00  0.00     0.015 C 
HETATM   15  C1  UNL     1      -5.180  77.552  10.650  1.00  0.00     0.012 C 
HETATM   16  C3  UNL     1      -4.592  77.945  12.989  1.00  0.00     0.278 C 
HETATM   17  N1  UNL     1      -3.249  78.352  12.681  1.00  0.00     0.097 N 
HETATM   18  C8  UNL     1      -3.196  79.710  12.244  1.00  0.00     0.274 C 
HETATM   19  C9  UNL     1      -4.498  80.450  12.470  1.00  0.00     0.037 C 
BRANCH  17  20
HETATM   20  C4  UNL     1      -2.366  78.060  13.773  1.00  0.00     0.149 C 
HETATM   21  C5  UNL     1      -1.267  79.085  13.913  1.00  0.00     0.048 C 
HETATM   22  C6  UNL     1      -1.712  76.699  13.678  1.00  0.00     0.048 C 
HETATM   23  C7  UNL     1      -3.120  78.068  15.111  1.00  0.00     0.048 C 
ENDBRANCH  17  20
ENDBRANCH  12  13
ENDBRANCH   9  12
ENDBRANCH   5   6
ENDBRANCH   1   5
BRANCH   4  24
HETATM   24  O1  UNL     1     -12.182  81.065  15.423  1.00  0.00    -0.382 OA
ATOM     25  H1  UNL     1     -13.038  81.098  15.833  1.00  0.00     0.211 HD
ENDBRANCH   4  24
BRANCH   4  26
HETATM   26  C20 UNL     1     -12.788  83.331  15.364  1.00  0.00     0.020 A 
HETATM   27  C21 UNL     1     -12.493  84.320  16.277  1.00  0.00     0.056 A 
HETATM   28  C22 UNL     1     -13.438  85.269  16.687  1.00  0.00     0.132 A 
HETATM   29  F1  UNL     1     -13.061  86.211  17.594  1.00  0.00    -0.205 F 
HETATM   30  C23 UNL     1     -14.714  85.237  16.178  1.00  0.00     0.070 A 
HETATM   31  C25 UNL     1     -15.037  84.264  15.266  1.00  0.00     0.062 A 
HETATM   32  C26 UNL     1     -14.081  83.334  14.875  1.00  0.00     0.127 A 
HETATM   33  F2  UNL     1     -14.465  82.388  13.964  1.00  0.00    -0.205 F 
BRANCH  30  34
HETATM   34  C24 UNL     1     -15.707  86.228  16.603  1.00  0.00     0.268 C 
HETATM   35  N4  UNL     1     -16.330  86.094  17.875  1.00  0.00    -0.057 NA
HETATM   36  O2  UNL     1     -16.027  87.195  15.883  1.00  0.00    -0.271 OA
ENDBRANCH  30  34
ENDBRANCH   4  26
BRANCH   3  37
HETATM   37  N3  UNL     1      -9.658  81.397  15.737  1.00  0.00    -0.072 N 
ATOM     38  H33 UNL     1      -8.653  81.476  15.585  1.00  0.00     0.274 HD
ATOM     39  H32 UNL     1      -9.664  81.383  16.757  1.00  0.00     0.274 HD
ATOM     40  H31 UNL     1     -10.025  80.527  15.350  1.00  0.00     0.274 HD
ENDBRANCH   3  37
TORSDOF 9
ENDMDL
