MODEL 1
REMARK VINA RESULT: -8.145829467      0.000      0.000
REMARK  8 active torsions:
REMARK  status: ('A' for Active; 'I' for Inactive)
REMARK    1  A    between atoms: C5_6  and  C6_7 
REMARK    2  A    between atoms: C12_14  and  C13_15 
REMARK    3  A    between atoms: C13_15  and  N1_16 
REMARK    4  A    between atoms: N1_16  and  C14_18 
REMARK    5  A    between atoms: C14_18  and  C15_19 
REMARK    6  A    between atoms: C15_19  and  O2_20 
REMARK    7  A    between atoms: C15_19  and  C16_22 
REMARK    8  A    between atoms: C22_31  and  C24_33 
ROOT
HETATM    1  C1  UNL     1      -7.482  84.234  12.463  1.00  0.00     0.031 C 
HETATM    2  C2  UNL     1      -8.758  83.426  12.422  1.00  0.00     0.138 C 
HETATM    3  S1  UNL     1      -9.937  84.093  13.661  1.00  0.00    -0.122 SA
HETATM    4  C3  UNL     1      -9.968  82.644  14.791  1.00  0.00     0.101 C 
HETATM    5  C4  UNL     1      -9.623  83.084  16.193  1.00  0.00     0.076 C 
HETATM    6  C5  UNL     1     -10.772  83.710  16.898  1.00  0.00     0.129 C 
HETATM    7  O1  UNL     1     -11.987  83.172  16.678  1.00  0.00    -0.377 OA
HETATM    8  C12 UNL     1     -12.357  82.623  15.516  1.00  0.00     0.156 C 
HETATM    9  C22 UNL     1     -11.280  81.954  14.758  1.00  0.00     0.078 C 
HETATM   10  C23 UNL     1     -11.079  80.610  15.503  1.00  0.00     0.027 C 
HETATM   11  N3  UNL     1      -8.836  81.910  14.308  1.00  0.00    -0.336 N 
HETATM   12  C25 UNL     1      -7.944  81.074  15.138  1.00  0.00     0.154 C 
HETATM   13  C26 UNL     1      -8.602  82.045  12.930  1.00  0.00     0.234 C 
HETATM   14  O3  UNL     1      -8.285  81.092  12.167  1.00  0.00    -0.272 OA
ENDROOT
BRANCH   8  15
HETATM   15  C13 UNL     1     -13.199  83.634  14.754  1.00  0.00     0.151 C 
BRANCH  15  16
HETATM   16  N1  UNL     1     -14.446  83.659  15.451  1.00  0.00    -0.397 N 
ATOM     17  H1  UNL     1     -14.845  82.789  15.804  1.00  0.00     0.158 HD
BRANCH  16  18
HETATM   18  C14 UNL     1     -15.128  84.866  15.654  1.00  0.00     0.089 C 
BRANCH  18  19
HETATM   19  C15 UNL     1     -14.669  85.724  16.774  1.00  0.00     0.187 C 
BRANCH  19  20
HETATM   20  O2  UNL     1     -14.044  85.005  17.766  1.00  0.00    -0.388 OA
ATOM     21  H2  UNL     1     -14.465  85.110  18.612  1.00  0.00     0.210 HD
ENDBRANCH  19  20
BRANCH  19  22
HETATM   22  C16 UNL     1     -15.788  86.520  17.383  1.00  0.00     0.223 C 
HETATM   23  N2  UNL     1     -15.584  86.871  18.752  1.00  0.00    -0.067 N 
HETATM   24  C17 UNL     1     -15.228  88.270  18.927  1.00  0.00     0.237 C 
ATOM     25  H22 UNL     1     -16.398  86.627  19.316  1.00  0.00     0.277 HD
ATOM     26  H21 UNL     1     -14.893  86.260  19.187  1.00  0.00     0.277 HD
HETATM   27  C18 UNL     1     -15.895  89.158  17.934  1.00  0.00     0.012 C 
HETATM   28  C19 UNL     1     -17.191  88.501  17.432  1.00  0.00     0.013 C 
HETATM   29  C21 UNL     1     -15.364  88.851  16.526  1.00  0.00     0.013 C 
HETATM   30  C20 UNL     1     -16.272  87.656  16.533  1.00  0.00     0.020 C 
ENDBRANCH  19  22
ENDBRANCH  18  19
ENDBRANCH  16  18
ENDBRANCH  15  16
ENDBRANCH   8  15
BRANCH   9  31
HETATM   31  C24 UNL     1     -11.676  81.494  13.376  1.00  0.00     0.367 C 
HETATM   32  F1  UNL     1     -13.002  81.420  13.136  1.00  0.00    -0.213 F 
HETATM   33  F2  UNL     1     -11.145  80.210  13.226  1.00  0.00    -0.213 F 
ENDBRANCH   9  31
BRANCH   6  34
HETATM   34  C6  UNL     1     -10.559  83.580  18.423  1.00  0.00     0.015 C 
HETATM   35  C7  UNL     1      -9.364  82.644  18.544  1.00  0.00     0.007 C 
HETATM   36  C8  UNL     1      -8.903  82.721  19.984  1.00  0.00     0.000 C 
HETATM   37  C9  UNL     1     -10.039  82.327  20.867  1.00  0.00     0.000 C 
HETATM   38  C10 UNL     1     -11.287  81.951  20.147  1.00  0.00     0.000 C 
HETATM   39  C11 UNL     1     -11.721  82.957  19.113  1.00  0.00     0.007 C 
ENDBRANCH   6  34
TORSDOF 8
ENDMDL
MODEL 2
REMARK VINA RESULT: -8.038114704      2.566      4.105
REMARK  8 active torsions:
REMARK  status: ('A' for Active; 'I' for Inactive)
REMARK    1  A    between atoms: C5_6  and  C6_7 
REMARK    2  A    between atoms: C12_14  and  C13_15 
REMARK    3  A    between atoms: C13_15  and  N1_16 
REMARK    4  A    between atoms: N1_16  and  C14_18 
REMARK    5  A    between atoms: C14_18  and  C15_19 
REMARK    6  A    between atoms: C15_19  and  O2_20 
REMARK    7  A    between atoms: C15_19  and  C16_22 
REMARK    8  A    between atoms: C22_31  and  C24_33 
ROOT
HETATM    1  C1  UNL     1      -9.763  78.922  10.318  1.00  0.00     0.031 C 
HETATM    2  C2  UNL     1      -9.966  78.900  11.815  1.00  0.00     0.138 C 
HETATM    3  S1  UNL     1     -10.771  80.465  12.339  1.00  0.00    -0.122 SA
HETATM    4  C3  UNL     1      -9.375  81.156  13.315  1.00  0.00     0.101 C 
HETATM    5  C4  UNL     1      -9.035  82.537  12.811  1.00  0.00     0.076 C 
HETATM    6  C5  UNL     1      -9.964  83.580  13.322  1.00  0.00     0.129 C 
HETATM    7  O1  UNL     1     -10.383  83.450  14.596  1.00  0.00    -0.377 OA
HETATM    8  C12 UNL     1     -10.581  82.271  15.195  1.00  0.00     0.156 C 
HETATM    9  C22 UNL     1      -9.684  81.180  14.766  1.00  0.00     0.078 C 
HETATM   10  C23 UNL     1      -8.347  81.492  15.485  1.00  0.00     0.027 C 
HETATM   11  N3  UNL     1      -8.308  80.297  12.893  1.00  0.00    -0.336 N 
HETATM   12  C25 UNL     1      -6.893  80.700  12.759  1.00  0.00     0.154 C 
HETATM   13  C26 UNL     1      -8.706  78.986  12.585  1.00  0.00     0.234 C 
HETATM   14  O3  UNL     1      -8.065  77.953  12.923  1.00  0.00    -0.272 OA
ENDROOT
BRANCH   8  15
HETATM   15  C13 UNL     1     -12.072  81.971  15.182  1.00  0.00     0.151 C 
BRANCH  15  16
HETATM   16  N1  UNL     1     -12.631  82.889  16.124  1.00  0.00    -0.397 N 
ATOM     17  H1  UNL     1     -12.402  82.799  17.114  1.00  0.00     0.158 HD
BRANCH  16  18
HETATM   18  C14 UNL     1     -13.490  83.912  15.701  1.00  0.00     0.089 C 
BRANCH  18  19
HETATM   19  C15 UNL     1     -13.158  85.295  16.123  1.00  0.00     0.187 C 
BRANCH  19  20
HETATM   20  O2  UNL     1     -11.891  85.395  16.652  1.00  0.00    -0.388 OA
ATOM     21  H2  UNL     1     -11.900  85.628  17.573  1.00  0.00     0.210 HD
ENDBRANCH  19  20
BRANCH  19  22
HETATM   22  C16 UNL     1     -14.142  85.844  17.116  1.00  0.00     0.223 C 
HETATM   23  N2  UNL     1     -13.965  87.228  17.419  1.00  0.00    -0.067 N 
HETATM   24  C17 UNL     1     -14.964  88.075  16.787  1.00  0.00     0.237 C 
ATOM     25  H22 UNL     1     -13.940  87.381  18.428  1.00  0.00     0.277 HD
ATOM     26  H21 UNL     1     -13.022  87.536  17.182  1.00  0.00     0.277 HD
HETATM   27  C18 UNL     1     -16.294  87.412  16.688  1.00  0.00     0.012 C 
HETATM   28  C19 UNL     1     -16.426  86.337  17.778  1.00  0.00     0.013 C 
HETATM   29  C21 UNL     1     -16.208  86.220  15.725  1.00  0.00     0.013 C 
HETATM   30  C20 UNL     1     -15.568  85.462  16.849  1.00  0.00     0.020 C 
ENDBRANCH  19  22
ENDBRANCH  18  19
ENDBRANCH  16  18
ENDBRANCH  15  16
ENDBRANCH   8  15
BRANCH   9  31
HETATM   31  C24 UNL     1     -10.034  79.822  15.323  1.00  0.00     0.367 C 
HETATM   32  F1  UNL     1     -10.900  79.813  16.357  1.00  0.00    -0.213 F 
HETATM   33  F2  UNL     1      -8.833  79.263  15.770  1.00  0.00    -0.213 F 
ENDBRANCH   9  31
BRANCH   6  34
HETATM   34  C6  UNL     1      -9.250  84.951  13.285  1.00  0.00     0.015 C 
HETATM   35  C7  UNL     1      -8.055  84.713  12.373  1.00  0.00     0.007 C 
HETATM   36  C8  UNL     1      -7.492  86.078  12.038  1.00  0.00     0.000 C 
HETATM   37  C9  UNL     1      -7.123  86.763  13.311  1.00  0.00     0.000 C 
HETATM   38  C10 UNL     1      -7.368  85.964  14.543  1.00  0.00     0.000 C 
HETATM   39  C11 UNL     1      -8.750  85.373  14.621  1.00  0.00     0.007 C 
ENDBRANCH   6  34
TORSDOF 8
ENDMDL
MODEL 3
REMARK VINA RESULT: -7.903544494      2.371      4.348
REMARK  8 active torsions:
REMARK  status: ('A' for Active; 'I' for Inactive)
REMARK    1  A    between atoms: C5_6  and  C6_7 
REMARK    2  A    between atoms: C12_14  and  C13_15 
REMARK    3  A    between atoms: C13_15  and  N1_16 
REMARK    4  A    between atoms: N1_16  and  C14_18 
REMARK    5  A    between atoms: C14_18  and  C15_19 
REMARK    6  A    between atoms: C15_19  and  O2_20 
REMARK    7  A    between atoms: C15_19  and  C16_22 
REMARK    8  A    between atoms: C22_31  and  C24_33 
ROOT
HETATM    1  C1  UNL     1      -9.573  78.392  14.322  1.00  0.00     0.031 C 
HETATM    2  C2  UNL     1     -10.012  79.188  15.529  1.00  0.00     0.138 C 
HETATM    3  S1  UNL     1     -10.856  80.719  14.969  1.00  0.00    -0.122 SA
HETATM    4  C3  UNL     1      -9.619  81.932  15.584  1.00  0.00     0.101 C 
HETATM    5  C4  UNL     1      -9.174  82.824  14.450  1.00  0.00     0.076 C 
HETATM    6  C5  UNL     1     -10.150  83.906  14.154  1.00  0.00     0.129 C 
HETATM    7  O1  UNL     1     -10.768  84.473  15.207  1.00  0.00    -0.377 OA
HETATM    8  C12 UNL     1     -11.085  83.812  16.326  1.00  0.00     0.156 C 
HETATM    9  C22 UNL     1     -10.154  82.732  16.712  1.00  0.00     0.078 C 
HETATM   10  C23 UNL     1      -8.943  83.484  17.318  1.00  0.00     0.027 C 
HETATM   11  N3  UNL     1      -8.517  81.061  15.870  1.00  0.00    -0.336 N 
HETATM   12  C25 UNL     1      -7.090  81.422  15.740  1.00  0.00     0.154 C 
HETATM   13  C26 UNL     1      -8.889  79.775  16.292  1.00  0.00     0.234 C 
HETATM   14  O3  UNL     1      -8.332  79.150  17.236  1.00  0.00    -0.272 OA
ENDROOT
BRANCH   8  15
HETATM   15  C13 UNL     1     -12.560  83.449  16.268  1.00  0.00     0.151 C 
BRANCH  15  16
HETATM   16  N1  UNL     1     -13.241  84.667  16.581  1.00  0.00    -0.397 N 
ATOM     17  H1  UNL     1     -13.804  85.128  15.867  1.00  0.00     0.158 HD
BRANCH  16  18
HETATM   18  C14 UNL     1     -13.141  85.232  17.860  1.00  0.00     0.089 C 
BRANCH  18  19
HETATM   19  C15 UNL     1     -14.362  85.862  18.420  1.00  0.00     0.187 C 
BRANCH  19  20
HETATM   20  O2  UNL     1     -15.150  84.966  19.105  1.00  0.00    -0.388 OA
ATOM     21  H2  UNL     1     -15.839  85.393  19.601  1.00  0.00     0.210 HD
ENDBRANCH  19  20
BRANCH  19  22
HETATM   22  C16 UNL     1     -15.197  86.534  17.366  1.00  0.00     0.223 C 
HETATM   23  N2  UNL     1     -16.600  86.307  17.492  1.00  0.00    -0.067 N 
HETATM   24  C17 UNL     1     -17.313  87.462  18.014  1.00  0.00     0.237 C 
ATOM     25  H22 UNL     1     -17.001  85.998  16.606  1.00  0.00     0.277 HD
ATOM     26  H21 UNL     1     -16.787  85.477  18.056  1.00  0.00     0.277 HD
HETATM   27  C18 UNL     1     -16.719  88.751  17.561  1.00  0.00     0.012 C 
HETATM   28  C19 UNL     1     -15.963  88.544  16.239  1.00  0.00     0.013 C 
HETATM   29  C21 UNL     1     -15.319  88.918  18.169  1.00  0.00     0.013 C 
HETATM   30  C20 UNL     1     -14.836  87.968  17.115  1.00  0.00     0.020 C 
ENDBRANCH  19  22
ENDBRANCH  18  19
ENDBRANCH  16  18
ENDBRANCH  15  16
ENDBRANCH   8  15
BRANCH   9  31
HETATM   31  C24 UNL     1     -10.617  81.888  17.874  1.00  0.00     0.367 C 
HETATM   32  F1  UNL     1     -11.612  82.408  18.622  1.00  0.00    -0.213 F 
HETATM   33  F2  UNL     1      -9.504  81.723  18.703  1.00  0.00    -0.213 F 
ENDBRANCH   9  31
BRANCH   6  34
HETATM   34  C6  UNL     1      -9.410  85.074  13.461  1.00  0.00     0.015 C 
HETATM   35  C7  UNL     1      -8.343  84.382  12.624  1.00  0.00     0.007 C 
HETATM   36  C8  UNL     1      -7.790  85.431  11.683  1.00  0.00     0.000 C 
HETATM   37  C9  UNL     1      -7.249  86.559  12.495  1.00  0.00     0.000 C 
HETATM   38  C10 UNL     1      -7.360  86.376  13.969  1.00  0.00     0.000 C 
HETATM   39  C11 UNL     1      -8.737  85.981  14.431  1.00  0.00     0.007 C 
ENDBRANCH   6  34
TORSDOF 8
ENDMDL
MODEL 4
REMARK VINA RESULT: -7.873895111      2.428      4.351
REMARK  8 active torsions:
REMARK  status: ('A' for Active; 'I' for Inactive)
REMARK    1  A    between atoms: C5_6  and  C6_7 
REMARK    2  A    between atoms: C12_14  and  C13_15 
REMARK    3  A    between atoms: C13_15  and  N1_16 
REMARK    4  A    between atoms: N1_16  and  C14_18 
REMARK    5  A    between atoms: C14_18  and  C15_19 
REMARK    6  A    between atoms: C15_19  and  O2_20 
REMARK    7  A    between atoms: C15_19  and  C16_22 
REMARK    8  A    between atoms: C22_31  and  C24_33 
ROOT
HETATM    1  C1  UNL     1      -9.610  78.429  14.372  1.00  0.00     0.031 C 
HETATM    2  C2  UNL     1     -10.064  79.257  15.552  1.00  0.00     0.138 C 
HETATM    3  S1  UNL     1     -10.898  80.774  14.939  1.00  0.00    -0.122 SA
HETATM    4  C3  UNL     1      -9.667  82.001  15.538  1.00  0.00     0.101 C 
HETATM    5  C4  UNL     1      -9.205  82.862  14.388  1.00  0.00     0.076 C 
HETATM    6  C5  UNL     1     -10.175  83.937  14.049  1.00  0.00     0.129 C 
HETATM    7  O1  UNL     1     -10.807  84.533  15.078  1.00  0.00    -0.377 OA
HETATM    8  C12 UNL     1     -11.140  83.902  16.210  1.00  0.00     0.156 C 
HETATM    9  C22 UNL     1     -10.216  82.832  16.637  1.00  0.00     0.078 C 
HETATM   10  C23 UNL     1      -9.012  83.598  17.240  1.00  0.00     0.027 C 
HETATM   11  N3  UNL     1      -8.571  81.137  15.863  1.00  0.00    -0.336 N 
HETATM   12  C25 UNL     1      -7.142  81.492  15.743  1.00  0.00     0.154 C 
HETATM   13  C26 UNL     1      -8.951  79.863  16.314  1.00  0.00     0.234 C 
HETATM   14  O3  UNL     1      -8.409  79.262  17.282  1.00  0.00    -0.272 OA
ENDROOT
BRANCH   8  15
HETATM   15  C13 UNL     1     -12.615  83.540  16.141  1.00  0.00     0.151 C 
BRANCH  15  16
HETATM   16  N1  UNL     1     -13.297  84.755  16.461  1.00  0.00    -0.397 N 
ATOM     17  H1  UNL     1     -14.113  85.034  15.917  1.00  0.00     0.158 HD
BRANCH  16  18
HETATM   18  C14 UNL     1     -12.855  85.567  17.515  1.00  0.00     0.089 C 
BRANCH  18  19
HETATM   19  C15 UNL     1     -13.380  86.953  17.569  1.00  0.00     0.187 C 
BRANCH  19  20
HETATM   20  O2  UNL     1     -12.551  87.803  18.265  1.00  0.00    -0.388 OA
ATOM     21  H2  UNL     1     -12.739  88.718  18.091  1.00  0.00     0.210 HD
ENDBRANCH  19  20
BRANCH  19  22
HETATM   22  C16 UNL     1     -14.757  87.023  18.166  1.00  0.00     0.223 C 
HETATM   23  N2  UNL     1     -14.867  87.891  19.294  1.00  0.00    -0.067 N 
HETATM   24  C17 UNL     1     -15.536  89.143  18.978  1.00  0.00     0.237 C 
ATOM     25  H22 UNL     1     -15.323  87.419  20.075  1.00  0.00     0.277 HD
ATOM     26  H21 UNL     1     -13.953  88.061  19.715  1.00  0.00     0.277 HD
HETATM   27  C18 UNL     1     -16.605  88.976  17.953  1.00  0.00     0.012 C 
HETATM   28  C19 UNL     1     -17.123  87.529  17.968  1.00  0.00     0.013 C 
HETATM   29  C21 UNL     1     -15.975  88.584  16.609  1.00  0.00     0.013 C 
HETATM   30  C20 UNL     1     -15.857  87.195  17.161  1.00  0.00     0.020 C 
ENDBRANCH  19  22
ENDBRANCH  18  19
ENDBRANCH  16  18
ENDBRANCH  15  16
ENDBRANCH   8  15
BRANCH   9  31
HETATM   31  C24 UNL     1     -10.697  82.020  17.815  1.00  0.00     0.367 C 
HETATM   32  F1  UNL     1     -11.711  82.554  18.526  1.00  0.00    -0.213 F 
HETATM   33  F2  UNL     1      -9.600  81.890  18.671  1.00  0.00    -0.213 F 
ENDBRANCH   9  31
BRANCH   6  34
HETATM   34  C6  UNL     1      -9.423  85.085  13.336  1.00  0.00     0.015 C 
HETATM   35  C7  UNL     1      -8.284  84.380  12.614  1.00  0.00     0.007 C 
HETATM   36  C8  UNL     1      -7.699  85.388  11.648  1.00  0.00     0.000 C 
HETATM   37  C9  UNL     1      -7.245  86.579  12.424  1.00  0.00     0.000 C 
HETATM   38  C10 UNL     1      -7.450  86.480  13.895  1.00  0.00     0.000 C 
HETATM   39  C11 UNL     1      -8.843  86.069  14.290  1.00  0.00     0.007 C 
ENDBRANCH   6  34
TORSDOF 8
ENDMDL
MODEL 5
REMARK VINA RESULT: -7.820861000      1.157      1.774
REMARK  8 active torsions:
REMARK  status: ('A' for Active; 'I' for Inactive)
REMARK    1  A    between atoms: C5_6  and  C6_7 
REMARK    2  A    between atoms: C12_14  and  C13_15 
REMARK    3  A    between atoms: C13_15  and  N1_16 
REMARK    4  A    between atoms: N1_16  and  C14_18 
REMARK    5  A    between atoms: C14_18  and  C15_19 
REMARK    6  A    between atoms: C15_19  and  O2_20 
REMARK    7  A    between atoms: C15_19  and  C16_22 
REMARK    8  A    between atoms: C22_31  and  C24_33 
ROOT
HETATM    1  C1  UNL     1      -7.320  83.978  12.316  1.00  0.00     0.031 C 
HETATM    2  C2  UNL     1      -8.621  83.211  12.301  1.00  0.00     0.138 C 
HETATM    3  S1  UNL     1      -9.756  83.922  13.557  1.00  0.00    -0.122 SA
HETATM    4  C3  UNL     1      -9.814  82.479  14.694  1.00  0.00     0.101 C 
HETATM    5  C4  UNL     1      -9.430  82.915  16.088  1.00  0.00     0.076 C 
HETATM    6  C5  UNL     1     -10.547  83.581  16.809  1.00  0.00     0.129 C 
HETATM    7  O1  UNL     1     -11.782  83.080  16.613  1.00  0.00    -0.377 OA
HETATM    8  C12 UNL     1     -12.189  82.538  15.461  1.00  0.00     0.156 C 
HETATM    9  C22 UNL     1     -11.148  81.832  14.687  1.00  0.00     0.078 C 
HETATM   10  C23 UNL     1     -10.977  80.486  15.436  1.00  0.00     0.027 C 
HETATM   11  N3  UNL     1      -8.714  81.707  14.195  1.00  0.00    -0.336 N 
HETATM   12  C25 UNL     1      -7.836  80.847  15.015  1.00  0.00     0.154 C 
HETATM   13  C26 UNL     1      -8.500  81.829  12.813  1.00  0.00     0.234 C 
HETATM   14  O3  UNL     1      -8.227  80.862  12.050  1.00  0.00    -0.272 OA
ENDROOT
BRANCH   8  15
HETATM   15  C13 UNL     1     -13.012  83.571  14.707  1.00  0.00     0.151 C 
BRANCH  15  16
HETATM   16  N1  UNL     1     -14.310  83.497  15.301  1.00  0.00    -0.397 N 
ATOM     17  H1  UNL     1     -14.602  82.640  15.770  1.00  0.00     0.158 HD
BRANCH  16  18
HETATM   18  C14 UNL     1     -15.186  84.589  15.244  1.00  0.00     0.089 C 
BRANCH  18  19
HETATM   19  C15 UNL     1     -15.479  85.291  16.518  1.00  0.00     0.187 C 
BRANCH  19  20
HETATM   20  O2  UNL     1     -16.734  85.855  16.531  1.00  0.00    -0.388 OA
ATOM     21  H2  UNL     1     -16.726  86.766  16.261  1.00  0.00     0.210 HD
ENDBRANCH  19  20
BRANCH  19  22
HETATM   22  C16 UNL     1     -14.466  86.354  16.834  1.00  0.00     0.223 C 
HETATM   23  N2  UNL     1     -15.021  87.653  17.041  1.00  0.00    -0.067 N 
HETATM   24  C17 UNL     1     -15.049  88.035  18.444  1.00  0.00     0.237 C 
ATOM     25  H22 UNL     1     -14.532  88.352  16.482  1.00  0.00     0.277 HD
ATOM     26  H21 UNL     1     -15.948  87.726  16.624  1.00  0.00     0.277 HD
HETATM   27  C18 UNL     1     -13.887  87.498  19.206  1.00  0.00     0.012 C 
HETATM   28  C19 UNL     1     -12.709  87.244  18.254  1.00  0.00     0.013 C 
HETATM   29  C21 UNL     1     -13.976  85.967  19.274  1.00  0.00     0.013 C 
HETATM   30  C20 UNL     1     -13.456  85.955  17.868  1.00  0.00     0.020 C 
ENDBRANCH  19  22
ENDBRANCH  18  19
ENDBRANCH  16  18
ENDBRANCH  15  16
ENDBRANCH   8  15
BRANCH   9  31
HETATM   31  C24 UNL     1     -11.582  81.378  13.315  1.00  0.00     0.367 C 
HETATM   32  F1  UNL     1     -12.913  81.357  13.094  1.00  0.00    -0.213 F 
HETATM   33  F2  UNL     1     -11.107  80.072  13.168  1.00  0.00    -0.213 F 
ENDBRANCH   9  31
BRANCH   6  34
HETATM   34  C6  UNL     1     -10.311  83.451  18.331  1.00  0.00     0.015 C 
HETATM   35  C7  UNL     1     -11.676  83.054  18.877  1.00  0.00     0.007 C 
HETATM   36  C8  UNL     1     -11.452  82.604  20.306  1.00  0.00     0.000 C 
HETATM   37  C9  UNL     1     -10.829  83.728  21.064  1.00  0.00     0.000 C 
HETATM   38  C10 UNL     1     -10.608  84.969  20.271  1.00  0.00     0.000 C 
HETATM   39  C11 UNL     1      -9.906  84.737  18.960  1.00  0.00     0.007 C 
ENDBRANCH   6  34
TORSDOF 8
ENDMDL
