MODEL 1
REMARK VINA RESULT: -7.631953625      0.000      0.000
REMARK  11 active torsions:
REMARK  status: ('A' for Active; 'I' for Inactive)
REMARK    1  A    between atoms: C2_2  and  N1_4 
REMARK    2  A    between atoms: C2_2  and  C4_8 
REMARK    3  A    between atoms: C5_9  and  C6_10 
REMARK    4  A    between atoms: C10_15  and  O1_16 
REMARK    5  A    between atoms: O1_16  and  C11_17 
REMARK    6  A    between atoms: N2_20  and  C14_21 
REMARK    7  A    between atoms: C14_21  and  C17_24 
REMARK    8  A    between atoms: C19_27  and  C20_28 
REMARK    9  A    between atoms: C20_28  and  N4_29 
REMARK   10  A    between atoms: C20_28  and  C21_33 
REMARK   11  A    between atoms: C21_33  and  N5_34 
ROOT
HETATM    1  C17 UNL     1      -9.701  79.082  12.839  1.00  0.00     0.058 C 
HETATM    2  C18 UNL     1      -9.555  77.877  13.649  1.00  0.00     0.097 C 
HETATM    3  N3  UNL     1      -9.417  76.908  14.281  1.00  0.00    -0.192 NA
HETATM    4  C19 UNL     1      -9.518  78.965  11.557  1.00  0.00     0.028 C 
ENDROOT
BRANCH   1   5
HETATM    5  C14 UNL     1     -10.055  80.373  13.431  1.00  0.00     0.189 C 
HETATM    6  C15 UNL     1     -11.461  80.744  13.016  1.00  0.00     0.055 C 
HETATM    7  C16 UNL     1      -9.109  81.404  12.853  1.00  0.00     0.055 C 
BRANCH   5   8
HETATM    8  N2  UNL     1     -10.053  80.360  14.876  1.00  0.00     0.105 N 
HETATM    9  C13 UNL     1      -8.847  80.788  15.495  1.00  0.00     0.276 C 
HETATM   10  C12 UNL     1      -9.235  80.986  16.939  1.00  0.00     0.064 C 
HETATM   11  C11 UNL     1     -10.645  81.522  16.842  1.00  0.00     0.159 C 
HETATM   12  C22 UNL     1     -11.004  81.340  15.373  1.00  0.00     0.306 C 
BRANCH  11  13
HETATM   13  O1  UNL     1     -10.605  82.851  17.247  1.00  0.00    -0.343 OA
BRANCH  13  14
HETATM   14  C10 UNL     1     -11.315  83.479  18.228  1.00  0.00     0.088 A 
HETATM   15  C9  UNL     1     -11.070  83.217  19.552  1.00  0.00     0.040 A 
HETATM   16  C8  UNL     1     -11.803  83.869  20.518  1.00  0.00     0.028 A 
HETATM   17  C7  UNL     1     -12.773  84.777  20.162  1.00  0.00     0.054 A 
HETATM   18  C6  UNL     1     -13.031  85.050  18.827  1.00  0.00     0.059 A 
HETATM   19 CL1  UNL     1     -13.698  85.598  21.412  1.00  0.00    -0.083 Cl
HETATM   20  C23 UNL     1     -12.289  84.389  17.873  1.00  0.00     0.064 A 
HETATM   21 BR1  UNL     1     -12.664  84.776  16.036  1.00  0.00    -0.046 Br
BRANCH  18  22
HETATM   22  C5  UNL     1     -14.057  86.014  18.499  1.00  0.00    -0.061 C 
HETATM   23  C4  UNL     1     -14.897  86.836  18.229  1.00  0.00    -0.062 C 
BRANCH  23  24
HETATM   24  C2  UNL     1     -15.892  87.845  17.915  1.00  0.00     0.179 C 
HETATM   25  C1  UNL     1     -15.678  89.124  18.663  1.00  0.00     0.060 C 
HETATM   26  C3  UNL     1     -15.873  88.174  16.420  1.00  0.00     0.060 C 
BRANCH  24  27
HETATM   27  N1  UNL     1     -17.201  87.297  18.182  1.00  0.00    -0.060 N 
ATOM     28  H13 UNL     1     -17.834  87.436  17.394  1.00  0.00     0.276 HD
ATOM     29  H12 UNL     1     -17.186  86.276  18.192  1.00  0.00     0.276 HD
ATOM     30  H11 UNL     1     -17.590  87.675  19.046  1.00  0.00     0.276 HD
ENDBRANCH  24  27
ENDBRANCH  23  24
ENDBRANCH  18  22
ENDBRANCH  13  14
ENDBRANCH  11  13
ENDBRANCH   5   8
ENDBRANCH   1   5
BRANCH   4  31
HETATM   31  C20 UNL     1      -9.160  77.657  10.968  1.00  0.00     0.232 C 
BRANCH  31  32
HETATM   32  N4  UNL     1      -7.734  77.434  10.915  1.00  0.00    -0.070 N 
ATOM     33  H43 UNL     1      -7.223  78.298  11.094  1.00  0.00     0.275 HD
ATOM     34  H42 UNL     1      -7.422  76.886  11.717  1.00  0.00     0.275 HD
ATOM     35  H41 UNL     1      -7.430  77.005  10.041  1.00  0.00     0.275 HD
ENDBRANCH  31  32
BRANCH  31  36
HETATM   36  C21 UNL     1      -9.805  77.536   9.604  1.00  0.00     0.266 C 
BRANCH  36  37
HETATM   37  N5  UNL     1     -11.053  76.802   9.744  1.00  0.00    -0.077 N 
ATOM     38  H53 UNL     1     -11.066  76.209  10.574  1.00  0.00     0.274 HD
ATOM     39  H52 UNL     1     -11.836  77.406   9.990  1.00  0.00     0.274 HD
ATOM     40  H51 UNL     1     -11.220  76.277   8.886  1.00  0.00     0.274 HD
ENDBRANCH  36  37
ENDBRANCH  31  36
ENDBRANCH   4  31
TORSDOF 11
ENDMDL
MODEL 2
REMARK VINA RESULT: -7.446148945      2.160      2.664
REMARK  11 active torsions:
REMARK  status: ('A' for Active; 'I' for Inactive)
REMARK    1  A    between atoms: C2_2  and  N1_4 
REMARK    2  A    between atoms: C2_2  and  C4_8 
REMARK    3  A    between atoms: C5_9  and  C6_10 
REMARK    4  A    between atoms: C10_15  and  O1_16 
REMARK    5  A    between atoms: O1_16  and  C11_17 
REMARK    6  A    between atoms: N2_20  and  C14_21 
REMARK    7  A    between atoms: C14_21  and  C17_24 
REMARK    8  A    between atoms: C19_27  and  C20_28 
REMARK    9  A    between atoms: C20_28  and  N4_29 
REMARK   10  A    between atoms: C20_28  and  C21_33 
REMARK   11  A    between atoms: C21_33  and  N5_34 
ROOT
HETATM    1  C17 UNL     1      -8.698  78.980  13.003  1.00  0.00     0.058 C 
HETATM    2  C18 UNL     1      -9.200  77.838  13.760  1.00  0.00     0.097 C 
HETATM    3  N3  UNL     1      -9.586  76.911  14.350  1.00  0.00    -0.192 NA
HETATM    4  C19 UNL     1      -8.610  78.847  11.712  1.00  0.00     0.028 C 
ENDROOT
BRANCH   1   5
HETATM    5  C14 UNL     1      -8.321  80.235  13.654  1.00  0.00     0.189 C 
HETATM    6  C15 UNL     1      -8.697  81.395  12.759  1.00  0.00     0.055 C 
HETATM    7  C16 UNL     1      -6.815  80.228  13.802  1.00  0.00     0.055 C 
BRANCH   5   8
HETATM    8  N2  UNL     1      -9.005  80.457  14.908  1.00  0.00     0.105 N 
HETATM    9  C13 UNL     1      -8.375  81.365  15.802  1.00  0.00     0.276 C 
HETATM   10  C12 UNL     1      -9.436  81.648  16.834  1.00  0.00     0.064 C 
HETATM   11  C11 UNL     1     -10.711  81.647  16.020  1.00  0.00     0.159 C 
HETATM   12  C22 UNL     1     -10.273  81.120  14.660  1.00  0.00     0.306 C 
BRANCH  11  13
HETATM   13  O1  UNL     1     -11.175  82.957  15.989  1.00  0.00    -0.343 OA
BRANCH  13  14
HETATM   14  C10 UNL     1     -12.425  83.427  15.709  1.00  0.00     0.088 A 
HETATM   15  C9  UNL     1     -13.184  82.860  14.717  1.00  0.00     0.040 A 
HETATM   16  C8  UNL     1     -14.443  83.356  14.461  1.00  0.00     0.028 A 
HETATM   17  C7  UNL     1     -14.937  84.411  15.192  1.00  0.00     0.054 A 
HETATM   18  C6  UNL     1     -14.180  84.993  16.197  1.00  0.00     0.059 A 
HETATM   19 CL1  UNL     1     -16.548  85.029  14.847  1.00  0.00    -0.083 Cl
HETATM   20  C23 UNL     1     -12.923  84.485  16.440  1.00  0.00     0.064 A 
HETATM   21 BR1  UNL     1     -11.890  85.307  17.827  1.00  0.00    -0.046 Br
BRANCH  18  22
HETATM   22  C5  UNL     1     -14.742  86.097  16.942  1.00  0.00    -0.061 C 
HETATM   23  C4  UNL     1     -15.219  87.026  17.544  1.00  0.00    -0.062 C 
BRANCH  23  24
HETATM   24  C2  UNL     1     -15.802  88.156  18.245  1.00  0.00     0.179 C 
HETATM   25  C1  UNL     1     -15.516  89.465  17.575  1.00  0.00     0.060 C 
HETATM   26  C3  UNL     1     -17.323  88.008  18.338  1.00  0.00     0.060 C 
BRANCH  24  27
HETATM   27  N1  UNL     1     -15.320  88.150  19.606  1.00  0.00    -0.060 N 
ATOM     28  H13 UNL     1     -14.597  87.443  19.744  1.00  0.00     0.276 HD
ATOM     29  H12 UNL     1     -14.766  88.982  19.812  1.00  0.00     0.276 HD
ATOM     30  H11 UNL     1     -16.087  88.037  20.268  1.00  0.00     0.276 HD
ENDBRANCH  24  27
ENDBRANCH  23  24
ENDBRANCH  18  22
ENDBRANCH  13  14
ENDBRANCH  11  13
ENDBRANCH   5   8
ENDBRANCH   1   5
BRANCH   4  31
HETATM   31  C20 UNL     1      -8.992  77.575  11.063  1.00  0.00     0.232 C 
BRANCH  31  32
HETATM   32  N4  UNL     1      -7.853  76.778  10.670  1.00  0.00    -0.070 N 
ATOM     33  H43 UNL     1      -7.292  76.520  11.482  1.00  0.00     0.275 HD
ATOM     34  H42 UNL     1      -8.146  75.850  10.367  1.00  0.00     0.275 HD
ATOM     35  H41 UNL     1      -7.278  77.229   9.958  1.00  0.00     0.275 HD
ENDBRANCH  31  32
BRANCH  31  36
HETATM   36  C21 UNL     1      -9.908  77.872   9.895  1.00  0.00     0.266 C 
BRANCH  36  37
HETATM   37  N5  UNL     1     -10.912  76.823   9.814  1.00  0.00    -0.077 N 
ATOM     38  H53 UNL     1     -10.502  75.889   9.816  1.00  0.00     0.274 HD
ATOM     39  H52 UNL     1     -11.459  76.739  10.670  1.00  0.00     0.274 HD
ATOM     40  H51 UNL     1     -11.494  76.992   8.993  1.00  0.00     0.274 HD
ENDBRANCH  36  37
ENDBRANCH  31  36
ENDBRANCH   4  31
TORSDOF 11
ENDMDL
MODEL 3
REMARK VINA RESULT: -7.434588775      1.435      1.674
REMARK  11 active torsions:
REMARK  status: ('A' for Active; 'I' for Inactive)
REMARK    1  A    between atoms: C2_2  and  N1_4 
REMARK    2  A    between atoms: C2_2  and  C4_8 
REMARK    3  A    between atoms: C5_9  and  C6_10 
REMARK    4  A    between atoms: C10_15  and  O1_16 
REMARK    5  A    between atoms: O1_16  and  C11_17 
REMARK    6  A    between atoms: N2_20  and  C14_21 
REMARK    7  A    between atoms: C14_21  and  C17_24 
REMARK    8  A    between atoms: C19_27  and  C20_28 
REMARK    9  A    between atoms: C20_28  and  N4_29 
REMARK   10  A    between atoms: C20_28  and  C21_33 
REMARK   11  A    between atoms: C21_33  and  N5_34 
ROOT
HETATM    1  C17 UNL     1      -9.752  79.836  14.098  1.00  0.00     0.058 C 
HETATM    2  C18 UNL     1      -9.820  78.687  14.995  1.00  0.00     0.097 C 
HETATM    3  N3  UNL     1      -9.852  77.761  15.701  1.00  0.00    -0.192 NA
HETATM    4  C19 UNL     1      -9.428  79.606  12.860  1.00  0.00     0.028 C 
ENDROOT
BRANCH   1   5
HETATM    5  C14 UNL     1     -10.052  81.194  14.555  1.00  0.00     0.189 C 
HETATM    6  C15 UNL     1     -11.304  81.170  15.402  1.00  0.00     0.055 C 
HETATM    7  C16 UNL     1     -10.335  82.027  13.324  1.00  0.00     0.055 C 
BRANCH   5   8
HETATM    8  N2  UNL     1      -9.014  81.759  15.387  1.00  0.00     0.105 N 
HETATM    9  C13 UNL     1      -8.566  83.057  15.018  1.00  0.00     0.276 C 
HETATM   10  C12 UNL     1      -7.762  83.511  16.210  1.00  0.00     0.064 C 
HETATM   11  C11 UNL     1      -8.524  82.926  17.378  1.00  0.00     0.159 C 
HETATM   12  C22 UNL     1      -9.536  81.996  16.722  1.00  0.00     0.306 C 
BRANCH  11  13
HETATM   13  O1  UNL     1      -9.103  83.990  18.060  1.00  0.00    -0.343 OA
BRANCH  13  14
HETATM   14  C10 UNL     1     -10.306  84.054  18.702  1.00  0.00     0.088 A 
HETATM   15  C9  UNL     1     -10.476  83.483  19.937  1.00  0.00     0.040 A 
HETATM   16  C8  UNL     1     -11.701  83.568  20.559  1.00  0.00     0.028 A 
HETATM   17  C7  UNL     1     -12.748  84.218  19.950  1.00  0.00     0.054 A 
HETATM   18  C6  UNL     1     -12.590  84.799  18.701  1.00  0.00     0.059 A 
HETATM   19 CL1  UNL     1     -14.305  84.313  20.762  1.00  0.00    -0.083 Cl
HETATM   20  C23 UNL     1     -11.357  84.706  18.092  1.00  0.00     0.064 A 
HETATM   21 BR1  UNL     1     -11.161  85.509  16.365  1.00  0.00    -0.046 Br
BRANCH  18  22
HETATM   22  C5  UNL     1     -13.716  85.477  18.099  1.00  0.00    -0.061 C 
HETATM   23  C4  UNL     1     -14.665  86.046  17.619  1.00  0.00    -0.062 C 
BRANCH  23  24
HETATM   24  C2  UNL     1     -15.818  86.732  17.066  1.00  0.00     0.179 C 
HETATM   25  C1  UNL     1     -15.499  88.116  16.593  1.00  0.00     0.060 C 
HETATM   26  C3  UNL     1     -16.388  85.956  15.876  1.00  0.00     0.060 C 
BRANCH  24  27
HETATM   27  N1  UNL     1     -16.863  86.749  18.063  1.00  0.00    -0.060 N 
ATOM     28  H13 UNL     1     -16.611  86.191  18.880  1.00  0.00     0.276 HD
ATOM     29  H12 UNL     1     -16.936  87.661  18.514  1.00  0.00     0.276 HD
ATOM     30  H11 UNL     1     -17.755  86.453  17.667  1.00  0.00     0.276 HD
ENDBRANCH  24  27
ENDBRANCH  23  24
ENDBRANCH  18  22
ENDBRANCH  13  14
ENDBRANCH  11  13
ENDBRANCH   5   8
ENDBRANCH   1   5
BRANCH   4  31
HETATM   31  C20 UNL     1      -9.127  78.232  12.406  1.00  0.00     0.232 C 
BRANCH  31  32
HETATM   32  N4  UNL     1      -7.728  78.030  12.109  1.00  0.00    -0.070 N 
ATOM     33  H43 UNL     1      -7.330  78.851  11.654  1.00  0.00     0.275 HD
ATOM     34  H42 UNL     1      -7.172  78.027  12.964  1.00  0.00     0.275 HD
ATOM     35  H41 UNL     1      -7.555  77.188  11.559  1.00  0.00     0.275 HD
ENDBRANCH  31  32
BRANCH  31  36
HETATM   36  C21 UNL     1     -10.014  77.896  11.226  1.00  0.00     0.266 C 
BRANCH  36  37
HETATM   37  N5  UNL     1     -10.286  76.467  11.242  1.00  0.00    -0.077 N 
ATOM     38  H53 UNL     1      -9.682  75.962  11.890  1.00  0.00     0.274 HD
ATOM     39  H52 UNL     1     -11.179  76.245  11.682  1.00  0.00     0.274 HD
ATOM     40  H51 UNL     1     -10.222  76.112  10.288  1.00  0.00     0.274 HD
ENDBRANCH  36  37
ENDBRANCH  31  36
ENDBRANCH   4  31
TORSDOF 11
ENDMDL
MODEL 4
REMARK VINA RESULT: -7.419426754      3.720     10.615
REMARK  11 active torsions:
REMARK  status: ('A' for Active; 'I' for Inactive)
REMARK    1  A    between atoms: C2_2  and  N1_4 
REMARK    2  A    between atoms: C2_2  and  C4_8 
REMARK    3  A    between atoms: C5_9  and  C6_10 
REMARK    4  A    between atoms: C10_15  and  O1_16 
REMARK    5  A    between atoms: O1_16  and  C11_17 
REMARK    6  A    between atoms: N2_20  and  C14_21 
REMARK    7  A    between atoms: C14_21  and  C17_24 
REMARK    8  A    between atoms: C19_27  and  C20_28 
REMARK    9  A    between atoms: C20_28  and  N4_29 
REMARK   10  A    between atoms: C20_28  and  C21_33 
REMARK   11  A    between atoms: C21_33  and  N5_34 
ROOT
HETATM    1  C17 UNL     1     -13.493  86.276  17.254  1.00  0.00     0.058 C 
HETATM    2  C18 UNL     1     -14.703  85.606  16.789  1.00  0.00     0.097 C 
HETATM    3  N3  UNL     1     -15.677  85.093  16.407  1.00  0.00    -0.192 NA
HETATM    4  C19 UNL     1     -13.629  87.468  17.757  1.00  0.00     0.028 C 
ENDROOT
BRANCH   1   5
HETATM    5  C14 UNL     1     -12.178  85.639  17.179  1.00  0.00     0.189 C 
HETATM    6  C15 UNL     1     -12.346  84.138  17.254  1.00  0.00     0.055 C 
HETATM    7  C16 UNL     1     -11.396  86.083  18.396  1.00  0.00     0.055 C 
BRANCH   5   8
HETATM    8  N2  UNL     1     -11.483  85.904  15.940  1.00  0.00     0.105 N 
HETATM    9  C13 UNL     1     -10.138  86.344  16.069  1.00  0.00     0.276 C 
HETATM   10  C12 UNL     1      -9.583  86.221  14.673  1.00  0.00     0.064 C 
HETATM   11  C11 UNL     1     -10.264  84.977  14.146  1.00  0.00     0.159 C 
HETATM   12  C22 UNL     1     -11.318  84.665  15.200  1.00  0.00     0.306 C 
BRANCH  11  13
HETATM   13  O1  UNL     1      -9.285  83.997  14.026  1.00  0.00    -0.343 OA
BRANCH  13  14
HETATM   14  C10 UNL     1      -8.779  83.411  12.903  1.00  0.00     0.088 A 
HETATM   15  C9  UNL     1      -8.045  84.136  12.000  1.00  0.00     0.040 A 
HETATM   16  C8  UNL     1      -7.547  83.515  10.877  1.00  0.00     0.028 A 
HETATM   17  C7  UNL     1      -7.783  82.177  10.659  1.00  0.00     0.054 A 
HETATM   18  C6  UNL     1      -8.524  81.432  11.563  1.00  0.00     0.059 A 
HETATM   19 CL1  UNL     1      -7.137  81.404   9.217  1.00  0.00    -0.083 Cl
HETATM   20  C23 UNL     1      -9.015  82.070  12.682  1.00  0.00     0.064 A 
HETATM   21 BR1  UNL     1     -10.042  81.026  13.915  1.00  0.00    -0.046 Br
BRANCH  18  22
HETATM   22  C5  UNL     1      -8.744  80.029  11.297  1.00  0.00    -0.061 C 
HETATM   23  C4  UNL     1      -8.950  78.863  11.071  1.00  0.00    -0.062 C 
BRANCH  23  24
HETATM   24  C2  UNL     1      -9.226  77.463  10.801  1.00  0.00     0.179 C 
HETATM   25  C1  UNL     1      -9.962  76.790  11.917  1.00  0.00     0.060 C 
HETATM   26  C3  UNL     1     -10.072  77.315   9.533  1.00  0.00     0.060 C 
BRANCH  24  27
HETATM   27  N1  UNL     1      -7.976  76.796  10.522  1.00  0.00    -0.060 N 
ATOM     28  H13 UNL     1      -7.176  77.366  10.799  1.00  0.00     0.276 HD
ATOM     29  H12 UNL     1      -7.827  76.003  11.147  1.00  0.00     0.276 HD
ATOM     30  H11 UNL     1      -7.917  76.517   9.543  1.00  0.00     0.276 HD
ENDBRANCH  24  27
ENDBRANCH  23  24
ENDBRANCH  18  22
ENDBRANCH  13  14
ENDBRANCH  11  13
ENDBRANCH   5   8
ENDBRANCH   1   5
BRANCH   4  31
HETATM   31  C20 UNL     1     -14.960  88.105  17.828  1.00  0.00     0.232 C 
BRANCH  31  32
HETATM   32  N4  UNL     1     -15.181  89.071  16.777  1.00  0.00    -0.070 N 
ATOM     33  H43 UNL     1     -14.464  88.993  16.056  1.00  0.00     0.275 HD
ATOM     34  H42 UNL     1     -16.002  88.826  16.225  1.00  0.00     0.275 HD
ATOM     35  H41 UNL     1     -15.247  90.028  17.124  1.00  0.00     0.275 HD
ENDBRANCH  31  32
BRANCH  31  36
HETATM   36  C21 UNL     1     -15.147  88.708  19.204  1.00  0.00     0.266 C 
BRANCH  36  37
HETATM   37  N5  UNL     1     -15.496  90.112  19.052  1.00  0.00    -0.077 N 
ATOM     38  H53 UNL     1     -16.503  90.260  18.996  1.00  0.00     0.274 HD
ATOM     39  H52 UNL     1     -15.321  90.651  19.899  1.00  0.00     0.274 HD
ATOM     40  H51 UNL     1     -15.000  90.484  18.242  1.00  0.00     0.274 HD
ENDBRANCH  36  37
ENDBRANCH  31  36
ENDBRANCH   4  31
TORSDOF 11
ENDMDL
MODEL 5
REMARK VINA RESULT: -7.416443723      1.999      2.581
REMARK  11 active torsions:
REMARK  status: ('A' for Active; 'I' for Inactive)
REMARK    1  A    between atoms: C2_2  and  N1_4 
REMARK    2  A    between atoms: C2_2  and  C4_8 
REMARK    3  A    between atoms: C5_9  and  C6_10 
REMARK    4  A    between atoms: C10_15  and  O1_16 
REMARK    5  A    between atoms: O1_16  and  C11_17 
REMARK    6  A    between atoms: N2_20  and  C14_21 
REMARK    7  A    between atoms: C14_21  and  C17_24 
REMARK    8  A    between atoms: C19_27  and  C20_28 
REMARK    9  A    between atoms: C20_28  and  N4_29 
REMARK   10  A    between atoms: C20_28  and  C21_33 
REMARK   11  A    between atoms: C21_33  and  N5_34 
ROOT
HETATM    1  C17 UNL     1      -9.975  78.919  13.092  1.00  0.00     0.058 C 
HETATM    2  C18 UNL     1      -9.639  77.843  14.018  1.00  0.00     0.097 C 
HETATM    3  N3  UNL     1      -9.352  76.976  14.741  1.00  0.00    -0.192 NA
HETATM    4  C19 UNL     1     -10.025  78.623  11.827  1.00  0.00     0.028 C 
ENDROOT
BRANCH   1   5
HETATM    5  C14 UNL     1     -10.264  80.277  13.556  1.00  0.00     0.189 C 
HETATM    6  C15 UNL     1     -10.746  80.223  14.988  1.00  0.00     0.055 C 
HETATM    7  C16 UNL     1     -11.395  80.810  12.702  1.00  0.00     0.055 C 
BRANCH   5   8
HETATM    8  N2  UNL     1      -9.106  81.141  13.554  1.00  0.00     0.105 N 
HETATM    9  C13 UNL     1      -9.034  82.074  12.483  1.00  0.00     0.276 C 
HETATM   10  C12 UNL     1      -7.946  83.026  12.909  1.00  0.00     0.064 C 
HETATM   11  C11 UNL     1      -8.141  83.118  14.406  1.00  0.00     0.159 C 
HETATM   12  C22 UNL     1      -9.154  82.021  14.709  1.00  0.00     0.306 C 
BRANCH  11  13
HETATM   13  O1  UNL     1      -8.606  84.399  14.679  1.00  0.00    -0.343 OA
BRANCH  13  14
HETATM   14  C10 UNL     1      -9.260  84.866  15.782  1.00  0.00     0.088 A 
HETATM   15  C9  UNL     1      -8.569  85.225  16.911  1.00  0.00     0.040 A 
HETATM   16  C8  UNL     1      -9.258  85.694  18.006  1.00  0.00     0.028 A 
HETATM   17  C7  UNL     1     -10.629  85.802  17.972  1.00  0.00     0.054 A 
HETATM   18  C6  UNL     1     -11.340  85.441  16.838  1.00  0.00     0.059 A 
HETATM   19 CL1  UNL     1     -11.490  86.403  19.384  1.00  0.00    -0.083 Cl
HETATM   20  C23 UNL     1     -10.635  84.974  15.751  1.00  0.00     0.064 A 
HETATM   21 BR1  UNL     1     -11.635  84.474  14.196  1.00  0.00    -0.046 Br
BRANCH  18  22
HETATM   22  C5  UNL     1     -12.779  85.575  16.845  1.00  0.00    -0.061 C 
HETATM   23  C4  UNL     1     -13.977  85.710  16.853  1.00  0.00    -0.062 C 
BRANCH  23  24
HETATM   24  C2  UNL     1     -15.416  85.900  16.870  1.00  0.00     0.179 C 
HETATM   25  C1  UNL     1     -15.829  87.256  16.389  1.00  0.00     0.060 C 
HETATM   26  C3  UNL     1     -16.107  84.864  15.979  1.00  0.00     0.060 C 
BRANCH  24  27
HETATM   27  N1  UNL     1     -15.896  85.652  18.209  1.00  0.00    -0.060 N 
ATOM     28  H13 UNL     1     -16.901  85.474  18.220  1.00  0.00     0.276 HD
ATOM     29  H12 UNL     1     -15.573  84.751  18.563  1.00  0.00     0.276 HD
ATOM     30  H11 UNL     1     -15.643  86.414  18.838  1.00  0.00     0.276 HD
ENDBRANCH  24  27
ENDBRANCH  23  24
ENDBRANCH  18  22
ENDBRANCH  13  14
ENDBRANCH  11  13
ENDBRANCH   5   8
ENDBRANCH   1   5
BRANCH   4  31
HETATM   31  C20 UNL     1      -9.732  77.250  11.367  1.00  0.00     0.232 C 
BRANCH  31  32
HETATM   32  N4  UNL     1      -8.411  77.116  10.797  1.00  0.00    -0.070 N 
ATOM     33  H43 UNL     1      -7.692  77.257  11.507  1.00  0.00     0.275 HD
ATOM     34  H42 UNL     1      -8.217  76.145  10.553  1.00  0.00     0.275 HD
ATOM     35  H41 UNL     1      -8.258  77.729   9.996  1.00  0.00     0.275 HD
ENDBRANCH  31  32
BRANCH  31  36
HETATM   36  C21 UNL     1     -10.814  76.808  10.404  1.00  0.00     0.266 C 
BRANCH  36  37
HETATM   37  N5  UNL     1     -10.373  77.094   9.048  1.00  0.00    -0.077 N 
ATOM     38  H53 UNL     1      -9.798  77.934   8.993  1.00  0.00     0.274 HD
ATOM     39  H52 UNL     1      -9.679  76.426   8.714  1.00  0.00     0.274 HD
ATOM     40  H51 UNL     1     -11.193  77.140   8.443  1.00  0.00     0.274 HD
ENDBRANCH  36  37
ENDBRANCH  31  36
ENDBRANCH   4  31
TORSDOF 11
ENDMDL
