MODEL 1
REMARK VINA RESULT: -7.664876217      0.000      0.000
REMARK  7 active torsions:
REMARK  status: ('A' for Active; 'I' for Inactive)
REMARK    1  A    between atoms: N2_5  and  C4_6 
REMARK    2  A    between atoms: C9_11  and  C10_12 
REMARK    3  A    between atoms: C11_13  and  C12_14 
REMARK    4  A    between atoms: C12_14  and  O1_15 
REMARK    5  A    between atoms: N3_17  and  O2_19 
REMARK    6  A    between atoms: C13_21  and  O3_22 
REMARK    7  A    between atoms: C17_27  and  C18_28 
ROOT
HETATM    1  C4  UNL     1     134.211 104.364 285.282  1.00  0.00     0.041 A 
HETATM    2  C5  UNL     1     132.892 103.910 285.571  1.00  0.00     0.039 A 
HETATM    3  C6  UNL     1     131.821 104.553 284.994  1.00  0.00    -0.026 A 
HETATM    4  C7  UNL     1     131.963 105.615 284.149  1.00  0.00    -0.020 A 
HETATM    5  C8  UNL     1     133.233 106.045 283.880  1.00  0.00     0.024 A 
HETATM    6  C9  UNL     1     134.384 105.407 284.460  1.00  0.00    -0.009 A 
HETATM    7  C13 UNL     1     130.784 106.283 283.535  1.00  0.00     0.158 C 
HETATM    8  C14 UNL     1     129.553 106.190 284.343  1.00  0.00     0.050 C 
HETATM    9  C15 UNL     1     129.088 107.556 284.877  1.00  0.00     0.013 C 
HETATM   10  C16 UNL     1     128.112 107.348 286.019  1.00  0.00     0.033 C 
HETATM   11  C17 UNL     1     127.462 105.986 285.943  1.00  0.00     0.132 C 
HETATM   12  O4  UNL     1     128.339 104.932 285.886  1.00  0.00    -0.378 OA
HETATM   13  C19 UNL     1     129.636 105.323 285.576  1.00  0.00     0.151 C 
HETATM   14  C20 UNL     1     130.440 104.066 285.313  1.00  0.00     0.145 C 
HETATM   15 CL1  UNL     1     129.750 103.261 283.901  1.00  0.00    -0.117 Cl
ENDROOT
BRANCH   6  16
HETATM   16  C10 UNL     1     135.632 106.041 284.165  1.00  0.00     0.018 C 
HETATM   17  C11 UNL     1     135.906 106.997 283.343  1.00  0.00     0.058 C 
BRANCH  17  18
HETATM   18  C12 UNL     1     137.329 107.476 283.238  1.00  0.00     0.159 C 
HETATM   19  N3  UNL     1     137.799 108.384 283.982  1.00  0.00    -0.248 N 
ATOM     20  H3  UNL     1     138.775 108.638 283.833  1.00  0.00     0.196 HD
BRANCH  18  21
HETATM   21  O1  UNL     1     138.106 106.865 282.276  1.00  0.00    -0.345 OA
ATOM     22  H1  UNL     1     139.045 106.981 282.361  1.00  0.00     0.219 HD
ENDBRANCH  18  21
BRANCH  19  23
HETATM   23  O2  UNL     1     137.139 109.052 284.955  1.00  0.00    -0.288 OA
ATOM     24  H2  UNL     1     137.371 109.899 285.318  1.00  0.00     0.244 HD
ENDBRANCH  19  23
ENDBRANCH  17  18
ENDBRANCH   6  16
BRANCH   1  25
HETATM   25  N2  UNL     1     135.232 103.582 285.833  1.00  0.00    -0.377 N 
HETATM   26  C3  UNL     1     135.862 102.431 285.210  1.00  0.00     0.153 C 
HETATM   27  C2  UNL     1     135.523 101.264 286.158  1.00  0.00     0.291 C 
HETATM   28  N1  UNL     1     136.074 101.519 287.474  1.00  0.00     0.087 N 
HETATM   29  C1  UNL     1     134.980 101.477 288.422  1.00  0.00     0.310 C 
HETATM   30  C22 UNL     1     136.690 102.824 287.563  1.00  0.00     0.291 C 
HETATM   31  C21 UNL     1     135.683 103.890 287.203  1.00  0.00     0.153 C 
ENDBRANCH   1  25
BRANCH   7  32
HETATM   32  O3  UNL     1     131.090 107.649 283.369  1.00  0.00    -0.390 OA
ATOM     33  H3  UNL     1     131.331 107.790 282.461  1.00  0.00     0.210 HD
ENDBRANCH   7  32
BRANCH  11  34
HETATM   34  C18 UNL     1     126.509 105.769 287.077  1.00  0.00     0.117 C 
HETATM   35 BR1  UNL     1     125.363 107.273 287.396  1.00  0.00    -0.094 Br
ENDBRANCH  11  34
TORSDOF 7
ENDMDL
MODEL 2
REMARK VINA RESULT: -7.560063608      3.729      5.906
REMARK  7 active torsions:
REMARK  status: ('A' for Active; 'I' for Inactive)
REMARK    1  A    between atoms: N2_5  and  C4_6 
REMARK    2  A    between atoms: C9_11  and  C10_12 
REMARK    3  A    between atoms: C11_13  and  C12_14 
REMARK    4  A    between atoms: C12_14  and  O1_15 
REMARK    5  A    between atoms: N3_17  and  O2_19 
REMARK    6  A    between atoms: C13_21  and  O3_22 
REMARK    7  A    between atoms: C17_27  and  C18_28 
ROOT
HETATM    1  C4  UNL     1     130.530 105.588 285.324  1.00  0.00     0.041 A 
HETATM    2  C5  UNL     1     129.220 105.467 284.777  1.00  0.00     0.039 A 
HETATM    3  C6  UNL     1     128.145 105.370 285.629  1.00  0.00    -0.026 A 
HETATM    4  C7  UNL     1     128.273 105.385 286.987  1.00  0.00    -0.020 A 
HETATM    5  C8  UNL     1     129.535 105.500 287.503  1.00  0.00     0.024 A 
HETATM    6  C9  UNL     1     130.690 105.602 286.653  1.00  0.00    -0.009 A 
HETATM    7  C13 UNL     1     127.088 105.287 287.881  1.00  0.00     0.158 C 
HETATM    8  C14 UNL     1     125.951 104.553 287.294  1.00  0.00     0.050 C 
HETATM    9  C15 UNL     1     125.657 103.231 288.024  1.00  0.00     0.013 C 
HETATM   10  C16 UNL     1     124.802 102.344 287.140  1.00  0.00     0.033 C 
HETATM   11  C17 UNL     1     124.044 103.157 286.116  1.00  0.00     0.132 C 
HETATM   12  O4  UNL     1     124.824 103.972 285.337  1.00  0.00    -0.378 OA
HETATM   13  C19 UNL     1     126.105 104.147 285.848  1.00  0.00     0.151 C 
HETATM   14  C20 UNL     1     126.774 105.237 285.036  1.00  0.00     0.145 C 
HETATM   15 CL1  UNL     1     125.871 106.733 285.281  1.00  0.00    -0.117 Cl
ENDROOT
BRANCH   6  16
HETATM   16  C10 UNL     1     131.943 105.608 287.344  1.00  0.00     0.018 C 
HETATM   17  C11 UNL     1     132.343 104.902 288.347  1.00  0.00     0.058 C 
BRANCH  17  18
HETATM   18  C12 UNL     1     133.735 105.119 288.876  1.00  0.00     0.159 C 
HETATM   19  N3  UNL     1     134.094 104.741 290.027  1.00  0.00    -0.248 N 
ATOM     20  H3  UNL     1     135.059 104.934 290.292  1.00  0.00     0.196 HD
BRANCH  18  21
HETATM   21  O1  UNL     1     134.613 105.762 288.028  1.00  0.00    -0.345 OA
ATOM     22  H1  UNL     1     135.528 105.751 288.286  1.00  0.00     0.219 HD
ENDBRANCH  18  21
BRANCH  19  23
HETATM   23  O2  UNL     1     133.328 104.105 290.943  1.00  0.00    -0.288 OA
ATOM     24  H2  UNL     1     133.610 103.425 291.543  1.00  0.00     0.244 HD
ENDBRANCH  19  23
ENDBRANCH  17  18
ENDBRANCH   6  16
BRANCH   1  25
HETATM   25  N2  UNL     1     131.543 105.784 284.379  1.00  0.00    -0.377 N 
HETATM   26  C3  UNL     1     131.889 107.042 283.741  1.00  0.00     0.153 C 
HETATM   27  C2  UNL     1     131.618 106.787 282.245  1.00  0.00     0.291 C 
HETATM   28  N1  UNL     1     132.455 105.706 281.767  1.00  0.00     0.087 N 
HETATM   29  C1  UNL     1     131.584 104.688 281.217  1.00  0.00     0.310 C 
HETATM   30  C22 UNL     1     133.226 105.104 282.831  1.00  0.00     0.291 C 
HETATM   31  C21 UNL     1     132.301 104.607 283.916  1.00  0.00     0.153 C 
ENDBRANCH   1  25
BRANCH   7  32
HETATM   32  O3  UNL     1     127.479 104.612 289.056  1.00  0.00    -0.390 OA
ATOM     33  H3  UNL     1     126.693 104.339 289.515  1.00  0.00     0.210 HD
ENDBRANCH   7  32
BRANCH  11  34
HETATM   34  C18 UNL     1     123.210 102.284 285.231  1.00  0.00     0.117 C 
HETATM   35 BR1  UNL     1     122.814 103.088 283.536  1.00  0.00    -0.094 Br
ENDBRANCH  11  34
TORSDOF 7
ENDMDL
MODEL 3
REMARK VINA RESULT: -7.534835370      5.221      9.236
REMARK  7 active torsions:
REMARK  status: ('A' for Active; 'I' for Inactive)
REMARK    1  A    between atoms: N2_5  and  C4_6 
REMARK    2  A    between atoms: C9_11  and  C10_12 
REMARK    3  A    between atoms: C11_13  and  C12_14 
REMARK    4  A    between atoms: C12_14  and  O1_15 
REMARK    5  A    between atoms: N3_17  and  O2_19 
REMARK    6  A    between atoms: C13_21  and  O3_22 
REMARK    7  A    between atoms: C17_27  and  C18_28 
ROOT
HETATM    1  C4  UNL     1     126.240 105.144 286.349  1.00  0.00     0.041 A 
HETATM    2  C5  UNL     1     127.418 104.347 286.262  1.00  0.00     0.039 A 
HETATM    3  C6  UNL     1     128.644 104.967 286.198  1.00  0.00    -0.026 A 
HETATM    4  C7  UNL     1     128.788 106.324 286.213  1.00  0.00    -0.020 A 
HETATM    5  C8  UNL     1     127.652 107.081 286.295  1.00  0.00     0.024 A 
HETATM    6  C9  UNL     1     126.348 106.479 286.362  1.00  0.00    -0.009 A 
HETATM    7  C13 UNL     1     130.130 106.963 286.151  1.00  0.00     0.158 C 
HETATM    8  C14 UNL     1     131.147 106.159 285.447  1.00  0.00     0.050 C 
HETATM    9  C15 UNL     1     131.618 106.811 284.136  1.00  0.00     0.013 C 
HETATM   10  C16 UNL     1     132.304 105.773 283.271  1.00  0.00     0.033 C 
HETATM   11  C17 UNL     1     132.820 104.621 284.102  1.00  0.00     0.132 C 
HETATM   12  O4  UNL     1     131.877 104.015 284.893  1.00  0.00    -0.378 OA
HETATM   13  C19 UNL     1     130.719 104.771 285.033  1.00  0.00     0.151 C 
HETATM   14  C20 UNL     1     129.872 104.113 286.102  1.00  0.00     0.145 C 
HETATM   15 CL1  UNL     1     130.763 104.177 287.624  1.00  0.00    -0.117 Cl
ENDROOT
BRANCH   6  16
HETATM   16  C10 UNL     1     125.258 107.406 286.335  1.00  0.00     0.018 C 
HETATM   17  C11 UNL     1     124.718 108.083 287.291  1.00  0.00     0.058 C 
BRANCH  17  18
HETATM   18  C12 UNL     1     123.569 109.000 286.968  1.00  0.00     0.159 C 
HETATM   19  N3  UNL     1     122.362 108.639 287.061  1.00  0.00    -0.248 N 
ATOM     20  H3  UNL     1     121.656 109.335 286.820  1.00  0.00     0.196 HD
BRANCH  18  21
HETATM   21  O1  UNL     1     123.906 110.274 286.560  1.00  0.00    -0.345 OA
ATOM     22  H1  UNL     1     124.615 110.338 285.930  1.00  0.00     0.219 HD
ENDBRANCH  18  21
BRANCH  19  23
HETATM   23  O2  UNL     1     121.910 107.424 287.448  1.00  0.00    -0.288 OA
ATOM     24  H2  UNL     1     121.856 107.097 288.338  1.00  0.00     0.244 HD
ENDBRANCH  19  23
ENDBRANCH  17  18
ENDBRANCH   6  16
BRANCH   1  25
HETATM   25  N2  UNL     1     125.054 104.420 286.514  1.00  0.00    -0.377 N 
HETATM   26  C3  UNL     1     124.227 104.390 287.707  1.00  0.00     0.153 C 
HETATM   27  C2  UNL     1     124.271 102.915 288.153  1.00  0.00     0.291 C 
HETATM   28  N1  UNL     1     123.726 102.067 287.112  1.00  0.00     0.087 N 
HETATM   29  C1  UNL     1     124.743 101.097 286.761  1.00  0.00     0.310 C 
HETATM   30  C22 UNL     1     123.393 102.814 285.920  1.00  0.00     0.291 C 
HETATM   31  C21 UNL     1     124.615 103.541 285.414  1.00  0.00     0.153 C 
ENDBRANCH   1  25
BRANCH   7  32
HETATM   32  O3  UNL     1     130.000 108.190 285.468  1.00  0.00    -0.390 OA
ATOM     33  H3  UNL     1     130.814 108.671 285.567  1.00  0.00     0.210 HD
ENDBRANCH   7  32
BRANCH  11  34
HETATM   34  C18 UNL     1     133.485 103.585 283.251  1.00  0.00     0.117 C 
HETATM   35 BR1  UNL     1     132.243 102.396 282.401  1.00  0.00    -0.094 Br
ENDBRANCH  11  34
TORSDOF 7
ENDMDL
MODEL 4
REMARK VINA RESULT: -7.421859793      4.868      7.278
REMARK  7 active torsions:
REMARK  status: ('A' for Active; 'I' for Inactive)
REMARK    1  A    between atoms: N2_5  and  C4_6 
REMARK    2  A    between atoms: C9_11  and  C10_12 
REMARK    3  A    between atoms: C11_13  and  C12_14 
REMARK    4  A    between atoms: C12_14  and  O1_15 
REMARK    5  A    between atoms: N3_17  and  O2_19 
REMARK    6  A    between atoms: C13_21  and  O3_22 
REMARK    7  A    between atoms: C17_27  and  C18_28 
ROOT
HETATM    1  C4  UNL     1     129.042 105.863 285.226  1.00  0.00     0.041 A 
HETATM    2  C5  UNL     1     129.036 104.440 285.294  1.00  0.00     0.039 A 
HETATM    3  C6  UNL     1     130.091 103.739 284.758  1.00  0.00    -0.026 A 
HETATM    4  C7  UNL     1     131.155 104.347 284.156  1.00  0.00    -0.020 A 
HETATM    5  C8  UNL     1     131.150 105.713 284.093  1.00  0.00     0.024 A 
HETATM    6  C9  UNL     1     130.070 106.490 284.638  1.00  0.00    -0.009 A 
HETATM    7  C13 UNL     1     132.284 103.559 283.593  1.00  0.00     0.158 C 
HETATM    8  C14 UNL     1     131.908 102.204 283.146  1.00  0.00     0.050 C 
HETATM    9  C15 UNL     1     132.026 102.026 281.623  1.00  0.00     0.013 C 
HETATM   10  C16 UNL     1     131.236 100.807 281.193  1.00  0.00     0.033 C 
HETATM   11  C17 UNL     1     131.049  99.841 282.340  1.00  0.00     0.132 C 
HETATM   12  O4  UNL     1     130.483 100.386 283.464  1.00  0.00    -0.378 OA
HETATM   13  C19 UNL     1     130.494 101.776 283.457  1.00  0.00     0.151 C 
HETATM   14  C20 UNL     1     130.066 102.242 284.834  1.00  0.00     0.145 C 
HETATM   15 CL1  UNL     1     131.269 101.684 285.999  1.00  0.00    -0.117 Cl
ENDROOT
BRANCH   6  16
HETATM   16  C10 UNL     1     130.163 107.897 284.397  1.00  0.00     0.018 C 
HETATM   17  C11 UNL     1     130.950 108.557 283.615  1.00  0.00     0.058 C 
BRANCH  17  18
HETATM   18  C12 UNL     1     130.822 110.055 283.558  1.00  0.00     0.159 C 
HETATM   19  N3  UNL     1     131.631 110.784 282.916  1.00  0.00    -0.248 N 
ATOM     20  H3  UNL     1     131.459 111.789 282.938  1.00  0.00     0.196 HD
BRANCH  18  21
HETATM   21  O1  UNL     1     129.761 110.601 284.250  1.00  0.00    -0.345 OA
ATOM     22  H1  UNL     1     129.218 111.215 283.768  1.00  0.00     0.219 HD
ENDBRANCH  18  21
BRANCH  19  23
HETATM   23  O2  UNL     1     132.703 110.367 282.204  1.00  0.00    -0.288 OA
ATOM     24  H2  UNL     1     133.565 110.765 282.192  1.00  0.00     0.244 HD
ENDBRANCH  19  23
ENDBRANCH  17  18
ENDBRANCH   6  16
BRANCH   1  25
HETATM   25  N2  UNL     1     127.980 106.485 285.889  1.00  0.00    -0.377 N 
HETATM   26  C3  UNL     1     127.903 106.765 287.312  1.00  0.00     0.153 C 
HETATM   27  C2  UNL     1     126.692 105.939 287.789  1.00  0.00     0.291 C 
HETATM   28  N1  UNL     1     125.494 106.374 287.100  1.00  0.00     0.087 N 
HETATM   29  C1  UNL     1     124.929 105.220 286.432  1.00  0.00     0.310 C 
HETATM   30  C22 UNL     1     125.776 107.376 286.097  1.00  0.00     0.291 C 
HETATM   31  C21 UNL     1     126.781 106.839 285.107  1.00  0.00     0.153 C 
ENDBRANCH   1  25
BRANCH   7  32
HETATM   32  O3  UNL     1     132.793 104.257 282.478  1.00  0.00    -0.390 OA
ATOM     33  H3  UNL     1     133.738 104.302 282.564  1.00  0.00     0.210 HD
ENDBRANCH   7  32
BRANCH  11  34
HETATM   34  C18 UNL     1     130.256  98.642 281.924  1.00  0.00     0.117 C 
HETATM   35 BR1  UNL     1     130.762  97.962 280.205  1.00  0.00    -0.094 Br
ENDBRANCH  11  34
TORSDOF 7
ENDMDL
MODEL 5
REMARK VINA RESULT: -7.402828757      3.598      5.758
REMARK  7 active torsions:
REMARK  status: ('A' for Active; 'I' for Inactive)
REMARK    1  A    between atoms: N2_5  and  C4_6 
REMARK    2  A    between atoms: C9_11  and  C10_12 
REMARK    3  A    between atoms: C11_13  and  C12_14 
REMARK    4  A    between atoms: C12_14  and  O1_15 
REMARK    5  A    between atoms: N3_17  and  O2_19 
REMARK    6  A    between atoms: C13_21  and  O3_22 
REMARK    7  A    between atoms: C17_27  and  C18_28 
ROOT
HETATM    1  C4  UNL     1     130.532 105.602 285.213  1.00  0.00     0.041 A 
HETATM    2  C5  UNL     1     129.212 105.454 284.699  1.00  0.00     0.039 A 
HETATM    3  C6  UNL     1     128.157 105.364 285.577  1.00  0.00    -0.026 A 
HETATM    4  C7  UNL     1     128.315 105.409 286.932  1.00  0.00    -0.020 A 
HETATM    5  C8  UNL     1     129.587 105.549 287.416  1.00  0.00     0.024 A 
HETATM    6  C9  UNL     1     130.722 105.646 286.538  1.00  0.00    -0.009 A 
HETATM    7  C13 UNL     1     127.152 105.316 287.854  1.00  0.00     0.158 C 
HETATM    8  C14 UNL     1     126.011 104.557 287.308  1.00  0.00     0.050 C 
HETATM    9  C15 UNL     1     125.748 103.248 288.071  1.00  0.00     0.013 C 
HETATM   10  C16 UNL     1     124.884 102.333 287.226  1.00  0.00     0.033 C 
HETATM   11  C17 UNL     1     124.094 103.116 286.203  1.00  0.00     0.132 C 
HETATM   12  O4  UNL     1     124.847 103.923 285.389  1.00  0.00    -0.378 OA
HETATM   13  C19 UNL     1     126.137 104.122 285.867  1.00  0.00     0.151 C 
HETATM   14  C20 UNL     1     126.775 105.203 285.018  1.00  0.00     0.145 C 
HETATM   15 CL1  UNL     1     125.860 106.694 285.253  1.00  0.00    -0.117 Cl
ENDROOT
BRANCH   6  16
HETATM   16  C10 UNL     1     131.989 105.681 287.201  1.00  0.00     0.018 C 
HETATM   17  C11 UNL     1     132.792 104.719 287.510  1.00  0.00     0.058 C 
BRANCH  17  18
HETATM   18  C12 UNL     1     134.081 105.052 288.212  1.00  0.00     0.159 C 
HETATM   19  N3  UNL     1     135.202 104.617 287.821  1.00  0.00    -0.248 N 
ATOM     20  H3  UNL     1     136.017 104.899 288.365  1.00  0.00     0.196 HD
BRANCH  18  21
HETATM   21  O1  UNL     1     133.977 105.867 289.320  1.00  0.00    -0.345 OA
ATOM     22  H1  UNL     1     133.872 105.426 290.156  1.00  0.00     0.219 HD
ENDBRANCH  18  21
BRANCH  19  23
HETATM   23  O2  UNL     1     135.430 103.815 286.756  1.00  0.00    -0.288 OA
ATOM     24  H2  UNL     1     134.781 103.490 286.143  1.00  0.00     0.244 HD
ENDBRANCH  19  23
ENDBRANCH  17  18
ENDBRANCH   6  16
BRANCH   1  25
HETATM   25  N2  UNL     1     131.521 105.790 284.242  1.00  0.00    -0.377 N 
HETATM   26  C3  UNL     1     131.958 107.063 283.697  1.00  0.00     0.153 C 
HETATM   27  C2  UNL     1     131.605 106.967 282.200  1.00  0.00     0.291 C 
HETATM   28  N1  UNL     1     132.319 105.861 281.593  1.00  0.00     0.087 N 
HETATM   29  C1  UNL     1     131.336 104.979 281.000  1.00  0.00     0.310 C 
HETATM   30  C22 UNL     1     133.072 105.101 282.565  1.00  0.00     0.291 C 
HETATM   31  C21 UNL     1     132.147 104.595 283.646  1.00  0.00     0.153 C 
ENDBRANCH   1  25
BRANCH   7  32
HETATM   32  O3  UNL     1     127.577 104.670 289.033  1.00  0.00    -0.390 OA
ATOM     33  H3  UNL     1     127.711 105.333 289.701  1.00  0.00     0.210 HD
ENDBRANCH   7  32
BRANCH  11  34
HETATM   34  C18 UNL     1     123.250 102.215 285.356  1.00  0.00     0.117 C 
HETATM   35 BR1  UNL     1     122.870 102.947 283.625  1.00  0.00    -0.094 Br
ENDBRANCH  11  34
TORSDOF 7
ENDMDL
