MODEL 1
REMARK VINA RESULT: -8.563439311      0.000      0.000
REMARK  8 active torsions:
REMARK  status: ('A' for Active; 'I' for Inactive)
REMARK    1  A    between atoms: C5_6  and  C6_7 
REMARK    2  A    between atoms: C7_8  and  C8_9 
REMARK    3  A    between atoms: C8_9  and  O1_12 
REMARK    4  A    between atoms: C14_17  and  C15_18 
REMARK    5  A    between atoms: C15_18  and  C17_23 
REMARK    6  A    between atoms: N1_19  and  O2_21 
REMARK    7  A    between atoms: C22_31  and  O4_32 
REMARK    8  A    between atoms: C24_34  and  O5_35 
ROOT
HETATM    1  C1  UNL     1     126.446 107.172 288.602  1.00  0.00     0.103 C 
HETATM    2  C2  UNL     1     126.489 106.535 287.553  1.00  0.00    -0.145 C 
HETATM    3  C3  UNL     1     126.511 105.801 286.344  1.00  0.00     0.053 A 
HETATM    4  C4  UNL     1     125.402 105.216 285.794  1.00  0.00     0.153 A 
HETATM    5  F1  UNL     1     124.223 105.370 286.481  1.00  0.00    -0.203 F 
HETATM    6  C5  UNL     1     125.451 104.506 284.611  1.00  0.00     0.058 A 
HETATM    7  C11 UNL     1     126.656 104.379 283.960  1.00  0.00     0.036 A 
HETATM    8  C12 UNL     1     127.815 104.971 284.503  1.00  0.00    -0.015 A 
HETATM    9  C13 UNL     1     127.722 105.655 285.661  1.00  0.00    -0.011 A 
HETATM   10  C14 UNL     1     129.053 106.181 286.053  1.00  0.00     0.115 A 
HETATM   11  C18 UNL     1     129.932 105.728 284.937  1.00  0.00     0.004 A 
HETATM   12  C19 UNL     1     129.188 105.005 284.035  1.00  0.00    -0.014 A 
HETATM   13  C20 UNL     1     129.703 104.433 282.881  1.00  0.00     0.035 A 
HETATM   14  C21 UNL     1     131.036 104.590 282.609  1.00  0.00     0.048 A 
HETATM   15 BR1  UNL     1     131.774 103.828 281.049  1.00  0.00    -0.048 Br
HETATM   16  C22 UNL     1     131.789 105.312 283.502  1.00  0.00     0.119 A 
HETATM   17  C24 UNL     1     131.286 105.884 284.650  1.00  0.00     0.108 A 
ENDROOT
BRANCH   6  18
HETATM   18  C6  UNL     1     124.248 103.917 284.088  1.00  0.00    -0.061 C 
HETATM   19  C7  UNL     1     123.249 103.406 283.641  1.00  0.00    -0.064 C 
BRANCH  19  20
HETATM   20  C8  UNL     1     122.037 102.793 283.122  1.00  0.00     0.114 C 
HETATM   21  C9  UNL     1     122.430 101.841 282.010  1.00  0.00     0.060 C 
HETATM   22  C10 UNL     1     121.330 102.044 284.242  1.00  0.00     0.060 C 
BRANCH  20  23
HETATM   23  O1  UNL     1     121.201 103.806 282.649  1.00  0.00    -0.378 OA
ATOM     24  H1  UNL     1     121.546 104.116 281.820  1.00  0.00     0.211 HD
ENDBRANCH  20  23
ENDBRANCH  19  20
ENDBRANCH   6  18
BRANCH  10  25
HETATM   25  C15 UNL     1     129.439 105.635 287.370  1.00  0.00     0.110 C 
HETATM   26  N1  UNL     1     129.264 104.372 287.567  1.00  0.00    -0.265 N 
ATOM     27  H1  UNL     1     128.871 103.827 286.800  1.00  0.00     0.194 HD
BRANCH  26  28
HETATM   28  O2  UNL     1     129.564 103.712 288.712  1.00  0.00    -0.285 OA
HETATM   29  C16 UNL     1     128.783 102.704 289.288  1.00  0.00     0.237 C 
ENDBRANCH  26  28
BRANCH  25  30
HETATM   30  C17 UNL     1     130.056 106.418 288.392  1.00  0.00     0.280 C 
HETATM   31  N2  UNL     1     131.349 106.975 288.347  1.00  0.00    -0.056 NA
HETATM   32  O3  UNL     1     129.434 106.696 289.494  1.00  0.00    -0.270 OA
ENDBRANCH  25  30
ENDBRANCH  10  25
BRANCH  17  33
HETATM   33  O5  UNL     1     132.134 106.600 285.497  1.00  0.00    -0.357 OA
ATOM     34  H5  UNL     1     132.647 106.167 286.169  1.00  0.00     0.217 HD
ENDBRANCH  17  33
BRANCH  16  35
HETATM   35  O4  UNL     1     133.166 105.502 283.265  1.00  0.00    -0.352 OA
HETATM   36  C23 UNL     1     133.624 106.640 282.545  1.00  0.00     0.210 C 
ENDBRANCH  16  35
TORSDOF 8
ENDMDL
MODEL 2
REMARK VINA RESULT: -7.575924167      4.452      8.419
REMARK  8 active torsions:
REMARK  status: ('A' for Active; 'I' for Inactive)
REMARK    1  A    between atoms: C5_6  and  C6_7 
REMARK    2  A    between atoms: C7_8  and  C8_9 
REMARK    3  A    between atoms: C8_9  and  O1_12 
REMARK    4  A    between atoms: C14_17  and  C15_18 
REMARK    5  A    between atoms: C15_18  and  C17_23 
REMARK    6  A    between atoms: N1_19  and  O2_21 
REMARK    7  A    between atoms: C22_31  and  O4_32 
REMARK    8  A    between atoms: C24_34  and  O5_35 
ROOT
HETATM    1  C1  UNL     1     128.417 102.426 289.571  1.00  0.00     0.103 C 
HETATM    2  C2  UNL     1     129.586 102.798 289.604  1.00  0.00    -0.145 C 
HETATM    3  C3  UNL     1     130.937 103.215 289.668  1.00  0.00     0.053 A 
HETATM    4  C4  UNL     1     131.712 103.102 290.790  1.00  0.00     0.153 A 
HETATM    5  F1  UNL     1     131.112 102.551 291.897  1.00  0.00    -0.203 F 
HETATM    6  C5  UNL     1     133.028 103.515 290.825  1.00  0.00     0.058 A 
HETATM    7  C11 UNL     1     133.585 104.060 289.691  1.00  0.00     0.036 A 
HETATM    8  C12 UNL     1     132.810 104.190 288.519  1.00  0.00    -0.015 A 
HETATM    9  C13 UNL     1     131.528 103.773 288.531  1.00  0.00    -0.011 A 
HETATM   10  C14 UNL     1     130.901 104.011 287.207  1.00  0.00     0.115 A 
HETATM   11  C18 UNL     1     132.017 104.599 286.410  1.00  0.00     0.004 A 
HETATM   12  C19 UNL     1     133.135 104.709 287.204  1.00  0.00    -0.014 A 
HETATM   13  C20 UNL     1     134.348 105.224 286.772  1.00  0.00     0.035 A 
HETATM   14  C21 UNL     1     134.455 105.655 285.477  1.00  0.00     0.048 A 
HETATM   15 BR1  UNL     1     136.089 106.362 284.854  1.00  0.00    -0.048 Br
HETATM   16  C22 UNL     1     133.345 105.549 284.676  1.00  0.00     0.119 A 
HETATM   17  C24 UNL     1     132.137 105.039 285.095  1.00  0.00     0.108 A 
ENDROOT
BRANCH   6  18
HETATM   18  C6  UNL     1     133.787 103.367 292.038  1.00  0.00    -0.061 C 
HETATM   19  C7  UNL     1     134.415 103.260 293.064  1.00  0.00    -0.064 C 
BRANCH  19  20
HETATM   20  C8  UNL     1     135.163 103.112 294.301  1.00  0.00     0.114 C 
HETATM   21  C9  UNL     1     136.493 103.821 294.135  1.00  0.00     0.060 C 
HETATM   22  C10 UNL     1     134.372 103.723 295.448  1.00  0.00     0.060 C 
BRANCH  20  23
HETATM   23  O1  UNL     1     135.344 101.749 294.544  1.00  0.00    -0.378 OA
ATOM     24  H1  UNL     1     134.493 101.326 294.519  1.00  0.00     0.211 HD
ENDBRANCH  20  23
ENDBRANCH  19  20
ENDBRANCH   6  18
BRANCH  10  25
HETATM   25  C15 UNL     1     129.740 104.912 287.357  1.00  0.00     0.110 C 
HETATM   26  N1  UNL     1     128.591 104.473 286.967  1.00  0.00    -0.265 N 
ATOM     27  H1  UNL     1     128.555 103.530 286.579  1.00  0.00     0.194 HD
BRANCH  26  28
HETATM   28  O2  UNL     1     127.429 105.166 287.034  1.00  0.00    -0.285 OA
HETATM   29  C16 UNL     1     126.200 104.639 287.449  1.00  0.00     0.237 C 
ENDBRANCH  26  28
BRANCH  25  30
HETATM   30  C17 UNL     1     129.820 106.196 287.974  1.00  0.00     0.280 C 
HETATM   31  N2  UNL     1     129.573 106.485 289.331  1.00  0.00    -0.056 NA
HETATM   32  O3  UNL     1     130.153 107.248 287.296  1.00  0.00    -0.270 OA
ENDBRANCH  25  30
ENDBRANCH  10  25
BRANCH  17  33
HETATM   33  O5  UNL     1     131.065 104.973 284.202  1.00  0.00    -0.357 OA
ATOM     34  H5  UNL     1     130.565 104.174 284.085  1.00  0.00     0.217 HD
ENDBRANCH  17  33
BRANCH  16  35
HETATM   35  O4  UNL     1     133.407 105.979 283.334  1.00  0.00    -0.352 OA
HETATM   36  C23 UNL     1     132.859 107.235 282.952  1.00  0.00     0.210 C 
ENDBRANCH  16  35
TORSDOF 8
ENDMDL
MODEL 3
REMARK VINA RESULT: -7.151448999      3.209      7.164
REMARK  8 active torsions:
REMARK  status: ('A' for Active; 'I' for Inactive)
REMARK    1  A    between atoms: C5_6  and  C6_7 
REMARK    2  A    between atoms: C7_8  and  C8_9 
REMARK    3  A    between atoms: C8_9  and  O1_12 
REMARK    4  A    between atoms: C14_17  and  C15_18 
REMARK    5  A    between atoms: C15_18  and  C17_23 
REMARK    6  A    between atoms: N1_19  and  O2_21 
REMARK    7  A    between atoms: C22_31  and  O4_32 
REMARK    8  A    between atoms: C24_34  and  O5_35 
ROOT
HETATM    1  C1  UNL     1     124.901 107.660 286.721  1.00  0.00     0.103 C 
HETATM    2  C2  UNL     1     125.982 107.106 286.551  1.00  0.00    -0.145 C 
HETATM    3  C3  UNL     1     127.238 106.488 286.338  1.00  0.00     0.053 A 
HETATM    4  C4  UNL     1     128.168 106.952 285.448  1.00  0.00     0.153 A 
HETATM    5  F1  UNL     1     127.830 108.078 284.738  1.00  0.00    -0.203 F 
HETATM    6  C5  UNL     1     129.387 106.331 285.262  1.00  0.00     0.058 A 
HETATM    7  C11 UNL     1     129.680 105.205 285.996  1.00  0.00     0.036 A 
HETATM    8  C12 UNL     1     128.740 104.705 286.921  1.00  0.00    -0.015 A 
HETATM    9  C13 UNL     1     127.562 105.342 287.071  1.00  0.00    -0.011 A 
HETATM   10  C14 UNL     1     126.727 104.644 288.080  1.00  0.00     0.115 A 
HETATM   11  C18 UNL     1     127.605 103.522 288.521  1.00  0.00     0.004 A 
HETATM   12  C19 UNL     1     128.787 103.565 287.818  1.00  0.00    -0.014 A 
HETATM   13  C20 UNL     1     129.823 102.657 287.982  1.00  0.00     0.035 A 
HETATM   14  C21 UNL     1     129.674 101.649 288.897  1.00  0.00     0.048 A 
HETATM   15 BR1  UNL     1     131.061 100.396 289.148  1.00  0.00    -0.048 Br
HETATM   16  C22 UNL     1     128.499 101.598 289.605  1.00  0.00     0.119 A 
HETATM   17  C24 UNL     1     127.465 102.495 289.449  1.00  0.00     0.108 A 
ENDROOT
BRANCH   6  18
HETATM   18  C6  UNL     1     130.320 106.871 284.309  1.00  0.00    -0.061 C 
HETATM   19  C7  UNL     1     131.110 107.305 283.506  1.00  0.00    -0.064 C 
BRANCH  19  20
HETATM   20  C8  UNL     1     132.046 107.837 282.530  1.00  0.00     0.114 C 
HETATM   21  C9  UNL     1     131.731 107.211 281.185  1.00  0.00     0.060 C 
HETATM   22  C10 UNL     1     131.900 109.351 282.461  1.00  0.00     0.060 C 
BRANCH  20  23
HETATM   23  O1  UNL     1     133.341 107.521 282.944  1.00  0.00    -0.378 OA
ATOM     24  H1  UNL     1     133.831 108.329 283.039  1.00  0.00     0.211 HD
ENDBRANCH  20  23
ENDBRANCH  19  20
ENDBRANCH   6  18
BRANCH  10  25
HETATM   25  C15 UNL     1     125.461 104.200 287.462  1.00  0.00     0.110 C 
HETATM   26  N1  UNL     1     125.497 103.836 286.224  1.00  0.00    -0.265 N 
ATOM     27  H1  UNL     1     126.399 103.877 285.748  1.00  0.00     0.194 HD
BRANCH  26  28
HETATM   28  O2  UNL     1     124.432 103.402 285.508  1.00  0.00    -0.285 OA
HETATM   29  C16 UNL     1     124.123 103.803 284.203  1.00  0.00     0.237 C 
ENDBRANCH  26  28
BRANCH  25  30
HETATM   30  C17 UNL     1     124.235 104.086 288.184  1.00  0.00     0.280 C 
HETATM   31  N2  UNL     1     123.758 102.932 288.836  1.00  0.00    -0.056 NA
HETATM   32  O3  UNL     1     123.431 105.094 288.306  1.00  0.00    -0.270 OA
ENDBRANCH  25  30
ENDBRANCH  10  25
BRANCH  17  33
HETATM   33  O5  UNL     1     126.307 102.358 290.218  1.00  0.00    -0.357 OA
ATOM     34  H5  UNL     1     126.256 101.733 290.932  1.00  0.00     0.217 HD
ENDBRANCH  17  33
BRANCH  16  35
HETATM   35  O4  UNL     1     128.299 100.579 290.559  1.00  0.00    -0.352 OA
HETATM   36  C23 UNL     1     128.706 100.764 291.909  1.00  0.00     0.210 C 
ENDBRANCH  16  35
TORSDOF 8
ENDMDL
MODEL 4
REMARK VINA RESULT: -7.073474278      5.232      9.455
REMARK  8 active torsions:
REMARK  status: ('A' for Active; 'I' for Inactive)
REMARK    1  A    between atoms: C5_6  and  C6_7 
REMARK    2  A    between atoms: C7_8  and  C8_9 
REMARK    3  A    between atoms: C8_9  and  O1_12 
REMARK    4  A    between atoms: C14_17  and  C15_18 
REMARK    5  A    between atoms: C15_18  and  C17_23 
REMARK    6  A    between atoms: N1_19  and  O2_21 
REMARK    7  A    between atoms: C22_31  and  O4_32 
REMARK    8  A    between atoms: C24_34  and  O5_35 
ROOT
HETATM    1  C1  UNL     1     129.511 101.191 291.357  1.00  0.00     0.103 C 
HETATM    2  C2  UNL     1     130.557 101.806 291.171  1.00  0.00    -0.145 C 
HETATM    3  C3  UNL     1     131.771 102.508 290.983  1.00  0.00     0.053 A 
HETATM    4  C4  UNL     1     132.661 102.764 291.991  1.00  0.00     0.153 A 
HETATM    5  F1  UNL     1     132.323 102.302 293.240  1.00  0.00    -0.203 F 
HETATM    6  C5  UNL     1     133.840 103.450 291.780  1.00  0.00     0.058 A 
HETATM    7  C11 UNL     1     134.135 103.893 290.511  1.00  0.00     0.036 A 
HETATM    8  C12 UNL     1     133.237 103.643 289.453  1.00  0.00    -0.015 A 
HETATM    9  C13 UNL     1     132.096 102.970 289.704  1.00  0.00    -0.011 A 
HETATM   10  C14 UNL     1     131.299 102.830 288.460  1.00  0.00     0.115 A 
HETATM   11  C18 UNL     1     132.159 103.493 287.437  1.00  0.00     0.004 A 
HETATM   12  C19 UNL     1     133.295 103.979 288.042  1.00  0.00    -0.014 A 
HETATM   13  C20 UNL     1     134.303 104.659 287.374  1.00  0.00     0.035 A 
HETATM   14  C21 UNL     1     134.173 104.867 286.027  1.00  0.00     0.048 A 
HETATM   15 BR1  UNL     1     135.523 105.787 285.084  1.00  0.00    -0.048 Br
HETATM   16  C22 UNL     1     133.043 104.385 285.413  1.00  0.00     0.119 A 
HETATM   17  C24 UNL     1     132.038 103.709 286.067  1.00  0.00     0.108 A 
ENDROOT
BRANCH   6  18
HETATM   18  C6  UNL     1     134.731 103.685 292.884  1.00  0.00    -0.061 C 
HETATM   19  C7  UNL     1     135.496 103.881 293.798  1.00  0.00    -0.064 C 
BRANCH  19  20
HETATM   20  C8  UNL     1     136.405 104.135 294.903  1.00  0.00     0.114 C 
HETATM   21  C9  UNL     1     137.365 102.965 295.002  1.00  0.00     0.060 C 
HETATM   22  C10 UNL     1     137.165 105.429 294.647  1.00  0.00     0.060 C 
BRANCH  20  23
HETATM   23  O1  UNL     1     135.651 104.270 296.069  1.00  0.00    -0.378 OA
ATOM     24  H1  UNL     1     135.022 104.970 295.939  1.00  0.00     0.211 HD
ENDBRANCH  20  23
ENDBRANCH  19  20
ENDBRANCH   6  18
BRANCH  10  25
HETATM   25  C15 UNL     1     129.981 103.472 288.634  1.00  0.00     0.110 C 
HETATM   26  N1  UNL     1     129.960 104.673 289.105  1.00  0.00    -0.265 N 
ATOM     27  H1  UNL     1     130.856 105.106 289.328  1.00  0.00     0.194 HD
BRANCH  26  28
HETATM   28  O2  UNL     1     128.841 105.404 289.325  1.00  0.00    -0.285 OA
HETATM   29  C16 UNL     1     128.304 106.342 288.434  1.00  0.00     0.237 C 
ENDBRANCH  26  28
BRANCH  25  30
HETATM   30  C17 UNL     1     128.753 102.859 288.239  1.00  0.00     0.280 C 
HETATM   31  N2  UNL     1     127.623 102.658 289.054  1.00  0.00    -0.056 NA
HETATM   32  O3  UNL     1     128.577 102.428 287.029  1.00  0.00    -0.270 OA
ENDBRANCH  25  30
ENDBRANCH  10  25
BRANCH  17  33
HETATM   33  O5  UNL     1     130.926 103.258 285.353  1.00  0.00    -0.357 OA
ATOM     34  H5  UNL     1     130.725 103.590 284.485  1.00  0.00     0.217 HD
ENDBRANCH  17  33
BRANCH  16  35
HETATM   35  O4  UNL     1     132.865 104.574 284.026  1.00  0.00    -0.352 OA
HETATM   36  C23 UNL     1     133.314 103.593 283.100  1.00  0.00     0.210 C 
ENDBRANCH  16  35
TORSDOF 8
ENDMDL
MODEL 5
REMARK VINA RESULT: -6.863125141      5.123      7.266
REMARK  8 active torsions:
REMARK  status: ('A' for Active; 'I' for Inactive)
REMARK    1  A    between atoms: C5_6  and  C6_7 
REMARK    2  A    between atoms: C7_8  and  C8_9 
REMARK    3  A    between atoms: C8_9  and  O1_12 
REMARK    4  A    between atoms: C14_17  and  C15_18 
REMARK    5  A    between atoms: C15_18  and  C17_23 
REMARK    6  A    between atoms: N1_19  and  O2_21 
REMARK    7  A    between atoms: C22_31  and  O4_32 
REMARK    8  A    between atoms: C24_34  and  O5_35 
ROOT
HETATM    1  C1  UNL     1     131.376 106.294 280.995  1.00  0.00     0.103 C 
HETATM    2  C2  UNL     1     131.615 105.190 281.475  1.00  0.00    -0.145 C 
HETATM    3  C3  UNL     1     131.887 103.906 282.004  1.00  0.00     0.053 A 
HETATM    4  C4  UNL     1     131.693 102.745 281.306  1.00  0.00     0.153 A 
HETATM    5  F1  UNL     1     131.206 102.871 280.028  1.00  0.00    -0.203 F 
HETATM    6  C5  UNL     1     131.968 101.504 281.845  1.00  0.00     0.058 A 
HETATM    7  C11 UNL     1     132.455 101.429 283.130  1.00  0.00     0.036 A 
HETATM    8  C12 UNL     1     132.665 102.609 283.872  1.00  0.00    -0.015 A 
HETATM    9  C13 UNL     1     132.382 103.800 283.307  1.00  0.00    -0.011 A 
HETATM   10  C14 UNL     1     132.665 104.900 284.262  1.00  0.00     0.115 A 
HETATM   11  C18 UNL     1     133.184 104.178 285.459  1.00  0.00     0.004 A 
HETATM   12  C19 UNL     1     133.167 102.824 285.217  1.00  0.00    -0.014 A 
HETATM   13  C20 UNL     1     133.581 101.864 286.129  1.00  0.00     0.035 A 
HETATM   14  C21 UNL     1     134.038 102.276 287.353  1.00  0.00     0.048 A 
HETATM   15 BR1  UNL     1     134.609 101.001 288.620  1.00  0.00    -0.048 Br
HETATM   16  C22 UNL     1     134.060 103.626 287.604  1.00  0.00     0.119 A 
HETATM   17  C24 UNL     1     133.652 104.585 286.705  1.00  0.00     0.108 A 
ENDROOT
BRANCH   6  18
HETATM   18  C6  UNL     1     131.741 100.322 281.057  1.00  0.00    -0.061 C 
HETATM   19  C7  UNL     1     131.557  99.318 280.412  1.00  0.00    -0.064 C 
BRANCH  19  20
HETATM   20  C8  UNL     1     131.316  98.117 279.630  1.00  0.00     0.114 C 
HETATM   21  C9  UNL     1     132.542  97.231 279.737  1.00  0.00     0.060 C 
HETATM   22  C10 UNL     1     130.090  97.397 280.173  1.00  0.00     0.060 C 
BRANCH  20  23
HETATM   23  O1  UNL     1     131.078  98.494 278.308  1.00  0.00    -0.378 OA
ATOM     24  H1  UNL     1     130.673  97.762 277.856  1.00  0.00     0.211 HD
ENDBRANCH  20  23
ENDBRANCH  19  20
ENDBRANCH   6  18
BRANCH  10  25
HETATM   25  C15 UNL     1     131.430 105.668 284.522  1.00  0.00     0.110 C 
HETATM   26  N1  UNL     1     131.496 106.953 284.428  1.00  0.00    -0.265 N 
ATOM     27  H1  UNL     1     132.397 107.360 284.180  1.00  0.00     0.194 HD
BRANCH  26  28
HETATM   28  O2  UNL     1     130.461 107.803 284.632  1.00  0.00    -0.285 OA
HETATM   29  C16 UNL     1     130.361 109.093 284.096  1.00  0.00     0.237 C 
ENDBRANCH  26  28
BRANCH  25  30
HETATM   30  C17 UNL     1     130.169 105.055 284.793  1.00  0.00     0.280 C 
HETATM   31  N2  UNL     1     129.783 104.445 286.002  1.00  0.00    -0.056 NA
HETATM   32  O3  UNL     1     129.233 105.021 283.898  1.00  0.00    -0.270 OA
ENDBRANCH  25  30
ENDBRANCH  10  25
BRANCH  17  33
HETATM   33  O5  UNL     1     133.714 105.935 287.056  1.00  0.00    -0.357 OA
ATOM     34  H5  UNL     1     134.518 106.330 287.372  1.00  0.00     0.217 HD
ENDBRANCH  17  33
BRANCH  16  35
HETATM   35  O4  UNL     1     134.523 104.098 288.850  1.00  0.00    -0.352 OA
HETATM   36  C23 UNL     1     133.668 104.097 289.986  1.00  0.00     0.210 C 
ENDBRANCH  16  35
TORSDOF 8
ENDMDL
