MODEL 1
REMARK VINA RESULT: -7.424970382      0.000      0.000
REMARK  5 active torsions:
REMARK  status: ('A' for Active; 'I' for Inactive)
REMARK    1  A    between atoms: O1_2  and  C2_3 
REMARK    2  A    between atoms: C3_4  and  C4_5 
REMARK    3  A    between atoms: C13_19  and  C14_20 
REMARK    4  A    between atoms: N4_21  and  N5_23 
REMARK    5  A    between atoms: N5_23  and  C15_25 
ROOT
HETATM    1  C2  UNL     1     132.645 105.114 285.974  1.00  0.00     0.096 A 
HETATM    2  C3  UNL     1     131.612 105.811 285.406  1.00  0.00     0.011 A 
HETATM    3  C12 UNL     1     130.430 105.974 286.155  1.00  0.00     0.027 A 
HETATM    4  C13 UNL     1     130.347 105.441 287.412  1.00  0.00     0.000 A 
HETATM    5  C16 UNL     1     131.407 104.746 287.955  1.00  0.00     0.042 A 
HETATM    6 BR1  UNL     1     131.262 104.013 289.713  1.00  0.00    -0.049 Br
HETATM    7  C17 UNL     1     132.579 104.558 287.266  1.00  0.00     0.063 A 
HETATM    8 BR2  UNL     1     134.039 103.599 288.017  1.00  0.00    -0.047 Br
ENDROOT
BRANCH   2   9
HETATM    9  C4  UNL     1     131.616 106.446 284.085  1.00  0.00     0.101 A 
HETATM   10  C5  UNL     1     130.593 107.586 284.027  1.00  0.00     0.051 C 
HETATM   11  N1  UNL     1     132.894 107.085 283.793  1.00  0.00    -0.359 N 
HETATM   12  C6  UNL     1     133.313 106.789 282.624  1.00  0.00     0.125 A 
ATOM     13  H1  UNL     1     133.392 107.695 284.442  1.00  0.00     0.162 HD
HETATM   14  N2  UNL     1     134.511 107.251 282.044  1.00  0.00    -0.082 NA
HETATM   15  C7  UNL     1     132.379 105.858 282.011  1.00  0.00     0.030 A 
HETATM   16  C8  UNL     1     132.320 105.198 280.803  1.00  0.00     0.018 A 
HETATM   17  C11 UNL     1     131.341 105.601 282.912  1.00  0.00     0.056 A 
HETATM   18  C9  UNL     1     131.317 104.324 280.459  1.00  0.00     0.018 A 
HETATM   19  C10 UNL     1     130.316 104.101 281.381  1.00  0.00     0.088 A 
HETATM   20  N3  UNL     1     130.363 104.740 282.562  1.00  0.00    -0.366 N 
ATOM     21  H3  UNL     1     129.616 104.564 283.234  1.00  0.00     0.165 HD
ENDBRANCH   2   9
BRANCH   1  22
HETATM   22  O1  UNL     1     133.837 104.889 285.336  1.00  0.00    -0.354 OA
HETATM   23  C1  UNL     1     134.178 103.790 284.528  1.00  0.00     0.210 C 
ENDBRANCH   1  22
BRANCH   4  24
HETATM   24  C14 UNL     1     129.106 105.631 288.156  1.00  0.00     0.120 C 
HETATM   25  N4  UNL     1     127.994 105.434 287.535  1.00  0.00    -0.309 N 
ATOM     26  H4  UNL     1     128.032 105.156 286.555  1.00  0.00     0.186 HD
BRANCH  25  27
HETATM   27  N5  UNL     1     126.754 105.580 288.125  1.00  0.00    -0.279 N 
ATOM     28  H5  UNL     1     126.302 104.781 288.570  1.00  0.00     0.189 HD
BRANCH  27  29
HETATM   29  C15 UNL     1     126.113 106.838 288.111  1.00  0.00     0.199 C 
HETATM   30  N6  UNL     1     125.989 107.574 289.304  1.00  0.00    -0.068 NA
HETATM   31  S1  UNL     1     125.507 107.460 286.730  1.00  0.00    -0.043 SA
ENDBRANCH  27  29
ENDBRANCH  25  27
ENDBRANCH   4  24
TORSDOF 5
ENDMDL
MODEL 2
REMARK VINA RESULT: -6.944110855      4.153      6.596
REMARK  5 active torsions:
REMARK  status: ('A' for Active; 'I' for Inactive)
REMARK    1  A    between atoms: O1_2  and  C2_3 
REMARK    2  A    between atoms: C3_4  and  C4_5 
REMARK    3  A    between atoms: C13_19  and  C14_20 
REMARK    4  A    between atoms: N4_21  and  N5_23 
REMARK    5  A    between atoms: N5_23  and  C15_25 
ROOT
HETATM    1  C2  UNL     1     133.866 102.638 284.516  1.00  0.00     0.096 A 
HETATM    2  C3  UNL     1     134.303 103.732 285.216  1.00  0.00     0.011 A 
HETATM    3  C12 UNL     1     133.971 105.010 284.726  1.00  0.00     0.027 A 
HETATM    4  C13 UNL     1     133.229 105.124 283.581  1.00  0.00     0.000 A 
HETATM    5  C16 UNL     1     132.804 104.003 282.902  1.00  0.00     0.042 A 
HETATM    6 BR1  UNL     1     131.770 104.193 281.308  1.00  0.00    -0.049 Br
HETATM    7  C17 UNL     1     133.102 102.735 283.337  1.00  0.00     0.063 A 
HETATM    8 BR2  UNL     1     132.514 101.190 282.399  1.00  0.00    -0.047 Br
ENDROOT
BRANCH   2   9
HETATM    9  C4  UNL     1     135.070 103.714 286.464  1.00  0.00     0.101 A 
HETATM   10  C5  UNL     1     135.244 105.133 287.017  1.00  0.00     0.051 C 
HETATM   11  N1  UNL     1     134.371 102.991 287.522  1.00  0.00    -0.359 N 
HETATM   12  C6  UNL     1     135.143 102.172 288.122  1.00  0.00     0.125 A 
ATOM     13  H1  UNL     1     133.387 103.125 287.754  1.00  0.00     0.162 HD
HETATM   14  N2  UNL     1     134.771 101.332 289.192  1.00  0.00    -0.082 NA
HETATM   15  C7  UNL     1     136.452 102.207 287.491  1.00  0.00     0.030 A 
HETATM   16  C8  UNL     1     137.644 101.546 287.690  1.00  0.00     0.018 A 
HETATM   17  C11 UNL     1     136.420 103.127 286.437  1.00  0.00     0.056 A 
HETATM   18  C9  UNL     1     138.766 101.744 286.920  1.00  0.00     0.018 A 
HETATM   19  C10 UNL     1     138.684 102.659 285.891  1.00  0.00     0.088 A 
HETATM   20  N3  UNL     1     137.527 103.310 285.689  1.00  0.00    -0.366 N 
ATOM     21  H3  UNL     1     137.482 103.983 284.923  1.00  0.00     0.165 HD
ENDBRANCH   2   9
BRANCH   1  22
HETATM   22  O1  UNL     1     134.134 101.349 284.897  1.00  0.00    -0.354 OA
HETATM   23  C1  UNL     1     135.219 100.550 284.494  1.00  0.00     0.210 C 
ENDBRANCH   1  22
BRANCH   4  24
HETATM   24  C14 UNL     1     132.906 106.465 283.106  1.00  0.00     0.120 C 
HETATM   25  N4  UNL     1     132.096 107.177 283.812  1.00  0.00    -0.309 N 
ATOM     26  H4  UNL     1     131.718 106.772 284.668  1.00  0.00     0.186 HD
BRANCH  25  27
HETATM   27  N5  UNL     1     131.712 108.459 283.472  1.00  0.00    -0.279 N 
ATOM     28  H5  UNL     1     132.256 108.995 282.796  1.00  0.00     0.189 HD
BRANCH  27  29
HETATM   29  C15 UNL     1     130.562 109.027 284.062  1.00  0.00     0.199 C 
HETATM   30  N6  UNL     1     130.420 110.427 284.113  1.00  0.00    -0.068 NA
HETATM   31  S1  UNL     1     129.387 108.089 284.694  1.00  0.00    -0.043 SA
ENDBRANCH  27  29
ENDBRANCH  25  27
ENDBRANCH   4  24
TORSDOF 5
ENDMDL
MODEL 3
REMARK VINA RESULT: -6.896473980      3.990      5.523
REMARK  5 active torsions:
REMARK  status: ('A' for Active; 'I' for Inactive)
REMARK    1  A    between atoms: O1_2  and  C2_3 
REMARK    2  A    between atoms: C3_4  and  C4_5 
REMARK    3  A    between atoms: C13_19  and  C14_20 
REMARK    4  A    between atoms: N4_21  and  N5_23 
REMARK    5  A    between atoms: N5_23  and  C15_25 
ROOT
HETATM    1  C2  UNL     1     131.944 104.667 285.387  1.00  0.00     0.096 A 
HETATM    2  C3  UNL     1     131.504 105.217 286.561  1.00  0.00     0.011 A 
HETATM    3  C12 UNL     1     132.190 104.889 287.747  1.00  0.00     0.027 A 
HETATM    4  C13 UNL     1     133.263 104.042 287.695  1.00  0.00     0.000 A 
HETATM    5  C16 UNL     1     133.681 103.506 286.496  1.00  0.00     0.042 A 
HETATM    6 BR1  UNL     1     135.183 102.327 286.454  1.00  0.00    -0.049 Br
HETATM    7  C17 UNL     1     133.046 103.794 285.313  1.00  0.00     0.063 A 
HETATM    8 BR2  UNL     1     133.625 103.055 283.660  1.00  0.00    -0.047 Br
ENDROOT
BRANCH   2   9
HETATM    9  C4  UNL     1     130.390 106.157 286.716  1.00  0.00     0.101 A 
HETATM   10  C5  UNL     1     130.262 106.616 288.173  1.00  0.00     0.051 C 
HETATM   11  N1  UNL     1     130.608 107.388 285.962  1.00  0.00    -0.359 N 
HETATM   12  C6  UNL     1     129.574 107.717 285.290  1.00  0.00     0.125 A 
ATOM     13  H1  UNL     1     131.478 107.919 285.972  1.00  0.00     0.162 HD
HETATM   14  N2  UNL     1     129.465 108.856 284.465  1.00  0.00    -0.082 NA
HETATM   15  C7  UNL     1     128.549 106.702 285.471  1.00  0.00     0.030 A 
HETATM   16  C8  UNL     1     127.271 106.517 284.991  1.00  0.00     0.018 A 
HETATM   17  C11 UNL     1     129.046 105.706 286.319  1.00  0.00     0.056 A 
HETATM   18  C9  UNL     1     126.490 105.429 285.299  1.00  0.00     0.018 A 
HETATM   19  C10 UNL     1     127.024 104.473 286.138  1.00  0.00     0.088 A 
HETATM   20  N3  UNL     1     128.269 104.644 286.612  1.00  0.00    -0.366 N 
ATOM     21  H3  UNL     1     128.650 103.927 287.231  1.00  0.00     0.165 HD
ENDBRANCH   2   9
BRANCH   1  22
HETATM   22  O1  UNL     1     131.350 104.912 284.176  1.00  0.00    -0.354 OA
HETATM   23  C1  UNL     1     130.344 104.154 283.551  1.00  0.00     0.210 C 
ENDBRANCH   1  22
BRANCH   4  24
HETATM   24  C14 UNL     1     133.946 103.725 288.945  1.00  0.00     0.120 C 
HETATM   25  N4  UNL     1     133.769 104.516 289.947  1.00  0.00    -0.309 N 
ATOM     26  H4  UNL     1     133.161 105.325 289.821  1.00  0.00     0.186 HD
BRANCH  25  27
HETATM   27  N5  UNL     1     134.357 104.327 291.182  1.00  0.00    -0.279 N 
ATOM     28  H5  UNL     1     135.257 104.760 291.391  1.00  0.00     0.189 HD
BRANCH  27  29
HETATM   29  C15 UNL     1     133.711 103.534 292.155  1.00  0.00     0.199 C 
HETATM   30  N6  UNL     1     132.323 103.317 292.071  1.00  0.00    -0.068 NA
HETATM   31  S1  UNL     1     134.545 102.860 293.384  1.00  0.00    -0.043 SA
ENDBRANCH  27  29
ENDBRANCH  25  27
ENDBRANCH   4  24
TORSDOF 5
ENDMDL
MODEL 4
REMARK VINA RESULT: -6.818000430      2.046      2.214
REMARK  5 active torsions:
REMARK  status: ('A' for Active; 'I' for Inactive)
REMARK    1  A    between atoms: O1_2  and  C2_3 
REMARK    2  A    between atoms: C3_4  and  C4_5 
REMARK    3  A    between atoms: C13_19  and  C14_20 
REMARK    4  A    between atoms: N4_21  and  N5_23 
REMARK    5  A    between atoms: N5_23  and  C15_25 
ROOT
HETATM    1  C2  UNL     1     132.503 105.579 285.877  1.00  0.00     0.096 A 
HETATM    2  C3  UNL     1     131.179 105.768 285.581  1.00  0.00     0.011 A 
HETATM    3  C12 UNL     1     130.221 105.354 286.528  1.00  0.00     0.027 A 
HETATM    4  C13 UNL     1     130.633 104.783 287.701  1.00  0.00     0.000 A 
HETATM    5  C16 UNL     1     131.974 104.609 287.968  1.00  0.00     0.042 A 
HETATM    6 BR1  UNL     1     132.519 103.810 289.615  1.00  0.00    -0.049 Br
HETATM    7  C17 UNL     1     132.946 104.994 287.078  1.00  0.00     0.063 A 
HETATM    8 BR2  UNL     1     134.795 104.753 287.449  1.00  0.00    -0.047 Br
ENDROOT
BRANCH   2   9
HETATM    9  C4  UNL     1     130.640 106.398 284.372  1.00  0.00     0.101 A 
HETATM   10  C5  UNL     1     129.156 106.738 284.549  1.00  0.00     0.051 C 
HETATM   11  N1  UNL     1     131.279 107.680 284.096  1.00  0.00    -0.359 N 
HETATM   12  C6  UNL     1     131.626 107.780 282.872  1.00  0.00     0.125 A 
ATOM     13  H1  UNL     1     131.431 108.408 284.795  1.00  0.00     0.162 HD
HETATM   14  N2  UNL     1     132.260 108.897 282.290  1.00  0.00    -0.082 NA
HETATM   15  C7  UNL     1     131.307 106.537 282.188  1.00  0.00     0.030 A 
HETATM   16  C8  UNL     1     131.464 106.069 280.902  1.00  0.00     0.018 A 
HETATM   17  C11 UNL     1     130.731 105.652 283.107  1.00  0.00     0.056 A 
HETATM   18  C9  UNL     1     131.094 104.809 280.497  1.00  0.00     0.018 A 
HETATM   19  C10 UNL     1     130.533 103.972 281.439  1.00  0.00     0.088 A 
HETATM   20  N3  UNL     1     130.374 104.419 282.696  1.00  0.00    -0.366 N 
ATOM     21  H3  UNL     1     129.958 103.787 283.381  1.00  0.00     0.165 HD
ENDBRANCH   2   9
BRANCH   1  22
HETATM   22  O1  UNL     1     133.518 105.938 285.029  1.00  0.00    -0.354 OA
HETATM   23  C1  UNL     1     134.135 105.138 284.051  1.00  0.00     0.210 C 
ENDBRANCH   1  22
BRANCH   4  24
HETATM   24  C14 UNL     1     129.611 104.367 288.655  1.00  0.00     0.120 C 
HETATM   25  N4  UNL     1     128.380 104.394 288.273  1.00  0.00    -0.309 N 
ATOM     26  H4  UNL     1     128.177 104.705 287.323  1.00  0.00     0.186 HD
BRANCH  25  27
HETATM   27  N5  UNL     1     127.321 104.026 289.079  1.00  0.00    -0.279 N 
ATOM     28  H5  UNL     1     126.643 104.724 289.384  1.00  0.00     0.189 HD
BRANCH  27  29
HETATM   29  C15 UNL     1     127.178 102.679 289.479  1.00  0.00     0.199 C 
HETATM   30  N6  UNL     1     127.006 102.368 290.841  1.00  0.00    -0.068 NA
HETATM   31  S1  UNL     1     127.210 101.467 288.388  1.00  0.00    -0.043 SA
ENDBRANCH  27  29
ENDBRANCH  25  27
ENDBRANCH   4  24
TORSDOF 5
ENDMDL
MODEL 5
REMARK VINA RESULT: -6.804274806      3.447      3.991
REMARK  5 active torsions:
REMARK  status: ('A' for Active; 'I' for Inactive)
REMARK    1  A    between atoms: O1_2  and  C2_3 
REMARK    2  A    between atoms: C3_4  and  C4_5 
REMARK    3  A    between atoms: C13_19  and  C14_20 
REMARK    4  A    between atoms: N4_21  and  N5_23 
REMARK    5  A    between atoms: N5_23  and  C15_25 
ROOT
HETATM    1  C2  UNL     1     133.894 104.756 285.082  1.00  0.00     0.096 A 
HETATM    2  C3  UNL     1     132.551 104.921 285.296  1.00  0.00     0.011 A 
HETATM    3  C12 UNL     1     132.015 104.482 286.522  1.00  0.00     0.027 A 
HETATM    4  C13 UNL     1     132.838 103.913 287.455  1.00  0.00     0.000 A 
HETATM    5  C16 UNL     1     134.186 103.763 287.209  1.00  0.00     0.042 A 
HETATM    6 BR1  UNL     1     135.310 102.966 288.531  1.00  0.00    -0.049 Br
HETATM    7  C17 UNL     1     134.757 104.173 286.030  1.00  0.00     0.063 A 
HETATM    8 BR2  UNL     1     136.616 103.965 285.692  1.00  0.00    -0.047 Br
ENDROOT
BRANCH   2   9
HETATM    9  C4  UNL     1     131.596 105.546 284.376  1.00  0.00     0.101 A 
HETATM   10  C5  UNL     1     130.176 105.497 284.950  1.00  0.00     0.051 C 
HETATM   11  N1  UNL     1     131.868 106.968 284.195  1.00  0.00    -0.359 N 
HETATM   12  C6  UNL     1     131.850 107.297 282.962  1.00  0.00     0.125 A 
ATOM     13  H1  UNL     1     132.051 107.620 284.958  1.00  0.00     0.162 HD
HETATM   14  N2  UNL     1     132.069 108.596 282.459  1.00  0.00    -0.082 NA
HETATM   15  C7  UNL     1     131.617 106.108 282.159  1.00  0.00     0.030 A 
HETATM   16  C8  UNL     1     131.518 105.852 280.809  1.00  0.00     0.018 A 
HETATM   17  C11 UNL     1     131.495 105.005 283.012  1.00  0.00     0.056 A 
HETATM   18  C9  UNL     1     131.314 104.599 280.282  1.00  0.00     0.018 A 
HETATM   19  C10 UNL     1     131.202 103.543 281.162  1.00  0.00     0.088 A 
HETATM   20  N3  UNL     1     131.297 103.782 282.481  1.00  0.00    -0.366 N 
ATOM     21  H3  UNL     1     131.213 102.990 283.119  1.00  0.00     0.165 HD
ENDBRANCH   2   9
BRANCH   1  22
HETATM   22  O1  UNL     1     134.521 105.139 283.925  1.00  0.00    -0.354 OA
HETATM   23  C1  UNL     1     135.238 106.327 283.698  1.00  0.00     0.210 C 
ENDBRANCH   1  22
BRANCH   4  24
HETATM   24  C14 UNL     1     132.244 103.472 288.713  1.00  0.00     0.120 C 
HETATM   25  N4  UNL     1     132.241 104.298 289.702  1.00  0.00    -0.309 N 
ATOM     26  H4  UNL     1     132.652 105.221 289.561  1.00  0.00     0.186 HD
BRANCH  25  27
HETATM   27  N5  UNL     1     131.710 104.003 290.943  1.00  0.00    -0.279 N 
ATOM     28  H5  UNL     1     130.843 104.446 291.247  1.00  0.00     0.189 HD
BRANCH  27  29
HETATM   29  C15 UNL     1     132.371 103.086 291.789  1.00  0.00     0.199 C 
HETATM   30  N6  UNL     1     131.704 101.921 292.215  1.00  0.00    -0.068 NA
HETATM   31  S1  UNL     1     133.901 103.350 292.288  1.00  0.00    -0.043 SA
ENDBRANCH  27  29
ENDBRANCH  25  27
ENDBRANCH   4  24
TORSDOF 5
ENDMDL
