MODEL 1
REMARK VINA RESULT: -8.913105438      0.000      0.000
REMARK  9 active torsions:
REMARK  status: ('A' for Active; 'I' for Inactive)
REMARK    1  A    between atoms: N1_1  and  C1_4 
REMARK    2  A    between atoms: C3_8  and  C4_9 
REMARK    3  A    between atoms: N3_10  and  N4_12 
REMARK    4  A    between atoms: N4_12  and  N5_14 
REMARK    5  A    between atoms: N5_14  and  C5_16 
REMARK    6  A    between atoms: C8_19  and  N6_20 
REMARK    7  A    between atoms: C9_23  and  S1_24 
REMARK    8  A    between atoms: S1_24  and  N7_27 
REMARK    9  A    between atoms: C11_35  and  O5_36 
ROOT
HETATM    1  C5  UNL     1     -29.704   5.028 -27.896  1.00  0.00     0.084 A 
HETATM    2  C6  UNL     1     -29.883   3.981 -27.012  1.00  0.00     0.036 A 
HETATM    3  C7  UNL     1     -30.518   4.125 -25.812  1.00  0.00     0.040 A 
HETATM    4  C8  UNL     1     -31.022   5.410 -25.444  1.00  0.00     0.129 A 
HETATM    5  C9  UNL     1     -30.861   6.453 -26.291  1.00  0.00     0.149 A 
HETATM    6  C11 UNL     1     -30.196   6.253 -27.525  1.00  0.00     0.119 A 
ENDROOT
BRANCH   1   7
HETATM    7  N5  UNL     1     -29.040   4.778 -29.125  1.00  0.00    -0.284 N 
ATOM      8  H5  UNL     1     -28.051   4.534 -29.095  1.00  0.00     0.188 HD
BRANCH   7   9
HETATM    9  N4  UNL     1     -29.660   4.847 -30.367  1.00  0.00    -0.243 N 
ATOM     10  H4  UNL     1     -30.667   4.725 -30.465  1.00  0.00     0.208 HD
BRANCH   9  11
HETATM   11  N3  UNL     1     -28.854   5.088 -31.464  1.00  0.00    -0.297 N 
HETATM   12  C4  UNL     1     -28.780   4.316 -32.479  1.00  0.00     0.127 C 
ATOM     13  H3  UNL     1     -28.284   5.934 -31.462  1.00  0.00     0.187 HD
BRANCH  12  14
HETATM   14  C3  UNL     1     -27.902   4.638 -33.612  1.00  0.00     0.065 A 
HETATM   15  C2  UNL     1     -28.359   4.545 -34.887  1.00  0.00     0.124 A 
HETATM   16  N2  UNL     1     -27.571   4.846 -35.943  1.00  0.00    -0.201 N 
HETATM   17  C1  UNL     1     -26.307   5.247 -35.718  1.00  0.00     0.678 A 
ATOM     18  H2  UNL     1     -27.930   4.771 -36.895  1.00  0.00     0.183 HD
HETATM   19  N11 UNL     1     -25.850   5.340 -34.462  1.00  0.00    -0.156 N 
HETATM   20  C12 UNL     1     -26.613   5.045 -33.384  1.00  0.00     0.272 A 
ATOM     21  H11 UNL     1     -24.888   5.645 -34.312  1.00  0.00     0.187 HD
HETATM   22  O6  UNL     1     -26.144   5.146 -32.216  1.00  0.00    -0.267 OA
BRANCH  17  23
HETATM   23  N1  UNL     1     -25.561   5.538 -36.745  1.00  0.00    -0.234 N 
ATOM     24  H12 UNL     1     -25.936   6.011 -37.567  1.00  0.00     0.174 HD
ATOM     25  H11 UNL     1     -24.575   5.277 -36.715  1.00  0.00     0.174 HD
ENDBRANCH  17  23
ENDBRANCH  12  14
ENDBRANCH   9  11
ENDBRANCH   7   9
ENDBRANCH   1   7
BRANCH   6  26
HETATM   26  O5  UNL     1     -30.047   7.328 -28.362  1.00  0.00    -0.357 OA
ATOM     27  H5  UNL     1     -30.383   8.178 -28.103  1.00  0.00     0.218 HD
ENDBRANCH   6  26
BRANCH   5  28
HETATM   28  S1  UNL     1     -31.442   8.052 -25.939  1.00  0.00     0.289 S 
HETATM   29  O3  UNL     1     -30.342   9.024 -25.734  1.00  0.00    -0.198 OA
HETATM   30  O4  UNL     1     -32.096   8.521 -27.273  1.00  0.00    -0.198 OA
BRANCH  28  31
HETATM   31  N7  UNL     1     -32.657   8.094 -24.732  1.00  0.00    -0.155 N 
HETATM   32  C10 UNL     1     -34.005   8.034 -24.966  1.00  0.00     0.239 A 
HETATM   33  N8  UNL     1     -34.685   8.092 -23.810  1.00  0.00    -0.278 N 
HETATM   34  N9  UNL     1     -33.759   8.188 -22.857  1.00  0.00    -0.226 N 
ATOM     35  H8  UNL     1     -35.697   8.068 -23.687  1.00  0.00     0.189 HD
HETATM   36  N10 UNL     1     -32.584   8.187 -23.425  1.00  0.00    -0.211 N 
ATOM     37  H9  UNL     1     -33.938   8.252 -21.855  1.00  0.00     0.210 HD
ATOM     38  H10 UNL     1     -31.706   8.252 -22.910  1.00  0.00     0.211 HD
ENDBRANCH  28  31
ENDBRANCH   5  28
BRANCH   4  39
HETATM   39  N6  UNL     1     -31.634   5.493 -24.190  1.00  0.00    -0.114 N 
HETATM   40  O1  UNL     1     -32.776   5.213 -23.885  1.00  0.00    -0.532 OA
HETATM   41  O2  UNL     1     -30.825   5.913 -23.120  1.00  0.00    -0.532 OA
ENDBRANCH   4  39
TORSDOF 9
ENDMDL
MODEL 2
REMARK VINA RESULT: -8.905524470      0.980      1.246
REMARK  9 active torsions:
REMARK  status: ('A' for Active; 'I' for Inactive)
REMARK    1  A    between atoms: N1_1  and  C1_4 
REMARK    2  A    between atoms: C3_8  and  C4_9 
REMARK    3  A    between atoms: N3_10  and  N4_12 
REMARK    4  A    between atoms: N4_12  and  N5_14 
REMARK    5  A    between atoms: N5_14  and  C5_16 
REMARK    6  A    between atoms: C8_19  and  N6_20 
REMARK    7  A    between atoms: C9_23  and  S1_24 
REMARK    8  A    between atoms: S1_24  and  N7_27 
REMARK    9  A    between atoms: C11_35  and  O5_36 
ROOT
HETATM    1  C5  UNL     1     -29.685   4.921 -27.928  1.00  0.00     0.084 A 
HETATM    2  C6  UNL     1     -29.897   3.875 -27.051  1.00  0.00     0.036 A 
HETATM    3  C7  UNL     1     -30.530   4.032 -25.852  1.00  0.00     0.040 A 
HETATM    4  C8  UNL     1     -30.996   5.329 -25.477  1.00  0.00     0.129 A 
HETATM    5  C9  UNL     1     -30.802   6.372 -26.318  1.00  0.00     0.149 A 
HETATM    6  C11 UNL     1     -30.140   6.159 -27.552  1.00  0.00     0.119 A 
ENDROOT
BRANCH   1   7
HETATM    7  N5  UNL     1     -29.026   4.658 -29.158  1.00  0.00    -0.284 N 
ATOM      8  H5  UNL     1     -29.198   3.761 -29.612  1.00  0.00     0.188 HD
BRANCH   7   9
HETATM    9  N4  UNL     1     -28.161   5.550 -29.779  1.00  0.00    -0.243 N 
ATOM     10  H4  UNL     1     -27.588   6.198 -29.238  1.00  0.00     0.208 HD
BRANCH   9  11
HETATM   11  N3  UNL     1     -28.107   5.523 -31.159  1.00  0.00    -0.297 N 
HETATM   12  C4  UNL     1     -27.412   4.689 -31.832  1.00  0.00     0.127 C 
ATOM     13  H3  UNL     1     -28.657   6.213 -31.673  1.00  0.00     0.187 HD
BRANCH  12  14
HETATM   14  C3  UNL     1     -27.405   4.718 -33.300  1.00  0.00     0.065 A 
HETATM   15  C2  UNL     1     -26.237   4.622 -33.986  1.00  0.00     0.124 A 
HETATM   16  N2  UNL     1     -26.210   4.636 -35.337  1.00  0.00    -0.201 N 
HETATM   17  C1  UNL     1     -27.369   4.748 -36.012  1.00  0.00     0.678 A 
ATOM     18  H2  UNL     1     -25.324   4.563 -35.838  1.00  0.00     0.183 HD
HETATM   19  N11 UNL     1     -28.525   4.844 -35.339  1.00  0.00    -0.156 N 
HETATM   20  C12 UNL     1     -28.586   4.834 -33.988  1.00  0.00     0.272 A 
ATOM     21  H11 UNL     1     -29.393   4.929 -35.868  1.00  0.00     0.187 HD
HETATM   22  O6  UNL     1     -29.696   4.926 -33.393  1.00  0.00    -0.267 OA
BRANCH  17  23
HETATM   23  N1  UNL     1     -27.327   4.756 -37.313  1.00  0.00    -0.234 N 
ATOM     24  H12 UNL     1     -26.462   4.585 -37.826  1.00  0.00     0.174 HD
ATOM     25  H11 UNL     1     -28.191   4.943 -37.823  1.00  0.00     0.174 HD
ENDBRANCH  17  23
ENDBRANCH  12  14
ENDBRANCH   9  11
ENDBRANCH   7   9
ENDBRANCH   1   7
BRANCH   6  26
HETATM   26  O5  UNL     1     -29.957   7.233 -28.383  1.00  0.00    -0.357 OA
ATOM     27  H5  UNL     1     -29.766   8.088 -28.014  1.00  0.00     0.218 HD
ENDBRANCH   6  26
BRANCH   5  28
HETATM   28  S1  UNL     1     -31.334   7.986 -25.959  1.00  0.00     0.289 S 
HETATM   29  O3  UNL     1     -30.206   8.924 -25.750  1.00  0.00    -0.198 OA
HETATM   30  O4  UNL     1     -31.975   8.480 -27.289  1.00  0.00    -0.198 OA
BRANCH  28  31
HETATM   31  N7  UNL     1     -32.547   8.058 -24.750  1.00  0.00    -0.155 N 
HETATM   32  C10 UNL     1     -33.896   8.063 -24.985  1.00  0.00     0.239 A 
HETATM   33  N8  UNL     1     -34.573   8.129 -23.827  1.00  0.00    -0.278 N 
HETATM   34  N9  UNL     1     -33.644   8.165 -22.873  1.00  0.00    -0.226 N 
ATOM     35  H8  UNL     1     -35.585   8.147 -23.704  1.00  0.00     0.189 HD
HETATM   36  N10 UNL     1     -32.470   8.123 -23.441  1.00  0.00    -0.211 N 
ATOM     37  H9  UNL     1     -33.820   8.217 -21.870  1.00  0.00     0.210 HD
ATOM     38  H10 UNL     1     -31.590   8.138 -22.926  1.00  0.00     0.211 HD
ENDBRANCH  28  31
ENDBRANCH   5  28
BRANCH   4  39
HETATM   39  N6  UNL     1     -31.608   5.424 -24.224  1.00  0.00    -0.114 N 
HETATM   40  O1  UNL     1     -32.760   5.186 -23.925  1.00  0.00    -0.532 OA
HETATM   41  O2  UNL     1     -30.786   5.801 -23.148  1.00  0.00    -0.532 OA
ENDBRANCH   4  39
TORSDOF 9
ENDMDL
MODEL 3
REMARK VINA RESULT: -8.656100939      1.593      1.978
REMARK  9 active torsions:
REMARK  status: ('A' for Active; 'I' for Inactive)
REMARK    1  A    between atoms: N1_1  and  C1_4 
REMARK    2  A    between atoms: C3_8  and  C4_9 
REMARK    3  A    between atoms: N3_10  and  N4_12 
REMARK    4  A    between atoms: N4_12  and  N5_14 
REMARK    5  A    between atoms: N5_14  and  C5_16 
REMARK    6  A    between atoms: C8_19  and  N6_20 
REMARK    7  A    between atoms: C9_23  and  S1_24 
REMARK    8  A    between atoms: S1_24  and  N7_27 
REMARK    9  A    between atoms: C11_35  and  O5_36 
ROOT
HETATM    1  C5  UNL     1     -29.834   4.766 -27.901  1.00  0.00     0.084 A 
HETATM    2  C6  UNL     1     -30.176   3.604 -27.236  1.00  0.00     0.036 A 
HETATM    3  C7  UNL     1     -30.772   3.602 -26.008  1.00  0.00     0.040 A 
HETATM    4  C8  UNL     1     -31.059   4.850 -25.374  1.00  0.00     0.129 A 
HETATM    5  C9  UNL     1     -30.735   6.003 -26.003  1.00  0.00     0.149 A 
HETATM    6  C11 UNL     1     -30.118   5.954 -27.276  1.00  0.00     0.119 A 
ENDROOT
BRANCH   1   7
HETATM    7  N5  UNL     1     -29.226   4.667 -29.179  1.00  0.00    -0.284 N 
ATOM      8  H5  UNL     1     -29.542   3.926 -29.805  1.00  0.00     0.188 HD
BRANCH   7   9
HETATM    9  N4  UNL     1     -28.225   5.520 -29.629  1.00  0.00    -0.243 N 
ATOM     10  H4  UNL     1     -27.663   6.068 -28.979  1.00  0.00     0.208 HD
BRANCH   9  11
HETATM   11  N3  UNL     1     -28.023   5.595 -30.994  1.00  0.00    -0.297 N 
HETATM   12  C4  UNL     1     -27.530   4.649 -31.697  1.00  0.00     0.127 C 
ATOM     13  H3  UNL     1     -28.284   6.459 -31.470  1.00  0.00     0.187 HD
BRANCH  12  14
HETATM   14  C3  UNL     1     -27.345   4.799 -33.146  1.00  0.00     0.065 A 
HETATM   15  C2  UNL     1     -26.099   4.895 -33.676  1.00  0.00     0.124 A 
HETATM   16  N2  UNL     1     -25.907   5.022 -35.008  1.00  0.00    -0.201 N 
HETATM   17  C1  UNL     1     -26.979   5.053 -35.821  1.00  0.00     0.678 A 
ATOM     18  H2  UNL     1     -24.964   5.094 -35.391  1.00  0.00     0.183 HD
HETATM   19  N11 UNL     1     -28.211   4.959 -35.303  1.00  0.00    -0.156 N 
HETATM   20  C12 UNL     1     -28.437   4.831 -33.975  1.00  0.00     0.272 A 
ATOM     21  H11 UNL     1     -29.011   4.985 -35.935  1.00  0.00     0.187 HD
HETATM   22  O6  UNL     1     -29.615   4.745 -33.527  1.00  0.00    -0.267 OA
BRANCH  17  23
HETATM   23  N1  UNL     1     -26.778   5.172 -37.101  1.00  0.00    -0.234 N 
ATOM     24  H12 UNL     1     -27.382   5.743 -37.692  1.00  0.00     0.174 HD
ATOM     25  H11 UNL     1     -25.991   4.671 -37.515  1.00  0.00     0.174 HD
ENDBRANCH  17  23
ENDBRANCH  12  14
ENDBRANCH   9  11
ENDBRANCH   7   9
ENDBRANCH   1   7
BRANCH   6  26
HETATM   26  O5  UNL     1     -29.801   7.138 -27.890  1.00  0.00    -0.357 OA
ATOM     27  H5  UNL     1     -29.562   7.892 -27.364  1.00  0.00     0.218 HD
ENDBRANCH   6  26
BRANCH   5  28
HETATM   28  S1  UNL     1     -31.047   7.570 -25.320  1.00  0.00     0.289 S 
HETATM   29  O3  UNL     1     -31.116   7.542 -23.840  1.00  0.00    -0.198 OA
HETATM   30  O4  UNL     1     -29.745   8.376 -25.607  1.00  0.00    -0.198 OA
BRANCH  28  31
HETATM   31  N7  UNL     1     -32.340   8.405 -26.072  1.00  0.00    -0.155 N 
HETATM   32  C10 UNL     1     -32.386   9.757 -26.291  1.00  0.00     0.239 A 
HETATM   33  N8  UNL     1     -33.536  10.093 -26.898  1.00  0.00    -0.278 N 
HETATM   34  N9  UNL     1     -34.203   8.952 -27.057  1.00  0.00    -0.226 N 
ATOM     35  H8  UNL     1     -33.835  11.028 -27.179  1.00  0.00     0.189 HD
HETATM   36  N10 UNL     1     -33.481   7.982 -26.565  1.00  0.00    -0.211 N 
ATOM     37  H9  UNL     1     -35.121   8.853 -27.488  1.00  0.00     0.210 HD
ATOM     38  H10 UNL     1     -33.771   7.005 -26.564  1.00  0.00     0.211 HD
ENDBRANCH  28  31
ENDBRANCH   5  28
BRANCH   4  39
HETATM   39  N6  UNL     1     -31.643   4.775 -24.106  1.00  0.00    -0.114 N 
HETATM   40  O1  UNL     1     -32.800   4.968 -23.793  1.00  0.00    -0.532 OA
HETATM   41  O2  UNL     1     -30.805   4.383 -23.048  1.00  0.00    -0.532 OA
ENDBRANCH   4  39
TORSDOF 9
ENDMDL
MODEL 4
REMARK VINA RESULT: -8.647248832      1.235      1.506
REMARK  9 active torsions:
REMARK  status: ('A' for Active; 'I' for Inactive)
REMARK    1  A    between atoms: N1_1  and  C1_4 
REMARK    2  A    between atoms: C3_8  and  C4_9 
REMARK    3  A    between atoms: N3_10  and  N4_12 
REMARK    4  A    between atoms: N4_12  and  N5_14 
REMARK    5  A    between atoms: N5_14  and  C5_16 
REMARK    6  A    between atoms: C8_19  and  N6_20 
REMARK    7  A    between atoms: C9_23  and  S1_24 
REMARK    8  A    between atoms: S1_24  and  N7_27 
REMARK    9  A    between atoms: C11_35  and  O5_36 
ROOT
HETATM    1  C5  UNL     1     -29.605   4.944 -27.745  1.00  0.00     0.084 A 
HETATM    2  C6  UNL     1     -29.896   3.757 -27.102  1.00  0.00     0.036 A 
HETATM    3  C7  UNL     1     -30.577   3.703 -25.920  1.00  0.00     0.040 A 
HETATM    4  C8  UNL     1     -31.012   4.921 -25.313  1.00  0.00     0.129 A 
HETATM    5  C9  UNL     1     -30.740   6.099 -25.922  1.00  0.00     0.149 A 
HETATM    6  C11 UNL     1     -30.031   6.103 -27.147  1.00  0.00     0.119 A 
ENDROOT
BRANCH   1   7
HETATM    7  N5  UNL     1     -28.900   4.899 -28.976  1.00  0.00    -0.284 N 
ATOM      8  H5  UNL     1     -27.894   4.736 -28.948  1.00  0.00     0.188 HD
BRANCH   7   9
HETATM    9  N4  UNL     1     -29.501   5.063 -30.218  1.00  0.00    -0.243 N 
ATOM     10  H4  UNL     1     -30.515   5.054 -30.323  1.00  0.00     0.208 HD
BRANCH   9  11
HETATM   11  N3  UNL     1     -28.667   5.241 -31.306  1.00  0.00    -0.297 N 
HETATM   12  C4  UNL     1     -28.669   4.489 -32.339  1.00  0.00     0.127 C 
ATOM     13  H3  UNL     1     -28.010   6.021 -31.283  1.00  0.00     0.187 HD
BRANCH  12  14
HETATM   14  C3  UNL     1     -27.755   4.740 -33.461  1.00  0.00     0.065 A 
HETATM   15  C2  UNL     1     -28.207   4.702 -34.740  1.00  0.00     0.124 A 
HETATM   16  N2  UNL     1     -27.385   4.941 -35.786  1.00  0.00    -0.201 N 
HETATM   17  C1  UNL     1     -26.091   5.221 -35.547  1.00  0.00     0.678 A 
ATOM     18  H2  UNL     1     -27.740   4.909 -36.742  1.00  0.00     0.183 HD
HETATM   19  N11 UNL     1     -25.639   5.259 -34.286  1.00  0.00    -0.156 N 
HETATM   20  C12 UNL     1     -26.436   5.024 -33.217  1.00  0.00     0.272 A 
ATOM     21  H11 UNL     1     -24.655   5.472 -34.124  1.00  0.00     0.187 HD
HETATM   22  O6  UNL     1     -25.971   5.070 -32.045  1.00  0.00    -0.267 OA
BRANCH  17  23
HETATM   23  N1  UNL     1     -25.312   5.453 -36.564  1.00  0.00    -0.234 N 
ATOM     24  H12 UNL     1     -24.753   4.716 -36.994  1.00  0.00     0.174 HD
ATOM     25  H11 UNL     1     -25.266   6.403 -36.930  1.00  0.00     0.174 HD
ENDBRANCH  17  23
ENDBRANCH  12  14
ENDBRANCH   9  11
ENDBRANCH   7   9
ENDBRANCH   1   7
BRANCH   6  26
HETATM   26  O5  UNL     1     -29.769   7.311 -27.741  1.00  0.00    -0.357 OA
ATOM     27  H5  UNL     1     -29.182   7.926 -27.319  1.00  0.00     0.218 HD
ENDBRANCH   6  26
BRANCH   5  28
HETATM   28  S1  UNL     1     -31.229   7.633 -25.270  1.00  0.00     0.289 S 
HETATM   29  O3  UNL     1     -31.278   7.632 -23.789  1.00  0.00    -0.198 OA
HETATM   30  O4  UNL     1     -30.036   8.581 -25.593  1.00  0.00    -0.198 OA
BRANCH  28  31
HETATM   31  N7  UNL     1     -32.622   8.289 -26.022  1.00  0.00    -0.155 N 
HETATM   32  C10 UNL     1     -33.161   9.519 -25.749  1.00  0.00     0.239 A 
HETATM   33  N8  UNL     1     -34.248   9.732 -26.507  1.00  0.00    -0.278 N 
HETATM   34  N9  UNL     1     -34.385   8.635 -27.251  1.00  0.00    -0.226 N 
ATOM     35  H8  UNL     1     -34.845  10.560 -26.512  1.00  0.00     0.189 HD
HETATM   36  N10 UNL     1     -33.421   7.810 -26.946  1.00  0.00    -0.211 N 
ATOM     37  H9  UNL     1     -35.118   8.469 -27.940  1.00  0.00     0.210 HD
ATOM     38  H10 UNL     1     -33.302   6.894 -27.378  1.00  0.00     0.211 HD
ENDBRANCH  28  31
ENDBRANCH   5  28
BRANCH   4  39
HETATM   39  N6  UNL     1     -31.677   4.795 -24.090  1.00  0.00    -0.114 N 
HETATM   40  O1  UNL     1     -32.861   4.928 -23.856  1.00  0.00    -0.532 OA
HETATM   41  O2  UNL     1     -30.896   4.423 -22.983  1.00  0.00    -0.532 OA
ENDBRANCH   4  39
TORSDOF 9
ENDMDL
MODEL 5
REMARK VINA RESULT: -8.206836087      4.455      6.483
REMARK  9 active torsions:
REMARK  status: ('A' for Active; 'I' for Inactive)
REMARK    1  A    between atoms: N1_1  and  C1_4 
REMARK    2  A    between atoms: C3_8  and  C4_9 
REMARK    3  A    between atoms: N3_10  and  N4_12 
REMARK    4  A    between atoms: N4_12  and  N5_14 
REMARK    5  A    between atoms: N5_14  and  C5_16 
REMARK    6  A    between atoms: C8_19  and  N6_20 
REMARK    7  A    between atoms: C9_23  and  S1_24 
REMARK    8  A    between atoms: S1_24  and  N7_27 
REMARK    9  A    between atoms: C11_35  and  O5_36 
ROOT
HETATM    1  C5  UNL     1     -30.008   5.771 -27.138  1.00  0.00     0.084 A 
HETATM    2  C6  UNL     1     -29.958   4.404 -27.334  1.00  0.00     0.036 A 
HETATM    3  C7  UNL     1     -30.472   3.509 -26.440  1.00  0.00     0.040 A 
HETATM    4  C8  UNL     1     -31.091   3.995 -25.248  1.00  0.00     0.129 A 
HETATM    5  C9  UNL     1     -31.154   5.330 -25.031  1.00  0.00     0.149 A 
HETATM    6  C11 UNL     1     -30.607   6.218 -25.988  1.00  0.00     0.119 A 
ENDROOT
BRANCH   1   7
HETATM    7  N5  UNL     1     -29.455   6.623 -28.129  1.00  0.00    -0.284 N 
ATOM      8  H5  UNL     1     -28.442   6.742 -28.148  1.00  0.00     0.188 HD
BRANCH   7   9
HETATM    9  N4  UNL     1     -30.212   7.304 -29.074  1.00  0.00    -0.243 N 
ATOM     10  H4  UNL     1     -30.390   6.909 -29.997  1.00  0.00     0.208 HD
BRANCH   9  11
HETATM   11  N3  UNL     1     -30.714   8.540 -28.712  1.00  0.00    -0.297 N 
HETATM   12  C4  UNL     1     -31.961   8.809 -28.632  1.00  0.00     0.127 C 
ATOM     13  H3  UNL     1     -30.049   9.282 -28.495  1.00  0.00     0.187 HD
BRANCH  12  14
HETATM   14  C3  UNL     1     -32.423  10.146 -28.238  1.00  0.00     0.065 A 
HETATM   15  C2  UNL     1     -33.001  10.972 -29.147  1.00  0.00     0.124 A 
HETATM   16  N2  UNL     1     -33.442  12.202 -28.802  1.00  0.00    -0.201 N 
HETATM   17  C1  UNL     1     -33.304  12.611 -27.528  1.00  0.00     0.678 A 
ATOM     18  H2  UNL     1     -33.874  12.811 -29.498  1.00  0.00     0.183 HD
HETATM   19  N11 UNL     1     -32.733  11.800 -26.626  1.00  0.00    -0.156 N 
HETATM   20  C12 UNL     1     -32.281  10.564 -26.939  1.00  0.00     0.272 A 
ATOM     21  H11 UNL     1     -32.637  12.128 -25.665  1.00  0.00     0.187 HD
HETATM   22  O6  UNL     1     -31.750   9.831 -26.059  1.00  0.00    -0.267 OA
BRANCH  17  23
HETATM   23  N1  UNL     1     -33.738  13.796 -27.210  1.00  0.00    -0.234 N 
ATOM     24  H12 UNL     1     -34.498  13.932 -26.543  1.00  0.00     0.174 HD
ATOM     25  H11 UNL     1     -33.299  14.605 -27.650  1.00  0.00     0.174 HD
ENDBRANCH  17  23
ENDBRANCH  12  14
ENDBRANCH   9  11
ENDBRANCH   7   9
ENDBRANCH   1   7
BRANCH   6  26
HETATM   26  O5  UNL     1     -30.684   7.565 -25.741  1.00  0.00    -0.357 OA
ATOM     27  H5  UNL     1     -30.744   8.174 -26.468  1.00  0.00     0.218 HD
ENDBRANCH   6  26
BRANCH   5  28
HETATM   28  S1  UNL     1     -31.889   6.022 -23.617  1.00  0.00     0.289 S 
HETATM   29  O3  UNL     1     -32.465   4.997 -22.716  1.00  0.00    -0.198 OA
HETATM   30  O4  UNL     1     -30.688   6.588 -22.803  1.00  0.00    -0.198 OA
BRANCH  28  31
HETATM   31  N7  UNL     1     -32.938   7.333 -23.958  1.00  0.00    -0.155 N 
HETATM   32  C10 UNL     1     -33.167   8.398 -23.127  1.00  0.00     0.239 A 
HETATM   33  N8  UNL     1     -34.041   9.249 -23.687  1.00  0.00    -0.278 N 
HETATM   34  N9  UNL     1     -34.355   8.715 -24.865  1.00  0.00    -0.226 N 
ATOM     35  H8  UNL     1     -34.391  10.123 -23.292  1.00  0.00     0.189 HD
HETATM   36  N10 UNL     1     -33.696   7.596 -24.997  1.00  0.00    -0.211 N 
ATOM     37  H9  UNL     1     -35.001   9.111 -25.547  1.00  0.00     0.210 HD
ATOM     38  H10 UNL     1     -33.763   6.992 -25.816  1.00  0.00     0.211 HD
ENDBRANCH  28  31
ENDBRANCH   5  28
BRANCH   4  39
HETATM   39  N6  UNL     1     -31.569   3.025 -24.363  1.00  0.00    -0.114 N 
HETATM   40  O1  UNL     1     -32.495   2.254 -24.515  1.00  0.00    -0.532 OA
HETATM   41  O2  UNL     1     -30.872   2.876 -23.152  1.00  0.00    -0.532 OA
ENDBRANCH   4  39
TORSDOF 9
ENDMDL
