MODEL 1
REMARK VINA RESULT: -8.690787955      0.000      0.000
REMARK  7 active torsions:
REMARK  status: ('A' for Active; 'I' for Inactive)
REMARK    1  A    between atoms: C2_6  and  S1_7 
REMARK    2  A    between atoms: S1_7  and  C3_8 
REMARK    3  A    between atoms: C3_8  and  C4_9 
REMARK    4  A    between atoms: C4_9  and  N4_10 
REMARK       I    between atoms: N4_10  and  C5_12 
REMARK    5  A    between atoms: C5_12  and  C6_14 
REMARK    6  A    between atoms: N10_24  and  C7_25 
REMARK    7  A    between atoms: C12_30  and  N11_31 
ROOT
HETATM    1  N1  UNL     1     -30.957  10.479 -26.373  1.00  0.00    -0.170 NA
HETATM    2  C1  UNL     1     -30.706   9.432 -26.781  1.00  0.00     0.209 C 
HETATM    3  N2  UNL     1     -30.374   8.144 -27.282  1.00  0.00    -0.134 N 
HETATM    4  N3  UNL     1     -30.168   7.051 -26.579  1.00  0.00    -0.259 N 
ATOM      5  H3  UNL     1     -30.223   6.993 -25.561  1.00  0.00     0.190 HD
HETATM    6  C2  UNL     1     -29.869   5.997 -27.412  1.00  0.00     0.171 A 
HETATM    7  N10 UNL     1     -29.903   6.503 -28.641  1.00  0.00    -0.238 N 
HETATM    8  C13 UNL     1     -30.215   7.827 -28.577  1.00  0.00     0.364 A 
HETATM    9  O4  UNL     1     -30.341   8.628 -29.558  1.00  0.00    -0.243 OA
ENDROOT
BRANCH   6  10
HETATM   10  S1  UNL     1     -29.641   4.360 -26.784  1.00  0.00    -0.090 SA
BRANCH  10  11
HETATM   11  C3  UNL     1     -31.094   3.593 -26.096  1.00  0.00     0.102 C 
BRANCH  11  12
HETATM   12  C4  UNL     1     -31.316   3.836 -24.635  1.00  0.00     0.133 C 
BRANCH  12  13
HETATM   13  N4  UNL     1     -32.000   5.100 -24.455  1.00  0.00    -0.357 N 
HETATM   14  C5  UNL     1     -31.578   6.153 -23.636  1.00  0.00     0.259 C 
HETATM   15  O1  UNL     1     -30.550   6.145 -22.949  1.00  0.00    -0.270 OA
ATOM     16  H4  UNL     1     -32.869   5.234 -24.972  1.00  0.00     0.162 HD
BRANCH  14  17
HETATM   17  C6  UNL     1     -32.443   7.393 -23.591  1.00  0.00     0.306 C 
HETATM   18  N5  UNL     1     -32.930   7.655 -22.286  1.00  0.00    -0.087 NA
HETATM   19  N6  UNL     1     -33.879   8.635 -22.238  1.00  0.00    -0.228 N 
HETATM   20  N7  UNL     1     -34.863   8.604 -23.197  1.00  0.00    -0.217 N 
ATOM     21  H6  UNL     1     -33.858   9.360 -21.521  1.00  0.00     0.205 HD
HETATM   22  N8  UNL     1     -34.754   7.631 -24.141  1.00  0.00    -0.230 N 
ATOM     23  H7  UNL     1     -35.633   9.274 -23.201  1.00  0.00     0.211 HD
HETATM   24  N9  UNL     1     -33.518   7.206 -24.513  1.00  0.00    -0.290 N 
ATOM     25  H8  UNL     1     -35.589   7.225 -24.563  1.00  0.00     0.209 HD
ATOM     26  H9  UNL     1     -33.363   6.769 -25.421  1.00  0.00     0.184 HD
ENDBRANCH  14  17
ENDBRANCH  12  13
ENDBRANCH  11  12
ENDBRANCH  10  11
ENDBRANCH   6  10
BRANCH   7  27
HETATM   27  C7  UNL     1     -29.716   5.808 -29.854  1.00  0.00     0.079 A 
HETATM   28  C8  UNL     1     -28.384   5.468 -30.199  1.00  0.00     0.033 A 
HETATM   29  C9  UNL     1     -28.145   4.761 -31.354  1.00  0.00     0.002 A 
HETATM   30  C10 UNL     1     -29.166   4.372 -32.192  1.00  0.00     0.003 A 
HETATM   31  C11 UNL     1     -30.447   4.704 -31.853  1.00  0.00     0.038 A 
HETATM   32  C12 UNL     1     -30.730   5.431 -30.673  1.00  0.00     0.130 A 
BRANCH  32  33
HETATM   33  N11 UNL     1     -32.089   5.741 -30.431  1.00  0.00    -0.113 N 
HETATM   34  O2  UNL     1     -32.659   6.466 -31.313  1.00  0.00    -0.532 OA
HETATM   35  O3  UNL     1     -32.867   5.372 -29.396  1.00  0.00    -0.532 OA
ENDBRANCH  32  33
ENDBRANCH   7  27
TORSDOF 7
ENDMDL
MODEL 2
REMARK VINA RESULT: -8.176762843      1.757      3.315
REMARK  7 active torsions:
REMARK  status: ('A' for Active; 'I' for Inactive)
REMARK    1  A    between atoms: C2_6  and  S1_7 
REMARK    2  A    between atoms: S1_7  and  C3_8 
REMARK    3  A    between atoms: C3_8  and  C4_9 
REMARK    4  A    between atoms: C4_9  and  N4_10 
REMARK       I    between atoms: N4_10  and  C5_12 
REMARK    5  A    between atoms: C5_12  and  C6_14 
REMARK    6  A    between atoms: N10_24  and  C7_25 
REMARK    7  A    between atoms: C12_30  and  N11_31 
ROOT
HETATM    1  N1  UNL     1     -31.297   3.744 -23.313  1.00  0.00    -0.170 NA
HETATM    2  C1  UNL     1     -31.076   4.343 -24.271  1.00  0.00     0.209 C 
HETATM    3  N2  UNL     1     -30.826   5.084 -25.458  1.00  0.00    -0.134 N 
HETATM    4  N3  UNL     1     -30.699   6.389 -25.562  1.00  0.00    -0.259 N 
ATOM      5  H3  UNL     1     -30.768   7.046 -24.784  1.00  0.00     0.190 HD
HETATM    6  C2  UNL     1     -30.461   6.742 -26.872  1.00  0.00     0.171 A 
HETATM    7  N10 UNL     1     -30.451   5.596 -27.545  1.00  0.00    -0.238 N 
HETATM    8  C13 UNL     1     -30.673   4.564 -26.686  1.00  0.00     0.364 A 
HETATM    9  O4  UNL     1     -30.724   3.326 -26.980  1.00  0.00    -0.243 OA
ENDROOT
BRANCH   6  10
HETATM   10  S1  UNL     1     -30.140   8.419 -27.332  1.00  0.00    -0.090 SA
BRANCH  10  11
HETATM   11  C3  UNL     1     -31.560   9.494 -27.352  1.00  0.00     0.102 C 
BRANCH  11  12
HETATM   12  C4  UNL     1     -32.818   8.906 -26.790  1.00  0.00     0.133 C 
BRANCH  12  13
HETATM   13  N4  UNL     1     -32.838   9.091 -25.354  1.00  0.00    -0.357 N 
HETATM   14  C5  UNL     1     -33.167   8.117 -24.405  1.00  0.00     0.259 C 
HETATM   15  O1  UNL     1     -33.488   6.953 -24.670  1.00  0.00    -0.270 OA
ATOM     16  H4  UNL     1     -32.589  10.015 -25.002  1.00  0.00     0.162 HD
BRANCH  14  17
HETATM   17  C6  UNL     1     -33.124   8.520 -22.947  1.00  0.00     0.306 C 
HETATM   18  N5  UNL     1     -32.859   7.416 -22.098  1.00  0.00    -0.087 NA
HETATM   19  N6  UNL     1     -33.020   7.691 -20.771  1.00  0.00    -0.228 N 
HETATM   20  N7  UNL     1     -34.134   8.410 -20.408  1.00  0.00    -0.217 N 
ATOM     21  H6  UNL     1     -32.342   7.376 -20.077  1.00  0.00     0.205 HD
HETATM   22  N8  UNL     1     -34.934   8.832 -21.423  1.00  0.00    -0.230 N 
ATOM     23  H7  UNL     1     -34.348   8.615 -19.432  1.00  0.00     0.211 HD
HETATM   24  N9  UNL     1     -34.377   9.126 -22.627  1.00  0.00    -0.290 N 
ATOM     25  H8  UNL     1     -35.940   8.927 -21.282  1.00  0.00     0.209 HD
ATOM     26  H9  UNL     1     -34.838   9.758 -23.281  1.00  0.00     0.184 HD
ENDBRANCH  14  17
ENDBRANCH  12  13
ENDBRANCH  11  12
ENDBRANCH  10  11
ENDBRANCH   6  10
BRANCH   7  27
HETATM   27  C7  UNL     1     -30.193   5.419 -28.921  1.00  0.00     0.079 A 
HETATM   28  C8  UNL     1     -28.886   5.006 -29.281  1.00  0.00     0.033 A 
HETATM   29  C9  UNL     1     -28.588   4.786 -30.605  1.00  0.00     0.002 A 
HETATM   30  C10 UNL     1     -29.525   4.957 -31.599  1.00  0.00     0.003 A 
HETATM   31  C11 UNL     1     -30.784   5.356 -31.244  1.00  0.00     0.038 A 
HETATM   32  C12 UNL     1     -31.125   5.593 -29.892  1.00  0.00     0.130 A 
BRANCH  32  33
HETATM   33  N11 UNL     1     -32.449   6.025 -29.641  1.00  0.00    -0.113 N 
HETATM   34  O2  UNL     1     -32.676   7.264 -29.840  1.00  0.00    -0.532 OA
HETATM   35  O3  UNL     1     -33.506   5.304 -29.219  1.00  0.00    -0.532 OA
ENDBRANCH  32  33
ENDBRANCH   7  27
TORSDOF 7
ENDMDL
MODEL 3
REMARK VINA RESULT: -8.170103001      1.784      3.384
REMARK  7 active torsions:
REMARK  status: ('A' for Active; 'I' for Inactive)
REMARK    1  A    between atoms: C2_6  and  S1_7 
REMARK    2  A    between atoms: S1_7  and  C3_8 
REMARK    3  A    between atoms: C3_8  and  C4_9 
REMARK    4  A    between atoms: C4_9  and  N4_10 
REMARK       I    between atoms: N4_10  and  C5_12 
REMARK    5  A    between atoms: C5_12  and  C6_14 
REMARK    6  A    between atoms: N10_24  and  C7_25 
REMARK    7  A    between atoms: C12_30  and  N11_31 
ROOT
HETATM    1  N1  UNL     1     -31.299   4.376 -23.359  1.00  0.00    -0.170 NA
HETATM    2  C1  UNL     1     -31.109   4.879 -24.377  1.00  0.00     0.209 C 
HETATM    3  N2  UNL     1     -30.897   5.500 -25.639  1.00  0.00    -0.134 N 
HETATM    4  N3  UNL     1     -30.901   6.791 -25.894  1.00  0.00    -0.259 N 
ATOM      5  H3  UNL     1     -31.061   7.522 -25.201  1.00  0.00     0.190 HD
HETATM    6  C2  UNL     1     -30.658   7.012 -27.232  1.00  0.00     0.171 A 
HETATM    7  N10 UNL     1     -30.509   5.804 -27.764  1.00  0.00    -0.238 N 
HETATM    8  C13 UNL     1     -30.653   4.860 -26.793  1.00  0.00     0.364 A 
HETATM    9  O4  UNL     1     -30.568   3.598 -26.939  1.00  0.00    -0.243 OA
ENDROOT
BRANCH   6  10
HETATM   10  S1  UNL     1     -30.494   8.649 -27.881  1.00  0.00    -0.090 SA
BRANCH  10  11
HETATM   11  C3  UNL     1     -30.866   9.967 -26.741  1.00  0.00     0.102 C 
BRANCH  11  12
HETATM   12  C4  UNL     1     -32.316  10.321 -26.622  1.00  0.00     0.133 C 
BRANCH  12  13
HETATM   13  N4  UNL     1     -32.850   9.765 -25.396  1.00  0.00    -0.357 N 
HETATM   14  C5  UNL     1     -33.579   8.576 -25.283  1.00  0.00     0.259 C 
HETATM   15  O1  UNL     1     -33.868   7.833 -26.227  1.00  0.00    -0.270 OA
ATOM     16  H4  UNL     1     -32.678  10.287 -24.537  1.00  0.00     0.162 HD
BRANCH  14  17
HETATM   17  C6  UNL     1     -34.047   8.172 -23.902  1.00  0.00     0.306 C 
HETATM   18  N5  UNL     1     -34.359   9.295 -23.096  1.00  0.00    -0.087 NA
HETATM   19  N6  UNL     1     -34.580   8.989 -21.785  1.00  0.00    -0.228 N 
HETATM   20  N7  UNL     1     -33.708   8.109 -21.189  1.00  0.00    -0.217 N 
ATOM     21  H6  UNL     1     -35.361   9.395 -21.269  1.00  0.00     0.205 HD
HETATM   22  N8  UNL     1     -32.745   7.581 -21.991  1.00  0.00    -0.230 N 
ATOM     23  H7  UNL     1     -33.780   7.866 -20.201  1.00  0.00     0.211 HD
HETATM   24  N9  UNL     1     -33.014   7.384 -23.308  1.00  0.00    -0.290 N 
ATOM     25  H8  UNL     1     -31.831   7.338 -21.608  1.00  0.00     0.209 HD
ATOM     26  H9  UNL     1     -32.497   6.695 -23.854  1.00  0.00     0.184 HD
ENDBRANCH  14  17
ENDBRANCH  12  13
ENDBRANCH  11  12
ENDBRANCH  10  11
ENDBRANCH   6  10
BRANCH   7  27
HETATM   27  C7  UNL     1     -30.191   5.496 -29.103  1.00  0.00     0.079 A 
HETATM   28  C8  UNL     1     -28.857   5.100 -29.371  1.00  0.00     0.033 A 
HETATM   29  C9  UNL     1     -28.499   4.757 -30.653  1.00  0.00     0.002 A 
HETATM   30  C10 UNL     1     -29.400   4.788 -31.693  1.00  0.00     0.003 A 
HETATM   31  C11 UNL     1     -30.685   5.172 -31.427  1.00  0.00     0.038 A 
HETATM   32  C12 UNL     1     -31.089   5.532 -30.121  1.00  0.00     0.130 A 
BRANCH  32  33
HETATM   33  N11 UNL     1     -32.435   5.936 -29.964  1.00  0.00    -0.113 N 
HETATM   34  O2  UNL     1     -32.737   7.072 -30.461  1.00  0.00    -0.532 OA
HETATM   35  O3  UNL     1     -33.447   5.283 -29.360  1.00  0.00    -0.532 OA
ENDBRANCH  32  33
ENDBRANCH   7  27
TORSDOF 7
ENDMDL
MODEL 4
REMARK VINA RESULT: -7.796072986      2.972      7.764
REMARK  7 active torsions:
REMARK  status: ('A' for Active; 'I' for Inactive)
REMARK    1  A    between atoms: C2_6  and  S1_7 
REMARK    2  A    between atoms: S1_7  and  C3_8 
REMARK    3  A    between atoms: C3_8  and  C4_9 
REMARK    4  A    between atoms: C4_9  and  N4_10 
REMARK       I    between atoms: N4_10  and  C5_12 
REMARK    5  A    between atoms: C5_12  and  C6_14 
REMARK    6  A    between atoms: N10_24  and  C7_25 
REMARK    7  A    between atoms: C12_30  and  N11_31 
ROOT
HETATM    1  N1  UNL     1     -31.668   2.818 -22.543  1.00  0.00    -0.170 NA
HETATM    2  C1  UNL     1     -31.441   3.530 -23.419  1.00  0.00     0.209 C 
HETATM    3  N2  UNL     1     -31.138   4.407 -24.496  1.00  0.00    -0.134 N 
HETATM    4  N3  UNL     1     -30.839   4.068 -25.731  1.00  0.00    -0.259 N 
ATOM      5  H3  UNL     1     -30.785   3.109 -26.076  1.00  0.00     0.190 HD
HETATM    6  C2  UNL     1     -30.608   5.193 -26.491  1.00  0.00     0.171 A 
HETATM    7  N10 UNL     1     -30.782   6.216 -25.662  1.00  0.00    -0.238 N 
HETATM    8  C13 UNL     1     -31.111   5.748 -24.427  1.00  0.00     0.364 A 
HETATM    9  O4  UNL     1     -31.355   6.443 -23.389  1.00  0.00    -0.243 OA
ENDROOT
BRANCH   6  10
HETATM   10  S1  UNL     1     -30.283   5.083 -28.226  1.00  0.00    -0.090 SA
BRANCH  10  11
HETATM   11  C3  UNL     1     -31.524   5.796 -29.286  1.00  0.00     0.102 C 
BRANCH  11  12
HETATM   12  C4  UNL     1     -31.570   5.246 -30.679  1.00  0.00     0.133 C 
BRANCH  12  13
HETATM   13  N4  UNL     1     -30.234   4.874 -31.095  1.00  0.00    -0.357 N 
HETATM   14  C5  UNL     1     -29.751   4.882 -32.408  1.00  0.00     0.259 C 
HETATM   15  O1  UNL     1     -30.409   5.211 -33.401  1.00  0.00    -0.270 OA
ATOM     16  H4  UNL     1     -29.586   4.581 -30.364  1.00  0.00     0.162 HD
BRANCH  14  17
HETATM   17  C6  UNL     1     -28.316   4.455 -32.627  1.00  0.00     0.306 C 
HETATM   18  N5  UNL     1     -27.410   5.213 -31.843  1.00  0.00    -0.087 NA
HETATM   19  N6  UNL     1     -26.100   5.008 -32.163  1.00  0.00    -0.228 N 
HETATM   20  N7  UNL     1     -25.776   4.973 -33.498  1.00  0.00    -0.217 N 
ATOM     21  H6  UNL     1     -25.390   4.886 -31.441  1.00  0.00     0.205 HD
HETATM   22  N8  UNL     1     -26.813   5.083 -34.371  1.00  0.00    -0.230 N 
ATOM     23  H7  UNL     1     -24.812   4.870 -33.817  1.00  0.00     0.211 HD
HETATM   24  N9  UNL     1     -28.030   4.591 -34.019  1.00  0.00    -0.290 N 
ATOM     25  H8  UNL     1     -26.679   5.530 -35.278  1.00  0.00     0.209 HD
ATOM     26  H9  UNL     1     -28.716   4.328 -34.726  1.00  0.00     0.184 HD
ENDBRANCH  14  17
ENDBRANCH  12  13
ENDBRANCH  11  12
ENDBRANCH  10  11
ENDBRANCH   6  10
BRANCH   7  27
HETATM   27  C7  UNL     1     -30.710   7.589 -25.976  1.00  0.00     0.079 A 
HETATM   28  C8  UNL     1     -29.417   8.167 -26.038  1.00  0.00     0.033 A 
HETATM   29  C9  UNL     1     -29.284   9.493 -26.372  1.00  0.00     0.002 A 
HETATM   30  C10 UNL     1     -30.376  10.286 -26.650  1.00  0.00     0.003 A 
HETATM   31  C11 UNL     1     -31.620   9.722 -26.589  1.00  0.00     0.038 A 
HETATM   32  C12 UNL     1     -31.793   8.361 -26.247  1.00  0.00     0.130 A 
BRANCH  32  33
HETATM   33  N11 UNL     1     -33.125   7.888 -26.191  1.00  0.00    -0.113 N 
HETATM   34  O2  UNL     1     -33.701   7.712 -27.316  1.00  0.00    -0.532 OA
HETATM   35  O3  UNL     1     -33.872   7.595 -25.108  1.00  0.00    -0.532 OA
ENDBRANCH  32  33
ENDBRANCH   7  27
TORSDOF 7
ENDMDL
MODEL 5
REMARK VINA RESULT: -7.768630233      1.811      3.457
REMARK  7 active torsions:
REMARK  status: ('A' for Active; 'I' for Inactive)
REMARK    1  A    between atoms: C2_6  and  S1_7 
REMARK    2  A    between atoms: S1_7  and  C3_8 
REMARK    3  A    between atoms: C3_8  and  C4_9 
REMARK    4  A    between atoms: C4_9  and  N4_10 
REMARK       I    between atoms: N4_10  and  C5_12 
REMARK    5  A    between atoms: C5_12  and  C6_14 
REMARK    6  A    between atoms: N10_24  and  C7_25 
REMARK    7  A    between atoms: C12_30  and  N11_31 
ROOT
HETATM    1  N1  UNL     1     -31.260   3.933 -23.306  1.00  0.00    -0.170 NA
HETATM    2  C1  UNL     1     -31.066   4.504 -24.287  1.00  0.00     0.209 C 
HETATM    3  N2  UNL     1     -30.849   5.209 -25.502  1.00  0.00    -0.134 N 
HETATM    4  N3  UNL     1     -30.801   6.514 -25.660  1.00  0.00    -0.259 N 
ATOM      5  H3  UNL     1     -30.918   7.197 -24.911  1.00  0.00     0.190 HD
HETATM    6  C2  UNL     1     -30.571   6.826 -26.981  1.00  0.00     0.171 A 
HETATM    7  N10 UNL     1     -30.484   5.657 -27.606  1.00  0.00    -0.238 N 
HETATM    8  C13 UNL     1     -30.651   4.649 -26.707  1.00  0.00     0.364 A 
HETATM    9  O4  UNL     1     -30.623   3.400 -26.948  1.00  0.00    -0.243 OA
ENDROOT
BRANCH   6  10
HETATM   10  S1  UNL     1     -30.348   8.500 -27.508  1.00  0.00    -0.090 SA
BRANCH  10  11
HETATM   11  C3  UNL     1     -31.845   9.440 -27.731  1.00  0.00     0.102 C 
BRANCH  11  12
HETATM   12  C4  UNL     1     -32.282  10.240 -26.543  1.00  0.00     0.133 C 
BRANCH  12  13
HETATM   13  N4  UNL     1     -33.324   9.525 -25.836  1.00  0.00    -0.357 N 
HETATM   14  C5  UNL     1     -33.148   8.728 -24.700  1.00  0.00     0.259 C 
HETATM   15  O1  UNL     1     -32.065   8.526 -24.140  1.00  0.00    -0.270 OA
ATOM     16  H4  UNL     1     -34.273   9.610 -26.201  1.00  0.00     0.162 HD
BRANCH  14  17
HETATM   17  C6  UNL     1     -34.376   8.066 -24.114  1.00  0.00     0.306 C 
HETATM   18  N5  UNL     1     -35.550   8.383 -24.842  1.00  0.00    -0.087 NA
HETATM   19  N6  UNL     1     -36.702   7.982 -24.231  1.00  0.00    -0.228 N 
HETATM   20  N7  UNL     1     -36.812   8.216 -22.881  1.00  0.00    -0.217 N 
ATOM     21  H6  UNL     1     -37.451   7.528 -24.754  1.00  0.00     0.205 HD
HETATM   22  N8  UNL     1     -35.727   8.769 -22.276  1.00  0.00    -0.230 N 
ATOM     23  H7  UNL     1     -37.660   7.988 -22.362  1.00  0.00     0.211 HD
HETATM   24  N9  UNL     1     -34.487   8.483 -22.753  1.00  0.00    -0.290 N 
ATOM     25  H8  UNL     1     -35.842   9.389 -21.475  1.00  0.00     0.209 HD
ATOM     26  H9  UNL     1     -33.662   8.565 -22.158  1.00  0.00     0.184 HD
ENDBRANCH  14  17
ENDBRANCH  12  13
ENDBRANCH  11  12
ENDBRANCH  10  11
ENDBRANCH   6  10
BRANCH   7  27
HETATM   27  C7  UNL     1     -30.201   5.439 -28.971  1.00  0.00     0.079 A 
HETATM   28  C8  UNL     1     -28.879   5.046 -29.298  1.00  0.00     0.033 A 
HETATM   29  C9  UNL     1     -28.556   4.788 -30.609  1.00  0.00     0.002 A 
HETATM   30  C10 UNL     1     -29.482   4.903 -31.622  1.00  0.00     0.003 A 
HETATM   31  C11 UNL     1     -30.754   5.283 -31.299  1.00  0.00     0.038 A 
HETATM   32  C12 UNL     1     -31.122   5.557 -29.961  1.00  0.00     0.130 A 
BRANCH  32  33
HETATM   33  N11 UNL     1     -32.459   5.965 -29.743  1.00  0.00    -0.113 N 
HETATM   34  O2  UNL     1     -32.740   7.158 -30.097  1.00  0.00    -0.532 OA
HETATM   35  O3  UNL     1     -33.480   5.264 -29.213  1.00  0.00    -0.532 OA
ENDBRANCH  32  33
ENDBRANCH   7  27
TORSDOF 7
ENDMDL
