MODEL 1
REMARK VINA RESULT: -7.750663909      0.000      0.000
REMARK  11 active torsions:
REMARK  status: ('A' for Active; 'I' for Inactive)
REMARK    1  A    between atoms: C2_5  and  O2_6 
REMARK    2  A    between atoms: C3_8  and  N2_9 
REMARK    3  A    between atoms: N3_12  and  N4_13 
REMARK    4  A    between atoms: N4_13  and  N5_15 
REMARK    5  A    between atoms: N5_15  and  C4_17 
REMARK    6  A    between atoms: C5_18  and  S1_19 
REMARK    7  A    between atoms: C7_30  and  N9_31 
REMARK    8  A    between atoms: N9_31  and  O8_33 
REMARK    9  A    between atoms: O8_33  and  C8_34 
REMARK   10  A    between atoms: C8_34  and  C9_35 
REMARK   11  A    between atoms: C9_35  and  O9_36 
ROOT
HETATM    1  C4  UNL     1     -30.732   7.833 -28.187  1.00  0.00     0.121 A 
HETATM    2  C5  UNL     1     -31.641   8.826 -27.896  1.00  0.00     0.182 A 
HETATM    3  N6  UNL     1     -32.478   8.885 -28.947  1.00  0.00    -0.326 N 
ATOM      4  H6  UNL     1     -33.264   9.530 -29.024  1.00  0.00     0.168 HD
HETATM    5  C6  UNL     1     -32.137   7.974 -29.889  1.00  0.00     0.151 A 
HETATM    6  N7  UNL     1     -32.655   7.660 -31.079  1.00  0.00    -0.269 N 
ATOM      7  H7  UNL     1     -33.474   8.160 -31.425  1.00  0.00     0.189 HD
HETATM    8  N8  UNL     1     -32.110   6.703 -31.810  1.00  0.00    -0.129 N 
ATOM      9  H8  UNL     1     -32.527   6.485 -32.715  1.00  0.00     0.205 HD
HETATM   10  C7  UNL     1     -31.032   6.005 -31.417  1.00  0.00     0.717 A 
HETATM   11  N10 UNL     1     -30.519   6.335 -30.205  1.00  0.00    -0.183 N 
ATOM     12  H10 UNL     1     -29.700   5.825 -29.872  1.00  0.00     0.184 HD
HETATM   13  C10 UNL     1     -31.028   7.293 -29.424  1.00  0.00     0.126 A 
ENDROOT
BRANCH   1  14
HETATM   14  N5  UNL     1     -29.675   7.445 -27.341  1.00  0.00    -0.281 N 
ATOM     15  H5  UNL     1     -28.730   7.686 -27.637  1.00  0.00     0.188 HD
BRANCH  14  16
HETATM   16  N4  UNL     1     -29.794   6.826 -26.247  1.00  0.00    -0.229 N 
ATOM     17  H4  UNL     1     -29.603   7.298 -25.364  1.00  0.00     0.209 HD
BRANCH  16  18
HETATM   18  N3  UNL     1     -30.190   5.485 -26.262  1.00  0.00    -0.164 N 
HETATM   19  C1  UNL     1     -29.870   4.524 -27.145  1.00  0.00     0.350 A 
HETATM   20  O1  UNL     1     -29.122   4.685 -28.156  1.00  0.00    -0.244 OA
HETATM   21  N1  UNL     1     -30.463   3.348 -26.806  1.00  0.00    -0.284 N 
HETATM   22  C2  UNL     1     -31.178   3.556 -25.682  1.00  0.00     0.198 A 
ATOM     23  H1  UNL     1     -30.381   2.465 -27.312  1.00  0.00     0.172 HD
HETATM   24  C3  UNL     1     -30.996   4.889 -25.359  1.00  0.00     0.251 A 
BRANCH  22  25
HETATM   25  O2  UNL     1     -31.950   2.620 -24.976  1.00  0.00    -0.343 OA
ATOM     26  H2  UNL     1     -31.638   1.915 -24.421  1.00  0.00     0.219 HD
ENDBRANCH  22  25
BRANCH  24  27
HETATM   27  N2  UNL     1     -31.572   5.546 -24.237  1.00  0.00    -0.091 N 
HETATM   28  O3  UNL     1     -32.816   5.485 -24.025  1.00  0.00    -0.530 OA
HETATM   29  O4  UNL     1     -30.810   6.259 -23.362  1.00  0.00    -0.530 OA
ENDBRANCH  24  27
ENDBRANCH  16  18
ENDBRANCH  14  16
ENDBRANCH   1  14
BRANCH   2  30
HETATM   30  S1  UNL     1     -31.721   9.832 -26.455  1.00  0.00     0.157 S 
HETATM   31  O5  UNL     1     -33.040  10.549 -26.389  1.00  0.00    -0.590 OA
HETATM   32  O6  UNL     1     -31.658   8.951 -25.213  1.00  0.00    -0.590 OA
HETATM   33  O7  UNL     1     -30.441  10.885 -26.436  1.00  0.00    -0.590 OA
ENDBRANCH   2  30
BRANCH  10  34
HETATM   34  N9  UNL     1     -30.501   5.082 -32.136  1.00  0.00    -0.095 N 
ATOM     35  H9  UNL     1     -30.952   4.907 -33.034  1.00  0.00     0.213 HD
BRANCH  34  36
HETATM   36  O8  UNL     1     -29.435   4.320 -31.863  1.00  0.00    -0.264 OA
BRANCH  36  37
HETATM   37  C8  UNL     1     -28.175   4.473 -32.441  1.00  0.00     0.227 C 
BRANCH  37  38
HETATM   38  C9  UNL     1     -27.212   4.828 -31.311  1.00  0.00     0.192 C 
BRANCH  38  39
HETATM   39  O9  UNL     1     -27.698   5.891 -30.571  1.00  0.00    -0.399 OA
ATOM     40  H9  UNL     1     -28.309   5.588 -29.910  1.00  0.00     0.209 HD
ENDBRANCH  38  39
ENDBRANCH  37  38
ENDBRANCH  36  37
ENDBRANCH  34  36
ENDBRANCH  10  34
TORSDOF 11
ENDMDL
MODEL 2
REMARK VINA RESULT: -7.579306354      3.122      6.067
REMARK  11 active torsions:
REMARK  status: ('A' for Active; 'I' for Inactive)
REMARK    1  A    between atoms: C2_5  and  O2_6 
REMARK    2  A    between atoms: C3_8  and  N2_9 
REMARK    3  A    between atoms: N3_12  and  N4_13 
REMARK    4  A    between atoms: N4_13  and  N5_15 
REMARK    5  A    between atoms: N5_15  and  C4_17 
REMARK    6  A    between atoms: C5_18  and  S1_19 
REMARK    7  A    between atoms: C7_30  and  N9_31 
REMARK    8  A    between atoms: N9_31  and  O8_33 
REMARK    9  A    between atoms: O8_33  and  C8_34 
REMARK   10  A    between atoms: C8_34  and  C9_35 
REMARK   11  A    between atoms: C9_35  and  O9_36 
ROOT
HETATM    1  C4  UNL     1     -31.419   5.686 -25.251  1.00  0.00     0.121 A 
HETATM    2  C5  UNL     1     -31.034   4.409 -24.907  1.00  0.00     0.182 A 
HETATM    3  N6  UNL     1     -30.183   4.006 -25.866  1.00  0.00    -0.326 N 
ATOM      4  H6  UNL     1     -29.725   3.094 -25.887  1.00  0.00     0.168 HD
HETATM    5  C6  UNL     1     -30.014   4.970 -26.801  1.00  0.00     0.151 A 
HETATM    6  N7  UNL     1     -29.284   5.036 -27.917  1.00  0.00    -0.269 N 
ATOM      7  H7  UNL     1     -28.708   4.242 -28.196  1.00  0.00     0.189 HD
HETATM    8  N8  UNL     1     -29.306   6.128 -28.662  1.00  0.00    -0.129 N 
ATOM      9  H8  UNL     1     -28.738   6.150 -29.509  1.00  0.00     0.205 HD
HETATM   10  C7  UNL     1     -30.041   7.210 -28.356  1.00  0.00     0.717 A 
HETATM   11  N10 UNL     1     -30.776   7.126 -27.219  1.00  0.00    -0.183 N 
ATOM     12  H10 UNL     1     -31.347   7.929 -26.953  1.00  0.00     0.184 HD
HETATM   13  C10 UNL     1     -30.793   6.049 -26.428  1.00  0.00     0.126 A 
ENDROOT
BRANCH   1  14
HETATM   14  N5  UNL     1     -32.313   6.478 -24.505  1.00  0.00    -0.281 N 
ATOM     15  H5  UNL     1     -33.306   6.266 -24.592  1.00  0.00     0.188 HD
BRANCH  14  16
HETATM   16  N4  UNL     1     -31.994   7.428 -23.737  1.00  0.00    -0.229 N 
ATOM     17  H4  UNL     1     -31.014   7.674 -23.600  1.00  0.00     0.209 HD
BRANCH  16  18
HETATM   18  N3  UNL     1     -33.001   8.138 -23.075  1.00  0.00    -0.164 N 
HETATM   19  C1  UNL     1     -33.353   8.087 -21.779  1.00  0.00     0.350 A 
HETATM   20  O1  UNL     1     -32.803   7.352 -20.905  1.00  0.00    -0.244 OA
HETATM   21  N1  UNL     1     -34.387   8.935 -21.531  1.00  0.00    -0.284 N 
HETATM   22  C2  UNL     1     -34.706   9.544 -22.692  1.00  0.00     0.198 A 
ATOM     23  H1  UNL     1     -34.839   9.084 -20.629  1.00  0.00     0.172 HD
HETATM   24  C3  UNL     1     -33.835   9.036 -23.639  1.00  0.00     0.251 A 
BRANCH  22  25
HETATM   25  O2  UNL     1     -35.714  10.499 -22.905  1.00  0.00    -0.343 OA
ATOM     26  H2  UNL     1     -36.552  10.367 -23.331  1.00  0.00     0.219 HD
ENDBRANCH  22  25
BRANCH  24  27
HETATM   27  N2  UNL     1     -33.813   9.403 -25.012  1.00  0.00    -0.091 N 
HETATM   28  O3  UNL     1     -33.960  10.610 -25.358  1.00  0.00    -0.530 OA
HETATM   29  O4  UNL     1     -33.635   8.476 -25.993  1.00  0.00    -0.530 OA
ENDBRANCH  24  27
ENDBRANCH  16  18
ENDBRANCH  14  16
ENDBRANCH   1  14
BRANCH   2  30
HETATM   30  S1  UNL     1     -31.533   3.468 -23.506  1.00  0.00     0.157 S 
HETATM   31  O5  UNL     1     -30.353   3.185 -22.618  1.00  0.00    -0.590 OA
HETATM   32  O6  UNL     1     -32.508   4.282 -22.665  1.00  0.00    -0.590 OA
HETATM   33  O7  UNL     1     -32.281   2.076 -24.006  1.00  0.00    -0.590 OA
ENDBRANCH   2  30
BRANCH  10  34
HETATM   34  N9  UNL     1     -30.065   8.264 -29.089  1.00  0.00    -0.095 N 
ATOM     35  H9  UNL     1     -29.277   8.901 -28.973  1.00  0.00     0.213 HD
BRANCH  34  36
HETATM   36  O8  UNL     1     -30.986   8.638 -29.985  1.00  0.00    -0.264 OA
BRANCH  36  37
HETATM   37  C8  UNL     1     -32.360   8.675 -29.749  1.00  0.00     0.227 C 
BRANCH  37  38
HETATM   38  C9  UNL     1     -32.649   9.995 -29.037  1.00  0.00     0.192 C 
BRANCH  38  39
HETATM   39  O9  UNL     1     -32.021  10.033 -27.805  1.00  0.00    -0.399 OA
ATOM     40  H9  UNL     1     -32.636   9.835 -27.109  1.00  0.00     0.209 HD
ENDBRANCH  38  39
ENDBRANCH  37  38
ENDBRANCH  36  37
ENDBRANCH  34  36
ENDBRANCH  10  34
TORSDOF 11
ENDMDL
MODEL 3
REMARK VINA RESULT: -7.458917073      3.082      5.871
REMARK  11 active torsions:
REMARK  status: ('A' for Active; 'I' for Inactive)
REMARK    1  A    between atoms: C2_5  and  O2_6 
REMARK    2  A    between atoms: C3_8  and  N2_9 
REMARK    3  A    between atoms: N3_12  and  N4_13 
REMARK    4  A    between atoms: N4_13  and  N5_15 
REMARK    5  A    between atoms: N5_15  and  C4_17 
REMARK    6  A    between atoms: C5_18  and  S1_19 
REMARK    7  A    between atoms: C7_30  and  N9_31 
REMARK    8  A    between atoms: N9_31  and  O8_33 
REMARK    9  A    between atoms: O8_33  and  C8_34 
REMARK   10  A    between atoms: C8_34  and  C9_35 
REMARK   11  A    between atoms: C9_35  and  O9_36 
ROOT
HETATM    1  C4  UNL     1     -31.302   5.637 -24.981  1.00  0.00     0.121 A 
HETATM    2  C5  UNL     1     -31.066   4.299 -24.752  1.00  0.00     0.182 A 
HETATM    3  N6  UNL     1     -30.366   3.858 -25.812  1.00  0.00    -0.326 N 
ATOM      4  H6  UNL     1     -30.040   2.899 -25.931  1.00  0.00     0.168 HD
HETATM    5  C6  UNL     1     -30.150   4.857 -26.700  1.00  0.00     0.151 A 
HETATM    6  N7  UNL     1     -29.519   4.908 -27.875  1.00  0.00    -0.269 N 
ATOM      7  H7  UNL     1     -29.083   4.068 -28.255  1.00  0.00     0.189 HD
HETATM    8  N8  UNL     1     -29.457   6.044 -28.548  1.00  0.00    -0.129 N 
ATOM      9  H8  UNL     1     -28.968   6.053 -29.444  1.00  0.00     0.205 HD
HETATM   10  C7  UNL     1     -30.007   7.188 -28.109  1.00  0.00     0.717 A 
HETATM   11  N10 UNL     1     -30.644   7.119 -26.912  1.00  0.00    -0.183 N 
ATOM     12  H10 UNL     1     -31.074   7.969 -26.545  1.00  0.00     0.184 HD
HETATM   13  C10 UNL     1     -30.738   5.999 -26.189  1.00  0.00     0.126 A 
ENDROOT
BRANCH   1  14
HETATM   14  N5  UNL     1     -32.010   6.483 -24.105  1.00  0.00    -0.281 N 
ATOM     15  H5  UNL     1     -31.470   6.961 -23.384  1.00  0.00     0.188 HD
BRANCH  14  16
HETATM   16  N4  UNL     1     -33.252   6.703 -24.133  1.00  0.00    -0.229 N 
ATOM     17  H4  UNL     1     -33.912   5.967 -23.882  1.00  0.00     0.209 HD
BRANCH  16  18
HETATM   18  N3  UNL     1     -33.713   7.967 -24.514  1.00  0.00    -0.164 N 
HETATM   19  C1  UNL     1     -33.855   8.472 -25.751  1.00  0.00     0.350 A 
HETATM   20  O1  UNL     1     -33.582   7.855 -26.824  1.00  0.00    -0.244 OA
HETATM   21  N1  UNL     1     -34.335   9.744 -25.695  1.00  0.00    -0.284 N 
HETATM   22  C2  UNL     1     -34.504  10.063 -24.395  1.00  0.00     0.198 A 
ATOM     23  H1  UNL     1     -34.531  10.348 -26.493  1.00  0.00     0.172 HD
HETATM   24  C3  UNL     1     -34.113   8.947 -23.677  1.00  0.00     0.251 A 
BRANCH  22  25
HETATM   25  O2  UNL     1     -34.980  11.275 -23.870  1.00  0.00    -0.343 OA
ATOM     26  H2  UNL     1     -35.797  11.713 -24.077  1.00  0.00     0.219 HD
ENDBRANCH  22  25
BRANCH  24  27
HETATM   27  N2  UNL     1     -34.127   8.839 -22.260  1.00  0.00    -0.091 N 
HETATM   28  O3  UNL     1     -35.033   9.401 -21.581  1.00  0.00    -0.530 OA
HETATM   29  O4  UNL     1     -33.175   8.132 -21.591  1.00  0.00    -0.530 OA
ENDBRANCH  24  27
ENDBRANCH  16  18
ENDBRANCH  14  16
ENDBRANCH   1  14
BRANCH   2  30
HETATM   30  S1  UNL     1     -31.563   3.333 -23.368  1.00  0.00     0.157 S 
HETATM   31  O5  UNL     1     -30.392   3.072 -22.463  1.00  0.00    -0.590 OA
HETATM   32  O6  UNL     1     -32.574   4.114 -22.537  1.00  0.00    -0.590 OA
HETATM   33  O7  UNL     1     -32.267   1.926 -23.893  1.00  0.00    -0.590 OA
ENDBRANCH   2  30
BRANCH  10  34
HETATM   34  N9  UNL     1     -29.952   8.286 -28.771  1.00  0.00    -0.095 N 
ATOM     35  H9  UNL     1     -29.252   8.958 -28.455  1.00  0.00     0.213 HD
BRANCH  34  36
HETATM   36  O8  UNL     1     -30.689   8.667 -29.821  1.00  0.00    -0.264 OA
BRANCH  36  37
HETATM   37  C8  UNL     1     -32.030   8.337 -30.016  1.00  0.00     0.227 C 
BRANCH  37  38
HETATM   38  C9  UNL     1     -32.846   9.571 -29.638  1.00  0.00     0.192 C 
BRANCH  38  39
HETATM   39  O9  UNL     1     -32.427  10.080 -28.421  1.00  0.00    -0.399 OA
ATOM     40  H9  UNL     1     -32.632  11.005 -28.356  1.00  0.00     0.209 HD
ENDBRANCH  38  39
ENDBRANCH  37  38
ENDBRANCH  36  37
ENDBRANCH  34  36
ENDBRANCH  10  34
TORSDOF 11
ENDMDL
MODEL 4
REMARK VINA RESULT: -7.391847728      3.349      6.116
REMARK  11 active torsions:
REMARK  status: ('A' for Active; 'I' for Inactive)
REMARK    1  A    between atoms: C2_5  and  O2_6 
REMARK    2  A    between atoms: C3_8  and  N2_9 
REMARK    3  A    between atoms: N3_12  and  N4_13 
REMARK    4  A    between atoms: N4_13  and  N5_15 
REMARK    5  A    between atoms: N5_15  and  C4_17 
REMARK    6  A    between atoms: C5_18  and  S1_19 
REMARK    7  A    between atoms: C7_30  and  N9_31 
REMARK    8  A    between atoms: N9_31  and  O8_33 
REMARK    9  A    between atoms: O8_33  and  C8_34 
REMARK   10  A    between atoms: C8_34  and  C9_35 
REMARK   11  A    between atoms: C9_35  and  O9_36 
ROOT
HETATM    1  C4  UNL     1     -31.544   5.706 -25.053  1.00  0.00     0.121 A 
HETATM    2  C5  UNL     1     -31.107   4.433 -24.756  1.00  0.00     0.182 A 
HETATM    3  N6  UNL     1     -30.232   4.105 -25.722  1.00  0.00    -0.326 N 
ATOM      4  H6  UNL     1     -29.736   3.215 -25.775  1.00  0.00     0.168 HD
HETATM    5  C6  UNL     1     -30.097   5.112 -26.618  1.00  0.00     0.151 A 
HETATM    6  N7  UNL     1     -29.363   5.253 -27.723  1.00  0.00    -0.269 N 
ATOM      7  H7  UNL     1     -28.751   4.495 -28.027  1.00  0.00     0.189 HD
HETATM    8  N8  UNL     1     -29.425   6.371 -28.425  1.00  0.00    -0.129 N 
ATOM      9  H8  UNL     1     -28.852   6.450 -29.265  1.00  0.00     0.205 HD
HETATM   10  C7  UNL     1     -30.208   7.408 -28.084  1.00  0.00     0.717 A 
HETATM   11  N10 UNL     1     -30.948   7.249 -26.957  1.00  0.00    -0.183 N 
ATOM     12  H10 UNL     1     -31.554   8.016 -26.665  1.00  0.00     0.184 HD
HETATM   13  C10 UNL     1     -30.924   6.141 -26.209  1.00  0.00     0.126 A 
ENDROOT
BRANCH   1  14
HETATM   14  N5  UNL     1     -32.476   6.430 -24.285  1.00  0.00    -0.281 N 
ATOM     15  H5  UNL     1     -33.357   5.966 -24.066  1.00  0.00     0.188 HD
BRANCH  14  16
HETATM   16  N4  UNL     1     -32.318   7.601 -23.842  1.00  0.00    -0.229 N 
ATOM     17  H4  UNL     1     -31.380   7.977 -23.702  1.00  0.00     0.209 HD
BRANCH  16  18
HETATM   18  N3  UNL     1     -33.443   8.376 -23.547  1.00  0.00    -0.164 N 
HETATM   19  C1  UNL     1     -34.272   9.011 -24.392  1.00  0.00     0.350 A 
HETATM   20  O1  UNL     1     -34.162   9.011 -25.655  1.00  0.00    -0.244 OA
HETATM   21  N1  UNL     1     -35.251   9.660 -23.705  1.00  0.00    -0.284 N 
HETATM   22  C2  UNL     1     -35.047   9.436 -22.391  1.00  0.00     0.198 A 
ATOM     23  H1  UNL     1     -36.004  10.215 -24.112  1.00  0.00     0.172 HD
HETATM   24  C3  UNL     1     -33.920   8.637 -22.312  1.00  0.00     0.251 A 
BRANCH  22  25
HETATM   25  O2  UNL     1     -35.815   9.912 -21.316  1.00  0.00    -0.343 OA
ATOM     26  H2  UNL     1     -36.693   9.644 -21.070  1.00  0.00     0.219 HD
ENDBRANCH  22  25
BRANCH  24  27
HETATM   27  N2  UNL     1     -33.341   8.155 -21.107  1.00  0.00    -0.091 N 
HETATM   28  O3  UNL     1     -33.609   8.703 -20.000  1.00  0.00    -0.530 OA
HETATM   29  O4  UNL     1     -32.485   7.096 -21.104  1.00  0.00    -0.530 OA
ENDBRANCH  24  27
ENDBRANCH  16  18
ENDBRANCH  14  16
ENDBRANCH   1  14
BRANCH   2  30
HETATM   30  S1  UNL     1     -31.576   3.418 -23.398  1.00  0.00     0.157 S 
HETATM   31  O5  UNL     1     -30.391   3.145 -22.514  1.00  0.00    -0.590 OA
HETATM   32  O6  UNL     1     -32.587   4.158 -22.531  1.00  0.00    -0.590 OA
HETATM   33  O7  UNL     1     -32.266   2.019 -23.959  1.00  0.00    -0.590 OA
ENDBRANCH   2  30
BRANCH  10  34
HETATM   34  N9  UNL     1     -30.271   8.488 -28.775  1.00  0.00    -0.095 N 
ATOM     35  H9  UNL     1     -29.412   9.035 -28.820  1.00  0.00     0.213 HD
BRANCH  34  36
HETATM   36  O8  UNL     1     -31.316   8.992 -29.444  1.00  0.00    -0.264 OA
BRANCH  36  37
HETATM   37  C8  UNL     1     -32.506   9.423 -28.858  1.00  0.00     0.227 C 
BRANCH  37  38
HETATM   38  C9  UNL     1     -32.156  10.622 -27.979  1.00  0.00     0.192 C 
BRANCH  38  39
HETATM   39  O9  UNL     1     -31.823  10.209 -26.701  1.00  0.00    -0.399 OA
ATOM     40  H9  UNL     1     -31.910   9.267 -26.620  1.00  0.00     0.209 HD
ENDBRANCH  38  39
ENDBRANCH  37  38
ENDBRANCH  36  37
ENDBRANCH  34  36
ENDBRANCH  10  34
TORSDOF 11
ENDMDL
MODEL 5
REMARK VINA RESULT: -7.387884509      3.331      5.723
REMARK  11 active torsions:
REMARK  status: ('A' for Active; 'I' for Inactive)
REMARK    1  A    between atoms: C2_5  and  O2_6 
REMARK    2  A    between atoms: C3_8  and  N2_9 
REMARK    3  A    between atoms: N3_12  and  N4_13 
REMARK    4  A    between atoms: N4_13  and  N5_15 
REMARK    5  A    between atoms: N5_15  and  C4_17 
REMARK    6  A    between atoms: C5_18  and  S1_19 
REMARK    7  A    between atoms: C7_30  and  N9_31 
REMARK    8  A    between atoms: N9_31  and  O8_33 
REMARK    9  A    between atoms: O8_33  and  C8_34 
REMARK   10  A    between atoms: C8_34  and  C9_35 
REMARK   11  A    between atoms: C9_35  and  O9_36 
ROOT
HETATM    1  C4  UNL     1     -31.966   8.781 -25.975  1.00  0.00     0.121 A 
HETATM    2  C5  UNL     1     -31.599   9.675 -26.957  1.00  0.00     0.182 A 
HETATM    3  N6  UNL     1     -30.738   9.018 -27.754  1.00  0.00    -0.326 N 
ATOM      4  H6  UNL     1     -30.290   9.421 -28.577  1.00  0.00     0.168 HD
HETATM    5  C6  UNL     1     -30.544   7.751 -27.319  1.00  0.00     0.151 A 
HETATM    6  N7  UNL     1     -29.796   6.740 -27.767  1.00  0.00    -0.269 N 
ATOM      7  H7  UNL     1     -29.224   6.863 -28.603  1.00  0.00     0.189 HD
HETATM    8  N8  UNL     1     -29.795   5.581 -27.133  1.00  0.00    -0.129 N 
ATOM      9  H8  UNL     1     -29.215   4.826 -27.500  1.00  0.00     0.205 HD
HETATM   10  C7  UNL     1     -30.523   5.349 -26.028  1.00  0.00     0.717 A 
HETATM   11  N10 UNL     1     -31.278   6.387 -25.585  1.00  0.00    -0.183 N 
ATOM     12  H10 UNL     1     -31.845   6.248 -24.749  1.00  0.00     0.184 HD
HETATM   13  C10 UNL     1     -31.317   7.580 -26.186  1.00  0.00     0.126 A 
ENDROOT
BRANCH   1  14
HETATM   14  N5  UNL     1     -32.864   9.070 -24.929  1.00  0.00    -0.281 N 
ATOM     15  H5  UNL     1     -32.959  10.047 -24.654  1.00  0.00     0.188 HD
BRANCH  14  16
HETATM   16  N4  UNL     1     -33.563   8.227 -24.301  1.00  0.00    -0.229 N 
ATOM     17  H4  UNL     1     -34.218   7.625 -24.801  1.00  0.00     0.209 HD
BRANCH  16  18
HETATM   18  N3  UNL     1     -33.428   8.128 -22.913  1.00  0.00    -0.164 N 
HETATM   19  C1  UNL     1     -32.549   7.402 -22.203  1.00  0.00     0.350 A 
HETATM   20  O1  UNL     1     -31.656   6.651 -22.701  1.00  0.00    -0.244 OA
HETATM   21  N1  UNL     1     -32.748   7.580 -20.869  1.00  0.00    -0.284 N 
HETATM   22  C2  UNL     1     -33.777   8.439 -20.719  1.00  0.00     0.198 A 
ATOM     23  H1  UNL     1     -32.215   7.142 -20.118  1.00  0.00     0.172 HD
HETATM   24  C3  UNL     1     -34.186   8.769 -21.998  1.00  0.00     0.251 A 
BRANCH  22  25
HETATM   25  O2  UNL     1     -34.326   8.909 -19.515  1.00  0.00    -0.343 OA
ATOM     26  H2  UNL     1     -34.869   9.679 -19.390  1.00  0.00     0.219 HD
ENDBRANCH  22  25
BRANCH  24  27
HETATM   27  N2  UNL     1     -35.252   9.656 -22.315  1.00  0.00    -0.091 N 
HETATM   28  O3  UNL     1     -36.335   9.617 -21.665  1.00  0.00    -0.530 OA
HETATM   29  O4  UNL     1     -35.143  10.567 -23.320  1.00  0.00    -0.530 OA
ENDBRANCH  24  27
ENDBRANCH  16  18
ENDBRANCH  14  16
ENDBRANCH   1  14
BRANCH   2  30
HETATM   30  S1  UNL     1     -32.130  11.340 -27.159  1.00  0.00     0.157 S 
HETATM   31  O5  UNL     1     -33.322  11.619 -26.288  1.00  0.00    -0.590 OA
HETATM   32  O6  UNL     1     -31.032  12.287 -26.688  1.00  0.00    -0.590 OA
HETATM   33  O7  UNL     1     -32.447  11.635 -28.759  1.00  0.00    -0.590 OA
ENDBRANCH   2  30
BRANCH  10  34
HETATM   34  N9  UNL     1     -30.511   4.223 -25.411  1.00  0.00    -0.095 N 
ATOM     35  H9  UNL     1     -29.734   4.081 -24.766  1.00  0.00     0.213 HD
BRANCH  34  36
HETATM   36  O8  UNL     1     -31.383   3.212 -25.501  1.00  0.00    -0.264 OA
BRANCH  36  37
HETATM   37  C8  UNL     1     -31.979   2.572 -24.414  1.00  0.00     0.227 C 
BRANCH  37  38
HETATM   38  C9  UNL     1     -31.615   3.383 -23.172  1.00  0.00     0.192 C 
BRANCH  38  39
HETATM   39  O9  UNL     1     -30.471   2.879 -22.578  1.00  0.00    -0.399 OA
ATOM     40  H9  UNL     1     -30.668   2.090 -22.087  1.00  0.00     0.209 HD
ENDBRANCH  38  39
ENDBRANCH  37  38
ENDBRANCH  36  37
ENDBRANCH  34  36
ENDBRANCH  10  34
TORSDOF 11
ENDMDL
