MODEL 1
REMARK VINA RESULT: -8.222854484      0.000      0.000
REMARK  8 active torsions:
REMARK  status: ('A' for Active; 'I' for Inactive)
REMARK    1  A    between atoms: N1_1  and  C1_4 
REMARK    2  A    between atoms: C3_8  and  C4_9 
REMARK       I    between atoms: C4_9  and  N3_11 
REMARK    3  A    between atoms: N3_11  and  N4_13 
REMARK    4  A    between atoms: N4_13  and  S1_15 
REMARK    5  A    between atoms: S1_15  and  C5_18 
REMARK    6  A    between atoms: C10_30  and  N9_31 
REMARK    7  A    between atoms: C11_38  and  S2_39 
REMARK    8  A    between atoms: S2_39  and  N13_40 
ROOT
HETATM    1  C1  UNL     1     -34.987  10.294 -22.491  1.00  0.00     0.131 A 
HETATM    2  N2  UNL     1     -34.111   9.657 -23.295  1.00  0.00    -0.324 N 
ATOM      3  H2  UNL     1     -34.097   9.862 -24.293  1.00  0.00     0.169 HD
HETATM    4  C2  UNL     1     -33.261   8.760 -22.790  1.00  0.00     0.163 A 
HETATM    5  C3  UNL     1     -32.297   7.978 -23.366  1.00  0.00     0.165 A 
HETATM    6  N6  UNL     1     -31.777   7.248 -22.309  1.00  0.00    -0.277 N 
ATOM      7  H6  UNL     1     -31.030   6.557 -22.389  1.00  0.00     0.189 HD
HETATM    8  N7  UNL     1     -32.378   7.569 -21.198  1.00  0.00    -0.234 N 
ATOM      9  H7  UNL     1     -32.176   7.173 -20.280  1.00  0.00     0.209 HD
HETATM   10  N8  UNL     1     -33.305   8.505 -21.455  1.00  0.00    -0.232 N 
HETATM   11  C9  UNL     1     -34.169   9.125 -20.628  1.00  0.00     0.155 A 
HETATM   12  C10 UNL     1     -35.049  10.053 -21.132  1.00  0.00     0.121 A 
ENDROOT
BRANCH   5  13
HETATM   13  C4  UNL     1     -31.791   7.903 -24.718  1.00  0.00     0.292 C 
HETATM   14  O1  UNL     1     -31.581   9.013 -25.323  1.00  0.00    -0.264 OA
HETATM   15  N3  UNL     1     -31.525   6.722 -25.410  1.00  0.00    -0.255 N 
ATOM     16  H3  UNL     1     -31.717   5.849 -24.917  1.00  0.00     0.191 HD
BRANCH  15  17
HETATM   17  N4  UNL     1     -31.024   6.614 -26.709  1.00  0.00    -0.219 N 
ATOM     18  H4  UNL     1     -31.194   7.331 -27.415  1.00  0.00     0.200 HD
BRANCH  17  19
HETATM   19  S1  UNL     1     -30.118   5.224 -27.047  1.00  0.00     0.291 S 
HETATM   20  O2  UNL     1     -28.963   5.030 -26.101  1.00  0.00    -0.197 OA
HETATM   21  O3  UNL     1     -31.006   4.023 -26.874  1.00  0.00    -0.197 OA
BRANCH  19  22
HETATM   22  C5  UNL     1     -29.491   5.234 -28.672  1.00  0.00     0.150 A 
HETATM   23  C6  UNL     1     -30.199   4.671 -29.725  1.00  0.00     0.045 A 
HETATM   24  C7  UNL     1     -29.430   4.838 -30.849  1.00  0.00     0.020 A 
HETATM   25  C8  UNL     1     -28.274   5.490 -30.491  1.00  0.00     0.089 A 
HETATM   26  N5  UNL     1     -28.356   5.706 -29.180  1.00  0.00    -0.355 N 
ATOM     27  H5  UNL     1     -27.637   6.177 -28.632  1.00  0.00     0.166 HD
ENDBRANCH  19  22
ENDBRANCH  17  19
ENDBRANCH  15  17
ENDBRANCH   5  13
BRANCH   1  28
HETATM   28  N1  UNL     1     -35.801  11.162 -22.988  1.00  0.00    -0.383 N 
ATOM     29  H12 UNL     1     -36.179  10.984 -23.919  1.00  0.00     0.157 HD
ATOM     30  H11 UNL     1     -36.049  11.992 -22.451  1.00  0.00     0.157 HD
ENDBRANCH   1  28
BRANCH  12  31
HETATM   31  N9  UNL     1     -35.989  10.774 -20.354  1.00  0.00    -0.211 N 
HETATM   32  N10 UNL     1     -35.828  11.939 -19.722  1.00  0.00    -0.219 N 
HETATM   33  N11 UNL     1     -36.942  12.270 -19.099  1.00  0.00    -0.226 N 
ATOM     34  H10 UNL     1     -34.970  12.491 -19.722  1.00  0.00     0.210 HD
HETATM   35  N12 UNL     1     -37.814  11.307 -19.338  1.00  0.00    -0.261 N 
ATOM     36  H11 UNL     1     -37.100  13.109 -18.540  1.00  0.00     0.210 HD
HETATM   37  C11 UNL     1     -37.248  10.364 -20.116  1.00  0.00     0.203 A 
ATOM     38  H12 UNL     1     -38.771  11.282 -18.987  1.00  0.00     0.190 HD
BRANCH  37  39
HETATM   39  S2  UNL     1     -37.955   8.850 -20.741  1.00  0.00     0.019 SA
BRANCH  39  40
HETATM   40  N13 UNL     1     -39.534   8.553 -20.046  1.00  0.00    -0.367 N 
ATOM     41 2H13 UNL     1     -39.748   8.680 -19.057  1.00  0.00     0.164 HD
ATOM     42 1H13 UNL     1     -40.196   8.241 -20.756  1.00  0.00     0.164 HD
ENDBRANCH  39  40
ENDBRANCH  37  39
ENDBRANCH  12  31
TORSDOF 8
ENDMDL
MODEL 2
REMARK VINA RESULT: -8.026042234      2.646      9.976
REMARK  8 active torsions:
REMARK  status: ('A' for Active; 'I' for Inactive)
REMARK    1  A    between atoms: N1_1  and  C1_4 
REMARK    2  A    between atoms: C3_8  and  C4_9 
REMARK       I    between atoms: C4_9  and  N3_11 
REMARK    3  A    between atoms: N3_11  and  N4_13 
REMARK    4  A    between atoms: N4_13  and  S1_15 
REMARK    5  A    between atoms: S1_15  and  C5_18 
REMARK    6  A    between atoms: C10_30  and  N9_31 
REMARK    7  A    between atoms: C11_38  and  S2_39 
REMARK    8  A    between atoms: S2_39  and  N13_40 
ROOT
HETATM    1  C1  UNL     1     -29.751   6.723 -27.565  1.00  0.00     0.131 A 
HETATM    2  N2  UNL     1     -30.260   6.869 -26.323  1.00  0.00    -0.324 N 
ATOM      3  H2  UNL     1     -30.458   7.802 -25.964  1.00  0.00     0.169 HD
HETATM    4  C2  UNL     1     -30.505   5.799 -25.564  1.00  0.00     0.163 A 
HETATM    5  C3  UNL     1     -30.998   5.664 -24.294  1.00  0.00     0.165 A 
HETATM    6  N6  UNL     1     -30.994   4.295 -24.074  1.00  0.00    -0.277 N 
ATOM      7  H6  UNL     1     -31.302   3.842 -23.214  1.00  0.00     0.189 HD
HETATM    8  N7  UNL     1     -30.540   3.669 -25.124  1.00  0.00    -0.234 N 
ATOM      9  H7  UNL     1     -30.439   2.658 -25.212  1.00  0.00     0.209 HD
HETATM   10  N8  UNL     1     -30.226   4.568 -26.070  1.00  0.00    -0.232 N 
HETATM   11  C9  UNL     1     -29.719   4.390 -27.305  1.00  0.00     0.155 A 
HETATM   12  C10 UNL     1     -29.463   5.482 -28.100  1.00  0.00     0.121 A 
ENDROOT
BRANCH   5  13
HETATM   13  C4  UNL     1     -31.511   6.627 -23.347  1.00  0.00     0.292 C 
HETATM   14  O1  UNL     1     -30.952   6.664 -22.195  1.00  0.00    -0.264 OA
HETATM   15  N3  UNL     1     -32.567   7.505 -23.589  1.00  0.00    -0.255 N 
ATOM     16  H3  UNL     1     -33.010   7.447 -24.506  1.00  0.00     0.191 HD
BRANCH  15  17
HETATM   17  N4  UNL     1     -33.078   8.456 -22.702  1.00  0.00    -0.219 N 
ATOM     18  H4  UNL     1     -32.621   8.666 -21.815  1.00  0.00     0.200 HD
BRANCH  17  19
HETATM   19  S1  UNL     1     -34.499   9.240 -23.185  1.00  0.00     0.291 S 
HETATM   20  O2  UNL     1     -34.255  10.630 -23.708  1.00  0.00    -0.197 OA
HETATM   21  O3  UNL     1     -35.107   8.465 -24.323  1.00  0.00    -0.197 OA
BRANCH  19  22
HETATM   22  C5  UNL     1     -35.658   9.344 -21.889  1.00  0.00     0.150 A 
HETATM   23  C6  UNL     1     -35.393  10.076 -20.739  1.00  0.00     0.045 A 
HETATM   24  C7  UNL     1     -36.493   9.944 -19.929  1.00  0.00     0.020 A 
HETATM   25  C8  UNL     1     -37.411   9.147 -20.571  1.00  0.00     0.089 A 
HETATM   26  N5  UNL     1     -36.867   8.814 -21.739  1.00  0.00    -0.355 N 
ATOM     27  H5  UNL     1     -37.323   8.223 -22.434  1.00  0.00     0.166 HD
ENDBRANCH  19  22
ENDBRANCH  17  19
ENDBRANCH  15  17
ENDBRANCH   5  13
BRANCH   1  28
HETATM   28  N1  UNL     1     -29.522   7.763 -28.291  1.00  0.00    -0.383 N 
ATOM     29  H12 UNL     1     -29.890   8.659 -27.973  1.00  0.00     0.157 HD
ATOM     30  H11 UNL     1     -28.985   7.672 -29.153  1.00  0.00     0.157 HD
ENDBRANCH   1  28
BRANCH  12  31
HETATM   31  N9  UNL     1     -28.944   5.412 -29.417  1.00  0.00    -0.211 N 
HETATM   32  N10 UNL     1     -27.669   5.447 -29.812  1.00  0.00    -0.219 N 
HETATM   33  N11 UNL     1     -27.603   5.363 -31.126  1.00  0.00    -0.226 N 
ATOM     34  H10 UNL     1     -26.865   5.526 -29.189  1.00  0.00     0.210 HD
HETATM   35  N12 UNL     1     -28.846   5.275 -31.566  1.00  0.00    -0.261 N 
ATOM     36  H11 UNL     1     -26.755   5.365 -31.694  1.00  0.00     0.210 HD
HETATM   37  C11 UNL     1     -29.700   5.303 -30.525  1.00  0.00     0.203 A 
ATOM     38  H12 UNL     1     -29.117   5.198 -32.546  1.00  0.00     0.190 HD
BRANCH  37  39
HETATM   39  S2  UNL     1     -31.482   5.223 -30.530  1.00  0.00     0.019 SA
BRANCH  39  40
HETATM   40  N13 UNL     1     -32.189   6.824 -30.494  1.00  0.00    -0.367 N 
ATOM     41 2H13 UNL     1     -31.670   7.664 -30.240  1.00  0.00     0.164 HD
ATOM     42 1H13 UNL     1     -33.174   6.798 -30.757  1.00  0.00     0.164 HD
ENDBRANCH  39  40
ENDBRANCH  37  39
ENDBRANCH  12  31
TORSDOF 8
ENDMDL
MODEL 3
REMARK VINA RESULT: -8.025524009      1.282      2.056
REMARK  8 active torsions:
REMARK  status: ('A' for Active; 'I' for Inactive)
REMARK    1  A    between atoms: N1_1  and  C1_4 
REMARK    2  A    between atoms: C3_8  and  C4_9 
REMARK       I    between atoms: C4_9  and  N3_11 
REMARK    3  A    between atoms: N3_11  and  N4_13 
REMARK    4  A    between atoms: N4_13  and  S1_15 
REMARK    5  A    between atoms: S1_15  and  C5_18 
REMARK    6  A    between atoms: C10_30  and  N9_31 
REMARK    7  A    between atoms: C11_38  and  S2_39 
REMARK    8  A    between atoms: S2_39  and  N13_40 
ROOT
HETATM    1  C1  UNL     1     -33.652   8.842 -21.624  1.00  0.00     0.131 A 
HETATM    2  N2  UNL     1     -32.784   8.397 -22.556  1.00  0.00    -0.324 N 
ATOM      3  H2  UNL     1     -32.026   7.770 -22.285  1.00  0.00     0.169 HD
HETATM    4  C2  UNL     1     -32.911   8.771 -23.831  1.00  0.00     0.163 A 
HETATM    5  C3  UNL     1     -32.181   8.484 -24.953  1.00  0.00     0.165 A 
HETATM    6  N6  UNL     1     -32.815   9.196 -25.959  1.00  0.00    -0.277 N 
ATOM      7  H6  UNL     1     -32.524   9.207 -26.937  1.00  0.00     0.189 HD
HETATM    8  N7  UNL     1     -33.836   9.848 -25.479  1.00  0.00    -0.234 N 
ATOM      9  H7  UNL     1     -34.464  10.444 -26.017  1.00  0.00     0.209 HD
HETATM   10  N8  UNL     1     -33.929   9.610 -24.161  1.00  0.00    -0.232 N 
HETATM   11  C9  UNL     1     -34.811  10.070 -23.254  1.00  0.00     0.155 A 
HETATM   12  C10 UNL     1     -34.695   9.692 -21.937  1.00  0.00     0.121 A 
ENDROOT
BRANCH   5  13
HETATM   13  C4  UNL     1     -31.058   7.603 -25.178  1.00  0.00     0.292 C 
HETATM   14  O1  UNL     1     -30.707   6.848 -24.204  1.00  0.00    -0.264 OA
HETATM   15  N3  UNL     1     -30.330   7.521 -26.364  1.00  0.00    -0.255 N 
ATOM     16  H3  UNL     1     -30.614   8.143 -27.121  1.00  0.00     0.191 HD
BRANCH  15  17
HETATM   17  N4  UNL     1     -29.250   6.672 -26.620  1.00  0.00    -0.219 N 
ATOM     18  H4  UNL     1     -28.296   6.918 -26.355  1.00  0.00     0.200 HD
BRANCH  17  19
HETATM   19  S1  UNL     1     -29.615   5.211 -27.394  1.00  0.00     0.291 S 
HETATM   20  O2  UNL     1     -29.018   4.013 -26.704  1.00  0.00    -0.197 OA
HETATM   21  O3  UNL     1     -31.106   5.013 -27.358  1.00  0.00    -0.197 OA
BRANCH  19  22
HETATM   22  C5  UNL     1     -29.084   5.201 -29.052  1.00  0.00     0.150 A 
HETATM   23  C6  UNL     1     -29.879   4.679 -30.064  1.00  0.00     0.045 A 
HETATM   24  C7  UNL     1     -29.169   4.817 -31.231  1.00  0.00     0.020 A 
HETATM   25  C8  UNL     1     -27.964   5.410 -30.937  1.00  0.00     0.089 A 
HETATM   26  N5  UNL     1     -27.959   5.621 -29.624  1.00  0.00    -0.355 N 
ATOM     27  H5  UNL     1     -27.187   6.052 -29.116  1.00  0.00     0.166 HD
ENDBRANCH  19  22
ENDBRANCH  17  19
ENDBRANCH  15  17
ENDBRANCH   5  13
BRANCH   1  28
HETATM   28  N1  UNL     1     -33.522   8.471 -20.396  1.00  0.00    -0.383 N 
ATOM     29  H12 UNL     1     -32.618   8.102 -20.101  1.00  0.00     0.157 HD
ATOM     30  H11 UNL     1     -34.311   8.553 -19.755  1.00  0.00     0.157 HD
ENDBRANCH   1  28
BRANCH  12  31
HETATM   31  N9  UNL     1     -35.573  10.104 -20.903  1.00  0.00    -0.211 N 
HETATM   32  N10 UNL     1     -35.379  11.038 -19.970  1.00  0.00    -0.219 N 
HETATM   33  N11 UNL     1     -36.436  11.116 -19.185  1.00  0.00    -0.226 N 
ATOM     34  H10 UNL     1     -34.539  11.609 -19.878  1.00  0.00     0.210 HD
HETATM   35  N12 UNL     1     -37.304  10.222 -19.624  1.00  0.00    -0.261 N 
ATOM     36  H11 UNL     1     -36.559  11.744 -18.391  1.00  0.00     0.210 HD
HETATM   37  C11 UNL     1     -36.793   9.578 -20.692  1.00  0.00     0.203 A 
ATOM     38  H12 UNL     1     -38.222  10.046 -19.216  1.00  0.00     0.190 HD
BRANCH  37  39
HETATM   39  S2  UNL     1     -37.521   8.281 -21.676  1.00  0.00     0.019 SA
BRANCH  39  40
HETATM   40  N13 UNL     1     -38.504   7.215 -20.694  1.00  0.00    -0.367 N 
ATOM     41 2H13 UNL     1     -38.274   6.962 -19.734  1.00  0.00     0.164 HD
ATOM     42 1H13 UNL     1     -39.322   6.890 -21.209  1.00  0.00     0.164 HD
ENDBRANCH  39  40
ENDBRANCH  37  39
ENDBRANCH  12  31
TORSDOF 8
ENDMDL
MODEL 4
REMARK VINA RESULT: -7.948198074      1.958      2.833
REMARK  8 active torsions:
REMARK  status: ('A' for Active; 'I' for Inactive)
REMARK    1  A    between atoms: N1_1  and  C1_4 
REMARK    2  A    between atoms: C3_8  and  C4_9 
REMARK       I    between atoms: C4_9  and  N3_11 
REMARK    3  A    between atoms: N3_11  and  N4_13 
REMARK    4  A    between atoms: N4_13  and  S1_15 
REMARK    5  A    between atoms: S1_15  and  C5_18 
REMARK    6  A    between atoms: C10_30  and  N9_31 
REMARK    7  A    between atoms: C11_38  and  S2_39 
REMARK    8  A    between atoms: S2_39  and  N13_40 
ROOT
HETATM    1  C1  UNL     1     -35.337   9.837 -20.787  1.00  0.00     0.131 A 
HETATM    2  N2  UNL     1     -34.356   9.361 -21.581  1.00  0.00    -0.324 N 
ATOM      3  H2  UNL     1     -33.607   8.797 -21.179  1.00  0.00     0.169 HD
HETATM    4  C2  UNL     1     -34.359   9.623 -22.889  1.00  0.00     0.163 A 
HETATM    5  C3  UNL     1     -33.501   9.282 -23.900  1.00  0.00     0.165 A 
HETATM    6  N6  UNL     1     -34.050   9.877 -25.025  1.00  0.00    -0.277 N 
ATOM      7  H6  UNL     1     -33.656   9.823 -25.964  1.00  0.00     0.189 HD
HETATM    8  N7  UNL     1     -35.143  10.516 -24.712  1.00  0.00    -0.234 N 
ATOM      9  H7  UNL     1     -35.733  11.034 -25.363  1.00  0.00     0.209 HD
HETATM   10  N8  UNL     1     -35.368  10.381 -23.396  1.00  0.00    -0.232 N 
HETATM   11  C9  UNL     1     -36.361  10.870 -22.628  1.00  0.00     0.155 A 
HETATM   12  C10 UNL     1     -36.373  10.607 -21.279  1.00  0.00     0.121 A 
ENDROOT
BRANCH   5  13
HETATM   13  C4  UNL     1     -32.326   8.442 -23.930  1.00  0.00     0.292 C 
HETATM   14  O1  UNL     1     -31.505   8.626 -24.897  1.00  0.00    -0.264 OA
HETATM   15  N3  UNL     1     -32.025   7.450 -22.998  1.00  0.00    -0.255 N 
ATOM     16  H3  UNL     1     -32.700   7.307 -22.247  1.00  0.00     0.191 HD
BRANCH  15  17
HETATM   17  N4  UNL     1     -30.893   6.632 -22.990  1.00  0.00    -0.219 N 
ATOM     18  H4  UNL     1     -30.023   6.918 -22.540  1.00  0.00     0.200 HD
BRANCH  17  19
HETATM   19  S1  UNL     1     -31.046   5.137 -23.771  1.00  0.00     0.291 S 
HETATM   20  O2  UNL     1     -30.398   4.008 -23.014  1.00  0.00    -0.197 OA
HETATM   21  O3  UNL     1     -32.508   4.794 -23.860  1.00  0.00    -0.197 OA
BRANCH  19  22
HETATM   22  C5  UNL     1     -30.373   5.168 -25.377  1.00  0.00     0.150 A 
HETATM   23  C6  UNL     1     -30.115   3.997 -26.076  1.00  0.00     0.045 A 
HETATM   24  C7  UNL     1     -29.588   4.372 -27.287  1.00  0.00     0.020 A 
HETATM   25  C8  UNL     1     -29.524   5.745 -27.326  1.00  0.00     0.089 A 
HETATM   26  N5  UNL     1     -30.006   6.176 -26.163  1.00  0.00    -0.355 N 
ATOM     27  H5  UNL     1     -30.083   7.160 -25.905  1.00  0.00     0.166 HD
ENDBRANCH  19  22
ENDBRANCH  17  19
ENDBRANCH  15  17
ENDBRANCH   5  13
BRANCH   1  28
HETATM   28  N1  UNL     1     -35.326   9.574 -19.525  1.00  0.00    -0.383 N 
ATOM     29  H12 UNL     1     -34.439   9.303 -19.100  1.00  0.00     0.157 HD
ATOM     30  H11 UNL     1     -36.188   9.643 -18.984  1.00  0.00     0.157 HD
ENDBRANCH   1  28
BRANCH  12  31
HETATM   31  N9  UNL     1     -37.373  11.057 -20.382  1.00  0.00    -0.211 N 
HETATM   32  N10 UNL     1     -37.355  12.128 -19.585  1.00  0.00    -0.219 N 
HETATM   33  N11 UNL     1     -38.478  12.195 -18.897  1.00  0.00    -0.226 N 
ATOM     34  H10 UNL     1     -36.586  12.795 -19.517  1.00  0.00     0.210 HD
HETATM   35  N12 UNL     1     -39.212  11.159 -19.261  1.00  0.00    -0.261 N 
ATOM     36  H11 UNL     1     -38.731  12.910 -18.214  1.00  0.00     0.210 HD
HETATM   37  C11 UNL     1     -38.550  10.435 -20.184  1.00  0.00     0.203 A 
ATOM     38  H12 UNL     1     -40.140  10.941 -18.899  1.00  0.00     0.190 HD
BRANCH  37  39
HETATM   39  S2  UNL     1     -39.057   8.942 -21.018  1.00  0.00     0.019 SA
BRANCH  39  40
HETATM   40  N13 UNL     1     -39.496   7.693 -19.871  1.00  0.00    -0.367 N 
ATOM     41 2H13 UNL     1     -39.983   7.879 -18.994  1.00  0.00     0.164 HD
ATOM     42 1H13 UNL     1     -39.203   6.773 -20.197  1.00  0.00     0.164 HD
ENDBRANCH  39  40
ENDBRANCH  37  39
ENDBRANCH  12  31
TORSDOF 8
ENDMDL
MODEL 5
REMARK VINA RESULT: -7.823519295      0.960      1.165
REMARK  8 active torsions:
REMARK  status: ('A' for Active; 'I' for Inactive)
REMARK    1  A    between atoms: N1_1  and  C1_4 
REMARK    2  A    between atoms: C3_8  and  C4_9 
REMARK       I    between atoms: C4_9  and  N3_11 
REMARK    3  A    between atoms: N3_11  and  N4_13 
REMARK    4  A    between atoms: N4_13  and  S1_15 
REMARK    5  A    between atoms: S1_15  and  C5_18 
REMARK    6  A    between atoms: C10_30  and  N9_31 
REMARK    7  A    between atoms: C11_38  and  S2_39 
REMARK    8  A    between atoms: S2_39  and  N13_40 
ROOT
HETATM    1  C1  UNL     1     -35.415  10.621 -22.468  1.00  0.00     0.131 A 
HETATM    2  N2  UNL     1     -34.570  10.039 -23.345  1.00  0.00    -0.324 N 
ATOM      3  H2  UNL     1     -34.615  10.287 -24.333  1.00  0.00     0.169 HD
HETATM    4  C2  UNL     1     -33.676   9.141 -22.927  1.00  0.00     0.163 A 
HETATM    5  C3  UNL     1     -32.728   8.407 -23.588  1.00  0.00     0.165 A 
HETATM    6  N6  UNL     1     -32.137   7.645 -22.593  1.00  0.00    -0.277 N 
ATOM      7  H6  UNL     1     -31.381   6.975 -22.744  1.00  0.00     0.189 HD
HETATM    8  N7  UNL     1     -32.683   7.904 -21.438  1.00  0.00    -0.234 N 
ATOM      9  H7  UNL     1     -32.424   7.473 -20.551  1.00  0.00     0.209 HD
HETATM   10  N8  UNL     1     -33.642   8.827 -21.604  1.00  0.00    -0.232 N 
HETATM   11  C9  UNL     1     -34.472   9.391 -20.705  1.00  0.00     0.155 A 
HETATM   12  C10 UNL     1     -35.397  10.320 -21.120  1.00  0.00     0.121 A 
ENDROOT
BRANCH   5  13
HETATM   13  C4  UNL     1     -32.295   8.402 -24.967  1.00  0.00     0.292 C 
HETATM   14  O1  UNL     1     -31.930   9.525 -25.466  1.00  0.00    -0.264 OA
HETATM   15  N3  UNL     1     -32.253   7.277 -25.789  1.00  0.00    -0.255 N 
ATOM     16  H3  UNL     1     -32.564   6.397 -25.379  1.00  0.00     0.191 HD
BRANCH  15  17
HETATM   17  N4  UNL     1     -31.827   7.235 -27.120  1.00  0.00    -0.219 N 
ATOM     18  H4  UNL     1     -32.487   7.221 -27.897  1.00  0.00     0.200 HD
BRANCH  17  19
HETATM   19  S1  UNL     1     -30.152   7.210 -27.368  1.00  0.00     0.291 S 
HETATM   20  O2  UNL     1     -29.573   8.577 -27.619  1.00  0.00    -0.197 OA
HETATM   21  O3  UNL     1     -29.493   6.701 -26.114  1.00  0.00    -0.197 OA
BRANCH  19  22
HETATM   22  C5  UNL     1     -29.706   6.180 -28.699  1.00  0.00     0.150 A 
HETATM   23  C6  UNL     1     -30.606   5.276 -29.248  1.00  0.00     0.045 A 
HETATM   24  C7  UNL     1     -29.942   4.626 -30.258  1.00  0.00     0.020 A 
HETATM   25  C8  UNL     1     -28.661   5.121 -30.324  1.00  0.00     0.089 A 
HETATM   26  N5  UNL     1     -28.568   6.048 -29.373  1.00  0.00    -0.355 N 
ATOM     27  H5  UNL     1     -27.726   6.591 -29.184  1.00  0.00     0.166 HD
ENDBRANCH  19  22
ENDBRANCH  17  19
ENDBRANCH  15  17
ENDBRANCH   5  13
BRANCH   1  28
HETATM   28  N1  UNL     1     -36.272  11.489 -22.883  1.00  0.00    -0.383 N 
ATOM     29  H12 UNL     1     -36.081  12.475 -22.701  1.00  0.00     0.157 HD
ATOM     30  H11 UNL     1     -37.109  11.181 -23.377  1.00  0.00     0.157 HD
ENDBRANCH   1  28
BRANCH  12  31
HETATM   31  N9  UNL     1     -36.308  10.984 -20.262  1.00  0.00    -0.211 N 
HETATM   32  N10 UNL     1     -36.128  12.110 -19.569  1.00  0.00    -0.219 N 
HETATM   33  N11 UNL     1     -37.217  12.394 -18.881  1.00  0.00    -0.226 N 
ATOM     34  H10 UNL     1     -35.275  12.669 -19.571  1.00  0.00     0.210 HD
HETATM   35  N12 UNL     1     -38.092  11.439 -19.141  1.00  0.00    -0.261 N 
ATOM     36  H11 UNL     1     -37.357  13.197 -18.267  1.00  0.00     0.210 HD
HETATM   37  C11 UNL     1     -37.554  10.549 -19.996  1.00  0.00     0.203 A 
ATOM     38  H12 UNL     1     -39.034  11.385 -18.752  1.00  0.00     0.190 HD
BRANCH  37  39
HETATM   39  S2  UNL     1     -38.276   9.069 -20.682  1.00  0.00     0.019 SA
BRANCH  39  40
HETATM   40  N13 UNL     1     -39.835   8.731 -19.959  1.00  0.00    -0.367 N 
ATOM     41 2H13 UNL     1     -40.226   7.793 -19.875  1.00  0.00     0.164 HD
ATOM     42 1H13 UNL     1     -40.288   9.588 -19.642  1.00  0.00     0.164 HD
ENDBRANCH  39  40
ENDBRANCH  37  39
ENDBRANCH  12  31
TORSDOF 8
ENDMDL
