MODEL 1
REMARK VINA RESULT: -8.798509194      0.000      0.000
REMARK  9 active torsions:
REMARK  status: ('A' for Active; 'I' for Inactive)
REMARK    1  A    between atoms: N1_1  and  C1_4 
REMARK    2  A    between atoms: N4_13  and  N5_14 
REMARK    3  A    between atoms: N5_14  and  O2_16 
REMARK    4  A    between atoms: N6_20  and  C6_21 
REMARK    5  A    between atoms: C6_21  and  N7_22 
REMARK       I    between atoms: N7_22  and  C7_24 
REMARK    6  A    between atoms: C7_24  and  C8_26 
REMARK    7  A    between atoms: N8_28  and  C10_29 
REMARK    8  A    between atoms: C10_29  and  C11_30 
REMARK    9  A    between atoms: C15_36  and  O5_37 
ROOT
HETATM    1  C6  UNL     1     -29.564   7.979 -26.942  1.00  0.00     0.197 C 
ENDROOT
BRANCH   1   2
HETATM    2  N6  UNL     1     -30.396   7.429 -25.935  1.00  0.00    -0.250 N 
HETATM    3  C3  UNL     1     -30.526   6.193 -25.489  1.00  0.00     0.160 A 
HETATM    4  C2  UNL     1     -29.860   5.007 -25.763  1.00  0.00     0.291 A 
HETATM    5  C4  UNL     1     -31.554   6.164 -24.535  1.00  0.00     0.182 A 
HETATM    6  N2  UNL     1     -30.216   3.899 -25.121  1.00  0.00    -0.154 N 
HETATM    7  O1  UNL     1     -28.935   5.040 -26.618  1.00  0.00    -0.265 OA
HETATM    8  C1  UNL     1     -31.203   3.899 -24.214  1.00  0.00     0.680 A 
ATOM      9  H2  UNL     1     -29.726   3.027 -25.322  1.00  0.00     0.187 HD
HETATM   10  N3  UNL     1     -31.879   5.016 -23.911  1.00  0.00    -0.172 N 
ATOM     11  H3  UNL     1     -32.627   4.997 -23.219  1.00  0.00     0.186 HD
HETATM   12  N4  UNL     1     -32.023   7.432 -24.435  1.00  0.00    -0.166 N 
HETATM   13  C5  UNL     1     -31.319   8.191 -25.282  1.00  0.00     0.357 A 
HETATM   14  O3  UNL     1     -31.505   9.423 -25.432  1.00  0.00    -0.244 OA
BRANCH   8  15
HETATM   15  N1  UNL     1     -31.484   2.775 -23.639  1.00  0.00    -0.234 N 
ATOM     16  H12 UNL     1     -31.195   1.888 -24.053  1.00  0.00     0.174 HD
ATOM     17  H11 UNL     1     -32.001   2.813 -22.761  1.00  0.00     0.174 HD
ENDBRANCH   8  15
BRANCH  12  18
HETATM   18  N5  UNL     1     -33.060   7.845 -23.587  1.00  0.00    -0.198 N 
ATOM     19  H5  UNL     1     -33.988   7.992 -23.984  1.00  0.00     0.216 HD
BRANCH  18  20
HETATM   20  O2  UNL     1     -32.892   8.038 -22.370  1.00  0.00    -0.274 OA
ATOM     21  H2  UNL     1     -33.567   7.859 -21.725  1.00  0.00     0.246 HD
ENDBRANCH  18  20
ENDBRANCH  12  18
ENDBRANCH   1   2
BRANCH   1  22
HETATM   22  N7  UNL     1     -29.544   7.274 -28.178  1.00  0.00    -0.317 N 
HETATM   23  C7  UNL     1     -30.537   7.023 -29.123  1.00  0.00     0.276 C 
HETATM   24  O4  UNL     1     -31.736   7.396 -29.070  1.00  0.00    -0.266 OA
ATOM     25  H7  UNL     1     -28.635   6.878 -28.415  1.00  0.00     0.170 HD
BRANCH  23  26
HETATM   26  C8  UNL     1     -30.226   6.237 -30.348  1.00  0.00     0.134 A 
HETATM   27  C9  UNL     1     -29.165   5.404 -30.589  1.00  0.00     0.148 A 
HETATM   28  N8  UNL     1     -29.290   4.897 -31.850  1.00  0.00    -0.282 N 
HETATM   29  N10 UNL     1     -30.391   5.405 -32.356  1.00  0.00    -0.240 N 
HETATM   30  N11 UNL     1     -30.964   6.212 -31.463  1.00  0.00    -0.280 N 
ATOM     31  H10 UNL     1     -30.752   5.211 -33.290  1.00  0.00     0.208 HD
ATOM     32  H11 UNL     1     -31.831   6.730 -31.607  1.00  0.00     0.189 HD
BRANCH  28  33
HETATM   33  C10 UNL     1     -28.337   3.965 -32.434  1.00  0.00     0.192 C 
BRANCH  33  34
HETATM   34  C11 UNL     1     -27.529   4.544 -33.523  1.00  0.00     0.010 A 
HETATM   35  C12 UNL     1     -28.019   4.464 -34.833  1.00  0.00     0.099 A 
HETATM   36  N9  UNL     1     -27.295   4.933 -35.848  1.00  0.00    -0.374 N 
HETATM   37  C13 UNL     1     -26.077   5.494 -35.653  1.00  0.00     0.090 A 
ATOM     38  H9  UNL     1     -27.667   4.868 -36.796  1.00  0.00     0.164 HD
HETATM   39  C14 UNL     1     -25.579   5.584 -34.387  1.00  0.00     0.054 A 
HETATM   40  C15 UNL     1     -26.307   5.105 -33.282  1.00  0.00     0.076 A 
BRANCH  40  41
HETATM   41  O5  UNL     1     -25.747   5.233 -32.021  1.00  0.00    -0.360 OA
ATOM     42  H5  UNL     1     -24.877   5.576 -31.858  1.00  0.00     0.217 HD
ENDBRANCH  40  41
ENDBRANCH  33  34
ENDBRANCH  28  33
ENDBRANCH  23  26
ENDBRANCH   1  22
TORSDOF 9
ENDMDL
MODEL 2
REMARK VINA RESULT: -8.661734615      2.194      3.560
REMARK  9 active torsions:
REMARK  status: ('A' for Active; 'I' for Inactive)
REMARK    1  A    between atoms: N1_1  and  C1_4 
REMARK    2  A    between atoms: N4_13  and  N5_14 
REMARK    3  A    between atoms: N5_14  and  O2_16 
REMARK    4  A    between atoms: N6_20  and  C6_21 
REMARK    5  A    between atoms: C6_21  and  N7_22 
REMARK       I    between atoms: N7_22  and  C7_24 
REMARK    6  A    between atoms: C7_24  and  C8_26 
REMARK    7  A    between atoms: N8_28  and  C10_29 
REMARK    8  A    between atoms: C10_29  and  C11_30 
REMARK    9  A    between atoms: C15_36  and  O5_37 
ROOT
HETATM    1  C6  UNL     1     -30.177   4.816 -29.060  1.00  0.00     0.197 C 
ENDROOT
BRANCH   1   2
HETATM    2  N6  UNL     1     -30.088   5.822 -28.066  1.00  0.00    -0.250 N 
HETATM    3  C3  UNL     1     -30.359   5.798 -26.774  1.00  0.00     0.160 A 
HETATM    4  C2  UNL     1     -30.739   4.790 -25.900  1.00  0.00     0.291 A 
HETATM    5  C4  UNL     1     -30.182   7.088 -26.254  1.00  0.00     0.182 A 
HETATM    6  N2  UNL     1     -30.923   5.080 -24.615  1.00  0.00    -0.154 N 
HETATM    7  O1  UNL     1     -30.892   3.632 -26.372  1.00  0.00    -0.265 OA
HETATM    8  C1  UNL     1     -30.748   6.323 -24.144  1.00  0.00     0.680 A 
ATOM      9  H2  UNL     1     -31.202   4.339 -23.972  1.00  0.00     0.187 HD
HETATM   10  N3  UNL     1     -30.381   7.333 -24.944  1.00  0.00    -0.172 N 
ATOM     11  H3  UNL     1     -30.253   8.273 -24.568  1.00  0.00     0.186 HD
HETATM   12  N4  UNL     1     -29.796   7.873 -27.289  1.00  0.00    -0.166 N 
HETATM   13  C5  UNL     1     -29.740   7.102 -28.381  1.00  0.00     0.357 A 
HETATM   14  O3  UNL     1     -29.411   7.525 -29.516  1.00  0.00    -0.244 OA
BRANCH   8  15
HETATM   15  N1  UNL     1     -30.951   6.515 -22.881  1.00  0.00    -0.234 N 
ATOM     16  H12 UNL     1     -31.292   5.761 -22.284  1.00  0.00     0.174 HD
ATOM     17  H11 UNL     1     -30.756   7.444 -22.510  1.00  0.00     0.174 HD
ENDBRANCH   8  15
BRANCH  12  18
HETATM   18  N5  UNL     1     -29.511   9.242 -27.202  1.00  0.00    -0.198 N 
ATOM     19  H5  UNL     1     -30.021   9.888 -27.806  1.00  0.00     0.216 HD
BRANCH  18  20
HETATM   20  O2  UNL     1     -28.662   9.701 -26.417  1.00  0.00    -0.274 OA
ATOM     21  H2  UNL     1     -28.881  10.323 -25.733  1.00  0.00     0.246 HD
ENDBRANCH  18  20
ENDBRANCH  12  18
ENDBRANCH   1   2
BRANCH   1  22
HETATM   22  N7  UNL     1     -29.113   4.788 -30.005  1.00  0.00    -0.317 N 
HETATM   23  C7  UNL     1     -29.086   4.987 -31.384  1.00  0.00     0.276 C 
HETATM   24  O4  UNL     1     -30.067   5.250 -32.124  1.00  0.00    -0.266 OA
ATOM     25  H7  UNL     1     -28.200   4.585 -29.597  1.00  0.00     0.170 HD
BRANCH  23  26
HETATM   26  C8  UNL     1     -27.802   4.894 -32.131  1.00  0.00     0.134 A 
HETATM   27  C9  UNL     1     -27.591   4.538 -33.437  1.00  0.00     0.148 A 
HETATM   28  N8  UNL     1     -26.251   4.593 -33.691  1.00  0.00    -0.282 N 
HETATM   29  N10 UNL     1     -25.669   4.970 -32.575  1.00  0.00    -0.240 N 
HETATM   30  N11 UNL     1     -26.591   5.155 -31.629  1.00  0.00    -0.280 N 
ATOM     31  H10 UNL     1     -24.665   5.100 -32.451  1.00  0.00     0.208 HD
ATOM     32  H11 UNL     1     -26.401   5.450 -30.671  1.00  0.00     0.189 HD
BRANCH  28  33
HETATM   33  C10 UNL     1     -25.671   4.284 -34.988  1.00  0.00     0.192 C 
BRANCH  33  34
HETATM   34  C11 UNL     1     -25.069   5.448 -35.664  1.00  0.00     0.010 A 
HETATM   35  C12 UNL     1     -25.845   6.160 -36.588  1.00  0.00     0.099 A 
HETATM   36  N9  UNL     1     -25.320   7.188 -37.253  1.00  0.00    -0.374 N 
HETATM   37  C13 UNL     1     -24.034   7.575 -37.062  1.00  0.00     0.090 A 
ATOM     38  H9  UNL     1     -25.899   7.696 -37.922  1.00  0.00     0.164 HD
HETATM   39  C14 UNL     1     -23.259   6.899 -36.168  1.00  0.00     0.054 A 
HETATM   40  C15 UNL     1     -23.770   5.807 -35.440  1.00  0.00     0.076 A 
BRANCH  40  41
HETATM   41  O5  UNL     1     -22.932   5.167 -34.541  1.00  0.00    -0.360 OA
ATOM     42  H5  UNL     1     -23.042   5.196 -33.599  1.00  0.00     0.217 HD
ENDBRANCH  40  41
ENDBRANCH  33  34
ENDBRANCH  28  33
ENDBRANCH  23  26
ENDBRANCH   1  22
TORSDOF 9
ENDMDL
MODEL 3
REMARK VINA RESULT: -8.473244634      4.368     10.383
REMARK  9 active torsions:
REMARK  status: ('A' for Active; 'I' for Inactive)
REMARK    1  A    between atoms: N1_1  and  C1_4 
REMARK    2  A    between atoms: N4_13  and  N5_14 
REMARK    3  A    between atoms: N5_14  and  O2_16 
REMARK    4  A    between atoms: N6_20  and  C6_21 
REMARK    5  A    between atoms: C6_21  and  N7_22 
REMARK       I    between atoms: N7_22  and  C7_24 
REMARK    6  A    between atoms: C7_24  and  C8_26 
REMARK    7  A    between atoms: N8_28  and  C10_29 
REMARK    8  A    between atoms: C10_29  and  C11_30 
REMARK    9  A    between atoms: C15_36  and  O5_37 
ROOT
HETATM    1  C6  UNL     1     -30.765   7.036 -23.121  1.00  0.00     0.197 C 
ENDROOT
BRANCH   1   2
HETATM    2  N6  UNL     1     -30.686   6.098 -24.180  1.00  0.00    -0.250 N 
HETATM    3  C3  UNL     1     -30.297   6.229 -25.435  1.00  0.00     0.160 A 
HETATM    4  C2  UNL     1     -29.751   7.281 -26.157  1.00  0.00     0.291 A 
HETATM    5  C4  UNL     1     -30.491   5.008 -26.096  1.00  0.00     0.182 A 
HETATM    6  N2  UNL     1     -29.436   7.096 -27.435  1.00  0.00    -0.154 N 
HETATM    7  O1  UNL     1     -29.575   8.374 -25.556  1.00  0.00    -0.265 OA
HETATM    8  C1  UNL     1     -29.633   5.918 -28.044  1.00  0.00     0.680 A 
ATOM      9  H2  UNL     1     -29.034   7.869 -27.966  1.00  0.00     0.187 HD
HETATM   10  N3  UNL     1     -30.157   4.870 -27.394  1.00  0.00    -0.172 N 
ATOM     11  H3  UNL     1     -30.300   3.981 -27.873  1.00  0.00     0.186 HD
HETATM   12  N4  UNL     1     -31.008   4.152 -25.182  1.00  0.00    -0.166 N 
HETATM   13  C5  UNL     1     -31.122   4.815 -24.026  1.00  0.00     0.357 A 
HETATM   14  O3  UNL     1     -31.570   4.304 -22.971  1.00  0.00    -0.244 OA
BRANCH   8  15
HETATM   15  N1  UNL     1     -29.299   5.829 -29.291  1.00  0.00    -0.234 N 
ATOM     16  H12 UNL     1     -29.481   6.596 -29.938  1.00  0.00     0.174 HD
ATOM     17  H11 UNL     1     -28.849   4.966 -29.596  1.00  0.00     0.174 HD
ENDBRANCH   8  15
BRANCH  12  18
HETATM   18  N5  UNL     1     -31.350   2.815 -25.430  1.00  0.00    -0.198 N 
ATOM     19  H5  UNL     1     -31.085   2.400 -26.324  1.00  0.00     0.216 HD
BRANCH  18  20
HETATM   20  O2  UNL     1     -31.964   2.117 -24.604  1.00  0.00    -0.274 OA
ATOM     21  H2  UNL     1     -32.128   1.191 -24.738  1.00  0.00     0.246 HD
ENDBRANCH  18  20
ENDBRANCH  12  18
ENDBRANCH   1   2
BRANCH   1  22
HETATM   22  N7  UNL     1     -32.075   7.482 -22.789  1.00  0.00    -0.317 N 
HETATM   23  C7  UNL     1     -32.868   8.507 -23.301  1.00  0.00     0.276 C 
HETATM   24  O4  UNL     1     -32.563   9.300 -24.227  1.00  0.00    -0.266 OA
ATOM     25  H7  UNL     1     -32.515   6.953 -22.036  1.00  0.00     0.170 HD
BRANCH  23  26
HETATM   26  C8  UNL     1     -34.227   8.752 -22.748  1.00  0.00     0.134 A 
HETATM   27  C9  UNL     1     -35.447   8.538 -23.335  1.00  0.00     0.148 A 
HETATM   28  N8  UNL     1     -36.423   8.907 -22.456  1.00  0.00    -0.282 N 
HETATM   29  N10 UNL     1     -35.815   9.330 -21.371  1.00  0.00    -0.240 N 
HETATM   30  N11 UNL     1     -34.494   9.242 -21.533  1.00  0.00    -0.280 N 
ATOM     31  H10 UNL     1     -36.282   9.675 -20.532  1.00  0.00     0.208 HD
ATOM     32  H11 UNL     1     -33.796   9.507 -20.838  1.00  0.00     0.189 HD
BRANCH  28  33
HETATM   33  C10 UNL     1     -37.843   8.804 -22.750  1.00  0.00     0.192 C 
BRANCH  33  34
HETATM   34  C11 UNL     1     -38.409   7.466 -22.497  1.00  0.00     0.010 A 
HETATM   35  C12 UNL     1     -38.694   6.642 -23.593  1.00  0.00     0.099 A 
HETATM   36  N9  UNL     1     -39.249   5.446 -23.405  1.00  0.00    -0.374 N 
HETATM   37  C13 UNL     1     -39.556   4.991 -22.165  1.00  0.00     0.090 A 
ATOM     38  H9  UNL     1     -39.449   4.858 -24.214  1.00  0.00     0.164 HD
HETATM   39  C14 UNL     1     -39.288   5.775 -21.082  1.00  0.00     0.054 A 
HETATM   40  C15 UNL     1     -38.699   7.045 -21.230  1.00  0.00     0.076 A 
BRANCH  40  41
HETATM   41  O5  UNL     1     -38.446   7.788 -20.088  1.00  0.00    -0.360 OA
ATOM     42  H5  UNL     1     -37.611   8.196 -19.894  1.00  0.00     0.217 HD
ENDBRANCH  40  41
ENDBRANCH  33  34
ENDBRANCH  28  33
ENDBRANCH  23  26
ENDBRANCH   1  22
TORSDOF 9
ENDMDL
MODEL 4
REMARK VINA RESULT: -8.438880168      4.960     11.166
REMARK  9 active torsions:
REMARK  status: ('A' for Active; 'I' for Inactive)
REMARK    1  A    between atoms: N1_1  and  C1_4 
REMARK    2  A    between atoms: N4_13  and  N5_14 
REMARK    3  A    between atoms: N5_14  and  O2_16 
REMARK    4  A    between atoms: N6_20  and  C6_21 
REMARK    5  A    between atoms: C6_21  and  N7_22 
REMARK       I    between atoms: N7_22  and  C7_24 
REMARK    6  A    between atoms: C7_24  and  C8_26 
REMARK    7  A    between atoms: N8_28  and  C10_29 
REMARK    8  A    between atoms: C10_29  and  C11_30 
REMARK    9  A    between atoms: C15_36  and  O5_37 
ROOT
HETATM    1  C6  UNL     1     -30.754   6.998 -23.111  1.00  0.00     0.197 C 
ENDROOT
BRANCH   1   2
HETATM    2  N6  UNL     1     -30.678   6.077 -24.185  1.00  0.00    -0.250 N 
HETATM    3  C3  UNL     1     -30.292   6.228 -25.439  1.00  0.00     0.160 A 
HETATM    4  C2  UNL     1     -29.748   7.290 -26.146  1.00  0.00     0.291 A 
HETATM    5  C4  UNL     1     -30.488   5.017 -26.119  1.00  0.00     0.182 A 
HETATM    6  N2  UNL     1     -29.437   7.125 -27.428  1.00  0.00    -0.154 N 
HETATM    7  O1  UNL     1     -29.571   8.374 -25.529  1.00  0.00    -0.265 OA
HETATM    8  C1  UNL     1     -29.635   5.957 -28.054  1.00  0.00     0.680 A 
ATOM      9  H2  UNL     1     -29.036   7.907 -27.948  1.00  0.00     0.187 HD
HETATM   10  N3  UNL     1     -30.157   4.899 -27.419  1.00  0.00    -0.172 N 
ATOM     11  H3  UNL     1     -30.302   4.018 -27.912  1.00  0.00     0.186 HD
HETATM   12  N4  UNL     1     -31.002   4.146 -25.216  1.00  0.00    -0.166 N 
HETATM   13  C5  UNL     1     -31.114   4.792 -24.050  1.00  0.00     0.357 A 
HETATM   14  O3  UNL     1     -31.559   4.265 -23.002  1.00  0.00    -0.244 OA
BRANCH   8  15
HETATM   15  N1  UNL     1     -29.305   5.887 -29.303  1.00  0.00    -0.234 N 
ATOM     16  H12 UNL     1     -30.015   5.780 -30.028  1.00  0.00     0.174 HD
ATOM     17  H11 UNL     1     -28.313   5.945 -29.531  1.00  0.00     0.174 HD
ENDBRANCH   8  15
BRANCH  12  18
HETATM   18  N5  UNL     1     -31.345   2.814 -25.484  1.00  0.00    -0.198 N 
ATOM     19  H5  UNL     1     -31.084   2.413 -26.385  1.00  0.00     0.216 HD
BRANCH  18  20
HETATM   20  O2  UNL     1     -31.956   2.103 -24.667  1.00  0.00    -0.274 OA
ATOM     21  H2  UNL     1     -31.837   1.161 -24.619  1.00  0.00     0.246 HD
ENDBRANCH  18  20
ENDBRANCH  12  18
ENDBRANCH   1   2
BRANCH   1  22
HETATM   22  N7  UNL     1     -32.061   7.453 -22.781  1.00  0.00    -0.317 N 
HETATM   23  C7  UNL     1     -32.852   8.475 -23.304  1.00  0.00     0.276 C 
HETATM   24  O4  UNL     1     -32.546   9.256 -24.240  1.00  0.00    -0.266 OA
ATOM     25  H7  UNL     1     -32.501   6.936 -22.020  1.00  0.00     0.170 HD
BRANCH  23  26
HETATM   26  C8  UNL     1     -34.208   8.733 -22.750  1.00  0.00     0.134 A 
HETATM   27  C9  UNL     1     -34.555   9.253 -21.531  1.00  0.00     0.148 A 
HETATM   28  N8  UNL     1     -35.917   9.310 -21.455  1.00  0.00    -0.282 N 
HETATM   29  N10 UNL     1     -36.380   8.841 -22.591  1.00  0.00    -0.240 N 
HETATM   30  N11 UNL     1     -35.363   8.491 -23.380  1.00  0.00    -0.280 N 
ATOM     31  H10 UNL     1     -37.367   8.757 -22.833  1.00  0.00     0.208 HD
ATOM     32  H11 UNL     1     -35.452   8.099 -24.317  1.00  0.00     0.189 HD
BRANCH  28  33
HETATM   33  C10 UNL     1     -36.631   9.822 -20.295  1.00  0.00     0.192 C 
BRANCH  33  34
HETATM   34  C11 UNL     1     -38.080   9.985 -20.513  1.00  0.00     0.010 A 
HETATM   35  C12 UNL     1     -38.559  11.238 -20.916  1.00  0.00     0.099 A 
HETATM   36  N9  UNL     1     -39.866  11.436 -21.076  1.00  0.00    -0.374 N 
HETATM   37  C13 UNL     1     -40.767  10.447 -20.856  1.00  0.00     0.090 A 
ATOM     38  H9  UNL     1     -40.198  12.355 -21.371  1.00  0.00     0.164 HD
HETATM   39  C14 UNL     1     -40.326   9.218 -20.464  1.00  0.00     0.054 A 
HETATM   40  C15 UNL     1     -38.954   8.960 -20.283  1.00  0.00     0.076 A 
BRANCH  40  41
HETATM   41  O5  UNL     1     -38.571   7.688 -19.890  1.00  0.00    -0.360 OA
ATOM     42  H5  UNL     1     -38.801   7.298 -19.055  1.00  0.00     0.217 HD
ENDBRANCH  40  41
ENDBRANCH  33  34
ENDBRANCH  28  33
ENDBRANCH  23  26
ENDBRANCH   1  22
TORSDOF 9
ENDMDL
MODEL 5
REMARK VINA RESULT: -8.433420742      4.603     10.853
REMARK  9 active torsions:
REMARK  status: ('A' for Active; 'I' for Inactive)
REMARK    1  A    between atoms: N1_1  and  C1_4 
REMARK    2  A    between atoms: N4_13  and  N5_14 
REMARK    3  A    between atoms: N5_14  and  O2_16 
REMARK    4  A    between atoms: N6_20  and  C6_21 
REMARK    5  A    between atoms: C6_21  and  N7_22 
REMARK       I    between atoms: N7_22  and  C7_24 
REMARK    6  A    between atoms: C7_24  and  C8_26 
REMARK    7  A    between atoms: N8_28  and  C10_29 
REMARK    8  A    between atoms: C10_29  and  C11_30 
REMARK    9  A    between atoms: C15_36  and  O5_37 
ROOT
HETATM    1  C6  UNL     1     -31.046   7.222 -23.167  1.00  0.00     0.197 C 
ENDROOT
BRANCH   1   2
HETATM    2  N6  UNL     1     -30.804   6.272 -24.190  1.00  0.00    -0.250 N 
HETATM    3  C3  UNL     1     -30.328   6.410 -25.414  1.00  0.00     0.160 A 
HETATM    4  C2  UNL     1     -29.817   7.489 -26.120  1.00  0.00     0.291 A 
HETATM    5  C4  UNL     1     -30.365   5.162 -26.053  1.00  0.00     0.182 A 
HETATM    6  N2  UNL     1     -29.387   7.304 -27.365  1.00  0.00    -0.154 N 
HETATM    7  O1  UNL     1     -29.783   8.606 -25.539  1.00  0.00    -0.265 OA
HETATM    8  C1  UNL     1     -29.434   6.101 -27.953  1.00  0.00     0.680 A 
ATOM      9  H2  UNL     1     -29.011   8.098 -27.884  1.00  0.00     0.187 HD
HETATM   10  N3  UNL     1     -29.917   5.025 -27.316  1.00  0.00    -0.172 N 
ATOM     11  H3  UNL     1     -29.946   4.117 -27.780  1.00  0.00     0.186 HD
HETATM   12  N4  UNL     1     -30.879   4.284 -25.158  1.00  0.00    -0.166 N 
HETATM   13  C5  UNL     1     -31.141   4.960 -24.034  1.00  0.00     0.357 A 
HETATM   14  O3  UNL     1     -31.627   4.435 -23.003  1.00  0.00    -0.244 OA
BRANCH   8  15
HETATM   15  N1  UNL     1     -28.995   6.014 -29.167  1.00  0.00    -0.234 N 
ATOM     16  H12 UNL     1     -29.129   6.779 -29.829  1.00  0.00     0.174 HD
ATOM     17  H11 UNL     1     -28.512   5.156 -29.432  1.00  0.00     0.174 HD
ENDBRANCH   8  15
BRANCH  12  18
HETATM   18  N5  UNL     1     -31.086   2.918 -25.395  1.00  0.00    -0.198 N 
ATOM     19  H5  UNL     1     -30.538   2.458 -26.123  1.00  0.00     0.216 HD
BRANCH  18  20
HETATM   20  O2  UNL     1     -31.910   2.245 -24.751  1.00  0.00    -0.274 OA
ATOM     21  H2  UNL     1     -32.193   1.381 -25.028  1.00  0.00     0.246 HD
ENDBRANCH  18  20
ENDBRANCH  12  18
ENDBRANCH   1   2
BRANCH   1  22
HETATM   22  N7  UNL     1     -32.410   7.573 -22.962  1.00  0.00    -0.317 N 
HETATM   23  C7  UNL     1     -33.215   8.556 -23.535  1.00  0.00     0.276 C 
HETATM   24  O4  UNL     1     -32.872   9.391 -24.409  1.00  0.00    -0.266 OA
ATOM     25  H7  UNL     1     -32.888   6.998 -22.268  1.00  0.00     0.170 HD
BRANCH  23  26
HETATM   26  C8  UNL     1     -34.637   8.699 -23.119  1.00  0.00     0.134 A 
HETATM   27  C9  UNL     1     -35.164   9.442 -22.095  1.00  0.00     0.148 A 
HETATM   28  N8  UNL     1     -36.518   9.271 -22.087  1.00  0.00    -0.282 N 
HETATM   29  N10 UNL     1     -36.802   8.451 -23.073  1.00  0.00    -0.240 N 
HETATM   30  N11 UNL     1     -35.680   8.100 -23.703  1.00  0.00    -0.280 N 
ATOM     31  H10 UNL     1     -37.739   8.131 -23.320  1.00  0.00     0.208 HD
ATOM     32  H11 UNL     1     -35.626   7.471 -24.504  1.00  0.00     0.189 HD
BRANCH  28  33
HETATM   33  C10 UNL     1     -37.399   9.925 -21.132  1.00  0.00     0.192 C 
BRANCH  33  34
HETATM   34  C11 UNL     1     -37.060  11.338 -20.880  1.00  0.00     0.010 A 
HETATM   35  C12 UNL     1     -37.100  12.237 -21.953  1.00  0.00     0.099 A 
HETATM   36  N9  UNL     1     -36.754  13.510 -21.773  1.00  0.00    -0.374 N 
HETATM   37  C13 UNL     1     -36.356  13.975 -20.563  1.00  0.00     0.090 A 
ATOM     38  H9  UNL     1     -36.790  14.153 -22.565  1.00  0.00     0.164 HD
HETATM   39  C14 UNL     1     -36.309  13.119 -19.502  1.00  0.00     0.054 A 
HETATM   40  C15 UNL     1     -36.667  11.765 -19.643  1.00  0.00     0.076 A 
BRANCH  40  41
HETATM   41  O5  UNL     1     -36.605  10.950 -18.524  1.00  0.00    -0.360 OA
ATOM     42  H5  UNL     1     -35.804  10.561 -18.194  1.00  0.00     0.217 HD
ENDBRANCH  40  41
ENDBRANCH  33  34
ENDBRANCH  28  33
ENDBRANCH  23  26
ENDBRANCH   1  22
TORSDOF 9
ENDMDL
