MODEL 1
REMARK VINA RESULT: -8.796712045      0.000      0.000
REMARK  11 active torsions:
REMARK  status: ('A' for Active; 'I' for Inactive)
REMARK    1  A    between atoms: N1_1  and  C1_4 
REMARK    2  A    between atoms: C2_7  and  N3_8 
REMARK    3  A    between atoms: C3_11  and  N4_12 
REMARK    4  A    between atoms: N5_14  and  N6_16 
REMARK       I    between atoms: N6_16  and  C4_18 
REMARK    5  A    between atoms: C4_18  and  O4_20 
REMARK    6  A    between atoms: O4_20  and  C5_21 
REMARK    7  A    between atoms: C5_21  and  C6_22 
REMARK    8  A    between atoms: C9_26  and  O6_27 
REMARK    9  A    between atoms: O6_27  and  S1_28 
REMARK   10  A    between atoms: S1_28  and  N7_29 
REMARK   11  A    between atoms: C10_37  and  N9_38 
ROOT
HETATM    1  N4  UNL     1     -30.331   5.407 -26.256  1.00  0.00    -0.279 N 
ATOM      2  H4  UNL     1     -29.347   5.138 -26.259  1.00  0.00     0.189 HD
HETATM    3  N5  UNL     1     -31.005   5.197 -27.295  1.00  0.00    -0.238 N 
ATOM      4  H5  UNL     1     -31.993   5.452 -27.329  1.00  0.00     0.208 HD
ENDROOT
BRANCH   3   5
HETATM    5  N6  UNL     1     -30.394   4.616 -28.395  1.00  0.00    -0.231 N 
HETATM    6  C4  UNL     1     -29.656   5.402 -29.302  1.00  0.00     0.380 C 
HETATM    7  O3  UNL     1     -29.568   6.649 -29.087  1.00  0.00    -0.237 OA
ATOM      8  H6  UNL     1     -30.479   3.611 -28.549  1.00  0.00     0.194 HD
BRANCH   6   9
HETATM    9  O4  UNL     1     -29.023   4.842 -30.428  1.00  0.00    -0.296 OA
BRANCH   9  10
HETATM   10  C5  UNL     1     -27.623   5.022 -30.511  1.00  0.00     0.247 C 
BRANCH  10  11
HETATM   11  C6  UNL     1     -27.157   4.992 -31.916  1.00  0.00     0.104 A 
HETATM   12  C7  UNL     1     -27.972   4.599 -32.960  1.00  0.00     0.096 A 
HETATM   13  C8  UNL     1     -27.438   4.608 -34.228  1.00  0.00     0.228 A 
HETATM   14  O5  UNL     1     -28.139   4.261 -35.200  1.00  0.00    -0.284 OA
HETATM   15  C9  UNL     1     -26.123   5.002 -34.435  1.00  0.00     0.232 A 
HETATM   16  N8  UNL     1     -25.428   5.362 -33.351  1.00  0.00    -0.235 N 
HETATM   17  O9  UNL     1     -25.923   5.357 -32.150  1.00  0.00    -0.238 OA
ATOM     18  H8  UNL     1     -24.459   5.657 -33.474  1.00  0.00     0.197 HD
BRANCH  15  19
HETATM   19  O6  UNL     1     -25.605   5.005 -35.717  1.00  0.00    -0.192 OA
BRANCH  19  20
HETATM   20  S1  UNL     1     -24.320   6.040 -36.102  1.00  0.00     0.362 S 
HETATM   21  O7  UNL     1     -24.685   7.424 -35.653  1.00  0.00    -0.176 OA
HETATM   22  O8  UNL     1     -23.072   5.649 -35.340  1.00  0.00    -0.176 OA
BRANCH  20  23
HETATM   23  N7  UNL     1     -23.935   6.037 -37.765  1.00  0.00    -0.305 N 
ATOM     24  H72 UNL     1     -24.532   5.599 -38.467  1.00  0.00     0.171 HD
ATOM     25  H71 UNL     1     -23.058   6.514 -37.972  1.00  0.00     0.171 HD
ENDBRANCH  20  23
ENDBRANCH  19  20
ENDBRANCH  15  19
ENDBRANCH  10  11
ENDBRANCH   9  10
ENDBRANCH   6   9
ENDBRANCH   3   5
BRANCH   1  26
HETATM   26  C3  UNL     1     -30.860   5.996 -25.078  1.00  0.00     0.144 A 
HETATM   27  C2  UNL     1     -31.297   5.183 -24.055  1.00  0.00     0.220 A 
HETATM   28  N2  UNL     1     -31.796   5.783 -22.948  1.00  0.00    -0.168 N 
HETATM   29  C1  UNL     1     -31.878   7.115 -22.817  1.00  0.00     0.679 A 
ATOM     30  H2  UNL     1     -32.124   5.196 -22.181  1.00  0.00     0.186 HD
HETATM   31  N10 UNL     1     -31.461   7.906 -23.797  1.00  0.00    -0.175 N 
HETATM   32  C10 UNL     1     -30.958   7.362 -24.916  1.00  0.00     0.147 A 
ATOM     33  H10 UNL     1     -31.522   8.920 -23.700  1.00  0.00     0.186 HD
BRANCH  27  34
HETATM   34  N3  UNL     1     -31.218   3.783 -24.175  1.00  0.00    -0.095 N 
HETATM   35  O1  UNL     1     -30.629   3.119 -23.301  1.00  0.00    -0.530 OA
HETATM   36  O2  UNL     1     -31.762   3.084 -25.219  1.00  0.00    -0.530 OA
ENDBRANCH  27  34
BRANCH  29  37
HETATM   37  N1  UNL     1     -32.363   7.638 -21.740  1.00  0.00    -0.234 N 
ATOM     38  H12 UNL     1     -32.397   7.085 -20.884  1.00  0.00     0.174 HD
ATOM     39  H11 UNL     1     -32.710   8.597 -21.742  1.00  0.00     0.174 HD
ENDBRANCH  29  37
BRANCH  32  40
HETATM   40  N9  UNL     1     -30.548   8.148 -25.876  1.00  0.00    -0.383 N 
ATOM     41  H92 UNL     1     -29.697   7.909 -26.383  1.00  0.00     0.157 HD
ATOM     42  H91 UNL     1     -31.089   8.983 -26.100  1.00  0.00     0.157 HD
ENDBRANCH  32  40
ENDBRANCH   1  26
TORSDOF 11
ENDMDL
MODEL 2
REMARK VINA RESULT: -8.519705996      1.001      1.047
REMARK  11 active torsions:
REMARK  status: ('A' for Active; 'I' for Inactive)
REMARK    1  A    between atoms: N1_1  and  C1_4 
REMARK    2  A    between atoms: C2_7  and  N3_8 
REMARK    3  A    between atoms: C3_11  and  N4_12 
REMARK    4  A    between atoms: N5_14  and  N6_16 
REMARK       I    between atoms: N6_16  and  C4_18 
REMARK    5  A    between atoms: C4_18  and  O4_20 
REMARK    6  A    between atoms: O4_20  and  C5_21 
REMARK    7  A    between atoms: C5_21  and  C6_22 
REMARK    8  A    between atoms: C9_26  and  O6_27 
REMARK    9  A    between atoms: O6_27  and  S1_28 
REMARK   10  A    between atoms: S1_28  and  N7_29 
REMARK   11  A    between atoms: C10_37  and  N9_38 
ROOT
HETATM    1  N4  UNL     1     -30.838   6.493 -26.246  1.00  0.00    -0.279 N 
ATOM      2  H4  UNL     1     -31.474   6.108 -26.944  1.00  0.00     0.189 HD
HETATM    3  N5  UNL     1     -29.611   6.524 -26.516  1.00  0.00    -0.238 N 
ATOM      4  H5  UNL     1     -28.944   6.902 -25.842  1.00  0.00     0.208 HD
ENDROOT
BRANCH   3   5
HETATM    5  N6  UNL     1     -29.173   6.039 -27.738  1.00  0.00    -0.231 N 
HETATM    6  C4  UNL     1     -29.597   6.641 -28.939  1.00  0.00     0.380 C 
HETATM    7  O3  UNL     1     -30.387   7.631 -28.873  1.00  0.00    -0.237 OA
ATOM      8  H6  UNL     1     -28.538   5.241 -27.768  1.00  0.00     0.194 HD
BRANCH   6   9
HETATM    9  O4  UNL     1     -29.170   6.173 -30.197  1.00  0.00    -0.296 OA
BRANCH   9  10
HETATM   10  C5  UNL     1     -28.093   5.256 -30.190  1.00  0.00     0.247 C 
BRANCH  10  11
HETATM   11  C6  UNL     1     -27.523   5.083 -31.545  1.00  0.00     0.104 A 
HETATM   12  C7  UNL     1     -28.282   4.665 -32.621  1.00  0.00     0.096 A 
HETATM   13  C8  UNL     1     -27.652   4.537 -33.838  1.00  0.00     0.228 A 
HETATM   14  O5  UNL     1     -28.299   4.163 -34.837  1.00  0.00    -0.284 OA
HETATM   15  C9  UNL     1     -26.298   4.819 -33.963  1.00  0.00     0.232 A 
HETATM   16  N8  UNL     1     -25.664   5.215 -32.854  1.00  0.00    -0.235 N 
HETATM   17  O9  UNL     1     -26.250   5.340 -31.701  1.00  0.00    -0.238 OA
ATOM     18  H8  UNL     1     -24.669   5.429 -32.917  1.00  0.00     0.197 HD
BRANCH  15  19
HETATM   19  O6  UNL     1     -25.684   4.684 -35.194  1.00  0.00    -0.192 OA
BRANCH  19  20
HETATM   20  S1  UNL     1     -24.389   5.698 -35.603  1.00  0.00     0.362 S 
HETATM   21  O7  UNL     1     -24.636   7.042 -34.985  1.00  0.00    -0.176 OA
HETATM   22  O8  UNL     1     -23.095   5.177 -35.013  1.00  0.00    -0.176 OA
BRANCH  20  23
HETATM   23  N7  UNL     1     -24.166   5.850 -37.288  1.00  0.00    -0.305 N 
ATOM     24  H72 UNL     1     -24.408   5.107 -37.944  1.00  0.00     0.171 HD
ATOM     25  H71 UNL     1     -23.771   6.750 -37.559  1.00  0.00     0.171 HD
ENDBRANCH  20  23
ENDBRANCH  19  20
ENDBRANCH  15  19
ENDBRANCH  10  11
ENDBRANCH   9  10
ENDBRANCH   6   9
ENDBRANCH   3   5
BRANCH   1  26
HETATM   26  C3  UNL     1     -31.388   6.962 -25.024  1.00  0.00     0.144 A 
HETATM   27  C2  UNL     1     -31.459   6.109 -23.945  1.00  0.00     0.220 A 
HETATM   28  N2  UNL     1     -31.992   6.593 -22.798  1.00  0.00    -0.168 N 
HETATM   29  C1  UNL     1     -32.442   7.851 -22.679  1.00  0.00     0.679 A 
ATOM     30  H2  UNL     1     -32.052   5.975 -21.989  1.00  0.00     0.186 HD
HETATM   31  N10 UNL     1     -32.379   8.680 -23.714  1.00  0.00    -0.175 N 
HETATM   32  C10 UNL     1     -31.861   8.249 -24.874  1.00  0.00     0.147 A 
ATOM     33  H10 UNL     1     -32.721   9.637 -23.627  1.00  0.00     0.186 HD
BRANCH  27  34
HETATM   34  N3  UNL     1     -30.991   4.786 -24.051  1.00  0.00    -0.095 N 
HETATM   35  O1  UNL     1     -30.523   4.213 -23.049  1.00  0.00    -0.530 OA
HETATM   36  O2  UNL     1     -31.015   4.068 -25.217  1.00  0.00    -0.530 OA
ENDBRANCH  27  34
BRANCH  29  37
HETATM   37  N1  UNL     1     -32.942   8.264 -21.562  1.00  0.00    -0.234 N 
ATOM     38  H12 UNL     1     -33.888   8.646 -21.545  1.00  0.00     0.174 HD
ATOM     39  H11 UNL     1     -32.398   8.210 -20.701  1.00  0.00     0.174 HD
ENDBRANCH  29  37
BRANCH  32  40
HETATM   40  N9  UNL     1     -31.801   9.072 -25.887  1.00  0.00    -0.383 N 
ATOM     41  H92 UNL     1     -31.051   9.762 -25.923  1.00  0.00     0.157 HD
ATOM     42  H91 UNL     1     -32.504   9.006 -26.623  1.00  0.00     0.157 HD
ENDBRANCH  32  40
ENDBRANCH   1  26
TORSDOF 11
ENDMDL
MODEL 3
REMARK VINA RESULT: -8.419701404      1.690      2.276
REMARK  11 active torsions:
REMARK  status: ('A' for Active; 'I' for Inactive)
REMARK    1  A    between atoms: N1_1  and  C1_4 
REMARK    2  A    between atoms: C2_7  and  N3_8 
REMARK    3  A    between atoms: C3_11  and  N4_12 
REMARK    4  A    between atoms: N5_14  and  N6_16 
REMARK       I    between atoms: N6_16  and  C4_18 
REMARK    5  A    between atoms: C4_18  and  O4_20 
REMARK    6  A    between atoms: O4_20  and  C5_21 
REMARK    7  A    between atoms: C5_21  and  C6_22 
REMARK    8  A    between atoms: C9_26  and  O6_27 
REMARK    9  A    between atoms: O6_27  and  S1_28 
REMARK   10  A    between atoms: S1_28  and  N7_29 
REMARK   11  A    between atoms: C10_37  and  N9_38 
ROOT
HETATM    1  N4  UNL     1     -30.358   5.737 -26.503  1.00  0.00    -0.279 N 
ATOM      2  H4  UNL     1     -31.036   5.354 -27.162  1.00  0.00     0.189 HD
HETATM    3  N5  UNL     1     -29.161   5.835 -26.873  1.00  0.00    -0.238 N 
ATOM      4  H5  UNL     1     -28.455   6.213 -26.241  1.00  0.00     0.208 HD
ENDROOT
BRANCH   3   5
HETATM    5  N6  UNL     1     -28.810   5.423 -28.149  1.00  0.00    -0.231 N 
HETATM    6  C4  UNL     1     -29.240   6.148 -29.278  1.00  0.00     0.380 C 
HETATM    7  O3  UNL     1     -29.954   7.181 -29.097  1.00  0.00    -0.237 OA
ATOM      8  H6  UNL     1     -28.236   4.588 -28.272  1.00  0.00     0.194 HD
BRANCH   6   9
HETATM    9  O4  UNL     1     -28.901   5.756 -30.588  1.00  0.00    -0.296 OA
BRANCH   9  10
HETATM   10  C5  UNL     1     -27.721   4.989 -30.724  1.00  0.00     0.247 C 
BRANCH  10  11
HETATM   11  C6  UNL     1     -27.228   5.000 -32.120  1.00  0.00     0.104 A 
HETATM   12  C7  UNL     1     -28.025   4.642 -33.191  1.00  0.00     0.096 A 
HETATM   13  C8  UNL     1     -27.467   4.688 -34.448  1.00  0.00     0.228 A 
HETATM   14  O5  UNL     1     -28.150   4.373 -35.443  1.00  0.00    -0.284 OA
HETATM   15  C9  UNL     1     -26.146   5.080 -34.618  1.00  0.00     0.232 A 
HETATM   16  N8  UNL     1     -25.470   5.404 -33.510  1.00  0.00    -0.235 N 
HETATM   17  O9  UNL     1     -25.988   5.365 -32.319  1.00  0.00    -0.238 OA
ATOM     18  H8  UNL     1     -24.497   5.697 -33.605  1.00  0.00     0.197 HD
BRANCH  15  19
HETATM   19  O6  UNL     1     -25.604   5.120 -35.888  1.00  0.00    -0.192 OA
BRANCH  19  20
HETATM   20  S1  UNL     1     -24.254   6.096 -36.197  1.00  0.00     0.362 S 
HETATM   21  O7  UNL     1     -24.588   7.499 -35.780  1.00  0.00    -0.176 OA
HETATM   22  O8  UNL     1     -23.074   5.660 -35.355  1.00  0.00    -0.176 OA
BRANCH  20  23
HETATM   23  N7  UNL     1     -23.765   6.063 -37.832  1.00  0.00    -0.305 N 
ATOM     24  H72 UNL     1     -23.944   5.266 -38.444  1.00  0.00     0.171 HD
ATOM     25  H71 UNL     1     -23.282   6.914 -38.122  1.00  0.00     0.171 HD
ENDBRANCH  20  23
ENDBRANCH  19  20
ENDBRANCH  15  19
ENDBRANCH  10  11
ENDBRANCH   9  10
ENDBRANCH   6   9
ENDBRANCH   3   5
BRANCH   1  26
HETATM   26  C3  UNL     1     -30.820   6.129 -25.219  1.00  0.00     0.144 A 
HETATM   27  C2  UNL     1     -31.064   7.461 -24.969  1.00  0.00     0.220 A 
HETATM   28  N2  UNL     1     -31.503   7.796 -23.732  1.00  0.00    -0.168 N 
HETATM   29  C1  UNL     1     -31.705   6.892 -22.763  1.00  0.00     0.679 A 
ATOM     30  H2  UNL     1     -31.689   8.778 -23.529  1.00  0.00     0.186 HD
HETATM   31  N10 UNL     1     -31.472   5.606 -22.994  1.00  0.00    -0.175 N 
HETATM   32  C10 UNL     1     -31.035   5.221 -24.203  1.00  0.00     0.147 A 
ATOM     33  H10 UNL     1     -31.624   4.915 -22.258  1.00  0.00     0.186 HD
BRANCH  27  34
HETATM   34  N3  UNL     1     -30.859   8.424 -25.974  1.00  0.00    -0.095 N 
HETATM   35  O1  UNL     1     -29.716   8.872 -26.179  1.00  0.00    -0.530 OA
HETATM   36  O2  UNL     1     -31.865   8.916 -26.764  1.00  0.00    -0.530 OA
ENDBRANCH  27  34
BRANCH  29  37
HETATM   37  N1  UNL     1     -32.125   7.263 -21.598  1.00  0.00    -0.234 N 
ATOM     38  H12 UNL     1     -31.511   7.807 -20.993  1.00  0.00     0.174 HD
ATOM     39  H11 UNL     1     -33.063   7.015 -21.284  1.00  0.00     0.174 HD
ENDBRANCH  29  37
BRANCH  32  40
HETATM   40  N9  UNL     1     -30.808   3.954 -24.423  1.00  0.00    -0.383 N 
ATOM     41  H92 UNL     1     -30.190   3.444 -23.794  1.00  0.00     0.157 HD
ATOM     42  H91 UNL     1     -31.256   3.500 -25.219  1.00  0.00     0.157 HD
ENDBRANCH  32  40
ENDBRANCH   1  26
TORSDOF 11
ENDMDL
MODEL 4
REMARK VINA RESULT: -8.258899939      1.860      2.506
REMARK  11 active torsions:
REMARK  status: ('A' for Active; 'I' for Inactive)
REMARK    1  A    between atoms: N1_1  and  C1_4 
REMARK    2  A    between atoms: C2_7  and  N3_8 
REMARK    3  A    between atoms: C3_11  and  N4_12 
REMARK    4  A    between atoms: N5_14  and  N6_16 
REMARK       I    between atoms: N6_16  and  C4_18 
REMARK    5  A    between atoms: C4_18  and  O4_20 
REMARK    6  A    between atoms: O4_20  and  C5_21 
REMARK    7  A    between atoms: C5_21  and  C6_22 
REMARK    8  A    between atoms: C9_26  and  O6_27 
REMARK    9  A    between atoms: O6_27  and  S1_28 
REMARK   10  A    between atoms: S1_28  and  N7_29 
REMARK   11  A    between atoms: C10_37  and  N9_38 
ROOT
HETATM    1  N4  UNL     1     -30.286   5.782 -26.733  1.00  0.00    -0.279 N 
ATOM      2  H4  UNL     1     -30.974   5.485 -27.425  1.00  0.00     0.189 HD
HETATM    3  N5  UNL     1     -29.074   5.786 -27.065  1.00  0.00    -0.238 N 
ATOM      4  H5  UNL     1     -28.358   6.078 -26.400  1.00  0.00     0.208 HD
ENDROOT
BRANCH   3   5
HETATM    5  N6  UNL     1     -28.721   5.389 -28.345  1.00  0.00    -0.231 N 
HETATM    6  C4  UNL     1     -29.194   6.096 -29.469  1.00  0.00     0.380 C 
HETATM    7  O3  UNL     1     -29.948   7.098 -29.280  1.00  0.00    -0.237 OA
ATOM      8  H6  UNL     1     -28.113   4.580 -28.475  1.00  0.00     0.194 HD
BRANCH   6   9
HETATM    9  O4  UNL     1     -28.853   5.719 -30.783  1.00  0.00    -0.296 OA
BRANCH   9  10
HETATM   10  C5  UNL     1     -27.784   4.802 -30.911  1.00  0.00     0.247 C 
BRANCH  10  11
HETATM   11  C6  UNL     1     -27.148   4.898 -32.246  1.00  0.00     0.104 A 
HETATM   12  C7  UNL     1     -27.813   4.563 -33.409  1.00  0.00     0.096 A 
HETATM   13  C8  UNL     1     -27.129   4.689 -34.597  1.00  0.00     0.228 A 
HETATM   14  O5  UNL     1     -27.691   4.397 -35.672  1.00  0.00    -0.284 OA
HETATM   15  C9  UNL     1     -25.815   5.138 -34.608  1.00  0.00     0.232 A 
HETATM   16  N8  UNL     1     -25.273   5.434 -33.422  1.00  0.00    -0.235 N 
HETATM   17  O9  UNL     1     -25.911   5.318 -32.295  1.00  0.00    -0.238 OA
ATOM     18  H8  UNL     1     -24.309   5.767 -33.400  1.00  0.00     0.197 HD
BRANCH  15  19
HETATM   19  O6  UNL     1     -25.145   5.258 -35.811  1.00  0.00    -0.192 OA
BRANCH  19  20
HETATM   20  S1  UNL     1     -23.758   6.228 -35.908  1.00  0.00     0.362 S 
HETATM   21  O7  UNL     1     -22.722   5.653 -34.987  1.00  0.00    -0.176 OA
HETATM   22  O8  UNL     1     -23.173   6.185 -37.303  1.00  0.00    -0.176 OA
BRANCH  20  23
HETATM   23  N7  UNL     1     -24.057   7.862 -35.520  1.00  0.00    -0.305 N 
ATOM     24  H72 UNL     1     -23.319   8.568 -35.505  1.00  0.00     0.171 HD
ATOM     25  H71 UNL     1     -25.036   8.050 -35.309  1.00  0.00     0.171 HD
ENDBRANCH  20  23
ENDBRANCH  19  20
ENDBRANCH  15  19
ENDBRANCH  10  11
ENDBRANCH   9  10
ENDBRANCH   6   9
ENDBRANCH   3   5
BRANCH   1  26
HETATM   26  C3  UNL     1     -30.753   6.169 -25.449  1.00  0.00     0.144 A 
HETATM   27  C2  UNL     1     -30.858   7.509 -25.146  1.00  0.00     0.220 A 
HETATM   28  N2  UNL     1     -31.306   7.838 -23.911  1.00  0.00    -0.168 N 
HETATM   29  C1  UNL     1     -31.644   6.921 -22.992  1.00  0.00     0.679 A 
ATOM     30  H2  UNL     1     -31.390   8.825 -23.669  1.00  0.00     0.186 HD
HETATM   31  N10 UNL     1     -31.545   5.629 -23.274  1.00  0.00    -0.175 N 
HETATM   32  C10 UNL     1     -31.106   5.249 -24.484  1.00  0.00     0.147 A 
ATOM     33  H10 UNL     1     -31.801   4.929 -22.577  1.00  0.00     0.186 HD
BRANCH  27  34
HETATM   34  N3  UNL     1     -30.509   8.484 -26.098  1.00  0.00    -0.095 N 
HETATM   35  O1  UNL     1     -31.397   9.176 -26.631  1.00  0.00    -0.530 OA
HETATM   36  O2  UNL     1     -29.219   8.730 -26.489  1.00  0.00    -0.530 OA
ENDBRANCH  27  34
BRANCH  29  37
HETATM   37  N1  UNL     1     -32.066   7.288 -21.826  1.00  0.00    -0.234 N 
ATOM     38  H12 UNL     1     -32.358   8.253 -21.679  1.00  0.00     0.174 HD
ATOM     39  H11 UNL     1     -32.108   6.618 -21.059  1.00  0.00     0.174 HD
ENDBRANCH  29  37
BRANCH  32  40
HETATM   40  N9  UNL     1     -31.011   3.975 -24.755  1.00  0.00    -0.383 N 
ATOM     41  H92 UNL     1     -31.427   3.618 -25.615  1.00  0.00     0.157 HD
ATOM     42  H91 UNL     1     -30.523   3.362 -24.102  1.00  0.00     0.157 HD
ENDBRANCH  32  40
ENDBRANCH   1  26
TORSDOF 11
ENDMDL
MODEL 5
REMARK VINA RESULT: -8.168203977      1.624      2.593
REMARK  11 active torsions:
REMARK  status: ('A' for Active; 'I' for Inactive)
REMARK    1  A    between atoms: N1_1  and  C1_4 
REMARK    2  A    between atoms: C2_7  and  N3_8 
REMARK    3  A    between atoms: C3_11  and  N4_12 
REMARK    4  A    between atoms: N5_14  and  N6_16 
REMARK       I    between atoms: N6_16  and  C4_18 
REMARK    5  A    between atoms: C4_18  and  O4_20 
REMARK    6  A    between atoms: O4_20  and  C5_21 
REMARK    7  A    between atoms: C5_21  and  C6_22 
REMARK    8  A    between atoms: C9_26  and  O6_27 
REMARK    9  A    between atoms: O6_27  and  S1_28 
REMARK   10  A    between atoms: S1_28  and  N7_29 
REMARK   11  A    between atoms: C10_37  and  N9_38 
ROOT
HETATM    1  N4  UNL     1     -30.588   6.756 -27.010  1.00  0.00    -0.279 N 
ATOM      2  H4  UNL     1     -31.231   6.312 -27.665  1.00  0.00     0.189 HD
HETATM    3  N5  UNL     1     -29.478   7.153 -27.447  1.00  0.00    -0.238 N 
ATOM      4  H5  UNL     1     -28.809   7.602 -26.821  1.00  0.00     0.208 HD
ENDROOT
BRANCH   3   5
HETATM    5  N6  UNL     1     -29.172   6.974 -28.786  1.00  0.00    -0.231 N 
HETATM    6  C4  UNL     1     -29.003   5.678 -29.314  1.00  0.00     0.380 C 
HETATM    7  O3  UNL     1     -29.136   4.686 -28.535  1.00  0.00    -0.237 OA
ATOM      8  H6  UNL     1     -29.069   7.786 -29.395  1.00  0.00     0.194 HD
BRANCH   6   9
HETATM    9  O4  UNL     1     -28.693   5.462 -30.671  1.00  0.00    -0.296 OA
BRANCH   9  10
HETATM   10  C5  UNL     1     -27.591   4.614 -30.931  1.00  0.00     0.247 C 
BRANCH  10  11
HETATM   11  C6  UNL     1     -27.074   4.809 -32.305  1.00  0.00     0.104 A 
HETATM   12  C7  UNL     1     -27.819   4.504 -33.428  1.00  0.00     0.096 A 
HETATM   13  C8  UNL     1     -27.242   4.723 -34.658  1.00  0.00     0.228 A 
HETATM   14  O5  UNL     1     -27.879   4.462 -35.699  1.00  0.00    -0.284 OA
HETATM   15  C9  UNL     1     -25.954   5.233 -34.751  1.00  0.00     0.232 A 
HETATM   16  N8  UNL     1     -25.328   5.491 -33.598  1.00  0.00    -0.235 N 
HETATM   17  O9  UNL     1     -25.864   5.288 -32.432  1.00  0.00    -0.238 OA
ATOM     18  H8  UNL     1     -24.380   5.867 -33.636  1.00  0.00     0.197 HD
BRANCH  15  19
HETATM   19  O6  UNL     1     -25.392   5.447 -35.995  1.00  0.00    -0.192 OA
BRANCH  19  20
HETATM   20  S1  UNL     1     -23.961   6.345 -36.130  1.00  0.00     0.362 S 
HETATM   21  O7  UNL     1     -24.224   7.723 -35.597  1.00  0.00    -0.176 OA
HETATM   22  O8  UNL     1     -22.870   5.745 -35.268  1.00  0.00    -0.176 OA
BRANCH  20  23
HETATM   23  N7  UNL     1     -23.372   6.429 -37.729  1.00  0.00    -0.305 N 
ATOM     24  H72 UNL     1     -23.753   5.860 -38.486  1.00  0.00     0.171 HD
ATOM     25  H71 UNL     1     -22.611   7.099 -37.840  1.00  0.00     0.171 HD
ENDBRANCH  20  23
ENDBRANCH  19  20
ENDBRANCH  15  19
ENDBRANCH  10  11
ENDBRANCH   9  10
ENDBRANCH   6   9
ENDBRANCH   3   5
BRANCH   1  26
HETATM   26  C3  UNL     1     -30.997   6.891 -25.657  1.00  0.00     0.144 A 
HETATM   27  C2  UNL     1     -31.415   8.121 -25.200  1.00  0.00     0.220 A 
HETATM   28  N2  UNL     1     -31.796   8.210 -23.903  1.00  0.00    -0.168 N 
HETATM   29  C1  UNL     1     -31.781   7.161 -23.067  1.00  0.00     0.679 A 
ATOM     30  H2  UNL     1     -32.108   9.113 -23.546  1.00  0.00     0.186 HD
HETATM   31  N10 UNL     1     -31.380   5.973 -23.499  1.00  0.00    -0.175 N 
HETATM   32  C10 UNL     1     -30.990   5.831 -24.775  1.00  0.00     0.147 A 
ATOM     33  H10 UNL     1     -31.367   5.173 -22.865  1.00  0.00     0.186 HD
BRANCH  27  34
HETATM   34  N3  UNL     1     -31.438   9.232 -26.062  1.00  0.00    -0.095 N 
HETATM   35  O1  UNL     1     -32.502   9.565 -26.616  1.00  0.00    -0.530 OA
HETATM   36  O2  UNL     1     -30.333   9.994 -26.341  1.00  0.00    -0.530 OA
ENDBRANCH  27  34
BRANCH  29  37
HETATM   37  N1  UNL     1     -32.155   7.299 -21.838  1.00  0.00    -0.234 N 
ATOM     38  H12 UNL     1     -33.143   7.212 -21.600  1.00  0.00     0.174 HD
ATOM     39  H11 UNL     1     -31.469   7.492 -21.108  1.00  0.00     0.174 HD
ENDBRANCH  29  37
BRANCH  32  40
HETATM   40  N9  UNL     1     -30.597   4.657 -25.193  1.00  0.00    -0.383 N 
ATOM     41  H92 UNL     1     -31.169   3.839 -24.985  1.00  0.00     0.157 HD
ATOM     42  H91 UNL     1     -29.727   4.583 -25.720  1.00  0.00     0.157 HD
ENDBRANCH  32  40
ENDBRANCH   1  26
TORSDOF 11
ENDMDL
