MODEL 1
REMARK VINA RESULT: -8.943755173      0.000      0.000
REMARK  4 active torsions:
REMARK  status: ('A' for Active; 'I' for Inactive)
REMARK    1  A    between atoms: C7_8  and  C8_9 
REMARK    2  A    between atoms: C14_16  and  C15_17 
REMARK    3  A    between atoms: C15_17  and  O1_18 
REMARK    4  A    between atoms: C15_17  and  C16_20 
ROOT
HETATM    1  C1  UNL     1      -9.174  11.206  16.924  1.00  0.00     0.049 C 
HETATM    2  C2  UNL     1      -8.286  10.039  16.545  1.00  0.00    -0.048 A 
HETATM    3  C3  UNL     1      -8.212   9.681  15.230  1.00  0.00     0.009 A 
HETATM    4  C4  UNL     1      -7.449   8.613  14.820  1.00  0.00     0.024 A 
HETATM    5  C5  UNL     1      -6.753   7.904  15.768  1.00  0.00     0.056 A 
HETATM    6  C6  UNL     1      -5.956   6.792  15.340  1.00  0.00     0.100 C 
HETATM    7  N1  UNL     1      -5.296   5.897  14.982  1.00  0.00    -0.191 NA
HETATM    8  C7  UNL     1      -6.835   8.283  17.132  1.00  0.00     0.008 A 
HETATM    9  C14 UNL     1      -7.584   9.333  17.532  1.00  0.00     0.017 A 
ENDROOT
BRANCH   8  10
HETATM   10  C8  UNL     1      -6.070   7.400  17.995  1.00  0.00    -0.023 A 
HETATM   11  C9  UNL     1      -6.560   6.255  18.587  1.00  0.00     0.015 A 
HETATM   12  C10 UNL     1      -5.768   5.424  19.347  1.00  0.00     0.043 A 
HETATM   13  C11 UNL     1      -4.443   5.726  19.533  1.00  0.00     0.116 A 
HETATM   14  F1  UNL     1      -3.627   4.925  20.280  1.00  0.00    -0.206 F 
HETATM   15  C12 UNL     1      -3.933   6.864  18.949  1.00  0.00     0.043 A 
HETATM   16  C13 UNL     1      -4.736   7.682  18.196  1.00  0.00     0.015 A 
ENDBRANCH   8  10
BRANCH   9  17
HETATM   17  C15 UNL     1      -7.710   9.766  18.914  1.00  0.00     0.090 C 
BRANCH  17  18
HETATM   18  O1  UNL     1      -7.968   8.655  19.744  1.00  0.00    -0.359 OA
ATOM     19  H1  UNL     1      -7.673   8.837  20.629  1.00  0.00     0.217 HD
ENDBRANCH  17  18
BRANCH  17  20
HETATM   20  C16 UNL     1      -6.805  10.754  19.465  1.00  0.00     0.037 A 
HETATM   21  C17 UNL     1      -5.447  10.560  19.511  1.00  0.00     0.019 A 
HETATM   22  C18 UNL     1      -4.594  11.501  20.108  1.00  0.00     0.027 A 
HETATM   23  C19 UNL     1      -5.089  12.652  20.667  1.00  0.00     0.049 A 
HETATM   24  N2  UNL     1      -4.246  13.630  21.283  1.00  0.00    -0.102 NA
HETATM   25  C20 UNL     1      -6.447  12.855  20.626  1.00  0.00     0.069 A 
HETATM   26  C21 UNL     1      -7.277  11.907  20.029  1.00  0.00     0.131 A 
HETATM   27  F2  UNL     1      -8.575  12.191  20.029  1.00  0.00    -0.205 F 
ENDBRANCH  17  20
ENDBRANCH   9  17
TORSDOF 4
ENDMDL
MODEL 2
REMARK VINA RESULT: -8.721598647      1.181      1.344
REMARK  4 active torsions:
REMARK  status: ('A' for Active; 'I' for Inactive)
REMARK    1  A    between atoms: C7_8  and  C8_9 
REMARK    2  A    between atoms: C14_16  and  C15_17 
REMARK    3  A    between atoms: C15_17  and  O1_18 
REMARK    4  A    between atoms: C15_17  and  C16_20 
ROOT
HETATM    1  C1  UNL     1      -9.171  10.340  17.305  1.00  0.00     0.049 C 
HETATM    2  C2  UNL     1      -8.217   9.293  16.770  1.00  0.00    -0.048 A 
HETATM    3  C3  UNL     1      -8.250   9.006  15.436  1.00  0.00     0.009 A 
HETATM    4  C4  UNL     1      -7.431   8.045  14.889  1.00  0.00     0.024 A 
HETATM    5  C5  UNL     1      -6.570   7.372  15.718  1.00  0.00     0.056 A 
HETATM    6  C6  UNL     1      -5.715   6.371  15.148  1.00  0.00     0.100 C 
HETATM    7  N1  UNL     1      -5.011   5.569  14.673  1.00  0.00    -0.191 NA
HETATM    8  C7  UNL     1      -6.541   7.676  17.103  1.00  0.00     0.008 A 
HETATM    9  C14 UNL     1      -7.344   8.620  17.638  1.00  0.00     0.017 A 
ENDROOT
BRANCH   8  10
HETATM   10  C8  UNL     1      -5.603   6.840  17.830  1.00  0.00    -0.023 A 
HETATM   11  C9  UNL     1      -5.928   5.671  18.484  1.00  0.00     0.015 A 
HETATM   12  C10 UNL     1      -4.981   4.888  19.106  1.00  0.00     0.043 A 
HETATM   13  C11 UNL     1      -3.663   5.265  19.086  1.00  0.00     0.116 A 
HETATM   14  F1  UNL     1      -2.697   4.514  19.692  1.00  0.00    -0.206 F 
HETATM   15  C12 UNL     1      -3.315   6.429  18.437  1.00  0.00     0.043 A 
HETATM   16  C13 UNL     1      -4.272   7.198  17.824  1.00  0.00     0.015 A 
ENDBRANCH   8  10
BRANCH   9  17
HETATM   17  C15 UNL     1      -7.363   8.972  19.048  1.00  0.00     0.090 C 
BRANCH  17  18
HETATM   18  O1  UNL     1      -7.961   7.936  19.794  1.00  0.00    -0.359 OA
ATOM     19  H1  UNL     1      -8.890   8.108  19.900  1.00  0.00     0.217 HD
ENDBRANCH  17  18
BRANCH  17  20
HETATM   20  C16 UNL     1      -6.214   9.600  19.669  1.00  0.00     0.037 A 
HETATM   21  C17 UNL     1      -5.448   8.960  20.611  1.00  0.00     0.019 A 
HETATM   22  C18 UNL     1      -4.379   9.608  21.247  1.00  0.00     0.027 A 
HETATM   23  C19 UNL     1      -4.060  10.908  20.949  1.00  0.00     0.049 A 
HETATM   24  N2  UNL     1      -2.977  11.598  21.580  1.00  0.00    -0.102 NA
HETATM   25  C20 UNL     1      -4.821  11.558  20.008  1.00  0.00     0.069 A 
HETATM   26  C21 UNL     1      -5.879  10.895  19.387  1.00  0.00     0.131 A 
HETATM   27  F2  UNL     1      -6.555  11.599  18.485  1.00  0.00    -0.205 F 
ENDBRANCH  17  20
ENDBRANCH   9  17
TORSDOF 4
ENDMDL
MODEL 3
REMARK VINA RESULT: -8.479406351      1.414      1.909
REMARK  4 active torsions:
REMARK  status: ('A' for Active; 'I' for Inactive)
REMARK    1  A    between atoms: C7_8  and  C8_9 
REMARK    2  A    between atoms: C14_16  and  C15_17 
REMARK    3  A    between atoms: C15_17  and  O1_18 
REMARK    4  A    between atoms: C15_17  and  C16_20 
ROOT
HETATM    1  C1  UNL     1      -9.108  10.470  17.369  1.00  0.00     0.049 C 
HETATM    2  C2  UNL     1      -8.145   9.420  16.853  1.00  0.00    -0.048 A 
HETATM    3  C3  UNL     1      -8.147   9.138  15.518  1.00  0.00     0.009 A 
HETATM    4  C4  UNL     1      -7.320   8.176  14.987  1.00  0.00     0.024 A 
HETATM    5  C5  UNL     1      -6.482   7.495  15.834  1.00  0.00     0.056 A 
HETATM    6  C6  UNL     1      -5.618   6.493  15.282  1.00  0.00     0.100 C 
HETATM    7  N1  UNL     1      -4.906   5.689  14.821  1.00  0.00    -0.191 NA
HETATM    8  C7  UNL     1      -6.486   7.794  17.221  1.00  0.00     0.008 A 
HETATM    9  C14 UNL     1      -7.298   8.740  17.740  1.00  0.00     0.017 A 
ENDROOT
BRANCH   8  10
HETATM   10  C8  UNL     1      -5.570   6.951  17.968  1.00  0.00    -0.023 A 
HETATM   11  C9  UNL     1      -4.232   7.217  18.166  1.00  0.00     0.015 A 
HETATM   12  C10 UNL     1      -3.427   6.409  18.936  1.00  0.00     0.043 A 
HETATM   13  C11 UNL     1      -3.954   5.295  19.538  1.00  0.00     0.116 A 
HETATM   14  F1  UNL     1      -3.186   4.470  20.309  1.00  0.00    -0.206 F 
HETATM   15  C12 UNL     1      -5.288   5.010  19.355  1.00  0.00     0.043 A 
HETATM   16  C13 UNL     1      -6.076   5.826  18.583  1.00  0.00     0.015 A 
ENDBRANCH   8  10
BRANCH   9  17
HETATM   17  C15 UNL     1      -7.349   9.087  19.150  1.00  0.00     0.090 C 
BRANCH  17  18
HETATM   18  O1  UNL     1      -7.906   8.021  19.887  1.00  0.00    -0.359 OA
ATOM     19  H1  UNL     1      -8.710   8.304  20.307  1.00  0.00     0.217 HD
ENDBRANCH  17  18
BRANCH  17  20
HETATM   20  C16 UNL     1      -6.239   9.767  19.785  1.00  0.00     0.037 A 
HETATM   21  C17 UNL     1      -5.841  11.027  19.415  1.00  0.00     0.019 A 
HETATM   22  C18 UNL     1      -4.722  11.642  19.998  1.00  0.00     0.027 A 
HETATM   23  C19 UNL     1      -3.985  11.002  20.962  1.00  0.00     0.049 A 
HETATM   24  N2  UNL     1      -2.839  11.601  21.575  1.00  0.00    -0.102 NA
HETATM   25  C20 UNL     1      -4.374   9.740  21.339  1.00  0.00     0.069 A 
HETATM   26  C21 UNL     1      -5.489   9.148  20.747  1.00  0.00     0.131 A 
HETATM   27  F2  UNL     1      -5.796   7.929  21.179  1.00  0.00    -0.205 F 
ENDBRANCH  17  20
ENDBRANCH   9  17
TORSDOF 4
ENDMDL
MODEL 4
REMARK VINA RESULT: -8.397070522      2.069      6.632
REMARK  4 active torsions:
REMARK  status: ('A' for Active; 'I' for Inactive)
REMARK    1  A    between atoms: C7_8  and  C8_9 
REMARK    2  A    between atoms: C14_16  and  C15_17 
REMARK    3  A    between atoms: C15_17  and  O1_18 
REMARK    4  A    between atoms: C15_17  and  C16_20 
ROOT
HETATM    1  C1  UNL     1      -4.884   4.933  19.674  1.00  0.00     0.049 C 
HETATM    2  C2  UNL     1      -5.065   6.436  19.617  1.00  0.00    -0.048 A 
HETATM    3  C3  UNL     1      -4.245   7.217  20.378  1.00  0.00     0.009 A 
HETATM    4  C4  UNL     1      -4.374   8.587  20.397  1.00  0.00     0.024 A 
HETATM    5  C5  UNL     1      -5.353   9.162  19.626  1.00  0.00     0.056 A 
HETATM    6  C6  UNL     1      -5.486  10.589  19.643  1.00  0.00     0.100 C 
HETATM    7  N1  UNL     1      -5.578  11.754  19.650  1.00  0.00    -0.191 NA
HETATM    8  C7  UNL     1      -6.200   8.343  18.836  1.00  0.00     0.008 A 
HETATM    9  C14 UNL     1      -6.072   6.999  18.819  1.00  0.00     0.017 A 
ENDROOT
BRANCH   8  10
HETATM   10  C8  UNL     1      -7.200   9.115  18.121  1.00  0.00    -0.023 A 
HETATM   11  C9  UNL     1      -8.449   9.437  18.609  1.00  0.00     0.015 A 
HETATM   12  C10 UNL     1      -9.332  10.226  17.907  1.00  0.00     0.043 A 
HETATM   13  C11 UNL     1      -8.978  10.720  16.677  1.00  0.00     0.116 A 
HETATM   14  F1  UNL     1      -9.828  11.505  15.952  1.00  0.00    -0.206 F 
HETATM   15  C12 UNL     1      -7.735  10.412  16.171  1.00  0.00     0.043 A 
HETATM   16  C13 UNL     1      -6.867   9.624  16.884  1.00  0.00     0.015 A 
ENDBRANCH   8  10
BRANCH   9  17
HETATM   17  C15 UNL     1      -6.912   6.109  18.035  1.00  0.00     0.090 C 
BRANCH  17  18
HETATM   18  O1  UNL     1      -8.076   5.783  18.761  1.00  0.00    -0.359 OA
ATOM     19  H1  UNL     1      -7.848   5.260  19.521  1.00  0.00     0.217 HD
ENDBRANCH  17  18
BRANCH  17  20
HETATM   20  C16 UNL     1      -7.109   6.336  16.618  1.00  0.00     0.037 A 
HETATM   21  C17 UNL     1      -8.342   6.616  16.084  1.00  0.00     0.019 A 
HETATM   22  C18 UNL     1      -8.522   6.768  14.700  1.00  0.00     0.027 A 
HETATM   23  C19 UNL     1      -7.469   6.642  13.831  1.00  0.00     0.049 A 
HETATM   24  N2  UNL     1      -7.619   6.790  12.416  1.00  0.00    -0.102 NA
HETATM   25  C20 UNL     1      -6.230   6.361  14.355  1.00  0.00     0.069 A 
HETATM   26  C21 UNL     1      -6.074   6.214  15.733  1.00  0.00     0.131 A 
HETATM   27  F2  UNL     1      -4.840   5.950  16.151  1.00  0.00    -0.205 F 
ENDBRANCH  17  20
ENDBRANCH   9  17
TORSDOF 4
ENDMDL
MODEL 5
REMARK VINA RESULT: -8.355517473      2.873      6.981
REMARK  4 active torsions:
REMARK  status: ('A' for Active; 'I' for Inactive)
REMARK    1  A    between atoms: C7_8  and  C8_9 
REMARK    2  A    between atoms: C14_16  and  C15_17 
REMARK    3  A    between atoms: C15_17  and  O1_18 
REMARK    4  A    between atoms: C15_17  and  C16_20 
ROOT
HETATM    1  C1  UNL     1      -6.048   4.090  16.914  1.00  0.00     0.049 C 
HETATM    2  C2  UNL     1      -5.963   5.544  17.330  1.00  0.00    -0.048 A 
HETATM    3  C3  UNL     1      -5.004   5.906  18.229  1.00  0.00     0.009 A 
HETATM    4  C4  UNL     1      -4.890   7.204  18.672  1.00  0.00     0.024 A 
HETATM    5  C5  UNL     1      -5.769   8.139  18.188  1.00  0.00     0.056 A 
HETATM    6  C6  UNL     1      -5.650   9.492  18.648  1.00  0.00     0.100 C 
HETATM    7  N1  UNL     1      -5.536  10.595  19.016  1.00  0.00    -0.191 NA
HETATM    8  C7  UNL     1      -6.764   7.755  17.253  1.00  0.00     0.008 A 
HETATM    9  C14 UNL     1      -6.873   6.481  16.818  1.00  0.00     0.017 A 
ENDROOT
BRANCH   8  10
HETATM   10  C8  UNL     1      -7.628   8.861  16.883  1.00  0.00    -0.023 A 
HETATM   11  C9  UNL     1      -8.746   9.260  17.584  1.00  0.00     0.015 A 
HETATM   12  C10 UNL     1      -9.492  10.357  17.217  1.00  0.00     0.043 A 
HETATM   13  C11 UNL     1      -9.128  11.094  16.119  1.00  0.00     0.116 A 
HETATM   14  F1  UNL     1      -9.844  12.188  15.724  1.00  0.00    -0.206 F 
HETATM   15  C12 UNL     1      -8.014  10.714  15.404  1.00  0.00     0.043 A 
HETATM   16  C13 UNL     1      -7.282   9.617  15.784  1.00  0.00     0.015 A 
ENDBRANCH   8  10
BRANCH   9  17
HETATM   17  C15 UNL     1      -7.873   6.026  15.866  1.00  0.00     0.090 C 
BRANCH  17  18
HETATM   18  O1  UNL     1      -9.092   5.778  16.530  1.00  0.00    -0.359 OA
ATOM     19  H1  UNL     1      -9.721   5.405  15.924  1.00  0.00     0.217 HD
ENDBRANCH  17  18
BRANCH  17  20
HETATM   20  C16 UNL     1      -7.993   6.652  14.565  1.00  0.00     0.037 A 
HETATM   21  C17 UNL     1      -9.074   7.423  14.218  1.00  0.00     0.019 A 
HETATM   22  C18 UNL     1      -9.201   7.967  12.930  1.00  0.00     0.027 A 
HETATM   23  C19 UNL     1      -8.247   7.745  11.971  1.00  0.00     0.049 A 
HETATM   24  N2  UNL     1      -8.348   8.284  10.649  1.00  0.00    -0.102 NA
HETATM   25  C20 UNL     1      -7.161   6.974  12.307  1.00  0.00     0.069 A 
HETATM   26  C21 UNL     1      -7.054   6.444  13.592  1.00  0.00     0.131 A 
HETATM   27  F2  UNL     1      -5.967   5.717  13.831  1.00  0.00    -0.205 F 
ENDBRANCH  17  20
ENDBRANCH   9  17
TORSDOF 4
ENDMDL
