MODEL 1
REMARK VINA RESULT: -8.895577729      0.000      0.000
REMARK  3 active torsions:
REMARK  status: ('A' for Active; 'I' for Inactive)
REMARK    1  A    between atoms: C7_7  and  C8_8 
REMARK    2  A    between atoms: C11_12  and  C12_13 
REMARK    3  A    between atoms: C15_17  and  O1_18 
ROOT
HETATM    1  C1  UNL     1      -9.392   7.169  10.057  1.00  0.00     0.068 C 
HETATM    2  C2  UNL     1      -8.802   7.323  11.431  1.00  0.00     0.007 A 
HETATM    3  C3  UNL     1      -9.154   8.469  12.130  1.00  0.00     0.032 A 
HETATM    4  C4  UNL     1      -8.653   8.683  13.403  1.00  0.00    -0.045 A 
HETATM    5  C5  UNL     1      -9.103   9.778  14.273  1.00  0.00     0.049 C 
HETATM    6  C6  UNL     1      -7.804   7.710  13.905  1.00  0.00     0.028 A 
HETATM    7  C7  UNL     1      -7.202   7.640  15.190  1.00  0.00     0.021 A 
HETATM    8  C11 UNL     1      -6.564   6.439  15.167  1.00  0.00     0.057 A 
HETATM    9  N2  UNL     1      -6.746   5.820  13.940  1.00  0.00    -0.340 N 
ATOM     10  H2  UNL     1      -6.370   4.910  13.671  1.00  0.00     0.167 HD
HETATM   11  C18 UNL     1      -7.484   6.599  13.179  1.00  0.00     0.117 A 
HETATM   12  N3  UNL     1      -7.985   6.400  11.935  1.00  0.00    -0.346 N 
ATOM     13  H3  UNL     1      -7.742   5.567  11.400  1.00  0.00     0.167 HD
ENDROOT
BRANCH   8  14
HETATM   14  C12 UNL     1      -5.660   5.763  16.096  1.00  0.00    -0.002 A 
HETATM   15  C13 UNL     1      -4.546   6.391  16.586  1.00  0.00     0.059 A 
HETATM   16  C14 UNL     1      -3.539   5.708  17.218  1.00  0.00     0.153 A 
HETATM   17  F1  UNL     1      -2.436   6.283  17.668  1.00  0.00    -0.203 F 
HETATM   18  C15 UNL     1      -3.640   4.312  17.363  1.00  0.00     0.143 A 
HETATM   19  C16 UNL     1      -4.731   3.663  16.883  1.00  0.00     0.153 A 
HETATM   20  F2  UNL     1      -4.833   2.301  16.912  1.00  0.00    -0.203 F 
HETATM   21  C17 UNL     1      -5.769   4.401  16.246  1.00  0.00     0.059 A 
BRANCH  18  22
HETATM   22  O1  UNL     1      -2.551   3.710  18.012  1.00  0.00    -0.355 OA
ATOM     23  H1  UNL     1      -2.735   2.858  18.387  1.00  0.00     0.218 HD
ENDBRANCH  18  22
ENDBRANCH   8  14
BRANCH   7  24
HETATM   24  C8  UNL     1      -7.092   8.846  15.979  1.00  0.00     0.099 C 
HETATM   25  N1  UNL     1      -7.394   9.020  17.298  1.00  0.00    -0.398 N 
HETATM   26  C9  UNL     1      -7.260   8.108  18.313  1.00  0.00     0.148 C 
HETATM   27  C10 UNL     1      -7.163  10.377  17.719  1.00  0.00     0.148 C 
ENDBRANCH   7  24
TORSDOF 3
ENDMDL
MODEL 2
REMARK VINA RESULT: -8.743677783      3.711      5.736
REMARK  3 active torsions:
REMARK  status: ('A' for Active; 'I' for Inactive)
REMARK    1  A    between atoms: C7_7  and  C8_8 
REMARK    2  A    between atoms: C11_12  and  C12_13 
REMARK    3  A    between atoms: C15_17  and  O1_18 
ROOT
HETATM    1  C1  UNL     1      -9.448   8.423  11.972  1.00  0.00     0.068 C 
HETATM    2  C2  UNL     1      -8.658   8.407  13.250  1.00  0.00     0.007 A 
HETATM    3  C3  UNL     1      -7.792   7.337  13.429  1.00  0.00     0.032 A 
HETATM    4  C4  UNL     1      -7.028   7.251  14.580  1.00  0.00    -0.045 A 
HETATM    5  C5  UNL     1      -5.971   6.250  14.774  1.00  0.00     0.049 C 
HETATM    6  C6  UNL     1      -7.189   8.269  15.506  1.00  0.00     0.028 A 
HETATM    7  C7  UNL     1      -6.496   8.468  16.731  1.00  0.00     0.021 A 
HETATM    8  C11 UNL     1      -6.981   9.660  17.170  1.00  0.00     0.057 A 
HETATM    9  N2  UNL     1      -7.925  10.153  16.282  1.00  0.00    -0.340 N 
ATOM     10  H2  UNL     1      -8.435  11.031  16.384  1.00  0.00     0.167 HD
HETATM   11  C18 UNL     1      -8.054   9.302  15.288  1.00  0.00     0.117 A 
HETATM   12  N3  UNL     1      -8.794   9.375  14.154  1.00  0.00    -0.346 N 
ATOM     13  H3  UNL     1      -9.438  10.150  13.998  1.00  0.00     0.167 HD
ENDROOT
BRANCH   8  14
HETATM   14  C12 UNL     1      -6.802  10.425  18.403  1.00  0.00    -0.002 A 
HETATM   15  C13 UNL     1      -7.747  11.320  18.828  1.00  0.00     0.059 A 
HETATM   16  C14 UNL     1      -7.491  12.248  19.804  1.00  0.00     0.153 A 
HETATM   17  F1  UNL     1      -8.374  13.146  20.207  1.00  0.00    -0.203 F 
HETATM   18  C15 UNL     1      -6.212  12.298  20.387  1.00  0.00     0.143 A 
HETATM   19  C16 UNL     1      -5.253  11.427  19.982  1.00  0.00     0.153 A 
HETATM   20  F2  UNL     1      -3.970  11.496  20.446  1.00  0.00    -0.203 F 
HETATM   21  C17 UNL     1      -5.554  10.462  18.978  1.00  0.00     0.059 A 
BRANCH  18  22
HETATM   22  O1  UNL     1      -6.052  13.292  21.364  1.00  0.00    -0.355 OA
ATOM     23  H1  UNL     1      -5.220  13.268  21.821  1.00  0.00     0.218 HD
ENDBRANCH  18  22
ENDBRANCH   8  14
BRANCH   7  24
HETATM   24  C8  UNL     1      -5.819   7.347  17.341  1.00  0.00     0.099 C 
HETATM   25  N1  UNL     1      -5.986   6.845  18.599  1.00  0.00    -0.398 N 
HETATM   26  C9  UNL     1      -7.143   6.801  19.334  1.00  0.00     0.148 C 
HETATM   27  C10 UNL     1      -5.115   5.725  18.843  1.00  0.00     0.148 C 
ENDBRANCH   7  24
TORSDOF 3
ENDMDL
MODEL 3
REMARK VINA RESULT: -8.738400515      2.110      2.513
REMARK  3 active torsions:
REMARK  status: ('A' for Active; 'I' for Inactive)
REMARK    1  A    between atoms: C7_7  and  C8_8 
REMARK    2  A    between atoms: C11_12  and  C12_13 
REMARK    3  A    between atoms: C15_17  and  O1_18 
ROOT
HETATM    1  C1  UNL     1      -8.463   7.905  10.974  1.00  0.00     0.068 C 
HETATM    2  C2  UNL     1      -8.365   8.073  12.464  1.00  0.00     0.007 A 
HETATM    3  C3  UNL     1      -8.968   9.202  13.000  1.00  0.00     0.032 A 
HETATM    4  C4  UNL     1      -8.923   9.427  14.365  1.00  0.00    -0.045 A 
HETATM    5  C5  UNL     1      -9.673  10.500  15.031  1.00  0.00     0.049 C 
HETATM    6  C6  UNL     1      -8.251   8.483  15.125  1.00  0.00     0.028 A 
HETATM    7  C7  UNL     1      -8.103   8.428  16.538  1.00  0.00     0.021 A 
HETATM    8  C11 UNL     1      -7.450   7.252  16.734  1.00  0.00     0.057 A 
HETATM    9  N2  UNL     1      -7.196   6.634  15.520  1.00  0.00    -0.340 N 
ATOM     10  H2  UNL     1      -6.719   5.740  15.396  1.00  0.00     0.167 HD
HETATM   11  C18 UNL     1      -7.670   7.388  14.554  1.00  0.00     0.117 A 
HETATM   12  N3  UNL     1      -7.726   7.178  13.215  1.00  0.00    -0.346 N 
ATOM     13  H3  UNL     1      -7.291   6.358  12.796  1.00  0.00     0.167 HD
ENDROOT
BRANCH   8  14
HETATM   14  C12 UNL     1      -6.878   6.605  17.914  1.00  0.00    -0.002 A 
HETATM   15  C13 UNL     1      -6.970   7.179  19.154  1.00  0.00     0.059 A 
HETATM   16  C14 UNL     1      -6.212   6.755  20.215  1.00  0.00     0.153 A 
HETATM   17  F1  UNL     1      -6.255   7.315  21.412  1.00  0.00    -0.203 F 
HETATM   18  C15 UNL     1      -5.297   5.703  20.030  1.00  0.00     0.143 A 
HETATM   19  C16 UNL     1      -5.180   5.119  18.810  1.00  0.00     0.153 A 
HETATM   20  F2  UNL     1      -4.240   4.161  18.554  1.00  0.00    -0.203 F 
HETATM   21  C17 UNL     1      -5.994   5.568  17.731  1.00  0.00     0.059 A 
BRANCH  18  22
HETATM   22  O1  UNL     1      -4.563   5.357  21.175  1.00  0.00    -0.355 OA
ATOM     23  H1  UNL     1      -3.774   5.868  21.309  1.00  0.00     0.218 HD
ENDBRANCH  18  22
ENDBRANCH   8  14
BRANCH   7  24
HETATM   24  C8  UNL     1      -8.304   9.634  17.310  1.00  0.00     0.099 C 
HETATM   25  N1  UNL     1      -7.425  10.250  18.152  1.00  0.00    -0.398 N 
HETATM   26  C9  UNL     1      -6.060  10.317  18.033  1.00  0.00     0.148 C 
HETATM   27  C10 UNL     1      -8.000  11.426  18.750  1.00  0.00     0.148 C 
ENDBRANCH   7  24
TORSDOF 3
ENDMDL
MODEL 4
REMARK VINA RESULT: -8.730717285      4.086      6.335
REMARK  3 active torsions:
REMARK  status: ('A' for Active; 'I' for Inactive)
REMARK    1  A    between atoms: C7_7  and  C8_8 
REMARK    2  A    between atoms: C11_12  and  C12_13 
REMARK    3  A    between atoms: C15_17  and  O1_18 
ROOT
HETATM    1  C1  UNL     1      -4.510   2.162  15.140  1.00  0.00     0.068 C 
HETATM    2  C2  UNL     1      -5.039   3.424  15.763  1.00  0.00     0.007 A 
HETATM    3  C3  UNL     1      -4.778   3.604  17.114  1.00  0.00     0.032 A 
HETATM    4  C4  UNL     1      -5.231   4.741  17.759  1.00  0.00    -0.045 A 
HETATM    5  C5  UNL     1      -4.858   5.090  19.137  1.00  0.00     0.049 C 
HETATM    6  C6  UNL     1      -5.942   5.648  16.989  1.00  0.00     0.028 A 
HETATM    7  C7  UNL     1      -6.463   6.914  17.369  1.00  0.00     0.021 A 
HETATM    8  C11 UNL     1      -6.967   7.403  16.205  1.00  0.00     0.057 A 
HETATM    9  N2  UNL     1      -6.783   6.489  15.179  1.00  0.00    -0.340 N 
ATOM     10  H2  UNL     1      -7.072   6.619  14.209  1.00  0.00     0.167 HD
HETATM   11  C18 UNL     1      -6.176   5.428  15.662  1.00  0.00     0.117 A 
HETATM   12  N3  UNL     1      -5.723   4.311  15.042  1.00  0.00    -0.346 N 
ATOM     13  H3  UNL     1      -5.901   4.153  14.050  1.00  0.00     0.167 HD
ENDROOT
BRANCH   8  14
HETATM   14  C12 UNL     1      -7.742   8.596  15.868  1.00  0.00    -0.002 A 
HETATM   15  C13 UNL     1      -8.329   9.360  16.841  1.00  0.00     0.059 A 
HETATM   16  C14 UNL     1      -9.284  10.301  16.555  1.00  0.00     0.153 A 
HETATM   17  F1  UNL     1      -9.894  11.027  17.478  1.00  0.00    -0.203 F 
HETATM   18  C15 UNL     1      -9.689  10.488  15.221  1.00  0.00     0.143 A 
HETATM   19  C16 UNL     1      -9.128   9.741  14.237  1.00  0.00     0.153 A 
HETATM   20  F2  UNL     1      -9.554   9.815  12.940  1.00  0.00    -0.203 F 
HETATM   21  C17 UNL     1      -8.126   8.783  14.561  1.00  0.00     0.059 A 
BRANCH  18  22
HETATM   22  O1  UNL     1     -10.680  11.465  15.041  1.00  0.00    -0.355 OA
ATOM     23  H1  UNL     1     -11.529  11.240  15.402  1.00  0.00     0.218 HD
ENDBRANCH  18  22
ENDBRANCH   8  14
BRANCH   7  24
HETATM   24  C8  UNL     1      -6.662   7.195  18.774  1.00  0.00     0.099 C 
HETATM   25  N1  UNL     1      -6.042   8.139  19.539  1.00  0.00    -0.398 N 
HETATM   26  C9  UNL     1      -5.611   9.381  19.148  1.00  0.00     0.148 C 
HETATM   27  C10 UNL     1      -6.502   8.101  20.902  1.00  0.00     0.148 C 
ENDBRANCH   7  24
TORSDOF 3
ENDMDL
MODEL 5
REMARK VINA RESULT: -8.730707661      1.270      1.688
REMARK  3 active torsions:
REMARK  status: ('A' for Active; 'I' for Inactive)
REMARK    1  A    between atoms: C7_7  and  C8_8 
REMARK    2  A    between atoms: C11_12  and  C12_13 
REMARK    3  A    between atoms: C15_17  and  O1_18 
ROOT
HETATM    1  C1  UNL     1      -9.231   7.159  10.537  1.00  0.00     0.068 C 
HETATM    2  C2  UNL     1      -8.643   7.336  11.909  1.00  0.00     0.007 A 
HETATM    3  C3  UNL     1      -8.930   8.529  12.557  1.00  0.00     0.032 A 
HETATM    4  C4  UNL     1      -8.426   8.765  13.824  1.00  0.00    -0.045 A 
HETATM    5  C5  UNL     1      -8.815   9.920  14.645  1.00  0.00     0.049 C 
HETATM    6  C6  UNL     1      -7.640   7.765  14.373  1.00  0.00     0.028 A 
HETATM    7  C7  UNL     1      -7.052   7.712  15.666  1.00  0.00     0.021 A 
HETATM    8  C11 UNL     1      -6.487   6.475  15.698  1.00  0.00     0.057 A 
HETATM    9  N2  UNL     1      -6.698   5.818  14.496  1.00  0.00    -0.340 N 
ATOM     10  H2  UNL     1      -6.375   4.877  14.268  1.00  0.00     0.167 HD
HETATM   11  C18 UNL     1      -7.383   6.607  13.698  1.00  0.00     0.117 A 
HETATM   12  N3  UNL     1      -7.886   6.387  12.458  1.00  0.00    -0.346 N 
ATOM     13  H3  UNL     1      -7.690   5.520  11.960  1.00  0.00     0.167 HD
ENDROOT
BRANCH   8  14
HETATM   14  C12 UNL     1      -5.631   5.786  16.662  1.00  0.00    -0.002 A 
HETATM   15  C13 UNL     1      -6.097   5.432  17.900  1.00  0.00     0.059 A 
HETATM   16  C14 UNL     1      -5.259   5.052  18.917  1.00  0.00     0.153 A 
HETATM   17  F1  UNL     1      -5.680   4.740  20.132  1.00  0.00    -0.203 F 
HETATM   18  C15 UNL     1      -3.871   5.033  18.693  1.00  0.00     0.143 A 
HETATM   19  C16 UNL     1      -3.380   5.384  17.478  1.00  0.00     0.153 A 
HETATM   20  F2  UNL     1      -2.038   5.475  17.239  1.00  0.00    -0.203 F 
HETATM   21  C17 UNL     1      -4.275   5.757  16.435  1.00  0.00     0.059 A 
BRANCH  18  22
HETATM   22  O1  UNL     1      -3.104   4.642  19.802  1.00  0.00    -0.355 OA
ATOM     23  H1  UNL     1      -3.236   3.743  20.077  1.00  0.00     0.218 HD
ENDBRANCH  18  22
ENDBRANCH   8  14
BRANCH   7  24
HETATM   24  C8  UNL     1      -6.875   8.942  16.406  1.00  0.00     0.099 C 
HETATM   25  N1  UNL     1      -7.292   9.230  17.672  1.00  0.00    -0.398 N 
HETATM   26  C9  UNL     1      -7.384   8.371  18.737  1.00  0.00     0.148 C 
HETATM   27  C10 UNL     1      -6.938  10.572  18.054  1.00  0.00     0.148 C 
ENDBRANCH   7  24
TORSDOF 3
ENDMDL
