MODEL 1
REMARK VINA RESULT: -5.724769074      0.000      0.000
REMARK  4 active torsions:
REMARK  status: ('A' for Active; 'I' for Inactive)
REMARK    1  A    between atoms: C2_2  and  C4_4 
REMARK    2  A    between atoms: C5_7  and  N2_8 
REMARK    3  A    between atoms: N2_8  and  C6_10 
REMARK    4  A    between atoms: C7_14  and  N4_15 
ROOT
HETATM    1  C4  UNL     1     -19.150 -24.497 -17.599  1.00  0.00     0.055 A 
HETATM    2  N1  UNL     1     -20.338 -25.031 -17.691  1.00  0.00    -0.337 N 
ATOM      3  H1  UNL     1     -20.855 -24.995 -18.569  1.00  0.00     0.168 HD
HETATM    4  C5  UNL     1     -20.865 -25.625 -16.617  1.00  0.00     0.153 A 
HETATM    5  S2  UNL     1     -19.660 -25.433 -15.435  1.00  0.00    -0.028 SA
HETATM    6  C7  UNL     1     -18.499 -24.574 -16.395  1.00  0.00     0.170 A 
ENDROOT
BRANCH   4   7
HETATM    7  N2  UNL     1     -22.056 -26.196 -16.561  1.00  0.00    -0.316 N 
ATOM      8  H2  UNL     1     -22.620 -26.101 -15.716  1.00  0.00     0.170 HD
BRANCH   7   9
HETATM    9  C6  UNL     1     -22.552 -26.927 -17.638  1.00  0.00     0.187 C 
HETATM   10  N3  UNL     1     -21.674 -27.893 -18.220  1.00  0.00    -0.070 NA
HETATM   11  S1  UNL     1     -24.050 -26.709 -18.236  1.00  0.00    -0.044 SA
ENDBRANCH   7   9
ENDBRANCH   4   7
BRANCH   1  12
HETATM   12  C2  UNL     1     -18.439 -23.814 -18.768  1.00  0.00     0.030 C 
HETATM   13  C1  UNL     1     -18.696 -22.292 -18.652  1.00  0.00     0.016 C 
HETATM   14  C3  UNL     1     -19.032 -24.202 -20.090  1.00  0.00     0.016 C 
ENDBRANCH   1  12
BRANCH   6  15
HETATM   15  N4  UNL     1     -17.229 -24.077 -15.969  1.00  0.00    -0.106 N 
HETATM   16  O1  UNL     1     -16.188 -24.717 -16.016  1.00  0.00    -0.531 OA
HETATM   17  O2  UNL     1     -17.207 -22.789 -15.486  1.00  0.00    -0.531 OA
ENDBRANCH   6  15
TORSDOF 4
ENDMDL
MODEL 2
REMARK VINA RESULT: -5.553718940      3.195      3.769
REMARK  4 active torsions:
REMARK  status: ('A' for Active; 'I' for Inactive)
REMARK    1  A    between atoms: C2_2  and  C4_4 
REMARK    2  A    between atoms: C5_7  and  N2_8 
REMARK    3  A    between atoms: N2_8  and  C6_10 
REMARK    4  A    between atoms: C7_14  and  N4_15 
ROOT
HETATM    1  C4  UNL     1     -18.235 -24.360 -16.518  1.00  0.00     0.055 A 
HETATM    2  N1  UNL     1     -18.518 -25.256 -15.611  1.00  0.00    -0.337 N 
ATOM      3  H1  UNL     1     -19.466 -25.621 -15.521  1.00  0.00     0.168 HD
HETATM    4  C5  UNL     1     -17.546 -25.687 -14.802  1.00  0.00     0.153 A 
HETATM    5  S2  UNL     1     -16.187 -24.811 -15.326  1.00  0.00    -0.028 SA
HETATM    6  C7  UNL     1     -16.945 -23.905 -16.595  1.00  0.00     0.170 A 
ENDROOT
BRANCH   4   7
HETATM    7  N2  UNL     1     -17.687 -26.579 -13.836  1.00  0.00    -0.316 N 
ATOM      8  H2  UNL     1     -16.863 -26.916 -13.340  1.00  0.00     0.170 HD
BRANCH   7   9
HETATM    9  C6  UNL     1     -18.945 -27.063 -13.488  1.00  0.00     0.187 C 
HETATM   10  N3  UNL     1     -19.988 -26.098 -13.332  1.00  0.00    -0.070 NA
HETATM   11  S1  UNL     1     -19.247 -28.646 -13.253  1.00  0.00    -0.044 SA
ENDBRANCH   7   9
ENDBRANCH   4   7
BRANCH   1  12
HETATM   12  C2  UNL     1     -19.260 -23.814 -17.513  1.00  0.00     0.030 C 
HETATM   13  C1  UNL     1     -20.638 -23.800 -16.809  1.00  0.00     0.016 C 
HETATM   14  C3  UNL     1     -19.440 -24.725 -18.690  1.00  0.00     0.016 C 
ENDBRANCH   1  12
BRANCH   6  15
HETATM   15  N4  UNL     1     -16.331 -22.929 -17.439  1.00  0.00    -0.106 N 
HETATM   16  O1  UNL     1     -16.668 -22.707 -18.593  1.00  0.00    -0.531 OA
HETATM   17  O2  UNL     1     -15.302 -22.202 -16.886  1.00  0.00    -0.531 OA
ENDBRANCH   6  15
TORSDOF 4
ENDMDL
MODEL 3
REMARK VINA RESULT: -5.537739089      3.675      5.330
REMARK  4 active torsions:
REMARK  status: ('A' for Active; 'I' for Inactive)
REMARK    1  A    between atoms: C2_2  and  C4_4 
REMARK    2  A    between atoms: C5_7  and  N2_8 
REMARK    3  A    between atoms: N2_8  and  C6_10 
REMARK    4  A    between atoms: C7_14  and  N4_15 
ROOT
HETATM    1  C4  UNL     1     -18.657 -24.564 -16.674  1.00  0.00     0.055 A 
HETATM    2  N1  UNL     1     -17.964 -24.861 -15.607  1.00  0.00    -0.337 N 
ATOM      3  H1  UNL     1     -18.366 -25.444 -14.874  1.00  0.00     0.168 HD
HETATM    4  C5  UNL     1     -16.720 -24.387 -15.492  1.00  0.00     0.153 A 
HETATM    5  S2  UNL     1     -16.509 -23.496 -16.923  1.00  0.00    -0.028 SA
HETATM    6  C7  UNL     1     -18.068 -23.777 -17.628  1.00  0.00     0.170 A 
ENDROOT
BRANCH   4   7
HETATM    7  N2  UNL     1     -15.910 -24.595 -14.469  1.00  0.00    -0.316 N 
ATOM      8  H2  UNL     1     -15.628 -23.809 -13.883  1.00  0.00     0.170 HD
BRANCH   7   9
HETATM    9  C6  UNL     1     -15.435 -25.871 -14.180  1.00  0.00     0.187 C 
HETATM   10  N3  UNL     1     -16.308 -26.965 -14.469  1.00  0.00    -0.070 NA
HETATM   11  S1  UNL     1     -13.964 -26.140 -13.536  1.00  0.00    -0.044 SA
ENDBRANCH   7   9
ENDBRANCH   4   7
BRANCH   1  12
HETATM   12  C2  UNL     1     -20.078 -25.071 -16.924  1.00  0.00     0.030 C 
HETATM   13  C1  UNL     1     -21.046 -23.883 -16.714  1.00  0.00     0.016 C 
HETATM   14  C3  UNL     1     -20.497 -26.091 -15.908  1.00  0.00     0.016 C 
ENDBRANCH   1  12
BRANCH   6  15
HETATM   15  N4  UNL     1     -18.556 -23.262 -18.869  1.00  0.00    -0.106 N 
HETATM   16  O1  UNL     1     -18.995 -22.131 -19.021  1.00  0.00    -0.531 OA
HETATM   17  O2  UNL     1     -18.510 -24.117 -19.946  1.00  0.00    -0.531 OA
ENDBRANCH   6  15
TORSDOF 4
ENDMDL
MODEL 4
REMARK VINA RESULT: -5.444225575      2.942      5.210
REMARK  4 active torsions:
REMARK  status: ('A' for Active; 'I' for Inactive)
REMARK    1  A    between atoms: C2_2  and  C4_4 
REMARK    2  A    between atoms: C5_7  and  N2_8 
REMARK    3  A    between atoms: N2_8  and  C6_10 
REMARK    4  A    between atoms: C7_14  and  N4_15 
ROOT
HETATM    1  C4  UNL     1     -19.097 -24.113 -17.352  1.00  0.00     0.055 A 
HETATM    2  N1  UNL     1     -18.000 -23.660 -16.806  1.00  0.00    -0.337 N 
ATOM      3  H1  UNL     1     -17.425 -22.973 -17.291  1.00  0.00     0.168 HD
HETATM    4  C5  UNL     1     -17.644 -24.113 -15.600  1.00  0.00     0.153 A 
HETATM    5  S2  UNL     1     -18.884 -25.209 -15.214  1.00  0.00    -0.028 SA
HETATM    6  C7  UNL     1     -19.833 -25.035 -16.655  1.00  0.00     0.170 A 
ENDROOT
BRANCH   4   7
HETATM    7  N2  UNL     1     -16.561 -23.755 -14.933  1.00  0.00    -0.316 N 
ATOM      8  H2  UNL     1     -16.646 -23.444 -13.966  1.00  0.00     0.170 HD
BRANCH   7   9
HETATM    9  C6  UNL     1     -15.304 -23.797 -15.533  1.00  0.00     0.187 C 
HETATM   10  N3  UNL     1     -14.965 -22.710 -16.396  1.00  0.00    -0.070 NA
HETATM   11  S1  UNL     1     -14.252 -25.016 -15.290  1.00  0.00    -0.044 SA
ENDBRANCH   7   9
ENDBRANCH   4   7
BRANCH   1  12
HETATM   12  C2  UNL     1     -19.615 -23.647 -18.713  1.00  0.00     0.030 C 
HETATM   13  C1  UNL     1     -19.013 -24.580 -19.791  1.00  0.00     0.016 C 
HETATM   14  C3  UNL     1     -19.113 -22.279 -19.067  1.00  0.00     0.016 C 
ENDBRANCH   1  12
BRANCH   6  15
HETATM   15  N4  UNL     1     -21.039 -25.729 -16.980  1.00  0.00    -0.106 N 
HETATM   16  O1  UNL     1     -21.120 -26.614 -17.819  1.00  0.00    -0.531 OA
HETATM   17  O2  UNL     1     -22.164 -25.360 -16.279  1.00  0.00    -0.531 OA
ENDBRANCH   6  15
TORSDOF 4
ENDMDL
MODEL 5
REMARK VINA RESULT: -5.420217534      5.804      7.015
REMARK  4 active torsions:
REMARK  status: ('A' for Active; 'I' for Inactive)
REMARK    1  A    between atoms: C2_2  and  C4_4 
REMARK    2  A    between atoms: C5_7  and  N2_8 
REMARK    3  A    between atoms: N2_8  and  C6_10 
REMARK    4  A    between atoms: C7_14  and  N4_15 
ROOT
HETATM    1  C4  UNL     1     -24.499 -27.033 -17.802  1.00  0.00     0.055 A 
HETATM    2  N1  UNL     1     -24.973 -27.253 -16.606  1.00  0.00    -0.337 N 
ATOM      3  H1  UNL     1     -24.352 -27.524 -15.844  1.00  0.00     0.168 HD
HETATM    4  C5  UNL     1     -26.286 -27.116 -16.395  1.00  0.00     0.153 A 
HETATM    5  S2  UNL     1     -26.879 -26.665 -17.922  1.00  0.00    -0.028 SA
HETATM    6  C7  UNL     1     -25.378 -26.671 -18.789  1.00  0.00     0.170 A 
ENDROOT
BRANCH   4   7
HETATM    7  N2  UNL     1     -26.905 -27.315 -15.245  1.00  0.00    -0.316 N 
ATOM      8  H2  UNL     1     -27.788 -27.825 -15.231  1.00  0.00     0.170 HD
BRANCH   7   9
HETATM    9  C6  UNL     1     -26.369 -26.838 -14.051  1.00  0.00     0.187 C 
HETATM   10  N3  UNL     1     -25.237 -27.536 -13.528  1.00  0.00    -0.070 NA
HETATM   11  S1  UNL     1     -26.984 -25.554 -13.259  1.00  0.00    -0.044 SA
ENDBRANCH   7   9
ENDBRANCH   4   7
BRANCH   1  12
HETATM   12  C2  UNL     1     -23.014 -27.134 -18.152  1.00  0.00     0.030 C 
HETATM   13  C1  UNL     1     -22.623 -28.631 -18.122  1.00  0.00     0.016 C 
HETATM   14  C3  UNL     1     -22.147 -26.491 -17.111  1.00  0.00     0.016 C 
ENDBRANCH   1  12
BRANCH   6  15
HETATM   15  N4  UNL     1     -25.186 -26.393 -20.177  1.00  0.00    -0.106 N 
HETATM   16  O1  UNL     1     -24.859 -27.228 -21.008  1.00  0.00    -0.531 OA
HETATM   17  O2  UNL     1     -25.397 -25.092 -20.576  1.00  0.00    -0.531 OA
ENDBRANCH   6  15
TORSDOF 4
ENDMDL
