MODEL 1
REMARK VINA RESULT: -7.353990790      0.000      0.000
REMARK  5 active torsions:
REMARK  status: ('A' for Active; 'I' for Inactive)
REMARK    1  A    between atoms: C1_4  and  N2_5 
REMARK    2  A    between atoms: C1_4  and  C9_16 
REMARK    3  A    between atoms: N2_5  and  O1_7 
REMARK    4  A    between atoms: O1_7  and  C2_8 
REMARK    5  A    between atoms: C2_8  and  C3_10 
ROOT
HETATM    1  N1  UNL     1     -17.546 -23.866 -19.097  1.00  0.00    -0.383 N 
ATOM      2  H11 UNL     1     -18.033 -24.646 -19.538  1.00  0.00     0.157 HD
ATOM      3  H12 UNL     1     -16.683 -23.485 -19.485  1.00  0.00     0.157 HD
HETATM    4  C1  UNL     1     -18.108 -23.414 -18.026  1.00  0.00     0.130 C 
ENDROOT
BRANCH   4   5
HETATM    5  N2  UNL     1     -17.425 -22.320 -17.407  1.00  0.00    -0.241 N 
ATOM      6  H2  UNL     1     -17.312 -21.431 -17.893  1.00  0.00     0.196 HD
BRANCH   5   7
HETATM    7  O1  UNL     1     -16.925 -22.497 -16.142  1.00  0.00    -0.193 OA
BRANCH   7   8
HETATM    8  C2  UNL     1     -15.740 -23.153 -15.878  1.00  0.00     0.315 C 
HETATM    9  O2  UNL     1     -14.684 -22.778 -16.433  1.00  0.00    -0.257 OA
BRANCH   8  10
HETATM   10  C3  UNL     1     -15.691 -24.277 -14.962  1.00  0.00     0.041 A 
HETATM   11  C4  UNL     1     -14.908 -24.187 -13.817  1.00  0.00     0.017 A 
HETATM   12  C5  UNL     1     -14.836 -25.234 -12.923  1.00  0.00     0.001 A 
HETATM   13  C6  UNL     1     -15.549 -26.393 -13.162  1.00  0.00     0.000 A 
HETATM   14  C7  UNL     1     -16.345 -26.517 -14.301  1.00  0.00     0.001 A 
HETATM   15  C8  UNL     1     -16.385 -25.446 -15.162  1.00  0.00     0.017 A 
ENDBRANCH   8  10
ENDBRANCH   7   8
ENDBRANCH   5   7
ENDBRANCH   4   5
BRANCH   4  16
HETATM   16  C9  UNL     1     -19.337 -23.958 -17.473  1.00  0.00     0.012 A 
HETATM   17  C10 UNL     1     -19.464 -24.495 -16.217  1.00  0.00     0.032 A 
HETATM   18  C11 UNL     1     -20.658 -24.998 -15.743  1.00  0.00     0.088 A 
HETATM   19  N3  UNL     1     -21.755 -24.962 -16.554  1.00  0.00    -0.375 N 
HETATM   20  C12 UNL     1     -21.683 -24.443 -17.799  1.00  0.00     0.088 A 
ATOM     21  H3  UNL     1     -22.643 -25.332 -16.214  1.00  0.00     0.164 HD
HETATM   22  C13 UNL     1     -20.465 -23.939 -18.260  1.00  0.00     0.032 A 
ENDBRANCH   4  16
TORSDOF 5
ENDMDL
MODEL 2
REMARK VINA RESULT: -7.320469637      0.031      1.125
REMARK  5 active torsions:
REMARK  status: ('A' for Active; 'I' for Inactive)
REMARK    1  A    between atoms: C1_4  and  N2_5 
REMARK    2  A    between atoms: C1_4  and  C9_16 
REMARK    3  A    between atoms: N2_5  and  O1_7 
REMARK    4  A    between atoms: O1_7  and  C2_8 
REMARK    5  A    between atoms: C2_8  and  C3_10 
ROOT
HETATM    1  N1  UNL     1     -17.542 -23.865 -19.084  1.00  0.00    -0.383 N 
ATOM      2  H11 UNL     1     -18.029 -24.646 -19.525  1.00  0.00     0.157 HD
ATOM      3  H12 UNL     1     -16.677 -23.487 -19.468  1.00  0.00     0.157 HD
HETATM    4  C1  UNL     1     -18.110 -23.408 -18.018  1.00  0.00     0.130 C 
ENDROOT
BRANCH   4   5
HETATM    5  N2  UNL     1     -17.428 -22.312 -17.399  1.00  0.00    -0.241 N 
ATOM      6  H2  UNL     1     -17.324 -21.421 -17.882  1.00  0.00     0.196 HD
BRANCH   5   7
HETATM    7  O1  UNL     1     -16.917 -22.493 -16.139  1.00  0.00    -0.193 OA
BRANCH   7   8
HETATM    8  C2  UNL     1     -15.728 -23.144 -15.888  1.00  0.00     0.315 C 
HETATM    9  O2  UNL     1     -14.684 -22.783 -16.475  1.00  0.00    -0.257 OA
BRANCH   8  10
HETATM   10  C3  UNL     1     -15.658 -24.248 -14.948  1.00  0.00     0.041 A 
HETATM   11  C4  UNL     1     -16.388 -25.403 -15.201  1.00  0.00     0.017 A 
HETATM   12  C5  UNL     1     -16.347 -26.473 -14.332  1.00  0.00     0.001 A 
HETATM   13  C6  UNL     1     -15.573 -26.402 -13.191  1.00  0.00     0.000 A 
HETATM   14  C7  UNL     1     -14.828 -25.257 -12.905  1.00  0.00     0.001 A 
HETATM   15  C8  UNL     1     -14.901 -24.218 -13.802  1.00  0.00     0.017 A 
ENDBRANCH   8  10
ENDBRANCH   7   8
ENDBRANCH   5   7
ENDBRANCH   4   5
BRANCH   4  16
HETATM   16  C9  UNL     1     -19.344 -23.947 -17.470  1.00  0.00     0.012 A 
HETATM   17  C10 UNL     1     -19.481 -24.476 -16.213  1.00  0.00     0.032 A 
HETATM   18  C11 UNL     1     -20.678 -24.974 -15.744  1.00  0.00     0.088 A 
HETATM   19  N3  UNL     1     -21.770 -24.941 -16.563  1.00  0.00    -0.375 N 
HETATM   20  C12 UNL     1     -21.688 -24.430 -17.811  1.00  0.00     0.088 A 
ATOM     21  H3  UNL     1     -22.662 -25.307 -16.227  1.00  0.00     0.164 HD
HETATM   22  C13 UNL     1     -20.467 -23.929 -18.266  1.00  0.00     0.032 A 
ENDBRANCH   4  16
TORSDOF 5
ENDMDL
MODEL 3
REMARK VINA RESULT: -7.304690282      0.113      1.114
REMARK  5 active torsions:
REMARK  status: ('A' for Active; 'I' for Inactive)
REMARK    1  A    between atoms: C1_4  and  N2_5 
REMARK    2  A    between atoms: C1_4  and  C9_16 
REMARK    3  A    between atoms: N2_5  and  O1_7 
REMARK    4  A    between atoms: O1_7  and  C2_8 
REMARK    5  A    between atoms: C2_8  and  C3_10 
ROOT
HETATM    1  N1  UNL     1     -17.409 -23.825 -19.083  1.00  0.00    -0.383 N 
ATOM      2  H11 UNL     1     -17.890 -24.586 -19.562  1.00  0.00     0.157 HD
ATOM      3  H12 UNL     1     -16.509 -23.471 -19.407  1.00  0.00     0.157 HD
HETATM    4  C1  UNL     1     -18.029 -23.358 -18.050  1.00  0.00     0.130 C 
ENDROOT
BRANCH   4   5
HETATM    5  N2  UNL     1     -17.354 -22.290 -17.379  1.00  0.00    -0.241 N 
ATOM      6  H2  UNL     1     -17.232 -21.384 -17.829  1.00  0.00     0.196 HD
BRANCH   5   7
HETATM    7  O1  UNL     1     -16.877 -22.517 -16.113  1.00  0.00    -0.193 OA
BRANCH   7   8
HETATM    8  C2  UNL     1     -15.711 -23.208 -15.854  1.00  0.00     0.315 C 
HETATM    9  O2  UNL     1     -14.646 -22.862 -16.409  1.00  0.00    -0.257 OA
BRANCH   8  10
HETATM   10  C3  UNL     1     -15.693 -24.336 -14.942  1.00  0.00     0.041 A 
HETATM   11  C4  UNL     1     -14.876 -24.291 -13.819  1.00  0.00     0.017 A 
HETATM   12  C5  UNL     1     -14.832 -25.343 -12.930  1.00  0.00     0.001 A 
HETATM   13  C6  UNL     1     -15.609 -26.463 -13.151  1.00  0.00     0.000 A 
HETATM   14  C7  UNL     1     -16.441 -26.543 -14.268  1.00  0.00     0.001 A 
HETATM   15  C8  UNL     1     -16.451 -25.468 -15.125  1.00  0.00     0.017 A 
ENDBRANCH   8  10
ENDBRANCH   7   8
ENDBRANCH   5   7
ENDBRANCH   4   5
BRANCH   4  16
HETATM   16  C9  UNL     1     -19.312 -23.862 -17.588  1.00  0.00     0.012 A 
HETATM   17  C10 UNL     1     -20.457 -23.903 -18.341  1.00  0.00     0.032 A 
HETATM   18  C11 UNL     1     -21.650 -24.393 -17.850  1.00  0.00     0.088 A 
HETATM   19  N3  UNL     1     -21.693 -24.855 -16.566  1.00  0.00    -0.375 N 
HETATM   20  C12 UNL     1     -20.591 -24.836 -15.783  1.00  0.00     0.088 A 
ATOM     21  H3  UNL     1     -22.569 -25.219 -16.192  1.00  0.00     0.164 HD
HETATM   22  C13 UNL     1     -19.394 -24.337 -16.299  1.00  0.00     0.032 A 
ENDBRANCH   4  16
TORSDOF 5
ENDMDL
MODEL 4
REMARK VINA RESULT: -7.189381269      2.411      5.402
REMARK  5 active torsions:
REMARK  status: ('A' for Active; 'I' for Inactive)
REMARK    1  A    between atoms: C1_4  and  N2_5 
REMARK    2  A    between atoms: C1_4  and  C9_16 
REMARK    3  A    between atoms: N2_5  and  O1_7 
REMARK    4  A    between atoms: O1_7  and  C2_8 
REMARK    5  A    between atoms: C2_8  and  C3_10 
ROOT
HETATM    1  N1  UNL     1     -14.090 -24.918 -15.657  1.00  0.00    -0.383 N 
ATOM      2  H11 UNL     1     -13.818 -25.888 -15.822  1.00  0.00     0.157 HD
ATOM      3  H12 UNL     1     -13.658 -24.147 -16.165  1.00  0.00     0.157 HD
HETATM    4  C1  UNL     1     -15.012 -24.760 -14.766  1.00  0.00     0.130 C 
ENDROOT
BRANCH   4   5
HETATM    5  N2  UNL     1     -15.393 -23.400 -14.536  1.00  0.00    -0.241 N 
ATOM      6  H2  UNL     1     -14.859 -22.808 -13.900  1.00  0.00     0.196 HD
BRANCH   5   7
HETATM    7  O1  UNL     1     -16.495 -22.914 -15.191  1.00  0.00    -0.193 OA
BRANCH   7   8
HETATM    8  C2  UNL     1     -16.569 -22.789 -16.563  1.00  0.00     0.315 C 
HETATM    9  O2  UNL     1     -15.582 -22.367 -17.204  1.00  0.00    -0.257 OA
BRANCH   8  10
HETATM   10  C3  UNL     1     -17.778 -23.140 -17.285  1.00  0.00     0.041 A 
HETATM   11  C4  UNL     1     -18.858 -23.669 -16.590  1.00  0.00     0.017 A 
HETATM   12  C5  UNL     1     -20.023 -24.014 -17.241  1.00  0.00     0.001 A 
HETATM   13  C6  UNL     1     -20.125 -23.835 -18.607  1.00  0.00     0.000 A 
HETATM   14  C7  UNL     1     -19.060 -23.306 -19.337  1.00  0.00     0.001 A 
HETATM   15  C8  UNL     1     -17.920 -22.977 -18.643  1.00  0.00     0.017 A 
ENDBRANCH   8  10
ENDBRANCH   7   8
ENDBRANCH   5   7
ENDBRANCH   4   5
BRANCH   4  16
HETATM   16  C9  UNL     1     -15.627 -25.859 -14.042  1.00  0.00     0.012 A 
HETATM   17  C10 UNL     1     -16.809 -26.463 -14.387  1.00  0.00     0.032 A 
HETATM   18  C11 UNL     1     -17.349 -27.505 -13.662  1.00  0.00     0.088 A 
HETATM   19  N3  UNL     1     -16.682 -27.953 -12.559  1.00  0.00    -0.375 N 
HETATM   20  C12 UNL     1     -15.513 -27.393 -12.177  1.00  0.00     0.088 A 
ATOM     21  H3  UNL     1     -17.071 -28.723 -12.014  1.00  0.00     0.164 HD
HETATM   22  C13 UNL     1     -14.984 -26.339 -12.925  1.00  0.00     0.032 A 
ENDBRANCH   4  16
TORSDOF 5
ENDMDL
MODEL 5
REMARK VINA RESULT: -7.187556279      2.434      5.333
REMARK  5 active torsions:
REMARK  status: ('A' for Active; 'I' for Inactive)
REMARK    1  A    between atoms: C1_4  and  N2_5 
REMARK    2  A    between atoms: C1_4  and  C9_16 
REMARK    3  A    between atoms: N2_5  and  O1_7 
REMARK    4  A    between atoms: O1_7  and  C2_8 
REMARK    5  A    between atoms: C2_8  and  C3_10 
ROOT
HETATM    1  N1  UNL     1     -14.052 -24.996 -15.621  1.00  0.00    -0.383 N 
ATOM      2  H11 UNL     1     -13.762 -25.963 -15.770  1.00  0.00     0.157 HD
ATOM      3  H12 UNL     1     -13.652 -24.228 -16.159  1.00  0.00     0.157 HD
HETATM    4  C1  UNL     1     -14.953 -24.837 -14.710  1.00  0.00     0.130 C 
ENDROOT
BRANCH   4   5
HETATM    5  N2  UNL     1     -15.360 -23.481 -14.501  1.00  0.00    -0.241 N 
ATOM      6  H2  UNL     1     -14.829 -22.865 -13.886  1.00  0.00     0.196 HD
BRANCH   5   7
HETATM    7  O1  UNL     1     -16.482 -23.032 -15.148  1.00  0.00    -0.193 OA
BRANCH   7   8
HETATM    8  C2  UNL     1     -16.549 -22.849 -16.514  1.00  0.00     0.315 C 
HETATM    9  O2  UNL     1     -15.557 -22.404 -17.132  1.00  0.00    -0.257 OA
BRANCH   8  10
HETATM   10  C3  UNL     1     -17.755 -23.163 -17.257  1.00  0.00     0.041 A 
HETATM   11  C4  UNL     1     -18.856 -23.675 -16.581  1.00  0.00     0.017 A 
HETATM   12  C5  UNL     1     -20.020 -23.986 -17.253  1.00  0.00     0.001 A 
HETATM   13  C6  UNL     1     -20.099 -23.790 -18.617  1.00  0.00     0.000 A 
HETATM   14  C7  UNL     1     -19.013 -23.278 -19.327  1.00  0.00     0.001 A 
HETATM   15  C8  UNL     1     -17.875 -22.982 -18.614  1.00  0.00     0.017 A 
ENDBRANCH   8  10
ENDBRANCH   7   8
ENDBRANCH   5   7
ENDBRANCH   4   5
BRANCH   4  16
HETATM   16  C9  UNL     1     -15.523 -25.932 -13.943  1.00  0.00     0.012 A 
HETATM   17  C10 UNL     1     -14.961 -26.481 -12.820  1.00  0.00     0.032 A 
HETATM   18  C11 UNL     1     -15.547 -27.523 -12.130  1.00  0.00     0.088 A 
HETATM   19  N3  UNL     1     -16.732 -28.027 -12.583  1.00  0.00    -0.375 N 
HETATM   20  C12 UNL     1     -17.327 -27.521 -13.685  1.00  0.00     0.088 A 
ATOM     21  H3  UNL     1     -17.175 -28.797 -12.082  1.00  0.00     0.164 HD
HETATM   22  C13 UNL     1     -16.718 -26.467 -14.369  1.00  0.00     0.032 A 
ENDBRANCH   4  16
TORSDOF 5
ENDMDL
