MODEL 1
REMARK VINA RESULT: -6.355003245      0.000      0.000
REMARK  5 active torsions:
REMARK  status: ('A' for Active; 'I' for Inactive)
REMARK    1  A    between atoms: C2_2  and  C3_3 
REMARK    2  A    between atoms: C5_7  and  C6_8 
REMARK    3  A    between atoms: C6_8  and  O3_10 
REMARK    4  A    between atoms: C10_14  and  C11_15 
REMARK    5  A    between atoms: C11_15  and  O4_18 
ROOT
HETATM    1  C3  UNL     1     -22.239 -26.556 -16.447  1.00  0.00     0.114 C 
HETATM    2  C4  UNL     1     -21.637 -27.099 -17.714  1.00  0.00     0.267 C 
HETATM    3  O1  UNL     1     -21.765 -28.277 -18.057  1.00  0.00    -0.265 OA
HETATM    4  O2  UNL     1     -20.936 -26.200 -18.467  1.00  0.00    -0.312 OA
HETATM    5  C5  UNL     1     -20.529 -24.995 -17.793  1.00  0.00     0.164 C 
HETATM    6  C8  UNL     1     -20.158 -25.260 -16.367  1.00  0.00     0.022 C 
HETATM    7  C9  UNL     1     -19.875 -23.906 -15.734  1.00  0.00     0.013 C 
HETATM    8  C10 UNL     1     -21.204 -25.997 -15.561  1.00  0.00     0.043 C 
ENDROOT
BRANCH   8   9
HETATM    9  C11 UNL     1     -20.622 -26.868 -14.506  1.00  0.00     0.056 C 
HETATM   10  C12 UNL     1     -21.287 -26.732 -13.159  1.00  0.00     0.045 C 
HETATM   11  C13 UNL     1     -19.145 -26.558 -14.247  1.00  0.00     0.045 C 
BRANCH   9  12
HETATM   12  O4  UNL     1     -20.618 -28.225 -14.857  1.00  0.00    -0.390 OA
ATOM     13  H4  UNL     1     -20.683 -28.803 -14.106  1.00  0.00     0.210 HD
ENDBRANCH   9  12
ENDBRANCH   8   9
BRANCH   1  14
HETATM   14  C2  UNL     1     -23.156 -27.565 -15.963  1.00  0.00    -0.022 C 
HETATM   15  C1  UNL     1     -24.296 -27.224 -15.385  1.00  0.00     0.008 C 
ENDBRANCH   1  14
BRANCH   5  16
HETATM   16  C6  UNL     1     -19.250 -24.614 -18.552  1.00  0.00     0.144 C 
HETATM   17  C7  UNL     1     -19.288 -23.158 -18.948  1.00  0.00     0.042 C 
BRANCH  16  18
HETATM   18  O3  UNL     1     -18.944 -25.470 -19.563  1.00  0.00    -0.393 OA
ATOM     19  H3  UNL     1     -19.440 -25.310 -20.357  1.00  0.00     0.210 HD
ENDBRANCH  16  18
ENDBRANCH   5  16
TORSDOF 5
ENDMDL
MODEL 2
REMARK VINA RESULT: -6.046015785      2.983      6.240
REMARK  5 active torsions:
REMARK  status: ('A' for Active; 'I' for Inactive)
REMARK    1  A    between atoms: C2_2  and  C3_3 
REMARK    2  A    between atoms: C5_7  and  C6_8 
REMARK    3  A    between atoms: C6_8  and  O3_10 
REMARK    4  A    between atoms: C10_14  and  C11_15 
REMARK    5  A    between atoms: C11_15  and  O4_18 
ROOT
HETATM    1  C3  UNL     1     -23.362 -26.845 -17.288  1.00  0.00     0.114 C 
HETATM    2  C4  UNL     1     -22.621 -28.110 -17.623  1.00  0.00     0.267 C 
HETATM    3  O1  UNL     1     -21.655 -28.129 -18.391  1.00  0.00    -0.265 OA
HETATM    4  O2  UNL     1     -23.087 -29.245 -17.022  1.00  0.00    -0.312 OA
HETATM    5  C5  UNL     1     -24.419 -29.169 -16.481  1.00  0.00     0.164 C 
HETATM    6  C8  UNL     1     -25.314 -28.328 -17.338  1.00  0.00     0.022 C 
HETATM    7  C9  UNL     1     -26.641 -28.220 -16.601  1.00  0.00     0.013 C 
HETATM    8  C10 UNL     1     -24.785 -26.946 -17.651  1.00  0.00     0.043 C 
ENDROOT
BRANCH   8   9
HETATM    9  C11 UNL     1     -25.220 -26.443 -18.981  1.00  0.00     0.056 C 
HETATM   10  C12 UNL     1     -24.938 -24.978 -19.206  1.00  0.00     0.045 C 
HETATM   11  C13 UNL     1     -26.729 -26.590 -19.192  1.00  0.00     0.045 C 
BRANCH   9  12
HETATM   12  O4  UNL     1     -24.665 -27.164 -20.047  1.00  0.00    -0.390 OA
ATOM     13  H4  UNL     1     -25.136 -27.039 -20.863  1.00  0.00     0.210 HD
ENDBRANCH   9  12
ENDBRANCH   8   9
BRANCH   1  14
HETATM   14  C2  UNL     1     -22.552 -25.752 -17.782  1.00  0.00    -0.022 C 
HETATM   15  C1  UNL     1     -21.801 -25.038 -16.959  1.00  0.00     0.008 C 
ENDBRANCH   1  14
BRANCH   5  16
HETATM   16  C6  UNL     1     -24.895 -30.625 -16.585  1.00  0.00     0.144 C 
HETATM   17  C7  UNL     1     -23.965 -31.537 -15.824  1.00  0.00     0.042 C 
BRANCH  16  18
HETATM   18  O3  UNL     1     -25.161 -31.019 -17.858  1.00  0.00    -0.393 OA
ATOM     19  H3  UNL     1     -24.742 -30.478 -18.517  1.00  0.00     0.210 HD
ENDBRANCH  16  18
ENDBRANCH   5  16
TORSDOF 5
ENDMDL
MODEL 3
REMARK VINA RESULT: -6.029159494      3.081      4.473
REMARK  5 active torsions:
REMARK  status: ('A' for Active; 'I' for Inactive)
REMARK    1  A    between atoms: C2_2  and  C3_3 
REMARK    2  A    between atoms: C5_7  and  C6_8 
REMARK    3  A    between atoms: C6_8  and  O3_10 
REMARK    4  A    between atoms: C10_14  and  C11_15 
REMARK    5  A    between atoms: C11_15  and  O4_18 
ROOT
HETATM    1  C3  UNL     1     -24.366 -27.871 -16.851  1.00  0.00     0.114 C 
HETATM    2  C4  UNL     1     -24.822 -28.736 -17.993  1.00  0.00     0.267 C 
HETATM    3  O1  UNL     1     -24.643 -29.957 -18.014  1.00  0.00    -0.265 OA
HETATM    4  O2  UNL     1     -25.454 -28.082 -19.014  1.00  0.00    -0.312 OA
HETATM    5  C5  UNL     1     -25.257 -26.657 -19.066  1.00  0.00     0.164 C 
HETATM    6  C8  UNL     1     -23.870 -26.277 -18.648  1.00  0.00     0.022 C 
HETATM    7  C9  UNL     1     -23.829 -24.756 -18.619  1.00  0.00     0.013 C 
HETATM    8  C10 UNL     1     -23.432 -26.829 -17.310  1.00  0.00     0.043 C 
ENDROOT
BRANCH   8   9
HETATM    9  C11 UNL     1     -21.972 -27.099 -17.240  1.00  0.00     0.056 C 
HETATM   10  C12 UNL     1     -21.476 -27.450 -15.859  1.00  0.00     0.045 C 
HETATM   11  C13 UNL     1     -21.136 -25.887 -17.661  1.00  0.00     0.045 C 
BRANCH   9  12
HETATM   12  O4  UNL     1     -21.559 -28.107 -18.122  1.00  0.00    -0.390 OA
ATOM     13  H4  UNL     1     -20.623 -28.097 -18.284  1.00  0.00     0.210 HD
ENDBRANCH   9  12
ENDBRANCH   8   9
BRANCH   1  14
HETATM   14  C2  UNL     1     -23.998 -28.769 -15.778  1.00  0.00    -0.022 C 
HETATM   15  C1  UNL     1     -24.722 -28.840 -14.673  1.00  0.00     0.008 C 
ENDBRANCH   1  14
BRANCH   5  16
HETATM   16  C6  UNL     1     -25.397 -26.364 -20.566  1.00  0.00     0.144 C 
HETATM   17  C7  UNL     1     -26.835 -26.067 -20.912  1.00  0.00     0.042 C 
BRANCH  16  18
HETATM   18  O3  UNL     1     -24.802 -27.295 -21.358  1.00  0.00    -0.393 OA
ATOM     19  H3  UNL     1     -24.864 -27.098 -22.285  1.00  0.00     0.210 HD
ENDBRANCH  16  18
ENDBRANCH   5  16
TORSDOF 5
ENDMDL
MODEL 4
REMARK VINA RESULT: -5.904812325      3.224      5.043
REMARK  5 active torsions:
REMARK  status: ('A' for Active; 'I' for Inactive)
REMARK    1  A    between atoms: C2_2  and  C3_3 
REMARK    2  A    between atoms: C5_7  and  C6_8 
REMARK    3  A    between atoms: C6_8  and  O3_10 
REMARK    4  A    between atoms: C10_14  and  C11_15 
REMARK    5  A    between atoms: C11_15  and  O4_18 
ROOT
HETATM    1  C3  UNL     1     -23.367 -27.832 -17.310  1.00  0.00     0.114 C 
HETATM    2  C4  UNL     1     -23.055 -26.486 -17.904  1.00  0.00     0.267 C 
HETATM    3  O1  UNL     1     -22.015 -25.873 -17.648  1.00  0.00    -0.265 OA
HETATM    4  O2  UNL     1     -24.001 -25.980 -18.751  1.00  0.00    -0.312 OA
HETATM    5  C5  UNL     1     -25.308 -26.578 -18.664  1.00  0.00     0.164 C 
HETATM    6  C8  UNL     1     -25.653 -26.945 -17.254  1.00  0.00     0.022 C 
HETATM    7  C9  UNL     1     -26.985 -27.677 -17.312  1.00  0.00     0.013 C 
HETATM    8  C10 UNL     1     -24.626 -27.801 -16.546  1.00  0.00     0.043 C 
ENDROOT
BRANCH   8   9
HETATM    9  C11 UNL     1     -24.565 -27.549 -15.082  1.00  0.00     0.056 C 
HETATM   10  C12 UNL     1     -24.352 -28.791 -14.253  1.00  0.00     0.045 C 
HETATM   11  C13 UNL     1     -25.861 -26.936 -14.545  1.00  0.00     0.045 C 
BRANCH   9  12
HETATM   12  O4  UNL     1     -23.585 -26.612 -14.727  1.00  0.00    -0.390 OA
ATOM     13  H4  UNL     1     -22.728 -27.002 -14.600  1.00  0.00     0.210 HD
ENDBRANCH   9  12
ENDBRANCH   8   9
BRANCH   1  14
HETATM   14  C2  UNL     1     -22.144 -28.303 -16.695  1.00  0.00    -0.022 C 
HETATM   15  C1  UNL     1     -21.758 -29.561 -16.829  1.00  0.00     0.008 C 
ENDBRANCH   1  14
BRANCH   5  16
HETATM   16  C6  UNL     1     -26.223 -25.422 -19.090  1.00  0.00     0.144 C 
HETATM   17  C7  UNL     1     -26.985 -25.787 -20.340  1.00  0.00     0.042 C 
BRANCH  16  18
HETATM   18  O3  UNL     1     -25.590 -24.220 -19.141  1.00  0.00    -0.393 OA
ATOM     19  H3  UNL     1     -26.075 -23.518 -18.725  1.00  0.00     0.210 HD
ENDBRANCH  16  18
ENDBRANCH   5  16
TORSDOF 5
ENDMDL
MODEL 5
REMARK VINA RESULT: -5.902017958      2.527      5.748
REMARK  5 active torsions:
REMARK  status: ('A' for Active; 'I' for Inactive)
REMARK    1  A    between atoms: C2_2  and  C3_3 
REMARK    2  A    between atoms: C5_7  and  C6_8 
REMARK    3  A    between atoms: C6_8  and  O3_10 
REMARK    4  A    between atoms: C10_14  and  C11_15 
REMARK    5  A    between atoms: C11_15  and  O4_18 
ROOT
HETATM    1  C3  UNL     1     -17.417 -23.736 -15.758  1.00  0.00     0.114 C 
HETATM    2  C4  UNL     1     -17.180 -25.157 -15.328  1.00  0.00     0.267 C 
HETATM    3  O1  UNL     1     -16.113 -25.743 -15.533  1.00  0.00    -0.265 OA
HETATM    4  O2  UNL     1     -18.225 -25.765 -14.692  1.00  0.00    -0.312 OA
HETATM    5  C5  UNL     1     -19.512 -25.142 -14.860  1.00  0.00     0.164 C 
HETATM    6  C8  UNL     1     -19.673 -24.572 -16.236  1.00  0.00     0.022 C 
HETATM    7  C9  UNL     1     -21.005 -23.836 -16.245  1.00  0.00     0.013 C 
HETATM    8  C10 UNL     1     -18.566 -23.639 -16.674  1.00  0.00     0.043 C 
ENDROOT
BRANCH   8   9
HETATM    9  C11 UNL     1     -18.315 -23.679 -18.139  1.00  0.00     0.056 C 
HETATM   10  C12 UNL     1     -18.675 -22.404 -18.860  1.00  0.00     0.045 C 
HETATM   11  C13 UNL     1     -19.132 -24.770 -18.838  1.00  0.00     0.045 C 
BRANCH   9  12
HETATM   12  O4  UNL     1     -16.990 -24.003 -18.459  1.00  0.00    -0.390 OA
ATOM     13  H4  UNL     1     -16.708 -24.827 -18.080  1.00  0.00     0.210 HD
ENDBRANCH   9  12
ENDBRANCH   8   9
BRANCH   1  14
HETATM   14  C2  UNL     1     -16.127 -23.200 -16.135  1.00  0.00    -0.022 C 
HETATM   15  C1  UNL     1     -15.196 -22.969 -15.225  1.00  0.00     0.008 C 
ENDBRANCH   1  14
BRANCH   5  16
HETATM   16  C6  UNL     1     -20.470 -26.334 -14.727  1.00  0.00     0.144 C 
HETATM   17  C7  UNL     1     -20.112 -27.164 -13.518  1.00  0.00     0.042 C 
BRANCH  16  18
HETATM   18  O3  UNL     1     -20.619 -27.041 -15.878  1.00  0.00    -0.393 OA
ATOM     19  H3  UNL     1     -21.031 -26.546 -16.576  1.00  0.00     0.210 HD
ENDBRANCH  16  18
ENDBRANCH   5  16
TORSDOF 5
ENDMDL
