MODEL 1
REMARK VINA RESULT: -7.222832066      0.000      0.000
REMARK  2 active torsions:
REMARK  status: ('A' for Active; 'I' for Inactive)
REMARK    1  A    between atoms: C2_3  and  C3_4 
REMARK    2  A    between atoms: N3_12  and  O2_13 
ROOT
HETATM    1  O1  UNL     1      -5.128  -0.011  20.666  1.00  0.00    -0.285 OA
HETATM    2  C1  UNL     1      -4.823  -1.169  20.293  1.00  0.00     0.217 A 
HETATM    3  C2  UNL     1      -4.062  -1.570  19.097  1.00  0.00     0.157 A 
HETATM    4  N3  UNL     1      -3.979  -2.872  19.103  1.00  0.00    -0.216 N 
HETATM    5  C7  UNL     1      -4.636  -3.416  20.227  1.00  0.00     0.077 A 
HETATM    6  C8  UNL     1      -4.814  -4.721  20.656  1.00  0.00     0.033 A 
HETATM    7  C9  UNL     1      -5.512  -5.011  21.821  1.00  0.00     0.002 A 
HETATM    8  C10 UNL     1      -6.044  -3.993  22.578  1.00  0.00     0.001 A 
HETATM    9  C11 UNL     1      -5.866  -2.705  22.151  1.00  0.00     0.018 A 
HETATM   10  C12 UNL     1      -5.176  -2.397  20.996  1.00  0.00     0.046 A 
ENDROOT
BRANCH   3  11
HETATM   11  C3  UNL     1      -3.504  -0.683  18.098  1.00  0.00     0.139 A 
HETATM   12  N1  UNL     1      -3.386  -1.083  16.827  1.00  0.00    -0.350 N 
HETATM   13  C4  UNL     1      -2.874  -0.298  15.855  1.00  0.00     0.091 A 
ATOM     14  H1  UNL     1      -3.696  -2.022  16.582  1.00  0.00     0.166 HD
HETATM   15  C5  UNL     1      -2.458   0.963  16.195  1.00  0.00     0.034 A 
HETATM   16  C6  UNL     1      -2.569   1.403  17.505  1.00  0.00     0.091 A 
HETATM   17  N2  UNL     1      -3.099   0.546  18.429  1.00  0.00    -0.350 N 
ATOM     18  H2  UNL     1      -3.187   0.853  19.398  1.00  0.00     0.166 HD
ENDBRANCH   3  11
BRANCH   4  19
HETATM   19  O2  UNL     1      -3.327  -3.574  18.117  1.00  0.00    -0.282 OA
ATOM     20  H2  UNL     1      -2.820  -4.357  18.299  1.00  0.00     0.245 HD
ENDBRANCH   4  19
TORSDOF 2
ENDMDL
MODEL 2
REMARK VINA RESULT: -7.212511922      0.046      1.139
REMARK  2 active torsions:
REMARK  status: ('A' for Active; 'I' for Inactive)
REMARK    1  A    between atoms: C2_3  and  C3_4 
REMARK    2  A    between atoms: N3_12  and  O2_13 
ROOT
HETATM    1  O1  UNL     1      -5.168  -0.009  20.674  1.00  0.00    -0.285 OA
HETATM    2  C1  UNL     1      -4.861  -1.169  20.307  1.00  0.00     0.217 A 
HETATM    3  C2  UNL     1      -4.093  -1.576  19.117  1.00  0.00     0.157 A 
HETATM    4  N3  UNL     1      -4.010  -2.878  19.129  1.00  0.00    -0.216 N 
HETATM    5  C7  UNL     1      -4.672  -3.416  20.252  1.00  0.00     0.077 A 
HETATM    6  C8  UNL     1      -4.853  -4.720  20.686  1.00  0.00     0.033 A 
HETATM    7  C9  UNL     1      -5.556  -5.004  21.848  1.00  0.00     0.002 A 
HETATM    8  C10 UNL     1      -6.093  -3.983  22.598  1.00  0.00     0.001 A 
HETATM    9  C11 UNL     1      -5.913  -2.698  22.166  1.00  0.00     0.018 A 
HETATM   10  C12 UNL     1      -5.217  -2.395  21.014  1.00  0.00     0.046 A 
ENDROOT
BRANCH   3  11
HETATM   11  C3  UNL     1      -3.530  -0.693  18.116  1.00  0.00     0.139 A 
HETATM   12  N1  UNL     1      -3.114   0.532  18.451  1.00  0.00    -0.350 N 
HETATM   13  C4  UNL     1      -2.582   1.396  17.560  1.00  0.00     0.091 A 
ATOM     14  H1  UNL     1      -3.202   0.828  19.423  1.00  0.00     0.166 HD
HETATM   15  C5  UNL     1      -2.469   0.991  16.256  1.00  0.00     0.034 A 
HETATM   16  C6  UNL     1      -2.893  -0.275  15.882  1.00  0.00     0.091 A 
HETATM   17  N2  UNL     1      -3.420  -1.089  16.845  1.00  0.00    -0.350 N 
ATOM     18  H2  UNL     1      -3.738  -2.024  16.587  1.00  0.00     0.166 HD
ENDBRANCH   3  11
BRANCH   4  19
HETATM   19  O2  UNL     1      -3.353  -3.583  18.150  1.00  0.00    -0.282 OA
ATOM     20  H2  UNL     1      -3.446  -3.382  17.226  1.00  0.00     0.245 HD
ENDBRANCH   4  19
TORSDOF 2
ENDMDL
MODEL 3
REMARK VINA RESULT: -7.193671718      1.474      5.972
REMARK  2 active torsions:
REMARK  status: ('A' for Active; 'I' for Inactive)
REMARK    1  A    between atoms: C2_3  and  C3_4 
REMARK    2  A    between atoms: N3_12  and  O2_13 
ROOT
HETATM    1  O1  UNL     1      -1.920  -3.857  18.133  1.00  0.00    -0.285 OA
HETATM    2  C1  UNL     1      -2.559  -2.778  18.136  1.00  0.00     0.217 A 
HETATM    3  C2  UNL     1      -3.637  -2.359  19.049  1.00  0.00     0.157 A 
HETATM    4  N3  UNL     1      -4.014  -1.163  18.690  1.00  0.00    -0.216 N 
HETATM    5  C7  UNL     1      -3.271  -0.711  17.579  1.00  0.00     0.077 A 
HETATM    6  C8  UNL     1      -3.308   0.471  16.856  1.00  0.00     0.033 A 
HETATM    7  C9  UNL     1      -2.459   0.687  15.780  1.00  0.00     0.002 A 
HETATM    8  C10 UNL     1      -1.552  -0.279  15.410  1.00  0.00     0.001 A 
HETATM    9  C11 UNL     1      -1.518  -1.444  16.127  1.00  0.00     0.018 A 
HETATM   10  C12 UNL     1      -2.355  -1.679  17.198  1.00  0.00     0.046 A 
ENDROOT
BRANCH   3  11
HETATM   11  C3  UNL     1      -4.179  -3.132  20.147  1.00  0.00     0.139 A 
HETATM   12  N1  UNL     1      -5.501  -3.272  20.289  1.00  0.00    -0.350 N 
HETATM   13  C4  UNL     1      -6.060  -3.981  21.293  1.00  0.00     0.091 A 
ATOM     14  H1  UNL     1      -6.114  -2.823  19.609  1.00  0.00     0.166 HD
HETATM   15  C5  UNL     1      -5.229  -4.579  22.204  1.00  0.00     0.034 A 
HETATM   16  C6  UNL     1      -3.854  -4.449  22.080  1.00  0.00     0.091 A 
HETATM   17  N2  UNL     1      -3.368  -3.714  21.034  1.00  0.00    -0.350 N 
ATOM     18  H2  UNL     1      -2.359  -3.608  20.929  1.00  0.00     0.166 HD
ENDBRANCH   3  11
BRANCH   4  19
HETATM   19  O2  UNL     1      -5.011  -0.477  19.342  1.00  0.00    -0.282 OA
ATOM     20  H2  UNL     1      -5.272  -0.682  20.232  1.00  0.00     0.245 HD
ENDBRANCH   4  19
TORSDOF 2
ENDMDL
MODEL 4
REMARK VINA RESULT: -7.177141382      1.173      5.541
REMARK  2 active torsions:
REMARK  status: ('A' for Active; 'I' for Inactive)
REMARK    1  A    between atoms: C2_3  and  C3_4 
REMARK    2  A    between atoms: N3_12  and  O2_13 
ROOT
HETATM    1  O1  UNL     1      -4.883   0.519  20.441  1.00  0.00    -0.285 OA
HETATM    2  C1  UNL     1      -4.321  -0.139  19.533  1.00  0.00     0.217 A 
HETATM    3  C2  UNL     1      -4.139  -1.598  19.443  1.00  0.00     0.157 A 
HETATM    4  N3  UNL     1      -3.502  -1.848  18.332  1.00  0.00    -0.216 N 
HETATM    5  C7  UNL     1      -3.221  -0.656  17.632  1.00  0.00     0.077 A 
HETATM    6  C8  UNL     1      -2.577  -0.416  16.428  1.00  0.00     0.033 A 
HETATM    7  C9  UNL     1      -2.421   0.872  15.936  1.00  0.00     0.002 A 
HETATM    8  C10 UNL     1      -2.909   1.947  16.644  1.00  0.00     0.001 A 
HETATM    9  C11 UNL     1      -3.545   1.706  17.831  1.00  0.00     0.018 A 
HETATM   10  C12 UNL     1      -3.710   0.433  18.337  1.00  0.00     0.046 A 
ENDROOT
BRANCH   3  11
HETATM   11  C3  UNL     1      -4.587  -2.579  20.410  1.00  0.00     0.139 A 
HETATM   12  N1  UNL     1      -3.735  -3.486  20.899  1.00  0.00    -0.350 N 
HETATM   13  C4  UNL     1      -4.098  -4.422  21.802  1.00  0.00     0.091 A 
ATOM     14  H1  UNL     1      -2.768  -3.470  20.576  1.00  0.00     0.166 HD
HETATM   15  C5  UNL     1      -5.400  -4.438  22.229  1.00  0.00     0.034 A 
HETATM   16  C6  UNL     1      -6.304  -3.509  21.737  1.00  0.00     0.091 A 
HETATM   17  N2  UNL     1      -5.856  -2.594  20.826  1.00  0.00    -0.350 N 
ATOM     18  H2  UNL     1      -6.508  -1.903  20.453  1.00  0.00     0.166 HD
ENDBRANCH   3  11
BRANCH   4  19
HETATM   19  O2  UNL     1      -3.171  -3.123  17.942  1.00  0.00    -0.282 OA
ATOM     20  H2  UNL     1      -3.511  -3.895  18.382  1.00  0.00     0.245 HD
ENDBRANCH   4  19
TORSDOF 2
ENDMDL
MODEL 5
REMARK VINA RESULT: -7.174648678      1.479      5.996
REMARK  2 active torsions:
REMARK  status: ('A' for Active; 'I' for Inactive)
REMARK    1  A    between atoms: C2_3  and  C3_4 
REMARK    2  A    between atoms: N3_12  and  O2_13 
ROOT
HETATM    1  O1  UNL     1      -1.912  -3.860  18.136  1.00  0.00    -0.285 OA
HETATM    2  C1  UNL     1      -2.552  -2.781  18.134  1.00  0.00     0.217 A 
HETATM    3  C2  UNL     1      -3.634  -2.361  19.041  1.00  0.00     0.157 A 
HETATM    4  N3  UNL     1      -4.011  -1.166  18.677  1.00  0.00    -0.216 N 
HETATM    5  C7  UNL     1      -3.263  -0.717  17.568  1.00  0.00     0.077 A 
HETATM    6  C8  UNL     1      -3.299   0.463  16.841  1.00  0.00     0.033 A 
HETATM    7  C9  UNL     1      -2.445   0.677  15.769  1.00  0.00     0.002 A 
HETATM    8  C10 UNL     1      -1.536  -0.290  15.405  1.00  0.00     0.001 A 
HETATM    9  C11 UNL     1      -1.503  -1.453  16.125  1.00  0.00     0.018 A 
HETATM   10  C12 UNL     1      -2.344  -1.685  17.194  1.00  0.00     0.046 A 
ENDROOT
BRANCH   3  11
HETATM   11  C3  UNL     1      -4.180  -3.131  20.139  1.00  0.00     0.139 A 
HETATM   12  N1  UNL     1      -3.369  -3.706  21.033  1.00  0.00    -0.350 N 
HETATM   13  C4  UNL     1      -3.824  -4.434  22.075  1.00  0.00     0.091 A 
ATOM     14  H1  UNL     1      -2.362  -3.590  20.922  1.00  0.00     0.166 HD
HETATM   15  C5  UNL     1      -5.178  -4.587  22.215  1.00  0.00     0.034 A 
HETATM   16  C6  UNL     1      -6.042  -4.000  21.302  1.00  0.00     0.091 A 
HETATM   17  N2  UNL     1      -5.501  -3.279  20.275  1.00  0.00    -0.350 N 
ATOM     18  H2  UNL     1      -6.122  -2.841  19.594  1.00  0.00     0.166 HD
ENDBRANCH   3  11
BRANCH   4  19
HETATM   19  O2  UNL     1      -5.011  -0.479  19.323  1.00  0.00    -0.282 OA
ATOM     20  H2  UNL     1      -5.625  -0.906  19.910  1.00  0.00     0.245 HD
ENDBRANCH   4  19
TORSDOF 2
ENDMDL
