MODEL 1
REMARK VINA RESULT: -7.015306315      0.000      0.000
REMARK  3 active torsions:
REMARK  status: ('A' for Active; 'I' for Inactive)
REMARK    1  A    between atoms: O1_1  and  N1_3 
REMARK    2  A    between atoms: C1_4  and  O2_5 
REMARK    3  A    between atoms: C2_7  and  C3_8 
ROOT
HETATM    1  N1  UNL     1      -2.094  -3.827  19.185  1.00  0.00    -0.202 N 
HETATM    2  C1  UNL     1      -2.161  -2.593  18.453  1.00  0.00     0.200 C 
HETATM    3  C2  UNL     1      -3.202  -1.779  18.487  1.00  0.00     0.135 C 
HETATM    4  O3  UNL     1      -4.408  -1.924  19.200  1.00  0.00    -0.311 OA
HETATM    5  C9  UNL     1      -4.577  -2.764  20.320  1.00  0.00     0.293 C 
HETATM    6  C10 UNL     1      -5.060  -4.136  19.980  1.00  0.00     0.034 C 
HETATM    7  C11 UNL     1      -4.028  -4.969  20.036  1.00  0.00     0.029 C 
HETATM    8  C12 UNL     1      -2.841  -4.163  20.410  1.00  0.00     0.279 C 
HETATM    9  O4  UNL     1      -3.375  -3.028  20.981  1.00  0.00    -0.328 OA
ENDROOT
BRANCH   3  10
HETATM   10  C3  UNL     1      -3.047  -0.579  17.664  1.00  0.00     0.002 A 
HETATM   11  C4  UNL     1      -3.148  -0.666  16.276  1.00  0.00     0.014 A 
HETATM   12  C5  UNL     1      -3.000   0.425  15.455  1.00  0.00     0.001 A 
HETATM   13  C6  UNL     1      -2.740   1.671  15.986  1.00  0.00     0.000 A 
HETATM   14  C7  UNL     1      -2.635   1.779  17.355  1.00  0.00     0.001 A 
HETATM   15  C8  UNL     1      -2.787   0.665  18.184  1.00  0.00     0.014 A 
ENDBRANCH   3  10
BRANCH   2  16
HETATM   16  O2  UNL     1      -1.055  -2.303  17.701  1.00  0.00    -0.343 OA
ATOM     17  H2  UNL     1      -1.235  -2.010  16.815  1.00  0.00     0.219 HD
ENDBRANCH   2  16
BRANCH   1  18
HETATM   18  O1  UNL     1      -1.341  -4.727  18.776  1.00  0.00    -0.283 OA
ATOM     19  H1  UNL     1      -1.189  -5.484  19.329  1.00  0.00     0.245 HD
ENDBRANCH   1  18
TORSDOF 3
ENDMDL
MODEL 2
REMARK VINA RESULT: -7.009339398      0.065      1.144
REMARK  3 active torsions:
REMARK  status: ('A' for Active; 'I' for Inactive)
REMARK    1  A    between atoms: O1_1  and  N1_3 
REMARK    2  A    between atoms: C1_4  and  O2_5 
REMARK    3  A    between atoms: C2_7  and  C3_8 
ROOT
HETATM    1  N1  UNL     1      -2.107  -3.829  19.201  1.00  0.00    -0.202 N 
HETATM    2  C1  UNL     1      -2.168  -2.608  18.447  1.00  0.00     0.200 C 
HETATM    3  C2  UNL     1      -3.207  -1.791  18.463  1.00  0.00     0.135 C 
HETATM    4  O3  UNL     1      -4.416  -1.919  19.175  1.00  0.00    -0.311 OA
HETATM    5  C9  UNL     1      -4.590  -2.738  20.311  1.00  0.00     0.293 C 
HETATM    6  C10 UNL     1      -5.076  -4.114  19.994  1.00  0.00     0.034 C 
HETATM    7  C11 UNL     1      -4.047  -4.949  20.068  1.00  0.00     0.029 C 
HETATM    8  C12 UNL     1      -2.858  -4.140  20.430  1.00  0.00     0.279 C 
HETATM    9  O4  UNL     1      -3.390  -2.994  20.979  1.00  0.00    -0.328 OA
ENDROOT
BRANCH   3  10
HETATM   10  C3  UNL     1      -3.046  -0.606  17.619  1.00  0.00     0.002 A 
HETATM   11  C4  UNL     1      -2.862   0.647  18.202  1.00  0.00     0.014 A 
HETATM   12  C5  UNL     1      -2.716   1.793  17.458  1.00  0.00     0.001 A 
HETATM   13  C6  UNL     1      -2.747   1.742  16.080  1.00  0.00     0.000 A 
HETATM   14  C7  UNL     1      -2.929   0.514  15.484  1.00  0.00     0.001 A 
HETATM   15  C8  UNL     1      -3.076  -0.647  16.246  1.00  0.00     0.014 A 
ENDBRANCH   3  10
BRANCH   2  16
HETATM   16  O2  UNL     1      -1.060  -2.335  17.692  1.00  0.00    -0.343 OA
ATOM     17  H2  UNL     1      -0.729  -3.065  17.182  1.00  0.00     0.219 HD
ENDBRANCH   2  16
BRANCH   1  18
HETATM   18  O1  UNL     1      -1.356  -4.738  18.811  1.00  0.00    -0.283 OA
ATOM     19  H1  UNL     1      -0.833  -5.207  19.450  1.00  0.00     0.245 HD
ENDBRANCH   1  18
TORSDOF 3
ENDMDL
MODEL 3
REMARK VINA RESULT: -6.910495653      4.045      6.161
REMARK  3 active torsions:
REMARK  status: ('A' for Active; 'I' for Inactive)
REMARK    1  A    between atoms: O1_1  and  N1_3 
REMARK    2  A    between atoms: C1_4  and  O2_5 
REMARK    3  A    between atoms: C2_7  and  C3_8 
ROOT
HETATM    1  N1  UNL     1      -5.127   3.274  18.243  1.00  0.00    -0.202 N 
HETATM    2  C1  UNL     1      -4.288   2.186  17.826  1.00  0.00     0.200 C 
HETATM    3  C2  UNL     1      -4.563   1.405  16.796  1.00  0.00     0.135 C 
HETATM    4  O3  UNL     1      -5.670   1.452  15.927  1.00  0.00    -0.311 OA
HETATM    5  C9  UNL     1      -6.493   2.584  15.744  1.00  0.00     0.293 C 
HETATM    6  C10 UNL     1      -7.684   2.617  16.645  1.00  0.00     0.034 C 
HETATM    7  C11 UNL     1      -7.441   3.473  17.631  1.00  0.00     0.029 C 
HETATM    8  C12 UNL     1      -6.081   4.019  17.403  1.00  0.00     0.279 C 
HETATM    9  O4  UNL     1      -5.845   3.778  16.067  1.00  0.00    -0.328 OA
ENDROOT
BRANCH   3  10
HETATM   10  C3  UNL     1      -3.564   0.363  16.555  1.00  0.00     0.002 A 
HETATM   11  C4  UNL     1      -3.536  -0.777  17.357  1.00  0.00     0.014 A 
HETATM   12  C5  UNL     1      -2.614  -1.781  17.183  1.00  0.00     0.001 A 
HETATM   13  C6  UNL     1      -1.663  -1.693  16.188  1.00  0.00     0.000 A 
HETATM   14  C7  UNL     1      -1.672  -0.574  15.385  1.00  0.00     0.001 A 
HETATM   15  C8  UNL     1      -2.613   0.442  15.567  1.00  0.00     0.014 A 
ENDBRANCH   3  10
BRANCH   2  16
HETATM   16  O2  UNL     1      -3.158   2.003  18.576  1.00  0.00    -0.343 OA
ATOM     17  H2  UNL     1      -2.361   2.353  18.198  1.00  0.00     0.219 HD
ENDBRANCH   2  16
BRANCH   1  18
HETATM   18  O1  UNL     1      -5.072   3.656  19.424  1.00  0.00    -0.283 OA
ATOM     19  H1  UNL     1      -5.682   3.290  20.054  1.00  0.00     0.245 HD
ENDBRANCH   1  18
TORSDOF 3
ENDMDL
MODEL 4
REMARK VINA RESULT: -6.860285830      1.529      2.560
REMARK  3 active torsions:
REMARK  status: ('A' for Active; 'I' for Inactive)
REMARK    1  A    between atoms: O1_1  and  N1_3 
REMARK    2  A    between atoms: C1_4  and  O2_5 
REMARK    3  A    between atoms: C2_7  and  C3_8 
ROOT
HETATM    1  N1  UNL     1      -5.007  -2.317  20.697  1.00  0.00    -0.202 N 
HETATM    2  C1  UNL     1      -4.533  -1.433  19.669  1.00  0.00     0.200 C 
HETATM    3  C2  UNL     1      -3.464  -1.679  18.931  1.00  0.00     0.135 C 
HETATM    4  O3  UNL     1      -2.598  -2.788  18.979  1.00  0.00    -0.311 OA
HETATM    5  C9  UNL     1      -2.930  -4.035  19.548  1.00  0.00     0.293 C 
HETATM    6  C10 UNL     1      -2.551  -4.163  20.987  1.00  0.00     0.034 C 
HETATM    7  C11 UNL     1      -3.644  -4.007  21.725  1.00  0.00     0.029 C 
HETATM    8  C12 UNL     1      -4.768  -3.768  20.786  1.00  0.00     0.279 C 
HETATM    9  O4  UNL     1      -4.309  -4.261  19.584  1.00  0.00    -0.328 OA
ENDROOT
BRANCH   3  10
HETATM   10  C3  UNL     1      -3.171  -0.638  17.944  1.00  0.00     0.002 A 
HETATM   11  C4  UNL     1      -3.299  -0.912  16.583  1.00  0.00     0.014 A 
HETATM   12  C5  UNL     1      -3.027   0.023  15.613  1.00  0.00     0.001 A 
HETATM   13  C6  UNL     1      -2.608   1.290  15.960  1.00  0.00     0.000 A 
HETATM   14  C7  UNL     1      -2.474   1.581  17.300  1.00  0.00     0.001 A 
HETATM   15  C8  UNL     1      -2.754   0.626  18.280  1.00  0.00     0.014 A 
ENDBRANCH   3  10
BRANCH   2  16
HETATM   16  O2  UNL     1      -5.272  -0.295  19.495  1.00  0.00    -0.343 OA
ATOM     17  H2  UNL     1      -4.777   0.515  19.519  1.00  0.00     0.219 HD
ENDBRANCH   2  16
BRANCH   1  18
HETATM   18  O1  UNL     1      -5.693  -1.849  21.621  1.00  0.00    -0.283 OA
ATOM     19  H1  UNL     1      -5.404  -1.976  22.517  1.00  0.00     0.245 HD
ENDBRANCH   1  18
TORSDOF 3
ENDMDL
MODEL 5
REMARK VINA RESULT: -6.849742163      4.048      6.148
REMARK  3 active torsions:
REMARK  status: ('A' for Active; 'I' for Inactive)
REMARK    1  A    between atoms: O1_1  and  N1_3 
REMARK    2  A    between atoms: C1_4  and  O2_5 
REMARK    3  A    between atoms: C2_7  and  C3_8 
ROOT
HETATM    1  N1  UNL     1      -5.145   3.290  18.295  1.00  0.00    -0.202 N 
HETATM    2  C1  UNL     1      -4.317   2.189  17.892  1.00  0.00     0.200 C 
HETATM    3  C2  UNL     1      -4.583   1.417  16.852  1.00  0.00     0.135 C 
HETATM    4  O3  UNL     1      -5.668   1.491  15.957  1.00  0.00    -0.311 OA
HETATM    5  C9  UNL     1      -6.464   2.640  15.761  1.00  0.00     0.293 C 
HETATM    6  C10 UNL     1      -7.675   2.692  16.633  1.00  0.00     0.034 C 
HETATM    7  C11 UNL     1      -7.439   3.538  17.629  1.00  0.00     0.029 C 
HETATM    8  C12 UNL     1      -6.063   4.059  17.437  1.00  0.00     0.279 C 
HETATM    9  O4  UNL     1      -5.800   3.820  16.106  1.00  0.00    -0.328 OA
ENDROOT
BRANCH   3  10
HETATM   10  C3  UNL     1      -3.598   0.358  16.629  1.00  0.00     0.002 A 
HETATM   11  C4  UNL     1      -2.651   0.486  15.615  1.00  0.00     0.014 A 
HETATM   12  C5  UNL     1      -1.711  -0.482  15.354  1.00  0.00     0.001 A 
HETATM   13  C6  UNL     1      -1.672  -1.639  16.104  1.00  0.00     0.000 A 
HETATM   14  C7  UNL     1      -2.600  -1.787  17.111  1.00  0.00     0.001 A 
HETATM   15  C8  UNL     1      -3.552  -0.798  17.370  1.00  0.00     0.014 A 
ENDBRANCH   3  10
BRANCH   2  16
HETATM   16  O2  UNL     1      -3.209   1.979  18.668  1.00  0.00    -0.343 OA
ATOM     17  H2  UNL     1      -2.589   1.347  18.324  1.00  0.00     0.219 HD
ENDBRANCH   2  16
BRANCH   1  18
HETATM   18  O1  UNL     1      -5.110   3.665  19.480  1.00  0.00    -0.283 OA
ATOM     19  H1  UNL     1      -5.569   3.155  20.136  1.00  0.00     0.245 HD
ENDBRANCH   1  18
TORSDOF 3
ENDMDL
