MODEL 1
REMARK VINA RESULT: -6.221195880      0.000      0.000
REMARK  2 active torsions:
REMARK  status: ('A' for Active; 'I' for Inactive)
REMARK    1  A    between atoms: C2_2  and  O1_3 
REMARK    2  A    between atoms: O1_3  and  C3_4 
REMARK       I    between atoms: C3_4  and  N1_6 
ROOT
HETATM    1  C3  UNL     1      -2.138  -3.794  18.994  1.00  0.00     0.364 C 
HETATM    2  O2  UNL     1      -1.333  -4.230  18.103  1.00  0.00    -0.238 OA
HETATM    3  N1  UNL     1      -2.004  -2.458  19.429  1.00  0.00    -0.305 N 
ATOM      4  H1  UNL     1      -1.692  -2.290  20.385  1.00  0.00     0.171 HD
HETATM    5  C4  UNL     1      -2.252  -1.452  18.691  1.00  0.00     0.044 C 
HETATM    6  C5  UNL     1      -2.099  -0.069  19.185  1.00  0.00     0.226 C 
HETATM    7  O3  UNL     1      -2.446   0.784  18.141  1.00  0.00    -0.350 OA
HETATM    8  C6  UNL     1      -3.637   0.464  17.549  1.00  0.00     0.158 C 
HETATM    9  C7  UNL     1      -3.951   1.551  16.529  1.00  0.00     0.078 C 
HETATM   10  C8  UNL     1      -4.728   0.584  18.622  1.00  0.00     0.078 C 
HETATM   11  O4  UNL     1      -3.681  -0.746  16.914  1.00  0.00    -0.345 OA
HETATM   12  C9  UNL     1      -2.708  -1.645  17.298  1.00  0.00     0.168 C 
HETATM   13  C10 UNL     1      -1.524  -1.662  16.368  1.00  0.00     0.046 C 
ENDROOT
BRANCH   1  14
HETATM   14  O1  UNL     1      -3.077  -4.682  19.457  1.00  0.00    -0.304 OA
BRANCH  14  15
HETATM   15  C2  UNL     1      -4.174  -4.263  20.279  1.00  0.00     0.176 C 
HETATM   16  C1  UNL     1      -3.819  -4.484  21.730  1.00  0.00     0.034 C 
ENDBRANCH  14  15
ENDBRANCH   1  14
TORSDOF 2
ENDMDL
MODEL 2
REMARK VINA RESULT: -6.051261475      1.474      1.724
REMARK  2 active torsions:
REMARK  status: ('A' for Active; 'I' for Inactive)
REMARK    1  A    between atoms: C2_2  and  O1_3 
REMARK    2  A    between atoms: O1_3  and  C3_4 
REMARK       I    between atoms: C3_4  and  N1_6 
ROOT
HETATM    1  C3  UNL     1      -2.217  -2.579  17.553  1.00  0.00     0.364 C 
HETATM    2  O2  UNL     1      -1.586  -2.804  16.466  1.00  0.00    -0.238 OA
HETATM    3  N1  UNL     1      -2.142  -1.290  18.122  1.00  0.00    -0.305 N 
ATOM      4  H1  UNL     1      -1.646  -1.181  19.008  1.00  0.00     0.171 HD
HETATM    5  C4  UNL     1      -2.659  -0.257  17.590  1.00  0.00     0.044 C 
HETATM    6  C5  UNL     1      -2.557   1.075  18.220  1.00  0.00     0.226 C 
HETATM    7  O3  UNL     1      -3.220   1.977  17.392  1.00  0.00    -0.350 OA
HETATM    8  C6  UNL     1      -4.469   1.558  17.021  1.00  0.00     0.158 C 
HETATM    9  C7  UNL     1      -5.122   2.691  16.240  1.00  0.00     0.078 C 
HETATM   10  C8  UNL     1      -5.302   1.413  18.302  1.00  0.00     0.078 C 
HETATM   11  O4  UNL     1      -4.516   0.426  16.256  1.00  0.00    -0.345 OA
HETATM   12  C9  UNL     1      -3.387  -0.365  16.309  1.00  0.00     0.168 C 
HETATM   13  C10 UNL     1      -2.444  -0.121  15.160  1.00  0.00     0.046 C 
ENDROOT
BRANCH   1  14
HETATM   14  O1  UNL     1      -2.924  -3.632  18.079  1.00  0.00    -0.304 OA
BRANCH  14  15
HETATM   15  C2  UNL     1      -2.684  -4.116  19.407  1.00  0.00     0.176 C 
HETATM   16  C1  UNL     1      -3.992  -4.568  20.012  1.00  0.00     0.034 C 
ENDBRANCH  14  15
ENDBRANCH   1  14
TORSDOF 2
ENDMDL
MODEL 3
REMARK VINA RESULT: -5.915467747      1.878      5.234
REMARK  2 active torsions:
REMARK  status: ('A' for Active; 'I' for Inactive)
REMARK    1  A    between atoms: C2_2  and  O1_3 
REMARK    2  A    between atoms: O1_3  and  C3_4 
REMARK       I    between atoms: C3_4  and  N1_6 
ROOT
HETATM    1  C3  UNL     1      -2.536  -1.508  18.062  1.00  0.00     0.364 C 
HETATM    2  O2  UNL     1      -2.816  -0.303  18.381  1.00  0.00    -0.238 OA
HETATM    3  N1  UNL     1      -2.309  -2.444  19.094  1.00  0.00    -0.305 N 
ATOM      4  H1  UNL     1      -1.366  -2.815  19.211  1.00  0.00     0.171 HD
HETATM    5  C4  UNL     1      -3.219  -2.848  19.887  1.00  0.00     0.044 C 
HETATM    6  C5  UNL     1      -2.939  -3.829  20.954  1.00  0.00     0.226 C 
HETATM    7  O3  UNL     1      -4.133  -4.055  21.633  1.00  0.00    -0.350 OA
HETATM    8  C6  UNL     1      -5.189  -4.322  20.803  1.00  0.00     0.158 C 
HETATM    9  C7  UNL     1      -6.383  -4.679  21.678  1.00  0.00     0.078 C 
HETATM   10  C8  UNL     1      -4.851  -5.605  20.031  1.00  0.00     0.078 C 
HETATM   11  O4  UNL     1      -5.559  -3.308  19.964  1.00  0.00    -0.345 OA
HETATM   12  C9  UNL     1      -4.600  -2.339  19.756  1.00  0.00     0.168 C 
HETATM   13  C10 UNL     1      -4.786  -1.129  20.634  1.00  0.00     0.046 C 
ENDROOT
BRANCH   1  14
HETATM   14  O1  UNL     1      -2.479  -1.787  16.720  1.00  0.00    -0.304 OA
BRANCH  14  15
HETATM   15  C2  UNL     1      -1.685  -1.006  15.817  1.00  0.00     0.176 C 
HETATM   16  C1  UNL     1      -2.559  -0.514  14.688  1.00  0.00     0.034 C 
ENDBRANCH  14  15
ENDBRANCH   1  14
TORSDOF 2
ENDMDL
MODEL 4
REMARK VINA RESULT: -5.877260561      7.278      9.381
REMARK  2 active torsions:
REMARK  status: ('A' for Active; 'I' for Inactive)
REMARK    1  A    between atoms: C2_2  and  O1_3 
REMARK    2  A    between atoms: O1_3  and  C3_4 
REMARK       I    between atoms: C3_4  and  N1_6 
ROOT
HETATM    1  C3  UNL     1      -4.155   5.796  14.559  1.00  0.00     0.364 C 
HETATM    2  O2  UNL     1      -4.107   7.039  14.848  1.00  0.00    -0.238 OA
HETATM    3  N1  UNL     1      -4.461   4.876  15.585  1.00  0.00    -0.305 N 
ATOM      4  H1  UNL     1      -3.730   4.234  15.892  1.00  0.00     0.171 HD
HETATM    5  C4  UNL     1      -5.600   4.805  16.146  1.00  0.00     0.044 C 
HETATM    6  C5  UNL     1      -5.879   3.827  17.217  1.00  0.00     0.226 C 
HETATM    7  O3  UNL     1      -7.201   4.010  17.611  1.00  0.00    -0.350 OA
HETATM    8  C6  UNL     1      -8.081   4.053  16.563  1.00  0.00     0.158 C 
HETATM    9  C7  UNL     1      -9.487   4.118  17.145  1.00  0.00     0.078 C 
HETATM   10  C8  UNL     1      -8.000   2.700  15.842  1.00  0.00     0.078 C 
HETATM   11  O4  UNL     1      -7.925   5.099  15.697  1.00  0.00    -0.345 OA
HETATM   12  C9  UNL     1      -6.691   5.713  15.735  1.00  0.00     0.168 C 
HETATM   13  C10 UNL     1      -6.676   6.953  16.589  1.00  0.00     0.046 C 
ENDROOT
BRANCH   1  14
HETATM   14  O1  UNL     1      -3.898   5.462  13.253  1.00  0.00    -0.304 OA
BRANCH  14  15
HETATM   15  C2  UNL     1      -4.341   6.280  12.161  1.00  0.00     0.176 C 
HETATM   16  C1  UNL     1      -3.911   5.645  10.860  1.00  0.00     0.034 C 
ENDBRANCH  14  15
ENDBRANCH   1  14
TORSDOF 2
ENDMDL
MODEL 5
REMARK VINA RESULT: -5.816619753      1.143      1.298
REMARK  2 active torsions:
REMARK  status: ('A' for Active; 'I' for Inactive)
REMARK    1  A    between atoms: C2_2  and  O1_3 
REMARK    2  A    between atoms: O1_3  and  C3_4 
REMARK       I    between atoms: C3_4  and  N1_6 
ROOT
HETATM    1  C3  UNL     1      -3.724  -3.765  19.512  1.00  0.00     0.364 C 
HETATM    2  O2  UNL     1      -2.779  -4.559  19.185  1.00  0.00    -0.238 OA
HETATM    3  N1  UNL     1      -3.407  -2.419  19.797  1.00  0.00    -0.305 N 
ATOM      4  H1  UNL     1      -3.512  -2.091  20.758  1.00  0.00     0.171 HD
HETATM    5  C4  UNL     1      -2.996  -1.594  18.921  1.00  0.00     0.044 C 
HETATM    6  C5  UNL     1      -2.674  -0.194  19.262  1.00  0.00     0.226 C 
HETATM    7  O3  UNL     1      -2.258   0.433  18.091  1.00  0.00    -0.350 OA
HETATM    8  C6  UNL     1      -3.104   0.228  17.033  1.00  0.00     0.158 C 
HETATM    9  C7  UNL     1      -2.601   1.075  15.872  1.00  0.00     0.078 C 
HETATM   10  C8  UNL     1      -4.465   0.826  17.414  1.00  0.00     0.078 C 
HETATM   11  O4  UNL     1      -3.219  -1.065  16.604  1.00  0.00    -0.345 OA
HETATM   12  C9  UNL     1      -2.828  -2.023  17.516  1.00  0.00     0.168 C 
HETATM   13  C10 UNL     1      -1.420  -2.507  17.292  1.00  0.00     0.046 C 
ENDROOT
BRANCH   1  14
HETATM   14  O1  UNL     1      -4.987  -4.302  19.558  1.00  0.00    -0.304 OA
BRANCH  14  15
HETATM   15  C2  UNL     1      -5.808  -4.207  20.729  1.00  0.00     0.176 C 
HETATM   16  C1  UNL     1      -5.223  -5.076  21.816  1.00  0.00     0.034 C 
ENDBRANCH  14  15
ENDBRANCH   1  14
TORSDOF 2
ENDMDL
