MODEL 1
REMARK VINA RESULT: -6.430492512      0.000      0.000
REMARK  4 active torsions:
REMARK  status: ('A' for Active; 'I' for Inactive)
REMARK    1  A    between atoms: C2_2  and  C5_6 
REMARK    2  A    between atoms: C5_6  and  O1_7 
REMARK    3  A    between atoms: C5_6  and  C6_9 
REMARK    4  A    between atoms: C6_9  and  N2_10 
ROOT
HETATM    1  C1  UNL     1      42.184  24.665  55.469  1.00  0.00     0.033 C 
HETATM    2  C2  UNL     1      42.290  25.978  56.219  1.00  0.00     0.069 C 
HETATM    3  C3  UNL     1      43.517  26.681  55.722  1.00  0.00     0.033 C 
HETATM    4  C4  UNL     1      42.401  25.636  57.645  1.00  0.00     0.071 C 
HETATM    5  N1  UNL     1      42.493  25.386  58.755  1.00  0.00    -0.196 NA
ENDROOT
BRANCH   2   6
HETATM    6  C5  UNL     1      41.020  26.728  56.022  1.00  0.00     0.158 C 
BRANCH   6   7
HETATM    7  O1  UNL     1      41.344  28.055  55.749  1.00  0.00    -0.392 OA
ATOM      8  H1  UNL     1      41.138  28.570  56.519  1.00  0.00     0.210 HD
ENDBRANCH   6   7
BRANCH   6   9
HETATM    9  C6  UNL     1      40.197  26.229  54.855  1.00  0.00     0.160 C 
BRANCH   9  10
HETATM   10  N2  UNL     1      38.955  25.616  55.271  1.00  0.00    -0.367 N 
HETATM   11  C7  UNL     1      38.051  26.435  55.965  1.00  0.00     0.089 C 
HETATM   12  C8  UNL     1      36.595  26.108  55.755  1.00  0.00     0.212 C 
HETATM   13  O2  UNL     1      36.383  25.741  54.413  1.00  0.00    -0.381 OA
HETATM   14  C9  UNL     1      36.985  24.494  54.273  1.00  0.00     0.212 C 
HETATM   15  C10 UNL     1      38.454  24.644  54.393  1.00  0.00     0.089 C 
ENDBRANCH   9  10
ENDBRANCH   6   9
ENDBRANCH   2   6
TORSDOF 4
ENDMDL
MODEL 2
REMARK VINA RESULT: -6.312602670      1.097      1.569
REMARK  4 active torsions:
REMARK  status: ('A' for Active; 'I' for Inactive)
REMARK    1  A    between atoms: C2_2  and  C5_6 
REMARK    2  A    between atoms: C5_6  and  O1_7 
REMARK    3  A    between atoms: C5_6  and  C6_9 
REMARK    4  A    between atoms: C6_9  and  N2_10 
ROOT
HETATM    1  C1  UNL     1      42.335  25.552  57.777  1.00  0.00     0.033 C 
HETATM    2  C2  UNL     1      42.213  25.816  56.290  1.00  0.00     0.069 C 
HETATM    3  C3  UNL     1      42.160  24.487  55.600  1.00  0.00     0.033 C 
HETATM    4  C4  UNL     1      43.408  26.580  55.902  1.00  0.00     0.071 C 
HETATM    5  N1  UNL     1      44.333  27.169  55.585  1.00  0.00    -0.196 NA
ENDROOT
BRANCH   2   6
HETATM    6  C5  UNL     1      41.021  26.680  56.069  1.00  0.00     0.158 C 
BRANCH   6   7
HETATM    7  O1  UNL     1      41.472  27.967  55.781  1.00  0.00    -0.392 OA
ATOM      8  H1  UNL     1      41.025  28.569  56.364  1.00  0.00     0.210 HD
ENDBRANCH   6   7
BRANCH   6   9
HETATM    9  C6  UNL     1      40.166  26.244  54.900  1.00  0.00     0.160 C 
BRANCH   9  10
HETATM   10  N2  UNL     1      38.919  25.641  55.318  1.00  0.00    -0.367 N 
HETATM   11  C7  UNL     1      38.019  26.470  56.006  1.00  0.00     0.089 C 
HETATM   12  C8  UNL     1      36.561  26.152  55.795  1.00  0.00     0.212 C 
HETATM   13  O2  UNL     1      36.349  25.780  54.454  1.00  0.00    -0.381 OA
HETATM   14  C9  UNL     1      36.943  24.528  54.321  1.00  0.00     0.212 C 
HETATM   15  C10 UNL     1      38.412  24.669  54.444  1.00  0.00     0.089 C 
ENDBRANCH   9  10
ENDBRANCH   6   9
ENDBRANCH   2   6
TORSDOF 4
ENDMDL
MODEL 3
REMARK VINA RESULT: -5.911307173      0.892      1.340
REMARK  4 active torsions:
REMARK  status: ('A' for Active; 'I' for Inactive)
REMARK    1  A    between atoms: C2_2  and  C5_6 
REMARK    2  A    between atoms: C5_6  and  O1_7 
REMARK    3  A    between atoms: C5_6  and  C6_9 
REMARK    4  A    between atoms: C6_9  and  N2_10 
ROOT
HETATM    1  C1  UNL     1      42.139  24.523  55.486  1.00  0.00     0.033 C 
HETATM    2  C2  UNL     1      42.229  25.883  56.149  1.00  0.00     0.069 C 
HETATM    3  C3  UNL     1      43.425  26.583  55.577  1.00  0.00     0.033 C 
HETATM    4  C4  UNL     1      42.384  25.635  57.590  1.00  0.00     0.071 C 
HETATM    5  N1  UNL     1      42.510  25.458  58.711  1.00  0.00    -0.196 NA
ENDROOT
BRANCH   2   6
HETATM    6  C5  UNL     1      40.935  26.588  55.938  1.00  0.00     0.158 C 
BRANCH   6   7
HETATM    7  O1  UNL     1      41.205  27.950  55.816  1.00  0.00    -0.392 OA
ATOM      8  H1  UNL     1      40.384  28.396  55.646  1.00  0.00     0.210 HD
ENDBRANCH   6   7
BRANCH   6   9
HETATM    9  C6  UNL     1      40.217  26.169  54.675  1.00  0.00     0.160 C 
BRANCH   9  10
HETATM   10  N2  UNL     1      38.803  25.947  54.887  1.00  0.00    -0.367 N 
HETATM   11  C7  UNL     1      38.077  25.434  53.801  1.00  0.00     0.089 C 
HETATM   12  C8  UNL     1      36.911  24.552  54.167  1.00  0.00     0.212 C 
HETATM   13  O2  UNL     1      37.252  23.752  55.274  1.00  0.00    -0.381 OA
HETATM   14  C9  UNL     1      37.308  24.626  56.355  1.00  0.00     0.212 C 
HETATM   15  C10 UNL     1      38.458  25.544  56.185  1.00  0.00     0.089 C 
ENDBRANCH   9  10
ENDBRANCH   6   9
ENDBRANCH   2   6
TORSDOF 4
ENDMDL
MODEL 4
REMARK VINA RESULT: -5.857724534      1.321      2.115
REMARK  4 active torsions:
REMARK  status: ('A' for Active; 'I' for Inactive)
REMARK    1  A    between atoms: C2_2  and  C5_6 
REMARK    2  A    between atoms: C5_6  and  O1_7 
REMARK    3  A    between atoms: C5_6  and  C6_9 
REMARK    4  A    between atoms: C6_9  and  N2_10 
ROOT
HETATM    1  C1  UNL     1      42.271  25.700  57.951  1.00  0.00     0.033 C 
HETATM    2  C2  UNL     1      42.261  25.804  56.439  1.00  0.00     0.069 C 
HETATM    3  C3  UNL     1      42.229  24.409  55.892  1.00  0.00     0.033 C 
HETATM    4  C4  UNL     1      43.497  26.506  56.062  1.00  0.00     0.071 C 
HETATM    5  N1  UNL     1      44.455  27.045  55.753  1.00  0.00    -0.196 NA
ENDROOT
BRANCH   2   6
HETATM    6  C5  UNL     1      41.107  26.655  56.041  1.00  0.00     0.158 C 
BRANCH   6   7
HETATM    7  O1  UNL     1      41.595  27.925  55.739  1.00  0.00    -0.392 OA
ATOM      8  H1  UNL     1      42.345  27.821  55.166  1.00  0.00     0.210 HD
ENDBRANCH   6   7
BRANCH   6   9
HETATM    9  C6  UNL     1      40.386  26.159  54.807  1.00  0.00     0.160 C 
BRANCH   9  10
HETATM   10  N2  UNL     1      38.962  26.411  54.855  1.00  0.00    -0.367 N 
HETATM   11  C7  UNL     1      38.136  25.480  54.207  1.00  0.00     0.089 C 
HETATM   12  C8  UNL     1      36.774  25.291  54.823  1.00  0.00     0.212 C 
HETATM   13  O2  UNL     1      36.879  25.338  56.226  1.00  0.00    -0.381 OA
HETATM   14  C9  UNL     1      37.155  26.668  56.529  1.00  0.00     0.212 C 
HETATM   15  C10 UNL     1      38.510  27.011  56.039  1.00  0.00     0.089 C 
ENDBRANCH   9  10
ENDBRANCH   6   9
ENDBRANCH   2   6
TORSDOF 4
ENDMDL
MODEL 5
REMARK VINA RESULT: -5.836916433      1.137      1.540
REMARK  4 active torsions:
REMARK  status: ('A' for Active; 'I' for Inactive)
REMARK    1  A    between atoms: C2_2  and  C5_6 
REMARK    2  A    between atoms: C5_6  and  O1_7 
REMARK    3  A    between atoms: C5_6  and  C6_9 
REMARK    4  A    between atoms: C6_9  and  N2_10 
ROOT
HETATM    1  C1  UNL     1      43.369  26.635  55.295  1.00  0.00     0.033 C 
HETATM    2  C2  UNL     1      42.332  25.898  56.120  1.00  0.00     0.069 C 
HETATM    3  C3  UNL     1      42.872  25.773  57.513  1.00  0.00     0.033 C 
HETATM    4  C4  UNL     1      42.154  24.582  55.488  1.00  0.00     0.071 C 
HETATM    5  N1  UNL     1      42.009  23.555  55.012  1.00  0.00    -0.196 NA
ENDROOT
BRANCH   2   6
HETATM    6  C5  UNL     1      41.045  26.638  56.016  1.00  0.00     0.158 C 
BRANCH   6   7
HETATM    7  O1  UNL     1      41.341  27.986  55.820  1.00  0.00    -0.392 OA
ATOM      8  H1  UNL     1      41.556  28.363  56.665  1.00  0.00     0.210 HD
ENDBRANCH   6   7
BRANCH   6   9
HETATM    9  C6  UNL     1      40.190  26.203  54.847  1.00  0.00     0.160 C 
BRANCH   9  10
HETATM   10  N2  UNL     1      38.944  25.597  55.264  1.00  0.00    -0.367 N 
HETATM   11  C7  UNL     1      38.045  26.421  55.959  1.00  0.00     0.089 C 
HETATM   12  C8  UNL     1      36.587  26.103  55.750  1.00  0.00     0.212 C 
HETATM   13  O2  UNL     1      36.372  25.738  54.407  1.00  0.00    -0.381 OA
HETATM   14  C9  UNL     1      36.967  24.488  54.266  1.00  0.00     0.212 C 
HETATM   15  C10 UNL     1      38.436  24.629  54.386  1.00  0.00     0.089 C 
ENDBRANCH   9  10
ENDBRANCH   6   9
ENDBRANCH   2   6
TORSDOF 4
ENDMDL
