MODEL 1
REMARK VINA RESULT: -7.144649435      0.000      0.000
REMARK  7 active torsions:
REMARK  status: ('A' for Active; 'I' for Inactive)
REMARK    1  A    between atoms: C2_2  and  O1_3 
REMARK    2  A    between atoms: O1_3  and  C3_4 
REMARK    3  A    between atoms: C3_4  and  C5_6 
REMARK       I    between atoms: N2_14  and  C10_16 
REMARK    4  A    between atoms: C10_16  and  C11_18 
REMARK    5  A    between atoms: C11_18  and  C12_19 
REMARK    6  A    between atoms: C12_19  and  O3_22 
REMARK    7  A    between atoms: C19_29  and  N3_30 
REMARK       I    between atoms: N3_30  and  C20_32 
ROOT
HETATM    1  C11 UNL     1     -10.541  83.519  19.655  1.00  0.00     0.095 C 
HETATM    2  C15 UNL     1     -11.308  84.507  20.504  1.00  0.00     0.191 C 
HETATM    3  O4  UNL     1     -10.587  85.726  20.499  1.00  0.00    -0.378 OA
HETATM    4  C16 UNL     1      -9.632  85.706  21.508  1.00  0.00     0.074 C 
HETATM    5  C17 UNL     1     -10.235  85.942  22.891  1.00  0.00     0.047 C 
HETATM    6  C18 UNL     1      -8.553  86.728  21.324  1.00  0.00     0.047 C 
HETATM    7  C19 UNL     1      -8.964  84.345  21.442  1.00  0.00     0.119 C 
HETATM    8  C22 UNL     1      -9.071  83.752  20.051  1.00  0.00     0.052 C 
ENDROOT
BRANCH   1   9
HETATM    9  C10 UNL     1     -10.692  83.976  18.251  1.00  0.00     0.237 C 
HETATM   10  N2  UNL     1     -11.821  84.565  17.669  1.00  0.00    -0.312 N 
HETATM   11  C9  UNL     1     -12.467  84.075  16.669  1.00  0.00     0.118 A 
ATOM     12  H2  UNL     1     -12.155  85.443  18.064  1.00  0.00     0.170 HD
HETATM   13  C5  UNL     1     -13.558  84.776  16.213  1.00  0.00     0.036 A 
HETATM   14  N1  UNL     1     -12.114  82.907  16.102  1.00  0.00    -0.352 N 
HETATM   15  C6  UNL     1     -14.265  84.232  15.161  1.00  0.00     0.048 A 
HETATM   16 CL1  UNL     1     -15.660  85.047  14.424  1.00  0.00    -0.084 Cl
HETATM   17  C7  UNL     1     -13.886  83.016  14.582  1.00  0.00     0.041 A 
HETATM   18  C8  UNL     1     -12.794  82.351  15.066  1.00  0.00     0.091 A 
ATOM     19  H1  UNL     1     -11.298  82.416  16.467  1.00  0.00     0.166 HD
HETATM   20  O2  UNL     1      -9.678  83.813  17.493  1.00  0.00    -0.272 OA
BRANCH  13  21
HETATM   21  C3  UNL     1     -14.086  86.024  16.785  1.00  0.00     0.155 C 
HETATM   22  C4  UNL     1     -13.026  87.082  17.010  1.00  0.00     0.045 C 
BRANCH  21  23
HETATM   23  O1  UNL     1     -14.567  85.732  18.036  1.00  0.00    -0.382 OA
BRANCH  23  24
HETATM   24  C2  UNL     1     -15.865  85.585  18.300  1.00  0.00     0.164 C 
HETATM   25  C1  UNL     1     -16.739  86.555  17.531  1.00  0.00     0.033 C 
ENDBRANCH  23  24
ENDBRANCH  21  23
ENDBRANCH  13  21
ENDBRANCH   1   9
BRANCH   1  26
HETATM   26  C12 UNL     1     -10.908  82.090  19.879  1.00  0.00     0.069 C 
HETATM   27  C13 UNL     1      -9.826  81.305  20.583  1.00  0.00     0.047 C 
HETATM   28  C14 UNL     1     -12.162  81.899  20.716  1.00  0.00     0.047 C 
BRANCH  26  29
HETATM   29  O3  UNL     1     -11.187  81.423  18.675  1.00  0.00    -0.389 OA
ATOM     30  H3  UNL     1     -11.067  81.985  17.919  1.00  0.00     0.210 HD
ENDBRANCH  26  29
ENDBRANCH   1  26
BRANCH   7  31
HETATM   31  N3  UNL     1      -7.548  84.427  21.732  1.00  0.00    -0.354 N 
HETATM   32  C20 UNL     1      -7.018  83.679  22.824  1.00  0.00     0.214 C 
HETATM   33  C21 UNL     1      -5.576  83.736  23.147  1.00  0.00     0.117 C 
HETATM   34  O5  UNL     1      -7.787  82.945  23.538  1.00  0.00    -0.274 OA
ATOM     35  H3  UNL     1      -6.937  85.012  21.162  1.00  0.00     0.163 HD
ENDBRANCH   7  31
TORSDOF 7
ENDMDL
MODEL 2
REMARK VINA RESULT: -7.021322317      0.996      1.178
REMARK  7 active torsions:
REMARK  status: ('A' for Active; 'I' for Inactive)
REMARK    1  A    between atoms: C2_2  and  O1_3 
REMARK    2  A    between atoms: O1_3  and  C3_4 
REMARK    3  A    between atoms: C3_4  and  C5_6 
REMARK       I    between atoms: N2_14  and  C10_16 
REMARK    4  A    between atoms: C10_16  and  C11_18 
REMARK    5  A    between atoms: C11_18  and  C12_19 
REMARK    6  A    between atoms: C12_19  and  O3_22 
REMARK    7  A    between atoms: C19_29  and  N3_30 
REMARK       I    between atoms: N3_30  and  C20_32 
ROOT
HETATM    1  C11 UNL     1     -10.241  83.440  19.281  1.00  0.00     0.095 C 
HETATM    2  C15 UNL     1     -10.984  84.198  20.356  1.00  0.00     0.191 C 
HETATM    3  O4  UNL     1     -10.396  85.483  20.458  1.00  0.00    -0.378 OA
HETATM    4  C16 UNL     1      -9.320  85.433  21.336  1.00  0.00     0.074 C 
HETATM    5  C17 UNL     1      -9.757  85.397  22.799  1.00  0.00     0.047 C 
HETATM    6  C18 UNL     1      -8.383  86.592  21.190  1.00  0.00     0.047 C 
HETATM    7  C19 UNL     1      -8.533  84.185  20.982  1.00  0.00     0.119 C 
HETATM    8  C22 UNL     1      -8.762  83.788  19.537  1.00  0.00     0.052 C 
ENDROOT
BRANCH   1   9
HETATM    9  C10 UNL     1     -10.620  84.070  17.992  1.00  0.00     0.237 C 
HETATM   10  N2  UNL     1     -11.834  84.693  17.679  1.00  0.00    -0.312 N 
HETATM   11  C9  UNL     1     -12.626  84.317  16.737  1.00  0.00     0.118 A 
ATOM     12  H2  UNL     1     -12.110  85.501  18.236  1.00  0.00     0.170 HD
HETATM   13  C5  UNL     1     -13.784  85.035  16.557  1.00  0.00     0.036 A 
HETATM   14  N1  UNL     1     -12.356  83.245  15.970  1.00  0.00    -0.352 N 
HETATM   15  C6  UNL     1     -14.644  84.610  15.565  1.00  0.00     0.048 A 
HETATM   16 CL1  UNL     1     -16.149  85.468  15.173  1.00  0.00    -0.084 Cl
HETATM   17  C7  UNL     1     -14.350  83.493  14.777  1.00  0.00     0.041 A 
HETATM   18  C8  UNL     1     -13.186  82.807  14.989  1.00  0.00     0.091 A 
ATOM     19  H1  UNL     1     -11.486  82.737  16.134  1.00  0.00     0.166 HD
HETATM   20  O2  UNL     1      -9.738  84.041  17.069  1.00  0.00    -0.272 OA
BRANCH  13  21
HETATM   21  C3  UNL     1     -14.228  86.180  17.366  1.00  0.00     0.155 C 
HETATM   22  C4  UNL     1     -13.326  87.391  17.246  1.00  0.00     0.045 C 
BRANCH  21  23
HETATM   23  O1  UNL     1     -14.149  85.808  18.684  1.00  0.00    -0.382 OA
BRANCH  23  24
HETATM   24  C2  UNL     1     -13.859  86.662  19.664  1.00  0.00     0.164 C 
HETATM   25  C1  UNL     1     -13.847  86.009  21.033  1.00  0.00     0.033 C 
ENDBRANCH  23  24
ENDBRANCH  21  23
ENDBRANCH  13  21
ENDBRANCH   1   9
BRANCH   1  26
HETATM   26  C12 UNL     1     -10.429  81.961  19.320  1.00  0.00     0.069 C 
HETATM   27  C13 UNL     1      -9.125  81.197  19.304  1.00  0.00     0.047 C 
HETATM   28  C14 UNL     1     -11.176  81.465  20.547  1.00  0.00     0.047 C 
BRANCH  26  29
HETATM   29  O3  UNL     1     -11.193  81.498  18.236  1.00  0.00    -0.389 OA
ATOM     30  H3  UNL     1     -10.757  81.643  17.404  1.00  0.00     0.210 HD
ENDBRANCH  26  29
ENDBRANCH   1  26
BRANCH   7  31
HETATM   31  N3  UNL     1      -7.106  84.393  21.117  1.00  0.00    -0.354 N 
HETATM   32  C20 UNL     1      -6.369  83.579  22.026  1.00  0.00     0.214 C 
HETATM   33  C21 UNL     1      -4.910  83.762  22.187  1.00  0.00     0.117 C 
HETATM   34  O5  UNL     1      -6.962  82.677  22.714  1.00  0.00    -0.274 OA
ATOM     35  H3  UNL     1      -6.635  85.112  20.568  1.00  0.00     0.163 HD
ENDBRANCH   7  31
TORSDOF 7
ENDMDL
MODEL 3
REMARK VINA RESULT: -6.972466166      2.597      4.695
REMARK  7 active torsions:
REMARK  status: ('A' for Active; 'I' for Inactive)
REMARK    1  A    between atoms: C2_2  and  O1_3 
REMARK    2  A    between atoms: O1_3  and  C3_4 
REMARK    3  A    between atoms: C3_4  and  C5_6 
REMARK       I    between atoms: N2_14  and  C10_16 
REMARK    4  A    between atoms: C10_16  and  C11_18 
REMARK    5  A    between atoms: C11_18  and  C12_19 
REMARK    6  A    between atoms: C12_19  and  O3_22 
REMARK    7  A    between atoms: C19_29  and  N3_30 
REMARK       I    between atoms: N3_30  and  C20_32 
ROOT
HETATM    1  C11 UNL     1     -10.168  82.820  19.957  1.00  0.00     0.095 C 
HETATM    2  C15 UNL     1      -9.451  82.786  18.628  1.00  0.00     0.191 C 
HETATM    3  O4  UNL     1      -9.875  81.621  17.943  1.00  0.00    -0.378 OA
HETATM    4  C16 UNL     1      -9.080  80.545  18.321  1.00  0.00     0.074 C 
HETATM    5  C17 UNL     1      -7.706  80.569  17.655  1.00  0.00     0.047 C 
HETATM    6  C18 UNL     1      -9.694  79.215  18.005  1.00  0.00     0.047 C 
HETATM    7  C19 UNL     1      -8.944  80.618  19.830  1.00  0.00     0.119 C 
HETATM    8  C22 UNL     1     -10.113  81.361  20.447  1.00  0.00     0.052 C 
ENDROOT
BRANCH   1   9
HETATM    9  C10 UNL     1     -11.589  83.124  19.653  1.00  0.00     0.237 C 
HETATM   10  N2  UNL     1     -12.078  83.982  18.661  1.00  0.00    -0.312 N 
HETATM   11  C9  UNL     1     -12.803  85.021  18.886  1.00  0.00     0.118 A 
ATOM     12  H2  UNL     1     -11.844  83.768  17.692  1.00  0.00     0.170 HD
HETATM   13  C5  UNL     1     -13.204  85.763  17.800  1.00  0.00     0.036 A 
HETATM   14  N1  UNL     1     -13.138  85.394  20.134  1.00  0.00    -0.352 N 
HETATM   15  C6  UNL     1     -13.955  86.893  18.048  1.00  0.00     0.048 A 
HETATM   16 CL1  UNL     1     -14.596  87.919  16.747  1.00  0.00    -0.084 Cl
HETATM   17  C7  UNL     1     -14.295  87.268  19.351  1.00  0.00     0.041 A 
HETATM   18  C8  UNL     1     -13.876  86.502  20.404  1.00  0.00     0.091 A 
ATOM     19  H1  UNL     1     -12.822  84.818  20.915  1.00  0.00     0.166 HD
HETATM   20  O2  UNL     1     -12.459  82.536  20.379  1.00  0.00    -0.272 OA
BRANCH  13  21
HETATM   21  C3  UNL     1     -12.851  85.503  16.396  1.00  0.00     0.155 C 
HETATM   22  C4  UNL     1     -13.437  84.215  15.854  1.00  0.00     0.045 C 
BRANCH  21  23
HETATM   23  O1  UNL     1     -11.492  85.325  16.338  1.00  0.00    -0.382 OA
BRANCH  23  24
HETATM   24  C2  UNL     1     -10.634  86.329  16.166  1.00  0.00     0.164 C 
HETATM   25  C1  UNL     1      -9.794  86.180  14.913  1.00  0.00     0.033 C 
ENDBRANCH  23  24
ENDBRANCH  21  23
ENDBRANCH  13  21
ENDBRANCH   1   9
BRANCH   1  26
HETATM   26  C12 UNL     1      -9.552  83.721  20.974  1.00  0.00     0.069 C 
HETATM   27  C13 UNL     1      -9.127  82.995  22.228  1.00  0.00     0.047 C 
HETATM   28  C14 UNL     1      -8.310  84.447  20.483  1.00  0.00     0.047 C 
BRANCH  26  29
HETATM   29  O3  UNL     1     -10.424  84.749  21.366  1.00  0.00    -0.389 OA
ATOM     30  H3  UNL     1     -10.829  85.178  20.621  1.00  0.00     0.210 HD
ENDBRANCH  26  29
ENDBRANCH   1  26
BRANCH   7  31
HETATM   31  N3  UNL     1      -8.944  79.303  20.434  1.00  0.00    -0.354 N 
HETATM   32  C20 UNL     1      -7.786  78.862  21.140  1.00  0.00     0.214 C 
HETATM   33  C21 UNL     1      -7.753  77.526  21.772  1.00  0.00     0.117 C 
HETATM   34  O5  UNL     1      -6.760  79.622  21.236  1.00  0.00    -0.274 OA
ATOM     35  H3  UNL     1      -9.762  78.698  20.356  1.00  0.00     0.163 HD
ENDBRANCH   7  31
TORSDOF 7
ENDMDL
MODEL 4
REMARK VINA RESULT: -6.952843411      2.844      4.794
REMARK  7 active torsions:
REMARK  status: ('A' for Active; 'I' for Inactive)
REMARK    1  A    between atoms: C2_2  and  O1_3 
REMARK    2  A    between atoms: O1_3  and  C3_4 
REMARK    3  A    between atoms: C3_4  and  C5_6 
REMARK       I    between atoms: N2_14  and  C10_16 
REMARK    4  A    between atoms: C10_16  and  C11_18 
REMARK    5  A    between atoms: C11_18  and  C12_19 
REMARK    6  A    between atoms: C12_19  and  O3_22 
REMARK    7  A    between atoms: C19_29  and  N3_30 
REMARK       I    between atoms: N3_30  and  C20_32 
ROOT
HETATM    1  C11 UNL     1     -11.475  83.522  18.801  1.00  0.00     0.095 C 
HETATM    2  C15 UNL     1     -10.518  84.671  19.025  1.00  0.00     0.191 C 
HETATM    3  O4  UNL     1     -10.669  85.569  17.940  1.00  0.00    -0.378 OA
HETATM    4  C16 UNL     1      -9.843  85.177  16.893  1.00  0.00     0.074 C 
HETATM    5  C17 UNL     1      -8.379  85.540  17.133  1.00  0.00     0.047 C 
HETATM    6  C18 UNL     1     -10.230  85.777  15.577  1.00  0.00     0.047 C 
HETATM    7  C19 UNL     1     -10.006  83.675  16.756  1.00  0.00     0.119 C 
HETATM    8  C22 UNL     1     -11.348  83.220  17.296  1.00  0.00     0.052 C 
ENDROOT
BRANCH   1   9
HETATM    9  C10 UNL     1     -12.837  84.069  19.023  1.00  0.00     0.237 C 
HETATM   10  N2  UNL     1     -13.666  84.686  18.079  1.00  0.00    -0.312 N 
HETATM   11  C9  UNL     1     -14.105  85.892  18.170  1.00  0.00     0.118 A 
ATOM     12  H2  UNL     1     -13.941  84.142  17.262  1.00  0.00     0.170 HD
HETATM   13  C5  UNL     1     -14.910  86.353  17.156  1.00  0.00     0.036 A 
HETATM   14  N1  UNL     1     -13.771  86.691  19.199  1.00  0.00    -0.352 N 
HETATM   15  C6  UNL     1     -15.354  87.657  17.243  1.00  0.00     0.048 A 
HETATM   16 CL1  UNL     1     -16.449  88.376  16.043  1.00  0.00    -0.084 Cl
HETATM   17  C7  UNL     1     -14.998  88.475  18.320  1.00  0.00     0.041 A 
HETATM   18  C8  UNL     1     -14.194  87.977  19.308  1.00  0.00     0.091 A 
ATOM     19  H1  UNL     1     -13.171  86.314  19.933  1.00  0.00     0.166 HD
HETATM   20  O2  UNL     1     -13.301  83.961  20.207  1.00  0.00    -0.272 OA
BRANCH  13  21
HETATM   21  C3  UNL     1     -15.294  85.607  15.948  1.00  0.00     0.155 C 
HETATM   22  C4  UNL     1     -16.558  84.791  16.117  1.00  0.00     0.045 C 
BRANCH  21  23
HETATM   23  O1  UNL     1     -14.307  84.687  15.702  1.00  0.00    -0.382 OA
BRANCH  23  24
HETATM   24  C2  UNL     1     -14.152  84.085  14.523  1.00  0.00     0.164 C 
HETATM   25  C1  UNL     1     -13.852  82.604  14.650  1.00  0.00     0.033 C 
ENDBRANCH  23  24
ENDBRANCH  21  23
ENDBRANCH  13  21
ENDBRANCH   1   9
BRANCH   1  26
HETATM   26  C12 UNL     1     -11.169  82.295  19.593  1.00  0.00     0.069 C 
HETATM   27  C13 UNL     1     -10.213  81.360  18.891  1.00  0.00     0.047 C 
HETATM   28  C14 UNL     1     -10.542  82.576  20.949  1.00  0.00     0.047 C 
BRANCH  26  29
HETATM   29  O3  UNL     1     -12.326  81.558  19.891  1.00  0.00    -0.389 OA
ATOM     30  H3  UNL     1     -12.330  81.246  20.788  1.00  0.00     0.210 HD
ENDBRANCH  26  29
ENDBRANCH   1  26
BRANCH   7  31
HETATM   31  N3  UNL     1      -9.971  83.255  15.371  1.00  0.00    -0.354 N 
HETATM   32  C20 UNL     1      -9.050  82.241  14.975  1.00  0.00     0.214 C 
HETATM   33  C21 UNL     1      -8.990  81.786  13.570  1.00  0.00     0.117 C 
HETATM   34  O5  UNL     1      -8.264  81.710  15.835  1.00  0.00    -0.274 OA
ATOM     35  H3  UNL     1     -10.598  83.679  14.687  1.00  0.00     0.163 HD
ENDBRANCH   7  31
TORSDOF 7
ENDMDL
MODEL 5
REMARK VINA RESULT: -6.881251350      7.736     10.770
REMARK  7 active torsions:
REMARK  status: ('A' for Active; 'I' for Inactive)
REMARK    1  A    between atoms: C2_2  and  O1_3 
REMARK    2  A    between atoms: O1_3  and  C3_4 
REMARK    3  A    between atoms: C3_4  and  C5_6 
REMARK       I    between atoms: N2_14  and  C10_16 
REMARK    4  A    between atoms: C10_16  and  C11_18 
REMARK    5  A    between atoms: C11_18  and  C12_19 
REMARK    6  A    between atoms: C12_19  and  O3_22 
REMARK    7  A    between atoms: C19_29  and  N3_30 
REMARK       I    between atoms: N3_30  and  C20_32 
ROOT
HETATM    1  C11 UNL     1      -9.170  78.684  11.602  1.00  0.00     0.095 C 
HETATM    2  C15 UNL     1     -10.225  79.690  11.205  1.00  0.00     0.191 C 
HETATM    3  O4  UNL     1      -9.904  80.918  11.834  1.00  0.00    -0.378 OA
HETATM    4  C16 UNL     1     -10.457  80.945  13.109  1.00  0.00     0.074 C 
HETATM    5  C17 UNL     1     -11.959  81.221  13.090  1.00  0.00     0.047 C 
HETATM    6  C18 UNL     1      -9.837  81.975  14.002  1.00  0.00     0.047 C 
HETATM    7  C19 UNL     1     -10.170  79.592  13.732  1.00  0.00     0.119 C 
HETATM    8  C22 UNL     1      -8.949  78.951  13.103  1.00  0.00     0.052 C 
ENDROOT
BRANCH   1   9
HETATM    9  C10 UNL     1      -7.926  79.090  10.900  1.00  0.00     0.237 C 
HETATM   10  N2  UNL     1      -6.610  78.928  11.348  1.00  0.00    -0.312 N 
HETATM   11  C9  UNL     1      -5.783  79.893  11.551  1.00  0.00     0.118 A 
ATOM     12  H2  UNL     1      -6.283  77.979  11.526  1.00  0.00     0.170 HD
HETATM   13  C5  UNL     1      -4.523  79.567  11.992  1.00  0.00     0.036 A 
HETATM   14  N1  UNL     1      -6.136  81.178  11.369  1.00  0.00    -0.352 N 
HETATM   15  C6  UNL     1      -3.650  80.608  12.237  1.00  0.00     0.048 A 
HETATM   16 CL1  UNL     1      -1.971  80.344  12.754  1.00  0.00    -0.084 Cl
HETATM   17  C7  UNL     1      -4.032  81.939  12.044  1.00  0.00     0.041 A 
HETATM   18  C8  UNL     1      -5.296  82.219  11.603  1.00  0.00     0.091 A 
ATOM     19  H1  UNL     1      -7.081  81.381  11.039  1.00  0.00     0.166 HD
HETATM   20  O2  UNL     1      -8.078  79.648   9.762  1.00  0.00    -0.272 OA
BRANCH  13  21
HETATM   21  C3  UNL     1      -4.034  78.214  12.294  1.00  0.00     0.155 C 
HETATM   22  C4  UNL     1      -3.958  77.314  11.078  1.00  0.00     0.045 C 
BRANCH  21  23
HETATM   23  O1  UNL     1      -4.953  77.618  13.119  1.00  0.00    -0.382 OA
BRANCH  23  24
HETATM   24  C2  UNL     1      -4.792  77.523  14.438  1.00  0.00     0.164 C 
HETATM   25  C1  UNL     1      -4.208  76.192  14.869  1.00  0.00     0.033 C 
ENDBRANCH  23  24
ENDBRANCH  21  23
ENDBRANCH  13  21
ENDBRANCH   1   9
BRANCH   1  26
HETATM   26  C12 UNL     1      -9.557  77.259  11.390  1.00  0.00     0.069 C 
HETATM   27  C13 UNL     1      -9.939  76.553  12.670  1.00  0.00     0.047 C 
HETATM   28  C14 UNL     1     -10.739  77.074  10.453  1.00  0.00     0.047 C 
BRANCH  26  29
HETATM   29  O3  UNL     1      -8.523  76.514  10.799  1.00  0.00    -0.389 OA
ATOM     30  H3  UNL     1      -7.673  76.917  10.931  1.00  0.00     0.210 HD
ENDBRANCH  26  29
ENDBRANCH   1  26
BRANCH   7  31
HETATM   31  N3  UNL     1      -9.878  79.703  15.146  1.00  0.00    -0.354 N 
HETATM   32  C20 UNL     1      -9.871  78.525  15.949  1.00  0.00     0.214 C 
HETATM   33  C21 UNL     1      -9.574  78.601  17.395  1.00  0.00     0.117 C 
HETATM   34  O5  UNL     1     -10.122  77.384  15.424  1.00  0.00    -0.274 OA
ATOM     35  H3  UNL     1      -9.679  80.613  15.562  1.00  0.00     0.163 HD
ENDBRANCH   7  31
TORSDOF 7
ENDMDL
