MODEL 1
REMARK VINA RESULT: -7.260489827      0.000      0.000
REMARK  5 active torsions:
REMARK  status: ('A' for Active; 'I' for Inactive)
REMARK    1  A    between atoms: C2_2  and  C3_3 
REMARK    2  A    between atoms: C3_3  and  O1_4 
REMARK    3  A    between atoms: C12_14  and  C13_15 
REMARK    4  A    between atoms: C13_15  and  C14_16 
REMARK    5  A    between atoms: C15_19  and  O4_20 
ROOT
HETATM    1  C1  UNL     1      -0.835   6.811  81.039  1.00  0.00     0.018 C 
HETATM    2  C2  UNL     1       0.126   5.862  81.786  1.00  0.00    -0.010 C 
HETATM    3  C4  UNL     1       1.409   6.674  82.061  1.00  0.00     0.012 C 
HETATM    4  C5  UNL     1       2.172   6.216  83.250  1.00  0.00     0.002 C 
HETATM    5  C6  UNL     1       1.263   5.529  84.301  1.00  0.00     0.010 C 
HETATM    6  C7  UNL     1      -0.019   6.168  84.135  1.00  0.00    -0.027 A 
HETATM    7  C8  UNL     1       0.080   7.587  84.428  1.00  0.00     0.016 C 
HETATM    8  C9  UNL     1      -1.419   5.923  83.868  1.00  0.00     0.009 A 
HETATM    9  C10 UNL     1      -2.196   5.300  84.913  1.00  0.00     0.007 C 
HETATM   10  C11 UNL     1      -2.312   3.825  84.960  1.00  0.00     0.010 C 
HETATM   11  C12 UNL     1      -0.938   3.327  84.539  1.00  0.00     0.046 C 
HETATM   12  C15 UNL     1      -0.674   3.840  83.190  1.00  0.00     0.148 C 
HETATM   13 CL1  UNL     1      -2.256   3.448  82.375  1.00  0.00    -0.087 Cl
HETATM   14  C16 UNL     1      -0.496   5.317  83.006  1.00  0.00     0.027 A 
ENDROOT
BRANCH   2  15
HETATM   15  C3  UNL     1       0.549   4.923  80.693  1.00  0.00     0.174 C 
BRANCH  15  16
HETATM   16  O1  UNL     1      -0.377   4.510  79.799  1.00  0.00    -0.400 OA
ATOM     17  H1  UNL     1      -0.248   4.718  78.882  1.00  0.00     0.209 HD
ENDBRANCH  15  16
ENDBRANCH   2  15
BRANCH  12  18
HETATM   18  O4  UNL     1       0.254   3.031  82.595  1.00  0.00    -0.374 OA
ATOM     19  H4  UNL     1       0.140   3.087  81.653  1.00  0.00     0.212 HD
ENDBRANCH  12  18
BRANCH  11  20
HETATM   20  C13 UNL     1      -1.138   1.805  84.401  1.00  0.00     0.122 C 
BRANCH  20  21
HETATM   21  C14 UNL     1      -1.061   1.233  85.767  1.00  0.00     0.173 C 
HETATM   22  O2  UNL     1      -0.143   1.644  86.547  1.00  0.00    -0.648 OA
HETATM   23  O3  UNL     1      -1.971   0.254  86.225  1.00  0.00    -0.648 OA
ENDBRANCH  20  21
ENDBRANCH  11  20
TORSDOF 5
ENDMDL
MODEL 2
REMARK VINA RESULT: -6.842207670      1.262      1.461
REMARK  5 active torsions:
REMARK  status: ('A' for Active; 'I' for Inactive)
REMARK    1  A    between atoms: C2_2  and  C3_3 
REMARK    2  A    between atoms: C3_3  and  O1_4 
REMARK    3  A    between atoms: C12_14  and  C13_15 
REMARK    4  A    between atoms: C13_15  and  C14_16 
REMARK    5  A    between atoms: C15_19  and  O4_20 
ROOT
HETATM    1  C1  UNL     1      -1.367   6.379  81.500  1.00  0.00     0.018 C 
HETATM    2  C2  UNL     1      -0.596   5.371  82.379  1.00  0.00    -0.010 C 
HETATM    3  C4  UNL     1       0.879   5.822  82.361  1.00  0.00     0.012 C 
HETATM    4  C5  UNL     1       1.649   5.421  83.566  1.00  0.00     0.002 C 
HETATM    5  C6  UNL     1       0.742   5.254  84.813  1.00  0.00     0.010 C 
HETATM    6  C7  UNL     1      -0.339   6.183  84.593  1.00  0.00    -0.027 A 
HETATM    7  C8  UNL     1       0.166   7.544  84.537  1.00  0.00     0.016 C 
HETATM    8  C9  UNL     1      -1.776   6.297  84.493  1.00  0.00     0.009 A 
HETATM    9  C10 UNL     1      -2.542   6.151  85.709  1.00  0.00     0.007 C 
HETATM   10  C11 UNL     1      -3.032   4.813  86.110  1.00  0.00     0.010 C 
HETATM   11  C12 UNL     1      -1.905   3.868  85.720  1.00  0.00     0.046 C 
HETATM   12  C15 UNL     1      -1.700   3.996  84.272  1.00  0.00     0.148 C 
HETATM   13 CL1  UNL     1      -3.425   3.912  83.689  1.00  0.00    -0.087 Cl
HETATM   14  C16 UNL     1      -1.169   5.289  83.734  1.00  0.00     0.027 A 
ENDROOT
BRANCH   2  15
HETATM   15  C3  UNL     1      -0.584   4.146  81.510  1.00  0.00     0.174 C 
BRANCH  15  16
HETATM   16  O1  UNL     1      -1.698   3.839  80.808  1.00  0.00    -0.400 OA
ATOM     17  H1  UNL     1      -1.730   3.009  80.347  1.00  0.00     0.209 HD
ENDBRANCH  15  16
ENDBRANCH   2  15
BRANCH  12  18
HETATM   18  O4  UNL     1      -1.105   2.850  83.819  1.00  0.00    -0.374 OA
ATOM     19  H4  UNL     1      -0.685   3.040  82.989  1.00  0.00     0.212 HD
ENDBRANCH  12  18
BRANCH  11  20
HETATM   20  C13 UNL     1      -2.513   2.472  85.959  1.00  0.00     0.122 C 
BRANCH  20  21
HETATM   21  C14 UNL     1      -1.560   1.726  86.816  1.00  0.00     0.173 C 
HETATM   22  O2  UNL     1      -1.992   1.202  87.893  1.00  0.00    -0.648 OA
HETATM   23  O3  UNL     1      -0.198   1.580  86.474  1.00  0.00    -0.648 OA
ENDBRANCH  20  21
ENDBRANCH  11  20
TORSDOF 5
ENDMDL
MODEL 3
REMARK VINA RESULT: -6.613364049      1.518      2.412
REMARK  5 active torsions:
REMARK  status: ('A' for Active; 'I' for Inactive)
REMARK    1  A    between atoms: C2_2  and  C3_3 
REMARK    2  A    between atoms: C3_3  and  O1_4 
REMARK    3  A    between atoms: C12_14  and  C13_15 
REMARK    4  A    between atoms: C13_15  and  C14_16 
REMARK    5  A    between atoms: C15_19  and  O4_20 
ROOT
HETATM    1  C1  UNL     1       0.015   7.237  80.834  1.00  0.00     0.018 C 
HETATM    2  C2  UNL     1      -0.022   5.696  80.888  1.00  0.00    -0.010 C 
HETATM    3  C4  UNL     1       1.010   5.201  79.852  1.00  0.00     0.012 C 
HETATM    4  C5  UNL     1       1.580   3.865  80.157  1.00  0.00     0.002 C 
HETATM    5  C6  UNL     1       1.563   3.552  81.675  1.00  0.00     0.010 C 
HETATM    6  C7  UNL     1       1.678   4.844  82.306  1.00  0.00    -0.027 A 
HETATM    7  C8  UNL     1       2.940   5.470  81.952  1.00  0.00     0.016 C 
HETATM    8  C9  UNL     1       1.049   5.742  83.248  1.00  0.00     0.009 A 
HETATM    9  C10 UNL     1       1.101   5.384  84.646  1.00  0.00     0.007 C 
HETATM   10  C11 UNL     1       0.012   4.573  85.236  1.00  0.00     0.010 C 
HETATM   11  C12 UNL     1      -0.356   3.585  84.138  1.00  0.00     0.046 C 
HETATM   12  C15 UNL     1      -0.785   4.361  82.969  1.00  0.00     0.148 C 
HETATM   13 CL1  UNL     1      -1.909   5.555  83.763  1.00  0.00    -0.087 Cl
HETATM   14  C16 UNL     1       0.230   5.198  82.251  1.00  0.00     0.027 A 
ENDROOT
BRANCH   2  15
HETATM   15  C3  UNL     1      -1.336   5.393  80.225  1.00  0.00     0.174 C 
BRANCH  15  16
HETATM   16  O1  UNL     1      -2.387   6.207  80.468  1.00  0.00    -0.400 OA
ATOM     17  H1  UNL     1      -2.236   7.143  80.513  1.00  0.00     0.209 HD
ENDBRANCH  15  16
ENDBRANCH   2  15
BRANCH  12  18
HETATM   18  O4  UNL     1      -1.584   3.565  82.195  1.00  0.00    -0.374 OA
ATOM     19  H4  UNL     1      -1.526   2.675  82.521  1.00  0.00     0.212 HD
ENDBRANCH  12  18
BRANCH  11  20
HETATM   20  C13 UNL     1      -1.615   2.891  84.695  1.00  0.00     0.122 C 
BRANCH  20  21
HETATM   21  C14 UNL     1      -1.177   1.594  85.265  1.00  0.00     0.173 C 
HETATM   22  O2  UNL     1      -1.579   0.520  84.713  1.00  0.00    -0.648 OA
HETATM   23  O3  UNL     1      -0.332   1.517  86.394  1.00  0.00    -0.648 OA
ENDBRANCH  20  21
ENDBRANCH  11  20
TORSDOF 5
ENDMDL
MODEL 4
REMARK VINA RESULT: -6.221028767      1.650      2.720
REMARK  5 active torsions:
REMARK  status: ('A' for Active; 'I' for Inactive)
REMARK    1  A    between atoms: C2_2  and  C3_3 
REMARK    2  A    between atoms: C3_3  and  O1_4 
REMARK    3  A    between atoms: C12_14  and  C13_15 
REMARK    4  A    between atoms: C13_15  and  C14_16 
REMARK    5  A    between atoms: C15_19  and  O4_20 
ROOT
HETATM    1  C1  UNL     1      -0.244   8.445  81.916  1.00  0.00     0.018 C 
HETATM    2  C2  UNL     1      -0.607   6.971  81.641  1.00  0.00    -0.010 C 
HETATM    3  C4  UNL     1      -0.117   6.664  80.210  1.00  0.00     0.012 C 
HETATM    4  C5  UNL     1       0.206   5.234  79.976  1.00  0.00     0.002 C 
HETATM    5  C6  UNL     1       0.625   4.505  81.278  1.00  0.00     0.010 C 
HETATM    6  C7  UNL     1       1.230   5.537  82.085  1.00  0.00    -0.027 A 
HETATM    7  C8  UNL     1       2.409   6.069  81.424  1.00  0.00     0.016 C 
HETATM    8  C9  UNL     1       1.168   6.202  83.366  1.00  0.00     0.009 A 
HETATM    9  C10 UNL     1       1.599   5.456  84.525  1.00  0.00     0.007 C 
HETATM   10  C11 UNL     1       0.615   4.658  85.291  1.00  0.00     0.010 C 
HETATM   11  C12 UNL     1      -0.309   4.081  84.228  1.00  0.00     0.046 C 
HETATM   12  C15 UNL     1      -0.915   5.207  83.509  1.00  0.00     0.148 C 
HETATM   13 CL1  UNL     1      -1.413   6.260  84.911  1.00  0.00    -0.087 Cl
HETATM   14  C16 UNL     1      -0.036   6.076  82.662  1.00  0.00     0.027 A 
ENDROOT
BRANCH   2  15
HETATM   15  C3  UNL     1      -2.099   7.043  81.477  1.00  0.00     0.174 C 
BRANCH  15  16
HETATM   16  O1  UNL     1      -2.661   6.451  80.401  1.00  0.00    -0.400 OA
ATOM     17  H1  UNL     1      -3.385   6.888  79.968  1.00  0.00     0.209 HD
ENDBRANCH  15  16
ENDBRANCH   2  15
BRANCH  12  18
HETATM   18  O4  UNL     1      -2.083   4.777  82.942  1.00  0.00    -0.374 OA
ATOM     19  H4  UNL     1      -1.932   3.920  82.560  1.00  0.00     0.212 HD
ENDBRANCH  12  18
BRANCH  11  20
HETATM   20  C13 UNL     1      -1.433   3.426  85.054  1.00  0.00     0.122 C 
BRANCH  20  21
HETATM   21  C14 UNL     1      -1.059   2.003  85.241  1.00  0.00     0.173 C 
HETATM   22  O2  UNL     1      -1.360   1.170  84.327  1.00  0.00    -0.648 OA
HETATM   23  O3  UNL     1      -0.383   1.550  86.395  1.00  0.00    -0.648 OA
ENDBRANCH  20  21
ENDBRANCH  11  20
TORSDOF 5
ENDMDL
MODEL 5
REMARK VINA RESULT: -6.133616969      2.600      5.171
REMARK  5 active torsions:
REMARK  status: ('A' for Active; 'I' for Inactive)
REMARK    1  A    between atoms: C2_2  and  C3_3 
REMARK    2  A    between atoms: C3_3  and  O1_4 
REMARK    3  A    between atoms: C12_14  and  C13_15 
REMARK    4  A    between atoms: C13_15  and  C14_16 
REMARK    5  A    between atoms: C15_19  and  O4_20 
ROOT
HETATM    1  C1  UNL     1       0.761   2.901  82.018  1.00  0.00     0.018 C 
HETATM    2  C2  UNL     1      -0.588   3.625  82.212  1.00  0.00    -0.010 C 
HETATM    3  C4  UNL     1      -1.302   2.905  83.376  1.00  0.00     0.012 C 
HETATM    4  C5  UNL     1      -2.259   3.762  84.120  1.00  0.00     0.002 C 
HETATM    5  C6  UNL     1      -1.882   5.264  84.047  1.00  0.00     0.010 C 
HETATM    6  C7  UNL     1      -0.445   5.265  83.921  1.00  0.00    -0.027 A 
HETATM    7  C8  UNL     1       0.166   4.665  85.094  1.00  0.00     0.016 C 
HETATM    8  C9  UNL     1       0.653   5.720  83.099  1.00  0.00     0.009 A 
HETATM    9  C10 UNL     1       0.949   7.134  83.109  1.00  0.00     0.007 C 
HETATM   10  C11 UNL     1       0.304   8.025  82.118  1.00  0.00     0.010 C 
HETATM   11  C12 UNL     1      -1.107   7.473  81.980  1.00  0.00     0.046 C 
HETATM   12  C15 UNL     1      -0.998   6.084  81.520  1.00  0.00     0.148 C 
HETATM   13 CL1  UNL     1       0.217   6.280  80.175  1.00  0.00    -0.087 Cl
HETATM   14  C16 UNL     1      -0.397   5.067  82.442  1.00  0.00     0.027 A 
ENDROOT
BRANCH   2  15
HETATM   15  C3  UNL     1      -1.362   3.168  81.008  1.00  0.00     0.174 C 
BRANCH  15  16
HETATM   16  O1  UNL     1      -2.656   2.811  81.167  1.00  0.00    -0.400 OA
ATOM     17  H1  UNL     1      -2.852   2.008  81.635  1.00  0.00     0.209 HD
ENDBRANCH  15  16
ENDBRANCH   2  15
BRANCH  12  18
HETATM   18  O4  UNL     1      -2.171   5.740  80.906  1.00  0.00    -0.374 OA
ATOM     19  H4  UNL     1      -2.628   5.119  81.461  1.00  0.00     0.212 HD
ENDBRANCH  12  18
BRANCH  11  20
HETATM   20  C13 UNL     1      -1.692   8.283  80.807  1.00  0.00     0.122 C 
BRANCH  20  21
HETATM   21  C14 UNL     1      -3.010   8.798  81.250  1.00  0.00     0.173 C 
HETATM   22  O2  UNL     1      -3.296  10.017  81.021  1.00  0.00    -0.648 OA
HETATM   23  O3  UNL     1      -3.951   7.980  81.915  1.00  0.00    -0.648 OA
ENDBRANCH  20  21
ENDBRANCH  11  20
TORSDOF 5
ENDMDL
