MODEL 1
REMARK VINA RESULT: -7.109209060      0.000      0.000
REMARK  3 active torsions:
REMARK  status: ('A' for Active; 'I' for Inactive)
REMARK    1  A    between atoms: C2_2  and  N1_3 
REMARK    2  A    between atoms: N2_6  and  C5_7 
REMARK    3  A    between atoms: C9_12  and  C10_13 
ROOT
HETATM    1  C5  UNL     1      -0.689   1.844  83.065  1.00  0.00     0.037 A 
HETATM    2  C6  UNL     1      -0.603   0.516  82.682  1.00  0.00     0.053 A 
HETATM    3  C7  UNL     1       0.177   0.220  81.588  1.00  0.00     0.036 A 
HETATM    4 CL1  UNL     1       0.273  -1.462  81.109  1.00  0.00    -0.084 Cl
HETATM    5  C8  UNL     1       0.862   1.175  80.877  1.00  0.00     0.031 A 
HETATM    6  C9  UNL     1       0.778   2.490  81.262  1.00  0.00    -0.048 A 
HETATM    7  C15 UNL     1       0.010   2.828  82.345  1.00  0.00     0.037 A 
ENDROOT
BRANCH   1   8
HETATM    8  N2  UNL     1      -1.487   2.199  84.159  1.00  0.00    -0.334 N 
HETATM    9  C4  UNL     1      -2.478   3.285  84.074  1.00  0.00     0.161 C 
HETATM   10  C3  UNL     1      -2.167   4.178  85.225  1.00  0.00     0.293 C 
HETATM   11  N1  UNL     1      -2.260   3.607  86.537  1.00  0.00     0.096 N 
HETATM   12  C17 UNL     1      -1.918   2.209  86.635  1.00  0.00     0.348 C 
HETATM   13  C16 UNL     1      -1.396   1.574  85.404  1.00  0.00     0.106 C 
HETATM   14  N4  UNL     1      -0.864   0.407  85.530  1.00  0.00    -0.387 N 
ATOM     15  H42 UNL     1      -0.504  -0.031  84.682  1.00  0.00     0.157 HD
ATOM     16  H41 UNL     1      -0.798  -0.050  86.440  1.00  0.00     0.157 HD
BRANCH  11  17
HETATM   17  C2  UNL     1      -3.595   3.845  87.105  1.00  0.00     0.268 C 
HETATM   18  C1  UNL     1      -4.288   2.521  87.264  1.00  0.00     0.037 C 
ENDBRANCH  11  17
ENDBRANCH   1   8
BRANCH   6  19
HETATM   19  C10 UNL     1       1.519   3.498  80.489  1.00  0.00     0.051 C 
HETATM   20  C11 UNL     1       1.132   4.923  80.872  1.00  0.00     0.044 C 
HETATM   21  C12 UNL     1       2.520   5.456  81.160  1.00  0.00     0.189 C 
HETATM   22  C13 UNL     1       3.379   4.854  80.074  1.00  0.00     0.066 C 
HETATM   23  N3  UNL     1       3.100   4.410  82.021  1.00  0.00    -0.066 N 
HETATM   24  C14 UNL     1       2.993   3.578  80.824  1.00  0.00     0.197 C 
ATOM     25  H32 UNL     1       3.978   4.538  82.526  1.00  0.00     0.278 HD
ATOM     26  H31 UNL     1       2.690   4.143  82.916  1.00  0.00     0.278 HD
ENDBRANCH   6  19
TORSDOF 3
ENDMDL
MODEL 2
REMARK VINA RESULT: -7.102540621      1.911      6.635
REMARK  3 active torsions:
REMARK  status: ('A' for Active; 'I' for Inactive)
REMARK    1  A    between atoms: C2_2  and  N1_3 
REMARK    2  A    between atoms: N2_6  and  C5_7 
REMARK    3  A    between atoms: C9_12  and  C10_13 
ROOT
HETATM    1  C5  UNL     1      -0.394   3.690  82.900  1.00  0.00     0.037 A 
HETATM    2  C6  UNL     1      -0.438   2.406  82.383  1.00  0.00     0.053 A 
HETATM    3  C7  UNL     1      -0.904   1.406  83.205  1.00  0.00     0.036 A 
HETATM    4 CL1  UNL     1      -0.950  -0.213  82.542  1.00  0.00    -0.084 Cl
HETATM    5  C8  UNL     1      -1.321   1.631  84.494  1.00  0.00     0.031 A 
HETATM    6  C9  UNL     1      -1.279   2.905  85.002  1.00  0.00    -0.048 A 
HETATM    7  C15 UNL     1      -0.819   3.930  84.217  1.00  0.00     0.037 A 
ENDROOT
BRANCH   1   8
HETATM    8  N2  UNL     1       0.092   4.739  82.110  1.00  0.00    -0.334 N 
HETATM    9  C4  UNL     1      -0.812   5.610  81.340  1.00  0.00     0.161 C 
HETATM   10  C3  UNL     1      -0.277   5.582  79.950  1.00  0.00     0.293 C 
HETATM   11  N1  UNL     1       1.060   6.063  79.756  1.00  0.00     0.096 N 
HETATM   12  C17 UNL     1       1.970   5.835  80.851  1.00  0.00     0.348 C 
HETATM   13  C16 UNL     1       1.451   5.028  81.978  1.00  0.00     0.106 C 
HETATM   14  N4  UNL     1       2.311   4.613  82.844  1.00  0.00    -0.387 N 
ATOM     15  H42 UNL     1       1.953   4.056  83.620  1.00  0.00     0.157 HD
ATOM     16  H41 UNL     1       3.304   4.824  82.747  1.00  0.00     0.157 HD
BRANCH  11  17
HETATM   17  C2  UNL     1       1.044   7.488  79.397  1.00  0.00     0.268 C 
HETATM   18  C1  UNL     1       0.057   7.687  78.280  1.00  0.00     0.037 C 
ENDBRANCH  11  17
ENDBRANCH   1   8
BRANCH   6  19
HETATM   19  C10 UNL     1      -1.729   3.127  86.385  1.00  0.00     0.051 C 
HETATM   20  C11 UNL     1      -3.013   3.947  86.453  1.00  0.00     0.044 C 
HETATM   21  C12 UNL     1      -3.831   3.003  87.310  1.00  0.00     0.189 C 
HETATM   22  C13 UNL     1      -2.849   2.495  88.340  1.00  0.00     0.066 C 
HETATM   23  N3  UNL     1      -3.619   1.699  86.654  1.00  0.00    -0.066 N 
HETATM   24  C14 UNL     1      -2.233   1.881  87.082  1.00  0.00     0.197 C 
ATOM     25  H32 UNL     1      -4.164   0.870  86.890  1.00  0.00     0.278 HD
ATOM     26  H31 UNL     1      -3.877   1.523  85.684  1.00  0.00     0.278 HD
ENDBRANCH   6  19
TORSDOF 3
ENDMDL
MODEL 3
REMARK VINA RESULT: -7.044121200      1.529      6.674
REMARK  3 active torsions:
REMARK  status: ('A' for Active; 'I' for Inactive)
REMARK    1  A    between atoms: C2_2  and  N1_3 
REMARK    2  A    between atoms: N2_6  and  C5_7 
REMARK    3  A    between atoms: C9_12  and  C10_13 
ROOT
HETATM    1  C5  UNL     1       0.954   2.913  81.244  1.00  0.00     0.037 A 
HETATM    2  C6  UNL     1       1.007   1.581  80.869  1.00  0.00     0.053 A 
HETATM    3  C7  UNL     1       0.188   0.700  81.537  1.00  0.00     0.036 A 
HETATM    4 CL1  UNL     1       0.267  -0.982  81.058  1.00  0.00    -0.084 Cl
HETATM    5  C8  UNL     1      -0.665   1.087  82.542  1.00  0.00     0.031 A 
HETATM    6  C9  UNL     1      -0.717   2.408  82.909  1.00  0.00    -0.048 A 
HETATM    7  C15 UNL     1       0.084   3.318  82.270  1.00  0.00     0.037 A 
ENDROOT
BRANCH   1   8
HETATM    8  N2  UNL     1       1.783   3.845  80.609  1.00  0.00    -0.334 N 
HETATM    9  C4  UNL     1       1.338   4.592  79.420  1.00  0.00     0.161 C 
HETATM   10  C3  UNL     1       2.409   4.375  78.408  1.00  0.00     0.293 C 
HETATM   11  N1  UNL     1       3.726   4.834  78.744  1.00  0.00     0.096 N 
HETATM   12  C17 UNL     1       4.073   4.769  80.142  1.00  0.00     0.348 C 
HETATM   13  C16 UNL     1       3.084   4.122  81.033  1.00  0.00     0.106 C 
HETATM   14  N4  UNL     1       3.473   3.840  82.229  1.00  0.00    -0.387 N 
ATOM     15  H42 UNL     1       2.790   3.394  82.843  1.00  0.00     0.157 HD
ATOM     16  H41 UNL     1       4.423   4.043  82.539  1.00  0.00     0.157 HD
BRANCH  11  17
HETATM   17  C2  UNL     1       3.939   6.195  78.230  1.00  0.00     0.268 C 
HETATM   18  C1  UNL     1       3.492   6.239  76.795  1.00  0.00     0.037 C 
ENDBRANCH  11  17
ENDBRANCH   1   8
BRANCH   6  19
HETATM   19  C10 UNL     1      -1.637   2.804  83.987  1.00  0.00     0.051 C 
HETATM   20  C11 UNL     1      -1.552   1.875  85.193  1.00  0.00     0.044 C 
HETATM   21  C12 UNL     1      -1.312   2.923  86.260  1.00  0.00     0.189 C 
HETATM   22  C13 UNL     1      -2.224   4.062  85.869  1.00  0.00     0.066 C 
HETATM   23  N3  UNL     1      -0.241   3.749  85.673  1.00  0.00    -0.066 N 
HETATM   24  C14 UNL     1      -1.260   4.095  84.682  1.00  0.00     0.197 C 
ATOM     25  H32 UNL     1       0.267   4.453  86.208  1.00  0.00     0.278 HD
ATOM     26  H31 UNL     1       0.669   3.369  85.415  1.00  0.00     0.278 HD
ENDBRANCH   6  19
TORSDOF 3
ENDMDL
MODEL 4
REMARK VINA RESULT: -6.957507852      3.088      5.406
REMARK  3 active torsions:
REMARK  status: ('A' for Active; 'I' for Inactive)
REMARK    1  A    between atoms: C2_2  and  N1_3 
REMARK    2  A    between atoms: N2_6  and  C5_7 
REMARK    3  A    between atoms: C9_12  and  C10_13 
ROOT
HETATM    1  C5  UNL     1      -0.641   4.060  84.214  1.00  0.00     0.037 A 
HETATM    2  C6  UNL     1      -1.089   3.807  85.500  1.00  0.00     0.053 A 
HETATM    3  C7  UNL     1      -1.524   2.533  85.782  1.00  0.00     0.036 A 
HETATM    4 CL1  UNL     1      -2.093   2.226  87.409  1.00  0.00    -0.084 Cl
HETATM    5  C8  UNL     1      -1.530   1.521  84.852  1.00  0.00     0.031 A 
HETATM    6  C9  UNL     1      -1.082   1.775  83.580  1.00  0.00    -0.048 A 
HETATM    7  C15 UNL     1      -0.642   3.032  83.257  1.00  0.00     0.037 A 
ENDROOT
BRANCH   1   8
HETATM    8  N2  UNL     1      -0.207   5.346  83.872  1.00  0.00    -0.334 N 
HETATM    9  C4  UNL     1      -1.151   6.394  83.448  1.00  0.00     0.161 C 
HETATM   10  C3  UNL     1      -0.606   6.899  82.157  1.00  0.00     0.293 C 
HETATM   11  N1  UNL     1       0.704   7.481  82.186  1.00  0.00     0.096 N 
HETATM   12  C17 UNL     1       1.618   6.914  83.146  1.00  0.00     0.348 C 
HETATM   13  C16 UNL     1       1.136   5.728  83.889  1.00  0.00     0.106 C 
HETATM   14  N4  UNL     1       2.011   5.068  84.567  1.00  0.00    -0.387 N 
ATOM     15  H42 UNL     1       1.678   4.250  85.079  1.00  0.00     0.157 HD
ATOM     16  H41 UNL     1       2.992   5.347  84.579  1.00  0.00     0.157 HD
BRANCH  11  17
HETATM   17  C2  UNL     1       0.614   8.937  82.368  1.00  0.00     0.268 C 
HETATM   18  C1  UNL     1       1.301   9.299  83.655  1.00  0.00     0.037 C 
ENDBRANCH  11  17
ENDBRANCH   1   8
BRANCH   6  19
HETATM   19  C10 UNL     1      -1.095   0.680  82.598  1.00  0.00     0.051 C 
HETATM   20  C11 UNL     1      -1.466   1.158  81.198  1.00  0.00     0.044 C 
HETATM   21  C12 UNL     1      -0.279   0.588  80.450  1.00  0.00     0.189 C 
HETATM   22  C13 UNL     1      -0.066  -0.770  81.077  1.00  0.00     0.066 C 
HETATM   23  N3  UNL     1       0.865   1.008  81.281  1.00  0.00    -0.066 N 
HETATM   24  C14 UNL     1       0.273   0.117  82.277  1.00  0.00     0.197 C 
ATOM     25  H32 UNL     1       1.832   0.922  80.970  1.00  0.00     0.278 HD
ATOM     26  H31 UNL     1       1.074   1.987  81.474  1.00  0.00     0.278 HD
ENDBRANCH   6  19
TORSDOF 3
ENDMDL
MODEL 5
REMARK VINA RESULT: -6.950452313      3.808      6.297
REMARK  3 active torsions:
REMARK  status: ('A' for Active; 'I' for Inactive)
REMARK    1  A    between atoms: C2_2  and  N1_3 
REMARK    2  A    between atoms: N2_6  and  C5_7 
REMARK    3  A    between atoms: C9_12  and  C10_13 
ROOT
HETATM    1  C5  UNL     1      -1.360   5.643  83.369  1.00  0.00     0.037 A 
HETATM    2  C6  UNL     1      -2.145   5.457  84.495  1.00  0.00     0.053 A 
HETATM    3  C7  UNL     1      -2.309   4.169  84.949  1.00  0.00     0.036 A 
HETATM    4 CL1  UNL     1      -3.307   3.946  86.370  1.00  0.00    -0.084 Cl
HETATM    5  C8  UNL     1      -1.732   3.081  84.339  1.00  0.00     0.031 A 
HETATM    6  C9  UNL     1      -0.953   3.270  83.225  1.00  0.00    -0.048 A 
HETATM    7  C15 UNL     1      -0.766   4.537  82.739  1.00  0.00     0.037 A 
ENDROOT
BRANCH   1   8
HETATM    8  N2  UNL     1      -1.180   6.933  82.856  1.00  0.00    -0.334 N 
HETATM    9  C4  UNL     1      -2.153   7.541  81.932  1.00  0.00     0.161 C 
HETATM   10  C3  UNL     1      -1.343   7.993  80.767  1.00  0.00     0.293 C 
HETATM   11  N1  UNL     1      -0.320   8.965  81.022  1.00  0.00     0.096 N 
HETATM   12  C17 UNL     1       0.316   8.878  82.314  1.00  0.00     0.348 C 
HETATM   13  C16 UNL     1      -0.073   7.727  83.159  1.00  0.00     0.106 C 
HETATM   14  N4  UNL     1       0.650   7.497  84.201  1.00  0.00    -0.387 N 
ATOM     15  H42 UNL     1       0.382   6.703  84.784  1.00  0.00     0.157 HD
ATOM     16  H41 UNL     1       1.459   8.077  84.423  1.00  0.00     0.157 HD
BRANCH  11  17
HETATM   17  C2  UNL     1      -0.838  10.323  80.802  1.00  0.00     0.268 C 
HETATM   18  C1  UNL     1       0.182  11.309  81.301  1.00  0.00     0.037 C 
ENDBRANCH  11  17
ENDBRANCH   1   8
BRANCH   6  19
HETATM   19  C10 UNL     1      -0.344   2.093  82.585  1.00  0.00     0.051 C 
HETATM   20  C11 UNL     1      -1.067   0.799  82.940  1.00  0.00     0.044 C 
HETATM   21  C12 UNL     1      -1.314   0.294  81.533  1.00  0.00     0.189 C 
HETATM   22  C13 UNL     1      -0.037   0.618  80.796  1.00  0.00     0.066 C 
HETATM   23  N3  UNL     1      -1.860   1.481  80.850  1.00  0.00    -0.066 N 
HETATM   24  C14 UNL     1      -0.528   2.038  81.083  1.00  0.00     0.197 C 
ATOM     25  H32 UNL     1      -2.283   1.436  79.923  1.00  0.00     0.278 HD
ATOM     26  H31 UNL     1      -2.713   1.948  81.155  1.00  0.00     0.278 HD
ENDBRANCH   6  19
TORSDOF 3
ENDMDL
