MODEL 1
REMARK VINA RESULT: -7.826167063      0.000      0.000
REMARK  5 active torsions:
REMARK  status: ('A' for Active; 'I' for Inactive)
REMARK    1  A    between atoms: C4_4  and  C5_5 
REMARK    2  A    between atoms: C5_5  and  O1_6 
REMARK    3  A    between atoms: C6_8  and  C7_9 
REMARK    4  A    between atoms: C7_9  and  C8_10 
REMARK    5  A    between atoms: C11_15  and  C13_17 
ROOT
HETATM    1  C1  UNL     1      -0.563   1.652  82.294  1.00  0.00     0.016 C 
HETATM    2  C2  UNL     1      -1.189   2.820  82.987  1.00  0.00     0.028 C 
HETATM    3  C3  UNL     1      -1.790   2.480  84.330  1.00  0.00     0.023 C 
HETATM    4  C4  UNL     1      -1.272   3.488  85.324  1.00  0.00    -0.001 C 
HETATM    5  C6  UNL     1      -2.268   3.970  86.297  1.00  0.00     0.007 C 
HETATM    6  C9  UNL     1      -3.105   5.132  85.784  1.00  0.00     0.007 C 
HETATM    7  C10 UNL     1      -2.873   5.422  84.336  1.00  0.00     0.020 C 
HETATM    8  C11 UNL     1      -1.399   5.730  84.187  1.00  0.00     0.046 C 
HETATM    9  C12 UNL     1      -1.135   6.888  85.167  1.00  0.00     0.026 C 
HETATM   10  C14 UNL     1      -0.550   4.567  84.551  1.00  0.00     0.020 C 
HETATM   11  C15 UNL     1       0.745   5.008  85.204  1.00  0.00     0.024 C 
HETATM   12  C16 UNL     1      -0.157   3.848  83.309  1.00  0.00    -0.006 C 
HETATM   13  N1  UNL     1       0.886   4.019  82.598  1.00  0.00    -0.405 N 
ATOM     14  H11 UNL     1       1.592   4.722  82.818  1.00  0.00     0.155 HD
ATOM     15  H12 UNL     1       1.155   3.526  81.747  1.00  0.00     0.155 HD
ENDROOT
BRANCH   5  16
HETATM   16  C7  UNL     1      -3.281   2.941  86.750  1.00  0.00     0.118 C 
BRANCH  16  17
HETATM   17  C8  UNL     1      -2.889   2.371  88.088  1.00  0.00     0.172 C 
HETATM   18  O2  UNL     1      -3.096   3.059  89.107  1.00  0.00    -0.648 OA
HETATM   19  O3  UNL     1      -2.313   1.125  88.228  1.00  0.00    -0.648 OA
ENDBRANCH  16  17
ENDBRANCH   5  16
BRANCH   4  20
HETATM   20  C5  UNL     1      -0.149   2.777  86.098  1.00  0.00     0.175 C 
BRANCH  20  21
HETATM   21  O1  UNL     1      -0.345   1.407  86.123  1.00  0.00    -0.400 OA
ATOM     22  H1  UNL     1      -0.184   1.019  85.271  1.00  0.00     0.209 HD
ENDBRANCH  20  21
ENDBRANCH   4  20
BRANCH   8  23
HETATM   23  C13 UNL     1      -1.185   6.302  82.842  1.00  0.00     0.228 C 
HETATM   24  O4  UNL     1      -1.975   6.053  81.948  1.00  0.00    -0.279 OA
HETATM   25 CL1  UNL     1       0.160   7.344  82.409  1.00  0.00    -0.043 Cl
ENDBRANCH   8  23
TORSDOF 5
ENDMDL
MODEL 2
REMARK VINA RESULT: -6.582049541      1.483      1.721
REMARK  5 active torsions:
REMARK  status: ('A' for Active; 'I' for Inactive)
REMARK    1  A    between atoms: C4_4  and  C5_5 
REMARK    2  A    between atoms: C5_5  and  O1_6 
REMARK    3  A    between atoms: C6_8  and  C7_9 
REMARK    4  A    between atoms: C7_9  and  C8_10 
REMARK    5  A    between atoms: C11_15  and  C13_17 
ROOT
HETATM    1  C1  UNL     1       0.253   2.155  81.793  1.00  0.00     0.016 C 
HETATM    2  C2  UNL     1      -0.283   3.459  82.293  1.00  0.00     0.028 C 
HETATM    3  C3  UNL     1      -1.292   3.315  83.407  1.00  0.00     0.023 C 
HETATM    4  C4  UNL     1      -0.873   4.244  84.518  1.00  0.00    -0.001 C 
HETATM    5  C6  UNL     1      -1.977   4.966  85.175  1.00  0.00     0.007 C 
HETATM    6  C9  UNL     1      -2.375   6.248  84.458  1.00  0.00     0.007 C 
HETATM    7  C10 UNL     1      -1.694   6.413  83.138  1.00  0.00     0.020 C 
HETATM    8  C11 UNL     1      -0.206   6.407  83.416  1.00  0.00     0.046 C 
HETATM    9  C12 UNL     1       0.010   7.533  84.443  1.00  0.00     0.026 C 
HETATM   10  C14 UNL     1       0.246   5.114  83.992  1.00  0.00     0.020 C 
HETATM   11  C15 UNL     1       1.369   5.313  84.990  1.00  0.00     0.024 C 
HETATM   12  C16 UNL     1       0.810   4.270  82.905  1.00  0.00    -0.006 C 
HETATM   13  N1  UNL     1       2.021   4.190  82.520  1.00  0.00    -0.405 N 
ATOM     14  H11 UNL     1       2.768   4.744  82.938  1.00  0.00     0.155 HD
ATOM     15  H12 UNL     1       2.407   3.612  81.775  1.00  0.00     0.155 HD
ENDROOT
BRANCH   5  16
HETATM   16  C7  UNL     1      -3.268   4.188  85.311  1.00  0.00     0.118 C 
BRANCH  16  17
HETATM   17  C8  UNL     1      -3.471   3.752  86.739  1.00  0.00     0.172 C 
HETATM   18  O2  UNL     1      -3.934   4.579  87.549  1.00  0.00    -0.648 OA
HETATM   19  O3  UNL     1      -3.165   2.482  87.181  1.00  0.00    -0.648 OA
ENDBRANCH  16  17
ENDBRANCH   5  16
BRANCH   4  20
HETATM   20  C5  UNL     1      -0.185   3.358  85.570  1.00  0.00     0.175 C 
BRANCH  20  21
HETATM   21  O1  UNL     1      -0.583   2.037  85.453  1.00  0.00    -0.400 OA
ATOM     22  H1  UNL     1      -1.274   1.829  86.071  1.00  0.00     0.209 HD
ENDBRANCH  20  21
ENDBRANCH   4  20
BRANCH   8  23
HETATM   23  C13 UNL     1       0.490   6.856  82.193  1.00  0.00     0.228 C 
HETATM   24  O4  UNL     1       1.588   7.377  82.281  1.00  0.00    -0.279 OA
HETATM   25 CL1  UNL     1      -0.157   6.697  80.568  1.00  0.00    -0.043 Cl
ENDBRANCH   8  23
TORSDOF 5
ENDMDL
MODEL 3
REMARK VINA RESULT: -6.287379699      2.146      3.823
REMARK  5 active torsions:
REMARK  status: ('A' for Active; 'I' for Inactive)
REMARK    1  A    between atoms: C4_4  and  C5_5 
REMARK    2  A    between atoms: C5_5  and  O1_6 
REMARK    3  A    between atoms: C6_8  and  C7_9 
REMARK    4  A    between atoms: C7_9  and  C8_10 
REMARK    5  A    between atoms: C11_15  and  C13_17 
ROOT
HETATM    1  C1  UNL     1       1.729   6.664  84.508  1.00  0.00     0.016 C 
HETATM    2  C2  UNL     1       1.129   5.409  83.957  1.00  0.00     0.028 C 
HETATM    3  C3  UNL     1       0.027   4.835  84.814  1.00  0.00     0.023 C 
HETATM    4  C4  UNL     1      -1.152   4.564  83.913  1.00  0.00    -0.001 C 
HETATM    5  C6  UNL     1      -1.864   3.303  84.182  1.00  0.00     0.007 C 
HETATM    6  C9  UNL     1      -1.249   2.098  83.488  1.00  0.00     0.007 C 
HETATM    7  C10 UNL     1       0.056   2.408  82.829  1.00  0.00     0.020 C 
HETATM    8  C11 UNL     1      -0.216   3.510  81.827  1.00  0.00     0.046 C 
HETATM    9  C12 UNL     1      -1.326   2.952  80.917  1.00  0.00     0.026 C 
HETATM   10  C14 UNL     1      -0.691   4.754  82.485  1.00  0.00     0.020 C 
HETATM   11  C15 UNL     1      -1.697   5.489  81.624  1.00  0.00     0.024 C 
HETATM   12  C16 UNL     1       0.460   5.682  82.652  1.00  0.00    -0.006 C 
HETATM   13  N1  UNL     1       0.853   6.597  81.858  1.00  0.00    -0.405 N 
ATOM     14  H11 UNL     1       0.395   6.784  80.966  1.00  0.00     0.155 HD
ATOM     15  H12 UNL     1       1.641   7.233  81.972  1.00  0.00     0.155 HD
ENDROOT
BRANCH   5  16
HETATM   16  C7  UNL     1      -1.944   2.905  85.640  1.00  0.00     0.118 C 
BRANCH  16  17
HETATM   17  C8  UNL     1      -1.211   1.609  85.871  1.00  0.00     0.172 C 
HETATM   18  O2  UNL     1      -0.094   1.652  86.425  1.00  0.00    -0.648 OA
HETATM   19  O3  UNL     1      -1.724   0.385  85.496  1.00  0.00    -0.648 OA
ENDBRANCH  16  17
ENDBRANCH   5  16
BRANCH   4  20
HETATM   20  C5  UNL     1      -2.130   5.728  84.139  1.00  0.00     0.175 C 
BRANCH  20  21
HETATM   21  O1  UNL     1      -1.844   6.406  85.312  1.00  0.00    -0.400 OA
ATOM     22  H1  UNL     1      -2.633   6.588  85.808  1.00  0.00     0.209 HD
ENDBRANCH  20  21
ENDBRANCH   4  20
BRANCH   8  23
HETATM   23  C13 UNL     1       0.971   3.641  80.958  1.00  0.00     0.228 C 
HETATM   24  O4  UNL     1       0.843   4.065  79.823  1.00  0.00    -0.279 OA
HETATM   25 CL1  UNL     1       2.606   3.222  81.441  1.00  0.00    -0.043 Cl
ENDBRANCH   8  23
TORSDOF 5
ENDMDL
MODEL 4
REMARK VINA RESULT: -6.266041465      3.016      4.712
REMARK  5 active torsions:
REMARK  status: ('A' for Active; 'I' for Inactive)
REMARK    1  A    between atoms: C4_4  and  C5_5 
REMARK    2  A    between atoms: C5_5  and  O1_6 
REMARK    3  A    between atoms: C6_8  and  C7_9 
REMARK    4  A    between atoms: C7_9  and  C8_10 
REMARK    5  A    between atoms: C11_15  and  C13_17 
ROOT
HETATM    1  C1  UNL     1      -1.172   6.606  79.945  1.00  0.00     0.016 C 
HETATM    2  C2  UNL     1      -1.297   5.733  81.153  1.00  0.00     0.028 C 
HETATM    3  C3  UNL     1      -0.951   4.286  80.897  1.00  0.00     0.023 C 
HETATM    4  C4  UNL     1       0.023   3.859  81.965  1.00  0.00    -0.001 C 
HETATM    5  C6  UNL     1      -0.200   2.506  82.505  1.00  0.00     0.007 C 
HETATM    6  C9  UNL     1      -1.222   2.465  83.633  1.00  0.00     0.007 C 
HETATM    7  C10 UNL     1      -1.923   3.769  83.832  1.00  0.00     0.020 C 
HETATM    8  C11 UNL     1      -0.851   4.795  84.132  1.00  0.00     0.046 C 
HETATM    9  C12 UNL     1      -0.093   4.233  85.349  1.00  0.00     0.026 C 
HETATM   10  C14 UNL     1       0.089   4.964  82.995  1.00  0.00     0.020 C 
HETATM   11  C15 UNL     1       1.498   5.250  83.476  1.00  0.00     0.024 C 
HETATM   12  C16 UNL     1      -0.320   6.152  82.200  1.00  0.00    -0.006 C 
HETATM   13  N1  UNL     1       0.074   7.357  82.327  1.00  0.00    -0.405 N 
ATOM     14  H11 UNL     1       0.741   7.644  83.043  1.00  0.00     0.155 HD
ATOM     15  H12 UNL     1      -0.207   8.172  81.783  1.00  0.00     0.155 HD
ENDROOT
BRANCH   5  16
HETATM   16  C7  UNL     1      -0.694   1.484  81.505  1.00  0.00     0.118 C 
BRANCH  16  17
HETATM   17  C8  UNL     1       0.280   0.339  81.400  1.00  0.00     0.172 C 
HETATM   18  O2  UNL     1       1.483   0.602  81.204  1.00  0.00    -0.648 OA
HETATM   19  O3  UNL     1      -0.106  -0.980  81.511  1.00  0.00    -0.648 OA
ENDBRANCH  16  17
ENDBRANCH   5  16
BRANCH   4  20
HETATM   20  C5  UNL     1       1.411   3.889  81.304  1.00  0.00     0.175 C 
BRANCH  20  21
HETATM   21  O1  UNL     1       1.342   3.525  79.970  1.00  0.00    -0.400 OA
ATOM     22  H1  UNL     1       0.626   2.921  79.814  1.00  0.00     0.209 HD
ENDBRANCH  20  21
ENDBRANCH   4  20
BRANCH   8  23
HETATM   23  C13 UNL     1      -1.515   6.021  84.619  1.00  0.00     0.228 C 
HETATM   24  O4  UNL     1      -0.876   6.840  85.257  1.00  0.00    -0.279 OA
HETATM   25 CL1  UNL     1      -3.205   6.410  84.348  1.00  0.00    -0.043 Cl
ENDBRANCH   8  23
TORSDOF 5
ENDMDL
MODEL 5
REMARK VINA RESULT: -6.207212293      3.319      5.561
REMARK  5 active torsions:
REMARK  status: ('A' for Active; 'I' for Inactive)
REMARK    1  A    between atoms: C4_4  and  C5_5 
REMARK    2  A    between atoms: C5_5  and  O1_6 
REMARK    3  A    between atoms: C6_8  and  C7_9 
REMARK    4  A    between atoms: C7_9  and  C8_10 
REMARK    5  A    between atoms: C11_15  and  C13_17 
ROOT
HETATM    1  C1  UNL     1      -1.039   5.610  84.392  1.00  0.00     0.016 C 
HETATM    2  C2  UNL     1      -0.007   5.112  83.431  1.00  0.00     0.028 C 
HETATM    3  C3  UNL     1      -0.178   3.660  83.052  1.00  0.00     0.023 C 
HETATM    4  C4  UNL     1      -0.126   3.576  81.548  1.00  0.00    -0.001 C 
HETATM    5  C6  UNL     1       0.626   2.427  81.015  1.00  0.00     0.007 C 
HETATM    6  C9  UNL     1       2.123   2.681  80.902  1.00  0.00     0.007 C 
HETATM    7  C10 UNL     1       2.544   3.971  81.528  1.00  0.00     0.020 C 
HETATM    8  C11 UNL     1       1.771   5.065  80.824  1.00  0.00     0.046 C 
HETATM    9  C12 UNL     1       2.103   4.889  79.331  1.00  0.00     0.026 C 
HETATM   10  C14 UNL     1       0.306   4.929  81.028  1.00  0.00     0.020 C 
HETATM   11  C15 UNL     1      -0.469   5.374  79.803  1.00  0.00     0.024 C 
HETATM   12  C16 UNL     1      -0.117   5.834  82.130  1.00  0.00    -0.006 C 
HETATM   13  N1  UNL     1      -0.533   7.035  82.045  1.00  0.00    -0.405 N 
ATOM     14  H11 UNL     1      -0.608   7.528  81.156  1.00  0.00     0.155 HD
ATOM     15  H12 UNL     1      -0.822   7.655  82.801  1.00  0.00     0.155 HD
ENDROOT
BRANCH   5  16
HETATM   16  C7  UNL     1       0.515   1.152  81.821  1.00  0.00     0.118 C 
BRANCH  16  17
HETATM   17  C8  UNL     1       0.066   0.013  80.943  1.00  0.00     0.172 C 
HETATM   18  O2  UNL     1      -0.376   0.279  79.808  1.00  0.00    -0.648 OA
HETATM   19  O3  UNL     1       0.123  -1.305  81.345  1.00  0.00    -0.648 OA
ENDBRANCH  16  17
ENDBRANCH   5  16
BRANCH   4  20
HETATM   20  C5  UNL     1      -1.586   3.453  81.082  1.00  0.00     0.175 C 
BRANCH  20  21
HETATM   21  O1  UNL     1      -2.383   2.897  82.068  1.00  0.00    -0.400 OA
ATOM     22  H1  UNL     1      -1.896   2.764  82.872  1.00  0.00     0.209 HD
ENDBRANCH  20  21
ENDBRANCH   4  20
BRANCH   8  23
HETATM   23  C13 UNL     1       2.365   6.362  81.205  1.00  0.00     0.228 C 
HETATM   24  O4  UNL     1       2.274   7.313  80.449  1.00  0.00    -0.279 OA
HETATM   25 CL1  UNL     1       3.224   6.658  82.708  1.00  0.00    -0.043 Cl
ENDBRANCH   8  23
TORSDOF 5
ENDMDL
