MODEL 1
REMARK VINA RESULT: -6.893973688      0.000      0.000
REMARK  4 active torsions:
REMARK  status: ('A' for Active; 'I' for Inactive)
REMARK    1  A    between atoms: C3_5  and  C4_6 
REMARK    2  A    between atoms: C6_8  and  N2_9 
REMARK    3  A    between atoms: N2_9  and  C7_11 
REMARK    4  A    between atoms: C14_24  and  C15_25 
ROOT
HETATM    1  C4  UNL     1      -1.107   5.663  82.577  1.00  0.00     0.019 A 
HETATM    2  C5  UNL     1      -1.631   5.292  83.776  1.00  0.00     0.063 A 
HETATM    3  C6  UNL     1      -1.982   3.945  84.096  1.00  0.00     0.102 A 
HETATM    4  N4  UNL     1      -1.775   3.015  83.142  1.00  0.00    -0.351 N 
ATOM      5  H4  UNL     1      -2.012   2.040  83.324  1.00  0.00     0.166 HD
HETATM    6  C12 UNL     1      -1.259   3.366  81.954  1.00  0.00     0.114 A 
HETATM    7  C13 UNL     1      -0.913   4.675  81.636  1.00  0.00     0.062 A 
HETATM    8 CL1  UNL     1      -0.242   5.029  80.054  1.00  0.00    -0.082 Cl
ENDROOT
BRANCH   1   9
HETATM    9  C3  UNL     1      -0.759   7.052  82.277  1.00  0.00     0.069 A 
HETATM   10  N1  UNL     1       0.411   7.667  82.615  1.00  0.00    -0.344 N 
HETATM   11  C2  UNL     1       0.362   8.933  82.180  1.00  0.00     0.077 A 
ATOM     12  H1  UNL     1       1.190   7.237  83.113  1.00  0.00     0.167 HD
HETATM   13  C1  UNL     1       1.448   9.958  82.341  1.00  0.00     0.089 C 
HETATM   14  N5  UNL     1      -0.817   9.140  81.570  1.00  0.00    -0.347 N 
HETATM   15  C14 UNL     1      -1.509   7.993  81.626  1.00  0.00     0.042 A 
ATOM     16  H5  UNL     1      -1.129  10.011  81.141  1.00  0.00     0.167 HD
BRANCH  15  17
HETATM   17  C15 UNL     1      -2.869   7.757  81.082  1.00  0.00     0.038 A 
HETATM   18  C16 UNL     1      -3.651   9.019  80.674  1.00  0.00     0.011 A 
HETATM   19  C17 UNL     1      -4.042   8.322  81.938  1.00  0.00     0.011 A 
ENDBRANCH  15  17
ENDBRANCH   1   9
BRANCH   3  20
HETATM   20  N2  UNL     1      -2.448   3.675  85.193  1.00  0.00    -0.369 N 
ATOM     21  H2  UNL     1      -3.394   4.054  85.149  1.00  0.00     0.161 HD
BRANCH  20  22
HETATM   22  C7  UNL     1      -2.379   3.142  86.432  1.00  0.00     0.119 C 
HETATM   23  C8  UNL     1      -3.546   3.407  87.396  1.00  0.00     0.038 C 
HETATM   24  C9  UNL     1      -2.976   2.826  88.653  1.00  0.00     0.239 C 
HETATM   25  C11 UNL     1      -4.177   2.176  86.781  1.00  0.00     0.043 C 
HETATM   26  N3  UNL     1      -2.409   1.587  88.124  1.00  0.00    -0.069 N 
HETATM   27  C10 UNL     1      -2.744   1.696  86.720  1.00  0.00     0.209 C 
ATOM     28  H32 UNL     1      -1.421   1.439  88.326  1.00  0.00     0.277 HD
ATOM     29  H31 UNL     1      -2.725   0.732  88.583  1.00  0.00     0.277 HD
ENDBRANCH  20  22
ENDBRANCH   3  20
TORSDOF 4
ENDMDL
MODEL 2
REMARK VINA RESULT: -6.857539808      1.851      2.274
REMARK  4 active torsions:
REMARK  status: ('A' for Active; 'I' for Inactive)
REMARK    1  A    between atoms: C3_5  and  C4_6 
REMARK    2  A    between atoms: C6_8  and  N2_9 
REMARK    3  A    between atoms: N2_9  and  C7_11 
REMARK    4  A    between atoms: C14_24  and  C15_25 
ROOT
HETATM    1  C4  UNL     1       0.279   3.837  82.762  1.00  0.00     0.019 A 
HETATM    2  C5  UNL     1      -0.519   3.799  83.863  1.00  0.00     0.063 A 
HETATM    3  C6  UNL     1      -1.286   2.654  84.237  1.00  0.00     0.102 A 
HETATM    4  N4  UNL     1      -1.197   1.569  83.439  1.00  0.00    -0.351 N 
ATOM      5  H4  UNL     1      -1.728   0.729  83.666  1.00  0.00     0.166 HD
HETATM    6  C12 UNL     1      -0.414   1.592  82.350  1.00  0.00     0.114 A 
HETATM    7  C13 UNL     1       0.336   2.704  81.980  1.00  0.00     0.062 A 
HETATM    8 CL1  UNL     1       1.331   2.630  80.537  1.00  0.00    -0.082 Cl
ENDROOT
BRANCH   1   9
HETATM    9  C3  UNL     1       1.051   5.027  82.402  1.00  0.00     0.069 A 
HETATM   10  N1  UNL     1       2.387   5.200  82.618  1.00  0.00    -0.344 N 
HETATM   11  C2  UNL     1       2.733   6.411  82.163  1.00  0.00     0.077 A 
ATOM     12  H1  UNL     1       3.015   4.523  83.051  1.00  0.00     0.167 HD
HETATM   13  C1  UNL     1       4.114   7.000  82.202  1.00  0.00     0.089 C 
HETATM   14  N5  UNL     1       1.644   7.016  81.660  1.00  0.00    -0.347 N 
HETATM   15  C14 UNL     1       0.610   6.175  81.804  1.00  0.00     0.042 A 
ATOM     16  H5  UNL     1       1.610   7.947  81.244  1.00  0.00     0.167 HD
BRANCH  15  17
HETATM   17  C15 UNL     1      -0.793   6.425  81.392  1.00  0.00     0.038 A 
HETATM   18  C16 UNL     1      -1.217   7.904  81.338  1.00  0.00     0.011 A 
HETATM   19  C17 UNL     1      -1.707   7.068  82.478  1.00  0.00     0.011 A 
ENDBRANCH  15  17
ENDBRANCH   1   9
BRANCH   3  20
HETATM   20  N2  UNL     1      -1.983   2.680  85.240  1.00  0.00    -0.369 N 
ATOM     21  H2  UNL     1      -2.929   2.771  84.869  1.00  0.00     0.161 HD
BRANCH  20  22
HETATM   22  C7  UNL     1      -2.170   2.654  86.577  1.00  0.00     0.119 C 
HETATM   23  C8  UNL     1      -3.458   3.279  87.137  1.00  0.00     0.038 C 
HETATM   24  C9  UNL     1      -3.161   3.208  88.602  1.00  0.00     0.239 C 
HETATM   25  C11 UNL     1      -4.076   1.915  86.911  1.00  0.00     0.043 C 
HETATM   26  N3  UNL     1      -2.617   1.854  88.685  1.00  0.00    -0.069 N 
HETATM   27  C10 UNL     1      -2.698   1.429  87.303  1.00  0.00     0.209 C 
ATOM     28  H32 UNL     1      -1.693   1.780  89.110  1.00  0.00     0.277 HD
ATOM     29  H31 UNL     1      -3.077   1.240  89.358  1.00  0.00     0.277 HD
ENDBRANCH  20  22
ENDBRANCH   3  20
TORSDOF 4
ENDMDL
MODEL 3
REMARK VINA RESULT: -6.829325489      2.522      7.163
REMARK  4 active torsions:
REMARK  status: ('A' for Active; 'I' for Inactive)
REMARK    1  A    between atoms: C3_5  and  C4_6 
REMARK    2  A    between atoms: C6_8  and  N2_9 
REMARK    3  A    between atoms: N2_9  and  C7_11 
REMARK    4  A    between atoms: C14_24  and  C15_25 
ROOT
HETATM    1  C4  UNL     1      -0.322   4.366  81.880  1.00  0.00     0.019 A 
HETATM    2  C5  UNL     1      -1.282   5.221  81.434  1.00  0.00     0.063 A 
HETATM    3  C6  UNL     1      -1.061   6.175  80.395  1.00  0.00     0.102 A 
HETATM    4  N4  UNL     1       0.171   6.210  79.847  1.00  0.00    -0.351 N 
ATOM      5  H4  UNL     1       0.376   6.876  79.103  1.00  0.00     0.166 HD
HETATM    6  C12 UNL     1       1.128   5.374  80.277  1.00  0.00     0.114 A 
HETATM    7  C13 UNL     1       0.919   4.441  81.288  1.00  0.00     0.062 A 
HETATM    8 CL1  UNL     1       2.237   3.391  81.776  1.00  0.00    -0.082 Cl
ENDROOT
BRANCH   1   9
HETATM    9  C3  UNL     1      -0.578   3.401  82.949  1.00  0.00     0.069 A 
HETATM   10  N1  UNL     1      -0.485   3.656  84.287  1.00  0.00    -0.344 N 
HETATM   11  C2  UNL     1      -0.785   2.532  84.951  1.00  0.00     0.077 A 
ATOM     12  H1  UNL     1      -0.230   4.549  84.709  1.00  0.00     0.167 HD
HETATM   13  C1  UNL     1      -0.807   2.377  86.445  1.00  0.00     0.089 C 
HETATM   14  N5  UNL     1      -1.069   1.564  84.065  1.00  0.00    -0.347 N 
HETATM   15  C14 UNL     1      -0.944   2.087  82.837  1.00  0.00     0.042 A 
ATOM     16  H5  UNL     1      -1.333   0.603  84.286  1.00  0.00     0.167 HD
BRANCH  15  17
HETATM   17  C15 UNL     1      -1.158   1.379  81.551  1.00  0.00     0.038 A 
HETATM   18  C16 UNL     1      -1.012  -0.152  81.602  1.00  0.00     0.011 A 
HETATM   19  C17 UNL     1       0.088   0.644  80.974  1.00  0.00     0.011 A 
ENDBRANCH  15  17
ENDBRANCH   1   9
BRANCH   3  20
HETATM   20  N2  UNL     1      -1.965   6.914  80.036  1.00  0.00    -0.369 N 
ATOM     21  H2  UNL     1      -2.714   6.269  79.783  1.00  0.00     0.161 HD
BRANCH  20  22
HETATM   22  C7  UNL     1      -2.503   8.130  79.796  1.00  0.00     0.119 C 
HETATM   23  C8  UNL     1      -4.030   8.274  79.894  1.00  0.00     0.038 C 
HETATM   24  C9  UNL     1      -4.188   9.670  79.376  1.00  0.00     0.239 C 
HETATM   25  C11 UNL     1      -3.789   8.548  81.364  1.00  0.00     0.043 C 
HETATM   26  N3  UNL     1      -3.097  10.330  80.090  1.00  0.00    -0.069 N 
HETATM   27  C10 UNL     1      -2.541   9.227  80.845  1.00  0.00     0.209 C 
ATOM     28  H32 UNL     1      -2.434  10.834  79.502  1.00  0.00     0.277 HD
ATOM     29  H31 UNL     1      -3.367  11.145  80.642  1.00  0.00     0.277 HD
ENDBRANCH  20  22
ENDBRANCH   3  20
TORSDOF 4
ENDMDL
MODEL 4
REMARK VINA RESULT: -6.780276580      2.460      4.181
REMARK  4 active torsions:
REMARK  status: ('A' for Active; 'I' for Inactive)
REMARK    1  A    between atoms: C3_5  and  C4_6 
REMARK    2  A    between atoms: C6_8  and  N2_9 
REMARK    3  A    between atoms: N2_9  and  C7_11 
REMARK    4  A    between atoms: C14_24  and  C15_25 
ROOT
HETATM    1  C4  UNL     1      -0.054   5.011  82.985  1.00  0.00     0.019 A 
HETATM    2  C5  UNL     1      -0.610   4.316  84.014  1.00  0.00     0.063 A 
HETATM    3  C6  UNL     1      -1.780   4.748  84.711  1.00  0.00     0.102 A 
HETATM    4  N4  UNL     1      -2.340   5.907  84.309  1.00  0.00    -0.351 N 
ATOM      5  H4  UNL     1      -3.175   6.255  84.777  1.00  0.00     0.166 HD
HETATM    6  C12 UNL     1      -1.803   6.603  83.296  1.00  0.00     0.114 A 
HETATM    7  C13 UNL     1      -0.664   6.189  82.612  1.00  0.00     0.062 A 
HETATM    8 CL1  UNL     1      -0.042   7.172  81.299  1.00  0.00    -0.082 Cl
ENDROOT
BRANCH   1   9
HETATM    9  C3  UNL     1       1.147   4.545  82.293  1.00  0.00     0.069 A 
HETATM   10  N1  UNL     1       2.378   5.130  82.359  1.00  0.00    -0.344 N 
HETATM   11  C2  UNL     1       3.220   4.427  81.591  1.00  0.00     0.077 A 
ATOM     12  H1  UNL     1       2.616   5.961  82.901  1.00  0.00     0.167 HD
HETATM   13  C1  UNL     1       4.677   4.728  81.386  1.00  0.00     0.089 C 
HETATM   14  N5  UNL     1       2.552   3.403  81.035  1.00  0.00    -0.347 N 
HETATM   15  C14 UNL     1       1.282   3.469  81.459  1.00  0.00     0.042 A 
ATOM     16  H5  UNL     1       2.941   2.702  80.404  1.00  0.00     0.167 HD
BRANCH  15  17
HETATM   17  C15 UNL     1       0.183   2.541  81.096  1.00  0.00     0.038 A 
HETATM   18  C16 UNL     1      -0.070   1.389  82.085  1.00  0.00     0.011 A 
HETATM   19  C17 UNL     1       0.614   1.075  80.792  1.00  0.00     0.011 A 
ENDBRANCH  15  17
ENDBRANCH   1   9
BRANCH   3  20
HETATM   20  N2  UNL     1      -2.233   4.077  85.626  1.00  0.00    -0.369 N 
ATOM     21  H2  UNL     1      -2.244   4.727  86.413  1.00  0.00     0.161 HD
BRANCH  20  22
HETATM   22  C7  UNL     1      -2.728   2.936  86.153  1.00  0.00     0.119 C 
HETATM   23  C8  UNL     1      -2.085   2.399  87.441  1.00  0.00     0.038 C 
HETATM   24  C9  UNL     1      -2.782   1.079  87.544  1.00  0.00     0.239 C 
HETATM   25  C11 UNL     1      -3.071   3.292  88.164  1.00  0.00     0.043 C 
HETATM   26  N3  UNL     1      -4.150   1.490  87.234  1.00  0.00    -0.069 N 
HETATM   27  C10 UNL     1      -3.978   2.911  87.015  1.00  0.00     0.209 C 
ATOM     28  H32 UNL     1      -4.595   0.982  86.470  1.00  0.00     0.277 HD
ATOM     29  H31 UNL     1      -4.850   1.237  87.932  1.00  0.00     0.277 HD
ENDBRANCH  20  22
ENDBRANCH   3  20
TORSDOF 4
ENDMDL
MODEL 5
REMARK VINA RESULT: -6.752585491      2.540      3.879
REMARK  4 active torsions:
REMARK  status: ('A' for Active; 'I' for Inactive)
REMARK    1  A    between atoms: C3_5  and  C4_6 
REMARK    2  A    between atoms: C6_8  and  N2_9 
REMARK    3  A    between atoms: N2_9  and  C7_11 
REMARK    4  A    between atoms: C14_24  and  C15_25 
ROOT
HETATM    1  C4  UNL     1      -0.649   2.886  82.546  1.00  0.00     0.019 A 
HETATM    2  C5  UNL     1      -0.944   2.975  83.871  1.00  0.00     0.063 A 
HETATM    3  C6  UNL     1      -1.204   1.839  84.695  1.00  0.00     0.102 A 
HETATM    4  N4  UNL     1      -1.149   0.628  84.104  1.00  0.00    -0.351 N 
ATOM      5  H4  UNL     1      -1.329  -0.213  84.653  1.00  0.00     0.166 HD
HETATM    6  C12 UNL     1      -0.859   0.523  82.798  1.00  0.00     0.114 A 
HETATM    7  C13 UNL     1      -0.604   1.626  81.989  1.00  0.00     0.062 A 
HETATM    8 CL1  UNL     1      -0.232   1.382  80.292  1.00  0.00    -0.082 Cl
ENDROOT
BRANCH   1   9
HETATM    9  C3  UNL     1      -0.390   4.069  81.726  1.00  0.00     0.069 A 
HETATM   10  N1  UNL     1      -1.337   4.802  81.069  1.00  0.00    -0.344 N 
HETATM   11  C2  UNL     1      -0.722   5.801  80.423  1.00  0.00     0.077 A 
ATOM     12  H1  UNL     1      -2.340   4.619  81.070  1.00  0.00     0.167 HD
HETATM   13  C1  UNL     1      -1.396   6.844  79.580  1.00  0.00     0.089 C 
HETATM   14  N5  UNL     1       0.599   5.723  80.653  1.00  0.00    -0.347 N 
HETATM   15  C14 UNL     1       0.811   4.665  81.450  1.00  0.00     0.042 A 
ATOM     16  H5  UNL     1       1.313   6.354  80.289  1.00  0.00     0.167 HD
BRANCH  15  17
HETATM   17  C15 UNL     1       2.122   4.194  81.960  1.00  0.00     0.038 A 
HETATM   18  C16 UNL     1       3.351   4.646  81.152  1.00  0.00     0.011 A 
HETATM   19  C17 UNL     1       2.900   3.226  81.018  1.00  0.00     0.011 A 
ENDBRANCH  15  17
ENDBRANCH   1   9
BRANCH   3  20
HETATM   20  N2  UNL     1      -1.461   1.984  85.881  1.00  0.00    -0.369 N 
ATOM     21  H2  UNL     1      -0.962   1.215  86.328  1.00  0.00     0.161 HD
BRANCH  20  22
HETATM   22  C7  UNL     1      -2.053   2.620  86.915  1.00  0.00     0.119 C 
HETATM   23  C8  UNL     1      -3.480   3.152  86.712  1.00  0.00     0.038 C 
HETATM   24  C9  UNL     1      -3.650   3.921  87.985  1.00  0.00     0.239 C 
HETATM   25  C11 UNL     1      -3.929   1.776  87.155  1.00  0.00     0.043 C 
HETATM   26  N3  UNL     1      -3.092   2.961  88.936  1.00  0.00    -0.069 N 
HETATM   27  C10 UNL     1      -2.719   1.873  88.058  1.00  0.00     0.209 C 
ATOM     28  H32 UNL     1      -2.344   3.320  89.529  1.00  0.00     0.277 HD
ATOM     29  H31 UNL     1      -3.707   2.707  89.710  1.00  0.00     0.277 HD
ENDBRANCH  20  22
ENDBRANCH   3  20
TORSDOF 4
ENDMDL
