MODEL 1
REMARK VINA RESULT: -6.092689764      0.000      0.000
REMARK  1 active torsions:
REMARK  status: ('A' for Active; 'I' for Inactive)
REMARK    1  A    between atoms: O1_1  and  C1_3 
ROOT
HETATM    1  C1  UNL     1      -0.773   3.554  85.714  1.00  0.00     0.202 C 
HETATM    2  C2  UNL     1      -1.775   2.824  86.570  1.00  0.00     0.291 C 
HETATM    3  O2  UNL     1      -1.607   3.066  87.921  1.00  0.00    -0.356 OA
HETATM    4  C3  UNL     1      -2.184   4.293  88.162  1.00  0.00     0.203 C 
HETATM    5  C4  UNL     1      -2.972   4.590  86.887  1.00  0.00     0.157 C 
HETATM    6  O3  UNL     1      -3.037   3.334  86.294  1.00  0.00    -0.351 OA
HETATM    7  C5  UNL     1      -2.190   5.587  86.106  1.00  0.00     0.072 C 
HETATM    8  C6  UNL     1      -2.201   5.503  84.631  1.00  0.00     0.178 C 
HETATM    9  O4  UNL     1      -0.801   5.688  84.646  1.00  0.00    -0.382 OA
HETATM   10  C7  UNL     1      -0.800   5.038  85.887  1.00  0.00     0.163 C 
ENDROOT
BRANCH   1  11
HETATM   11  O1  UNL     1       0.477   3.026  85.985  1.00  0.00    -0.388 OA
ATOM     12  H1  UNL     1       0.931   2.918  85.158  1.00  0.00     0.210 HD
ENDBRANCH   1  11
TORSDOF 1
ENDMDL
MODEL 2
REMARK VINA RESULT: -5.423207482      4.630      6.182
REMARK  1 active torsions:
REMARK  status: ('A' for Active; 'I' for Inactive)
REMARK    1  A    between atoms: O1_1  and  C1_3 
ROOT
HETATM    1  C1  UNL     1       0.891   2.707  80.732  1.00  0.00     0.202 C 
HETATM    2  C2  UNL     1       1.589   4.030  80.558  1.00  0.00     0.291 C 
HETATM    3  O2  UNL     1       0.914   4.888  79.709  1.00  0.00    -0.356 OA
HETATM    4  C3  UNL     1      -0.103   5.439  80.456  1.00  0.00     0.203 C 
HETATM    5  C4  UNL     1       0.242   5.055  81.894  1.00  0.00     0.157 C 
HETATM    6  O3  UNL     1       1.579   4.692  81.779  1.00  0.00    -0.351 OA
HETATM    7  C5  UNL     1      -0.658   3.933  82.280  1.00  0.00     0.072 C 
HETATM    8  C6  UNL     1      -0.135   2.874  83.168  1.00  0.00     0.178 C 
HETATM    9  O4  UNL     1      -0.716   1.917  82.310  1.00  0.00    -0.382 OA
HETATM   10  C7  UNL     1      -0.500   2.826  81.266  1.00  0.00     0.163 C 
ENDROOT
BRANCH   1  11
HETATM   11  O1  UNL     1       0.922   2.050  79.515  1.00  0.00    -0.388 OA
ATOM     12  H1  UNL     1       1.066   1.127  79.688  1.00  0.00     0.210 HD
ENDBRANCH   1  11
TORSDOF 1
ENDMDL
MODEL 3
REMARK VINA RESULT: -5.417689151      4.836      6.065
REMARK  1 active torsions:
REMARK  status: ('A' for Active; 'I' for Inactive)
REMARK    1  A    between atoms: O1_1  and  C1_3 
ROOT
HETATM    1  C1  UNL     1      -1.189   4.196  80.931  1.00  0.00     0.202 C 
HETATM    2  C2  UNL     1      -0.471   2.889  81.144  1.00  0.00     0.291 C 
HETATM    3  O2  UNL     1       0.288   2.508  80.053  1.00  0.00    -0.356 OA
HETATM    4  C3  UNL     1       1.450   3.244  80.122  1.00  0.00     0.203 C 
HETATM    5  C4  UNL     1       1.422   3.853  81.523  1.00  0.00     0.157 C 
HETATM    6  O3  UNL     1       0.465   3.067  82.155  1.00  0.00    -0.351 OA
HETATM    7  C5  UNL     1       1.029   5.282  81.375  1.00  0.00     0.072 C 
HETATM    8  C6  UNL     1       0.187   5.899  82.420  1.00  0.00     0.178 C 
HETATM    9  O4  UNL     1      -0.606   6.463  81.397  1.00  0.00    -0.382 OA
HETATM   10  C7  UNL     1      -0.279   5.341  80.624  1.00  0.00     0.163 C 
ENDROOT
BRANCH   1  11
HETATM   11  O1  UNL     1      -2.129   4.003  79.934  1.00  0.00    -0.388 OA
ATOM     12  H1  UNL     1      -1.695   4.130  79.099  1.00  0.00     0.210 HD
ENDBRANCH   1  11
TORSDOF 1
ENDMDL
MODEL 4
REMARK VINA RESULT: -5.269536829      5.056      6.555
REMARK  1 active torsions:
REMARK  status: ('A' for Active; 'I' for Inactive)
REMARK    1  A    between atoms: O1_1  and  C1_3 
ROOT
HETATM    1  C1  UNL     1       0.780   2.819  80.680  1.00  0.00     0.202 C 
HETATM    2  C2  UNL     1       2.098   3.524  80.492  1.00  0.00     0.291 C 
HETATM    3  O2  UNL     1       2.109   4.363  79.393  1.00  0.00    -0.356 OA
HETATM    4  C3  UNL     1       1.464   5.515  79.787  1.00  0.00     0.203 C 
HETATM    5  C4  UNL     1       1.359   5.381  81.305  1.00  0.00     0.157 C 
HETATM    6  O3  UNL     1       2.290   4.382  81.568  1.00  0.00    -0.351 OA
HETATM    7  C5  UNL     1      -0.045   4.995  81.618  1.00  0.00     0.072 C 
HETATM    8  C6  UNL     1      -0.296   4.076  82.747  1.00  0.00     0.178 C 
HETATM    9  O4  UNL     1      -1.186   3.359  81.919  1.00  0.00    -0.382 OA
HETATM   10  C7  UNL     1      -0.381   3.746  80.840  1.00  0.00     0.163 C 
ENDROOT
BRANCH   1  11
HETATM   11  O1  UNL     1       0.609   1.956  79.612  1.00  0.00    -0.388 OA
ATOM     12  H1  UNL     1      -0.270   1.600  79.667  1.00  0.00     0.210 HD
ENDBRANCH   1  11
TORSDOF 1
ENDMDL
MODEL 5
REMARK VINA RESULT: -5.141890663      4.721      5.969
REMARK  1 active torsions:
REMARK  status: ('A' for Active; 'I' for Inactive)
REMARK    1  A    between atoms: O1_1  and  C1_3 
ROOT
HETATM    1  C1  UNL     1      -0.098   2.834  80.998  1.00  0.00     0.202 C 
HETATM    2  C2  UNL     1      -1.179   3.864  80.799  1.00  0.00     0.291 C 
HETATM    3  O2  UNL     1      -1.508   4.532  81.964  1.00  0.00    -0.356 OA
HETATM    4  C3  UNL     1      -0.530   5.485  82.146  1.00  0.00     0.203 C 
HETATM    5  C4  UNL     1       0.217   5.508  80.813  1.00  0.00     0.157 C 
HETATM    6  O3  UNL     1      -0.681   4.862  79.972  1.00  0.00    -0.351 OA
HETATM    7  C5  UNL     1       1.496   4.772  81.011  1.00  0.00     0.072 C 
HETATM    8  C6  UNL     1       2.030   3.961  79.897  1.00  0.00     0.178 C 
HETATM    9  O4  UNL     1       2.280   2.922  80.820  1.00  0.00    -0.382 OA
HETATM   10  C7  UNL     1       1.176   3.395  81.542  1.00  0.00     0.163 C 
ENDROOT
BRANCH   1  11
HETATM   11  O1  UNL     1      -0.610   1.837  81.810  1.00  0.00    -0.388 OA
ATOM     12  H1  UNL     1       0.082   1.205  81.964  1.00  0.00     0.210 HD
ENDBRANCH   1  11
TORSDOF 1
ENDMDL
