MODEL 1
REMARK VINA RESULT: -4.947586133      0.000      0.000
REMARK  0 active torsions:
REMARK  status: ('A' for Active; 'I' for Inactive)
ROOT
HETATM    1  C1  UNL     1       0.758   4.312  80.502  1.00  0.00     0.034 C 
HETATM    2  C2  UNL     1       0.785   4.819  81.915  1.00  0.00     0.059 C 
HETATM    3  C3  UNL     1      -0.600   4.464  82.403  1.00  0.00     0.325 C 
HETATM    4  N1  UNL     1      -0.794   3.144  81.860  1.00  0.00     0.118 N 
HETATM    5  C4  UNL     1      -0.251   3.197  80.534  1.00  0.00     0.276 C 
HETATM    6  C5  UNL     1      -0.063   2.258  82.745  1.00  0.00     0.350 C 
HETATM    7  C6  UNL     1      -0.283   2.939  84.073  1.00  0.00     0.105 A 
HETATM    8  N2  UNL     1      -0.234   2.706  85.336  1.00  0.00    -0.377 N 
ATOM      9  H2  UNL     1       0.024   1.811  85.755  1.00  0.00     0.160 HD
HETATM   10  C7  UNL     1      -0.597   3.899  86.083  1.00  0.00     0.141 A 
HETATM   11  C8  UNL     1      -0.994   4.940  85.058  1.00  0.00     0.146 A 
HETATM   12  N3  UNL     1      -0.674   4.280  83.812  1.00  0.00    -0.338 N 
ENDROOT
TORSDOF 0
ENDMDL
MODEL 2
REMARK VINA RESULT: -4.943280164      0.938      1.013
REMARK  0 active torsions:
REMARK  status: ('A' for Active; 'I' for Inactive)
ROOT
HETATM    1  C1  UNL     1       1.537   3.187  80.178  1.00  0.00     0.034 C 
HETATM    2  C2  UNL     1       1.385   4.127  81.338  1.00  0.00     0.059 C 
HETATM    3  C3  UNL     1      -0.103   4.073  81.594  1.00  0.00     0.325 C 
HETATM    4  N1  UNL     1      -0.394   2.670  81.451  1.00  0.00     0.118 N 
HETATM    5  C4  UNL     1       0.380   2.236  80.326  1.00  0.00     0.276 C 
HETATM    6  C5  UNL     1       0.021   2.067  82.703  1.00  0.00     0.350 C 
HETATM    7  C6  UNL     1      -0.328   3.164  83.677  1.00  0.00     0.105 A 
HETATM    8  N2  UNL     1      -0.544   3.358  84.929  1.00  0.00    -0.377 N 
ATOM      9  H2  UNL     1      -0.506   2.634  85.647  1.00  0.00     0.160 HD
HETATM   10  C7  UNL     1      -0.850   4.758  85.176  1.00  0.00     0.141 A 
HETATM   11  C8  UNL     1      -0.893   5.431  83.822  1.00  0.00     0.146 A 
HETATM   12  N3  UNL     1      -0.458   4.372  82.939  1.00  0.00    -0.338 N 
ENDROOT
TORSDOF 0
ENDMDL
MODEL 3
REMARK VINA RESULT: -4.896995098      1.416      4.230
REMARK  0 active torsions:
REMARK  status: ('A' for Active; 'I' for Inactive)
ROOT
HETATM    1  C1  UNL     1      -2.639   5.089  86.932  1.00  0.00     0.034 C 
HETATM    2  C2  UNL     1      -2.371   5.493  85.511  1.00  0.00     0.059 C 
HETATM    3  C3  UNL     1      -0.862   5.447  85.450  1.00  0.00     0.325 C 
HETATM    4  N1  UNL     1      -0.557   4.243  86.180  1.00  0.00     0.118 N 
HETATM    5  C4  UNL     1      -1.451   4.243  87.300  1.00  0.00     0.276 C 
HETATM    6  C5  UNL     1      -0.803   3.161  85.247  1.00  0.00     0.350 C 
HETATM    7  C6  UNL     1      -0.365   3.797  83.952  1.00  0.00     0.105 A 
HETATM    8  N2  UNL     1      -0.004   3.487  82.758  1.00  0.00    -0.377 N 
ATOM      9  H2  UNL     1       0.062   2.535  82.396  1.00  0.00     0.160 HD
HETATM   10  C7  UNL     1       0.296   4.688  81.995  1.00  0.00     0.141 A 
HETATM   11  C8  UNL     1       0.159   5.849  82.955  1.00  0.00     0.146 A 
HETATM   12  N3  UNL     1      -0.355   5.205  84.143  1.00  0.00    -0.338 N 
ENDROOT
TORSDOF 0
ENDMDL
MODEL 4
REMARK VINA RESULT: -4.846007985      2.377      4.518
REMARK  0 active torsions:
REMARK  status: ('A' for Active; 'I' for Inactive)
ROOT
HETATM    1  C1  UNL     1      -3.246   3.694  87.212  1.00  0.00     0.034 C 
HETATM    2  C2  UNL     1      -2.926   4.808  86.259  1.00  0.00     0.059 C 
HETATM    3  C3  UNL     1      -1.449   5.015  86.501  1.00  0.00     0.325 C 
HETATM    4  N1  UNL     1      -0.957   3.665  86.600  1.00  0.00     0.118 N 
HETATM    5  C4  UNL     1      -1.943   2.958  87.363  1.00  0.00     0.276 C 
HETATM    6  C5  UNL     1      -0.847   3.200  85.231  1.00  0.00     0.350 C 
HETATM    7  C6  UNL     1      -0.429   4.470  84.532  1.00  0.00     0.105 A 
HETATM    8  N2  UNL     1       0.119   4.878  83.443  1.00  0.00    -0.377 N 
ATOM      9  H2  UNL     1       0.440   4.272  82.688  1.00  0.00     0.160 HD
HETATM   10  C7  UNL     1       0.216   6.329  83.442  1.00  0.00     0.141 A 
HETATM   11  C8  UNL     1      -0.286   6.792  84.792  1.00  0.00     0.146 A 
HETATM   12  N3  UNL     1      -0.763   5.561  85.380  1.00  0.00    -0.338 N 
ENDROOT
TORSDOF 0
ENDMDL
MODEL 5
REMARK VINA RESULT: -4.805999677      1.827      2.679
REMARK  0 active torsions:
REMARK  status: ('A' for Active; 'I' for Inactive)
ROOT
HETATM    1  C1  UNL     1       0.562   6.511  83.549  1.00  0.00     0.034 C 
HETATM    2  C2  UNL     1       0.015   6.367  84.940  1.00  0.00     0.059 C 
HETATM    3  C3  UNL     1      -1.328   5.723  84.685  1.00  0.00     0.325 C 
HETATM    4  N1  UNL     1      -1.019   4.749  83.670  1.00  0.00     0.118 N 
HETATM    5  C4  UNL     1      -0.110   5.407  82.778  1.00  0.00     0.276 C 
HETATM    6  C5  UNL     1      -0.421   3.635  84.381  1.00  0.00     0.350 C 
HETATM    7  C6  UNL     1      -1.208   3.664  85.667  1.00  0.00     0.105 A 
HETATM    8  N2  UNL     1      -1.511   2.920  86.671  1.00  0.00    -0.377 N 
ATOM      9  H2  UNL     1      -1.197   1.958  86.800  1.00  0.00     0.160 HD
HETATM   10  C7  UNL     1      -2.366   3.647  87.596  1.00  0.00     0.141 A 
HETATM   11  C8  UNL     1      -2.649   4.987  86.953  1.00  0.00     0.146 A 
HETATM   12  N3  UNL     1      -1.802   4.950  85.782  1.00  0.00    -0.338 N 
ENDROOT
TORSDOF 0
ENDMDL
