MODEL 1
REMARK VINA RESULT: -5.316807552      0.000      0.000
REMARK  1 active torsions:
REMARK  status: ('A' for Active; 'I' for Inactive)
REMARK    1  A    between atoms: O1_1  and  C1_3 
ROOT
HETATM    1  C1  UNL     1       0.771   2.802  80.855  1.00  0.00     0.143 C 
HETATM    2  C2  UNL     1      -0.484   2.266  81.529  1.00  0.00     0.203 C 
HETATM    3  O2  UNL     1      -0.396   2.697  82.872  1.00  0.00    -0.350 OA
HETATM    4  C3  UNL     1      -0.555   4.017  82.900  1.00  0.00     0.203 C 
HETATM    5  C4  UNL     1      -0.721   4.742  84.205  1.00  0.00     0.088 C 
HETATM    6  C5  UNL     1      -0.953   6.134  83.583  1.00  0.00     0.127 C 
HETATM    7  N1  UNL     1      -0.772   5.766  82.170  1.00  0.00    -0.183 NA
HETATM    8  O3  UNL     1      -1.532   4.621  82.119  1.00  0.00    -0.261 OA
HETATM    9  C6  UNL     1       0.392   4.871  82.152  1.00  0.00     0.152 C 
HETATM   10  C7  UNL     1       0.564   4.320  80.764  1.00  0.00     0.061 C 
ENDROOT
BRANCH   1  11
HETATM   11  O1  UNL     1       0.981   2.248  79.617  1.00  0.00    -0.393 OA
ATOM     12  H1  UNL     1       1.820   1.806  79.553  1.00  0.00     0.210 HD
ENDBRANCH   1  11
TORSDOF 1
ENDMDL
MODEL 2
REMARK VINA RESULT: -5.273278296      3.008      4.145
REMARK  1 active torsions:
REMARK  status: ('A' for Active; 'I' for Inactive)
REMARK    1  A    between atoms: O1_1  and  C1_3 
ROOT
HETATM    1  C1  UNL     1      -0.553   3.917  83.566  1.00  0.00     0.143 C 
HETATM    2  C2  UNL     1      -0.443   5.327  84.128  1.00  0.00     0.203 C 
HETATM    3  O2  UNL     1      -1.642   5.533  84.848  1.00  0.00    -0.350 OA
HETATM    4  C3  UNL     1      -1.623   4.755  85.926  1.00  0.00     0.203 C 
HETATM    5  C4  UNL     1      -2.664   4.904  86.998  1.00  0.00     0.088 C 
HETATM    6  C5  UNL     1      -2.058   3.856  87.953  1.00  0.00     0.127 C 
HETATM    7  N1  UNL     1      -0.945   3.413  87.099  1.00  0.00    -0.183 NA
HETATM    8  O3  UNL     1      -0.462   4.630  86.679  1.00  0.00    -0.261 OA
HETATM    9  C6  UNL     1      -1.517   3.290  85.753  1.00  0.00     0.152 C 
HETATM   10  C7  UNL     1      -0.414   2.987  84.778  1.00  0.00     0.061 C 
ENDROOT
BRANCH   1  11
HETATM   11  O1  UNL     1       0.403   3.653  82.617  1.00  0.00    -0.393 OA
ATOM     12  H1  UNL     1       1.265   3.520  82.994  1.00  0.00     0.210 HD
ENDBRANCH   1  11
TORSDOF 1
ENDMDL
MODEL 3
REMARK VINA RESULT: -5.254583445      3.614      4.636
REMARK  1 active torsions:
REMARK  status: ('A' for Active; 'I' for Inactive)
REMARK    1  A    between atoms: O1_1  and  C1_3 
ROOT
HETATM    1  C1  UNL     1      -1.744   3.628  86.782  1.00  0.00     0.143 C 
HETATM    2  C2  UNL     1      -3.044   4.376  86.529  1.00  0.00     0.203 C 
HETATM    3  O2  UNL     1      -2.690   5.745  86.526  1.00  0.00    -0.350 OA
HETATM    4  C3  UNL     1      -1.962   5.987  85.439  1.00  0.00     0.203 C 
HETATM    5  C4  UNL     1      -1.614   7.395  85.049  1.00  0.00     0.088 C 
HETATM    6  C5  UNL     1      -0.900   7.021  83.735  1.00  0.00     0.127 C 
HETATM    7  N1  UNL     1      -1.008   5.558  83.845  1.00  0.00    -0.183 NA
HETATM    8  O3  UNL     1      -2.327   5.440  84.216  1.00  0.00    -0.261 OA
HETATM    9  C6  UNL     1      -0.693   5.253  85.246  1.00  0.00     0.152 C 
HETATM   10  C7  UNL     1      -0.927   3.790  85.493  1.00  0.00     0.061 C 
ENDROOT
BRANCH   1  11
HETATM   11  O1  UNL     1      -1.948   2.305  87.086  1.00  0.00    -0.393 OA
ATOM     12  H1  UNL     1      -1.418   2.012  87.818  1.00  0.00     0.210 HD
ENDBRANCH   1  11
TORSDOF 1
ENDMDL
MODEL 4
REMARK VINA RESULT: -5.163328005      2.184      3.222
REMARK  1 active torsions:
REMARK  status: ('A' for Active; 'I' for Inactive)
REMARK    1  A    between atoms: O1_1  and  C1_3 
ROOT
HETATM    1  C1  UNL     1       0.244   2.207  81.879  1.00  0.00     0.143 C 
HETATM    2  C2  UNL     1      -0.393   3.579  82.043  1.00  0.00     0.203 C 
HETATM    3  O2  UNL     1       0.679   4.452  82.340  1.00  0.00    -0.350 OA
HETATM    4  C3  UNL     1       1.433   4.576  81.252  1.00  0.00     0.203 C 
HETATM    5  C4  UNL     1       2.529   5.601  81.191  1.00  0.00     0.088 C 
HETATM    6  C5  UNL     1       2.924   5.322  79.728  1.00  0.00     0.127 C 
HETATM    7  N1  UNL     1       1.999   4.207  79.469  1.00  0.00    -0.183 NA
HETATM    8  O3  UNL     1       0.843   4.723  80.004  1.00  0.00    -0.261 OA
HETATM    9  C6  UNL     1       2.060   3.368  80.672  1.00  0.00     0.152 C 
HETATM   10  C7  UNL     1       1.030   2.280  80.563  1.00  0.00     0.061 C 
ENDROOT
BRANCH   1  11
HETATM   11  O1  UNL     1      -0.683   1.195  81.855  1.00  0.00    -0.393 OA
ATOM     12  H1  UNL     1      -0.302   0.346  82.048  1.00  0.00     0.210 HD
ENDBRANCH   1  11
TORSDOF 1
ENDMDL
MODEL 5
REMARK VINA RESULT: -5.147367720      1.626      2.324
REMARK  1 active torsions:
REMARK  status: ('A' for Active; 'I' for Inactive)
REMARK    1  A    between atoms: O1_1  and  C1_3 
ROOT
HETATM    1  C1  UNL     1       0.118   1.870  81.301  1.00  0.00     0.143 C 
HETATM    2  C2  UNL     1       1.206   2.615  80.542  1.00  0.00     0.203 C 
HETATM    3  O2  UNL     1       0.589   3.798  80.075  1.00  0.00    -0.350 OA
HETATM    4  C3  UNL     1       0.333   4.579  81.121  1.00  0.00     0.203 C 
HETATM    5  C4  UNL     1      -0.129   5.994  80.926  1.00  0.00     0.088 C 
HETATM    6  C5  UNL     1      -0.142   6.363  82.423  1.00  0.00     0.127 C 
HETATM    7  N1  UNL     1       0.235   5.049  82.967  1.00  0.00    -0.183 NA
HETATM    8  O3  UNL     1       1.277   4.730  82.129  1.00  0.00    -0.261 OA
HETATM    9  C6  UNL     1      -0.548   4.075  82.196  1.00  0.00     0.152 C 
HETATM   10  C7  UNL     1      -0.116   2.687  82.579  1.00  0.00     0.061 C 
ENDROOT
BRANCH   1  11
HETATM   11  O1  UNL     1       0.470   0.575  81.590  1.00  0.00    -0.393 OA
ATOM     12  H1  UNL     1       0.835   0.482  82.462  1.00  0.00     0.210 HD
ENDBRANCH   1  11
TORSDOF 1
ENDMDL
