MODEL 1
REMARK VINA RESULT: -5.521881947      0.000      0.000
REMARK  1 active torsions:
REMARK  status: ('A' for Active; 'I' for Inactive)
REMARK    1  A    between atoms: N1_1  and  N2_4 
ROOT
HETATM    1  N2  UNL     1      -0.444   3.364  84.691  1.00  0.00    -0.110 NA
HETATM    2  C1  UNL     1      -0.040   2.263  83.882  1.00  0.00     0.181 C 
HETATM    3  C2  UNL     1      -0.242   2.562  82.414  1.00  0.00     0.240 C 
HETATM    4  C3  UNL     1       0.387   1.470  81.560  1.00  0.00     0.039 C 
HETATM    5  C4  UNL     1       0.369   2.196  80.208  1.00  0.00     0.032 C 
HETATM    6  C5  UNL     1       0.935   3.548  80.664  1.00  0.00     0.273 C 
HETATM    7  N3  UNL     1       0.437   3.756  82.001  1.00  0.00     0.096 N 
HETATM    8  C6  UNL     1      -0.488   4.876  82.062  1.00  0.00     0.301 C 
HETATM    9  C7  UNL     1      -0.756   5.245  83.493  1.00  0.00     0.226 C 
HETATM   10  O1  UNL     1       0.112   4.528  84.330  1.00  0.00    -0.283 OA
ENDROOT
BRANCH   1  11
HETATM   11  N1  UNL     1      -0.102   3.083  86.030  1.00  0.00    -0.341 NA
ATOM     12  H12 UNL     1       0.491   2.255  86.058  1.00  0.00     0.173 HD
ATOM     13  H11 UNL     1      -0.962   2.989  86.569  1.00  0.00     0.173 HD
ENDBRANCH   1  11
TORSDOF 1
ENDMDL
MODEL 2
REMARK VINA RESULT: -5.482482496      2.999      4.151
REMARK  1 active torsions:
REMARK  status: ('A' for Active; 'I' for Inactive)
REMARK    1  A    between atoms: N1_1  and  N2_4 
ROOT
HETATM    1  N2  UNL     1      -1.365   4.023  80.543  1.00  0.00    -0.110 NA
HETATM    2  C1  UNL     1      -0.572   5.206  80.529  1.00  0.00     0.181 C 
HETATM    3  C2  UNL     1       0.767   4.973  81.190  1.00  0.00     0.240 C 
HETATM    4  C3  UNL     1       1.678   6.175  80.980  1.00  0.00     0.039 C 
HETATM    5  C4  UNL     1       3.008   5.531  81.395  1.00  0.00     0.032 C 
HETATM    6  C5  UNL     1       2.890   4.223  80.600  1.00  0.00     0.273 C 
HETATM    7  N3  UNL     1       1.489   3.886  80.597  1.00  0.00     0.096 N 
HETATM    8  C6  UNL     1       1.227   2.670  81.351  1.00  0.00     0.301 C 
HETATM    9  C7  UNL     1      -0.172   2.192  81.087  1.00  0.00     0.226 C 
HETATM   10  O1  UNL     1      -0.736   2.949  80.049  1.00  0.00    -0.283 OA
ENDROOT
BRANCH   1  11
HETATM   11  N1  UNL     1      -2.535   4.261  79.793  1.00  0.00    -0.341 NA
ATOM     12  H12 UNL     1      -2.573   5.246  79.534  1.00  0.00     0.173 HD
ATOM     13  H11 UNL     1      -3.338   3.950  80.339  1.00  0.00     0.173 HD
ENDBRANCH   1  11
TORSDOF 1
ENDMDL
MODEL 3
REMARK VINA RESULT: -5.467956998      2.759      4.613
REMARK  1 active torsions:
REMARK  status: ('A' for Active; 'I' for Inactive)
REMARK    1  A    between atoms: N1_1  and  N2_4 
ROOT
HETATM    1  N2  UNL     1      -0.194   3.495  83.949  1.00  0.00    -0.110 NA
HETATM    2  C1  UNL     1      -0.730   2.885  85.121  1.00  0.00     0.181 C 
HETATM    3  C2  UNL     1      -1.047   3.918  86.177  1.00  0.00     0.240 C 
HETATM    4  C3  UNL     1      -1.810   3.280  87.330  1.00  0.00     0.039 C 
HETATM    5  C4  UNL     1      -2.304   4.561  88.016  1.00  0.00     0.032 C 
HETATM    6  C5  UNL     1      -2.819   5.305  86.776  1.00  0.00     0.273 C 
HETATM    7  N3  UNL     1      -1.936   4.936  85.698  1.00  0.00     0.096 N 
HETATM    8  C6  UNL     1      -1.156   6.071  85.231  1.00  0.00     0.301 C 
HETATM    9  C7  UNL     1      -0.474   5.730  83.937  1.00  0.00     0.226 C 
HETATM   10  O1  UNL     1      -0.948   4.494  83.472  1.00  0.00    -0.283 OA
ENDROOT
BRANCH   1  11
HETATM   11  N1  UNL     1      -0.052   2.505  82.956  1.00  0.00    -0.341 NA
ATOM     12  H12 UNL     1       0.747   1.914  83.182  1.00  0.00     0.173 HD
ATOM     13  H11 UNL     1       0.023   2.966  82.049  1.00  0.00     0.173 HD
ENDBRANCH   1  11
TORSDOF 1
ENDMDL
MODEL 4
REMARK VINA RESULT: -5.342485960      0.969      1.151
REMARK  1 active torsions:
REMARK  status: ('A' for Active; 'I' for Inactive)
REMARK    1  A    between atoms: N1_1  and  N2_4 
ROOT
HETATM    1  N2  UNL     1      -0.730   2.960  83.959  1.00  0.00    -0.110 NA
HETATM    2  C1  UNL     1       0.054   2.261  82.997  1.00  0.00     0.181 C 
HETATM    3  C2  UNL     1       0.313   3.116  81.778  1.00  0.00     0.240 C 
HETATM    4  C3  UNL     1       1.321   2.440  80.860  1.00  0.00     0.039 C 
HETATM    5  C4  UNL     1       1.659   3.639  79.964  1.00  0.00     0.032 C 
HETATM    6  C5  UNL     1       1.865   4.695  81.060  1.00  0.00     0.273 C 
HETATM    7  N3  UNL     1       0.932   4.367  82.108  1.00  0.00     0.096 N 
HETATM    8  C6  UNL     1      -0.096   5.385  82.251  1.00  0.00     0.301 C 
HETATM    9  C7  UNL     1      -0.865   5.165  83.522  1.00  0.00     0.226 C 
HETATM   10  O1  UNL     1      -0.239   4.164  84.279  1.00  0.00    -0.283 OA
ENDROOT
BRANCH   1  11
HETATM   11  N1  UNL     1      -0.817   2.170  85.123  1.00  0.00    -0.341 NA
ATOM     12  H12 UNL     1      -0.621   1.198  84.886  1.00  0.00     0.173 HD
ATOM     13  H11 UNL     1      -1.736   2.311  85.542  1.00  0.00     0.173 HD
ENDBRANCH   1  11
TORSDOF 1
ENDMDL
MODEL 5
REMARK VINA RESULT: -5.270542334      2.268      3.742
REMARK  1 active torsions:
REMARK  status: ('A' for Active; 'I' for Inactive)
REMARK    1  A    between atoms: N1_1  and  N2_4 
ROOT
HETATM    1  N2  UNL     1      -0.898   3.335  86.684  1.00  0.00    -0.110 NA
HETATM    2  C1  UNL     1      -1.018   4.746  86.528  1.00  0.00     0.181 C 
HETATM    3  C2  UNL     1      -0.418   5.204  85.219  1.00  0.00     0.240 C 
HETATM    4  C3  UNL     1      -0.742   6.671  84.972  1.00  0.00     0.039 C 
HETATM    5  C4  UNL     1      -0.365   6.743  83.486  1.00  0.00     0.032 C 
HETATM    6  C5  UNL     1      -1.080   5.474  83.003  1.00  0.00     0.273 C 
HETATM    7  N3  UNL     1      -0.990   4.530  84.090  1.00  0.00     0.096 N 
HETATM    8  C6  UNL     1      -0.158   3.390  83.743  1.00  0.00     0.301 C 
HETATM    9  C7  UNL     1      -0.320   2.303  84.767  1.00  0.00     0.226 C 
HETATM   10  O1  UNL     1      -1.365   2.638  85.640  1.00  0.00    -0.283 OA
ENDROOT
BRANCH   1  11
HETATM   11  N1  UNL     1      -1.596   2.953  87.847  1.00  0.00    -0.341 NA
ATOM     12  H12 UNL     1      -0.940   2.550  88.516  1.00  0.00     0.173 HD
ATOM     13  H11 UNL     1      -2.348   2.318  87.579  1.00  0.00     0.173 HD
ENDBRANCH   1  11
TORSDOF 1
ENDMDL
