MODEL 1
REMARK VINA RESULT: -5.717233019      0.000      0.000
REMARK  1 active torsions:
REMARK  status: ('A' for Active; 'I' for Inactive)
REMARK    1  A    between atoms: C7_9  and  O1_10 
ROOT
HETATM    1  N1  UNL     1       0.131   3.366  86.281  1.00  0.00    -0.196 NA
HETATM    2  C1  UNL     1      -0.125   4.334  85.672  1.00  0.00     0.075 C 
HETATM    3  C2  UNL     1      -0.465   5.532  84.916  1.00  0.00     0.108 C 
HETATM    4  C3  UNL     1      -0.245   5.303  83.410  1.00  0.00     0.036 C 
HETATM    5  C4  UNL     1       0.185   6.740  83.363  1.00  0.00     0.005 C 
HETATM    6  C5  UNL     1      -0.891   7.741  83.318  1.00  0.00     0.125 C 
HETATM    7  N2  UNL     1      -2.131   7.419  83.892  1.00  0.00    -0.188 NA
HETATM    8  C6  UNL     1      -2.053   7.451  85.322  1.00  0.00     0.192 C 
HETATM    9  C7  UNL     1      -1.826   6.014  85.125  1.00  0.00     0.216 C 
HETATM   10  O2  UNL     1      -2.514   6.161  83.899  1.00  0.00    -0.260 OA
HETATM   11  C8  UNL     1       0.614   6.556  84.823  1.00  0.00     0.036 C 
ENDROOT
BRANCH   9  12
HETATM   12  O1  UNL     1      -2.555   5.223  86.018  1.00  0.00    -0.362 OA
ATOM     13  H1  UNL     1      -3.309   5.672  86.382  1.00  0.00     0.213 HD
ENDBRANCH   9  12
TORSDOF 1
ENDMDL
MODEL 2
REMARK VINA RESULT: -5.700550712      3.809      5.205
REMARK  1 active torsions:
REMARK  status: ('A' for Active; 'I' for Inactive)
REMARK    1  A    between atoms: C7_9  and  O1_10 
ROOT
HETATM    1  N1  UNL     1      -1.182   6.116  83.421  1.00  0.00    -0.196 NA
HETATM    2  C1  UNL     1      -0.715   5.281  82.744  1.00  0.00     0.075 C 
HETATM    3  C2  UNL     1      -0.126   4.260  81.889  1.00  0.00     0.108 C 
HETATM    4  C3  UNL     1      -1.161   3.737  80.877  1.00  0.00     0.036 C 
HETATM    5  C4  UNL     1      -0.495   2.403  81.046  1.00  0.00     0.005 C 
HETATM    6  C5  UNL     1       0.744   2.192  80.281  1.00  0.00     0.125 C 
HETATM    7  N2  UNL     1       1.528   3.310  79.953  1.00  0.00    -0.188 NA
HETATM    8  C6  UNL     1       2.227   3.796  81.104  1.00  0.00     0.192 C 
HETATM    9  C7  UNL     1       1.065   4.690  81.164  1.00  0.00     0.216 C 
HETATM   10  O2  UNL     1       0.930   4.468  79.774  1.00  0.00    -0.260 OA
HETATM   11  C8  UNL     1      -0.119   2.881  82.453  1.00  0.00     0.036 C 
ENDROOT
BRANCH   9  12
HETATM   12  O1  UNL     1       1.415   6.018  81.427  1.00  0.00    -0.362 OA
ATOM     13  H1  UNL     1       2.012   6.106  82.162  1.00  0.00     0.213 HD
ENDBRANCH   9  12
TORSDOF 1
ENDMDL
MODEL 3
REMARK VINA RESULT: -5.670771801      3.708      4.425
REMARK  1 active torsions:
REMARK  status: ('A' for Active; 'I' for Inactive)
REMARK    1  A    between atoms: C7_9  and  O1_10 
ROOT
HETATM    1  N1  UNL     1      -0.330   1.947  83.384  1.00  0.00    -0.196 NA
HETATM    2  C1  UNL     1       0.052   2.681  82.555  1.00  0.00     0.075 C 
HETATM    3  C2  UNL     1       0.506   3.599  81.519  1.00  0.00     0.108 C 
HETATM    4  C3  UNL     1       0.791   2.841  80.210  1.00  0.00     0.036 C 
HETATM    5  C4  UNL     1       1.912   3.819  80.013  1.00  0.00     0.005 C 
HETATM    6  C5  UNL     1       1.540   5.136  79.474  1.00  0.00     0.125 C 
HETATM    7  N2  UNL     1       0.246   5.622  79.723  1.00  0.00    -0.188 NA
HETATM    8  C6  UNL     1       0.119   6.055  81.082  1.00  0.00     0.192 C 
HETATM    9  C7  UNL     1      -0.414   4.696  81.237  1.00  0.00     0.216 C 
HETATM   10  O2  UNL     1      -0.735   4.757  79.861  1.00  0.00    -0.260 OA
HETATM   11  C8  UNL     1       1.960   3.919  81.541  1.00  0.00     0.036 C 
ENDROOT
BRANCH   9  12
HETATM   12  O1  UNL     1      -1.572   4.654  82.020  1.00  0.00    -0.362 OA
ATOM     13  H1  UNL     1      -2.148   5.395  81.871  1.00  0.00     0.213 HD
ENDBRANCH   9  12
TORSDOF 1
ENDMDL
MODEL 4
REMARK VINA RESULT: -5.665882229      2.434      3.814
REMARK  1 active torsions:
REMARK  status: ('A' for Active; 'I' for Inactive)
REMARK    1  A    between atoms: C7_9  and  O1_10 
ROOT
HETATM    1  N1  UNL     1       1.046   6.227  85.019  1.00  0.00    -0.196 NA
HETATM    2  C1  UNL     1       0.083   5.697  85.426  1.00  0.00     0.075 C 
HETATM    3  C2  UNL     1      -1.105   5.018  85.926  1.00  0.00     0.108 C 
HETATM    4  C3  UNL     1      -2.236   5.067  84.884  1.00  0.00     0.036 C 
HETATM    5  C4  UNL     1      -3.166   5.185  86.055  1.00  0.00     0.005 C 
HETATM    6  C5  UNL     1      -3.505   3.932  86.747  1.00  0.00     0.125 C 
HETATM    7  N2  UNL     1      -2.580   2.876  86.714  1.00  0.00    -0.188 NA
HETATM    8  C6  UNL     1      -1.470   3.146  87.578  1.00  0.00     0.192 C 
HETATM    9  C7  UNL     1      -0.888   3.631  86.321  1.00  0.00     0.216 C 
HETATM   10  O2  UNL     1      -1.792   2.762  85.667  1.00  0.00    -0.260 OA
HETATM   11  C8  UNL     1      -1.994   5.842  86.792  1.00  0.00     0.036 C 
ENDROOT
BRANCH   9  12
HETATM   12  O1  UNL     1       0.433   3.210  86.138  1.00  0.00    -0.362 OA
ATOM     13  H1  UNL     1       1.057   3.710  86.651  1.00  0.00     0.213 HD
ENDBRANCH   9  12
TORSDOF 1
ENDMDL
MODEL 5
REMARK VINA RESULT: -5.588222982      4.205      5.489
REMARK  1 active torsions:
REMARK  status: ('A' for Active; 'I' for Inactive)
REMARK    1  A    between atoms: C7_9  and  O1_10 
ROOT
HETATM    1  N1  UNL     1      -2.253   4.112  80.075  1.00  0.00    -0.196 NA
HETATM    2  C1  UNL     1      -1.166   4.427  80.378  1.00  0.00     0.075 C 
HETATM    3  C2  UNL     1       0.191   4.796  80.757  1.00  0.00     0.108 C 
HETATM    4  C3  UNL     1       0.264   5.129  82.258  1.00  0.00     0.036 C 
HETATM    5  C4  UNL     1       1.276   6.167  81.871  1.00  0.00     0.005 C 
HETATM    6  C5  UNL     1       2.648   5.686  81.646  1.00  0.00     0.125 C 
HETATM    7  N2  UNL     1       2.833   4.360  81.222  1.00  0.00    -0.188 NA
HETATM    8  C6  UNL     1       2.470   4.212  79.844  1.00  0.00     0.192 C 
HETATM    9  C7  UNL     1       1.201   3.790  80.449  1.00  0.00     0.216 C 
HETATM   10  O2  UNL     1       1.958   3.452  81.595  1.00  0.00    -0.260 OA
HETATM   11  C8  UNL     1       0.555   6.221  80.519  1.00  0.00     0.036 C 
ENDROOT
BRANCH   9  12
HETATM   12  O1  UNL     1       0.668   2.646  79.846  1.00  0.00    -0.362 OA
ATOM     13  H1  UNL     1       1.333   2.072  79.484  1.00  0.00     0.213 HD
ENDBRANCH   9  12
TORSDOF 1
ENDMDL
