MODEL 1
REMARK VINA RESULT: -7.461252945      0.000      0.000
REMARK  4 active torsions:
REMARK  status: ('A' for Active; 'I' for Inactive)
REMARK    1  A    between atoms: C4_6  and  C5_7 
REMARK    2  A    between atoms: C11_19  and  S1_20 
REMARK    3  A    between atoms: S1_20  and  C12_21 
REMARK    4  A    between atoms: C15_26  and  N6_27 
ROOT
HETATM    1  C5  UNL     1     -22.635   7.776   9.673  1.00  0.00     0.021 A 
HETATM    2  C6  UNL     1     -22.531   9.069   9.182  1.00  0.00     0.127 A 
HETATM    3 CL1  UNL     1     -21.156  10.162   9.204  1.00  0.00    -0.062 Cl
HETATM    4  N2  UNL     1     -23.731   9.371   8.607  1.00  0.00    -0.289 N 
ATOM      5  H2  UNL     1     -23.947  10.261   8.158  1.00  0.00     0.188 HD
HETATM    6  N3  UNL     1     -24.561   8.378   8.706  1.00  0.00    -0.298 N 
ATOM      7  H3  UNL     1     -25.519   8.355   8.355  1.00  0.00     0.187 HD
HETATM    8  C7  UNL     1     -23.926   7.388   9.353  1.00  0.00     0.071 A 
HETATM    9  C8  UNL     1     -24.522   6.125   9.693  1.00  0.00     0.041 A 
HETATM   10  C9  UNL     1     -24.677   5.882  11.064  1.00  0.00     0.092 A 
HETATM   11  C10 UNL     1     -24.441   6.841  12.093  1.00  0.00     0.103 C 
HETATM   12  N4  UNL     1     -24.272   7.622  12.954  1.00  0.00    -0.191 NA
HETATM   13  C11 UNL     1     -25.176   4.650  11.442  1.00  0.00     0.093 A 
HETATM   14  N5  UNL     1     -25.514   3.706  10.539  1.00  0.00    -0.335 N 
ATOM     15  H5  UNL     1     -25.882   2.805  10.843  1.00  0.00     0.168 HD
HETATM   16  C15 UNL     1     -25.354   3.980   9.215  1.00  0.00     0.121 A 
HETATM   17  C16 UNL     1     -24.858   5.186   8.755  1.00  0.00     0.102 A 
HETATM   18  C17 UNL     1     -24.685   5.475   7.347  1.00  0.00     0.104 C 
HETATM   19  N7  UNL     1     -24.557   5.694   6.213  1.00  0.00    -0.191 NA
ENDROOT
BRANCH  13  20
HETATM   20  S1  UNL     1     -25.348   4.268  13.180  1.00  0.00    -0.107 SA
BRANCH  20  21
HETATM   21  C12 UNL     1     -25.996   2.651  13.538  1.00  0.00     0.045 C 
HETATM   22  C13 UNL     1     -27.441   2.460  13.190  1.00  0.00     0.021 C 
HETATM   23  C14 UNL     1     -25.805   2.381  15.021  1.00  0.00     0.021 C 
ENDBRANCH  20  21
ENDBRANCH  13  20
BRANCH   1  24
HETATM   24  C4  UNL     1     -21.582   7.062  10.420  1.00  0.00     0.075 A 
HETATM   25  C2  UNL     1     -20.178   7.136  10.245  1.00  0.00    -0.008 A 
HETATM   26  N1  UNL     1     -19.066   7.747  10.461  1.00  0.00    -0.400 N 
HETATM   27  C3  UNL     1     -20.852   5.968   9.597  1.00  0.00     0.068 A 
HETATM   28  C1  UNL     1     -19.036   8.951  11.250  1.00  0.00     0.145 C 
ATOM     29  H1  UNL     1     -18.199   7.376  10.071  1.00  0.00     0.158 HD
ENDBRANCH   1  24
BRANCH  16  30
HETATM   30  N6  UNL     1     -25.664   3.110   8.328  1.00  0.00    -0.384 N 
ATOM     31  H62 UNL     1     -26.553   3.244   7.846  1.00  0.00     0.157 HD
ATOM     32  H61 UNL     1     -25.039   2.329   8.129  1.00  0.00     0.157 HD
ENDBRANCH  16  30
TORSDOF 4
ENDMDL
MODEL 2
REMARK VINA RESULT: -7.433671863      6.088     10.418
REMARK  4 active torsions:
REMARK  status: ('A' for Active; 'I' for Inactive)
REMARK    1  A    between atoms: C4_6  and  C5_7 
REMARK    2  A    between atoms: C11_19  and  S1_20 
REMARK    3  A    between atoms: S1_20  and  C12_21 
REMARK    4  A    between atoms: C15_26  and  N6_27 
ROOT
HETATM    1  C5  UNL     1     -27.471   1.046  18.374  1.00  0.00     0.021 A 
HETATM    2  C6  UNL     1     -27.498   1.093  19.760  1.00  0.00     0.127 A 
HETATM    3 CL1  UNL     1     -28.877   1.083  20.848  1.00  0.00    -0.062 Cl
HETATM    4  N2  UNL     1     -26.200   1.113  20.179  1.00  0.00    -0.289 N 
ATOM      5  H2  UNL     1     -25.911   1.145  21.158  1.00  0.00     0.188 HD
HETATM    6  N3  UNL     1     -25.381   1.086  19.173  1.00  0.00    -0.298 N 
ATOM      7  H3  UNL     1     -24.363   1.093  19.224  1.00  0.00     0.187 HD
HETATM    8  C7  UNL     1     -26.123   1.048  18.055  1.00  0.00     0.071 A 
HETATM    9  C8  UNL     1     -25.585   1.045  16.722  1.00  0.00     0.041 A 
HETATM   10  C9  UNL     1     -25.874   2.180  15.954  1.00  0.00     0.092 A 
HETATM   11  C10 UNL     1     -26.504   3.360  16.449  1.00  0.00     0.103 C 
HETATM   12  N4  UNL     1     -27.003   4.349  16.843  1.00  0.00    -0.191 NA
HETATM   13  C11 UNL     1     -25.442   2.190  14.642  1.00  0.00     0.093 A 
HETATM   14  N5  UNL     1     -24.760   1.159  14.103  1.00  0.00    -0.335 N 
ATOM     15  H5  UNL     1     -24.450   1.191  13.132  1.00  0.00     0.168 HD
HETATM   16  C15 UNL     1     -24.493   0.074  14.882  1.00  0.00     0.121 A 
HETATM   17  C16 UNL     1     -24.893  -0.016  16.203  1.00  0.00     0.102 A 
HETATM   18  C17 UNL     1     -24.611  -1.171  17.029  1.00  0.00     0.104 C 
HETATM   19  N7  UNL     1     -24.372  -2.103  17.680  1.00  0.00    -0.191 NA
ENDROOT
BRANCH  13  20
HETATM   20  S1  UNL     1     -25.827   3.593  13.601  1.00  0.00    -0.107 SA
BRANCH  20  21
HETATM   21  C12 UNL     1     -25.521   3.353  11.866  1.00  0.00     0.045 C 
HETATM   22  C13 UNL     1     -25.277   4.609  11.088  1.00  0.00     0.021 C 
HETATM   23  C14 UNL     1     -26.716   2.628  11.270  1.00  0.00     0.021 C 
ENDBRANCH  20  21
ENDBRANCH  13  20
BRANCH   1  24
HETATM   24  C4  UNL     1     -28.659   1.062  17.498  1.00  0.00     0.075 A 
HETATM   25  C2  UNL     1     -29.993   1.398  17.835  1.00  0.00    -0.008 A 
HETATM   26  N1  UNL     1     -30.890   2.297  18.045  1.00  0.00    -0.400 N 
HETATM   27  C3  UNL     1     -29.682  -0.066  17.797  1.00  0.00     0.068 A 
HETATM   28  C1  UNL     1     -30.569   3.693  17.908  1.00  0.00     0.145 C 
ATOM     29  H1  UNL     1     -31.835   2.018  18.310  1.00  0.00     0.158 HD
ENDBRANCH   1  24
BRANCH  16  30
HETATM   30  N6  UNL     1     -23.846  -0.924  14.408  1.00  0.00    -0.384 N 
ATOM     31  H62 UNL     1     -23.058  -0.711  13.796  1.00  0.00     0.157 HD
ATOM     32  H61 UNL     1     -24.122  -1.878  14.642  1.00  0.00     0.157 HD
ENDBRANCH  16  30
TORSDOF 4
ENDMDL
MODEL 3
REMARK VINA RESULT: -7.290734964      4.169      5.998
REMARK  4 active torsions:
REMARK  status: ('A' for Active; 'I' for Inactive)
REMARK    1  A    between atoms: C4_6  and  C5_7 
REMARK    2  A    between atoms: C11_19  and  S1_20 
REMARK    3  A    between atoms: S1_20  and  C12_21 
REMARK    4  A    between atoms: C15_26  and  N6_27 
ROOT
HETATM    1  C5  UNL     1     -19.045   8.497   9.496  1.00  0.00     0.021 A 
HETATM    2  C6  UNL     1     -18.368   7.977   8.402  1.00  0.00     0.127 A 
HETATM    3 CL1  UNL     1     -16.747   8.331   7.824  1.00  0.00    -0.062 Cl
HETATM    4  N2  UNL     1     -19.196   7.060   7.827  1.00  0.00    -0.289 N 
ATOM      5  H2  UNL     1     -18.962   6.511   6.998  1.00  0.00     0.188 HD
HETATM    6  N3  UNL     1     -20.321   6.974   8.468  1.00  0.00    -0.298 N 
ATOM      7  H3  UNL     1     -21.103   6.361   8.237  1.00  0.00     0.187 HD
HETATM    8  C7  UNL     1     -20.263   7.840   9.492  1.00  0.00     0.071 A 
HETATM    9  C8  UNL     1     -21.335   8.070  10.423  1.00  0.00     0.041 A 
HETATM   10  C9  UNL     1     -21.906   9.348  10.380  1.00  0.00     0.092 A 
HETATM   11  C10 UNL     1     -21.612  10.339   9.397  1.00  0.00     0.103 C 
HETATM   12  N4  UNL     1     -21.400  11.161   8.584  1.00  0.00    -0.191 NA
HETATM   13  C11 UNL     1     -22.888   9.641  11.307  1.00  0.00     0.093 A 
HETATM   14  N5  UNL     1     -23.300   8.741  12.224  1.00  0.00    -0.335 N 
ATOM     15  H5  UNL     1     -24.028   8.981  12.896  1.00  0.00     0.168 HD
HETATM   16  C15 UNL     1     -22.725   7.507  12.232  1.00  0.00     0.121 A 
HETATM   17  C16 UNL     1     -21.734   7.136  11.341  1.00  0.00     0.102 A 
HETATM   18  C17 UNL     1     -21.121   5.824  11.354  1.00  0.00     0.104 C 
HETATM   19  N7  UNL     1     -20.643   4.766  11.373  1.00  0.00    -0.191 NA
ENDROOT
BRANCH  13  20
HETATM   20  S1  UNL     1     -23.617  11.274  11.329  1.00  0.00    -0.107 SA
BRANCH  20  21
HETATM   21  C12 UNL     1     -22.712  12.493  12.255  1.00  0.00     0.045 C 
HETATM   22  C13 UNL     1     -21.235  12.258  12.334  1.00  0.00     0.021 C 
HETATM   23  C14 UNL     1     -23.281  12.535  13.664  1.00  0.00     0.021 C 
ENDBRANCH  20  21
ENDBRANCH  13  20
BRANCH   1  24
HETATM   24  C4  UNL     1     -18.538   9.564  10.383  1.00  0.00     0.075 A 
HETATM   25  C2  UNL     1     -17.428   9.521  11.261  1.00  0.00    -0.008 A 
HETATM   26  N1  UNL     1     -16.156   9.606  11.444  1.00  0.00    -0.400 N 
HETATM   27  C3  UNL     1     -18.765   9.292  11.894  1.00  0.00     0.068 A 
HETATM   28  C1  UNL     1     -15.278   9.884  10.338  1.00  0.00     0.145 C 
ATOM     29  H1  UNL     1     -15.769   9.476  12.379  1.00  0.00     0.158 HD
ENDBRANCH   1  24
BRANCH  16  30
HETATM   30  N6  UNL     1     -23.090   6.625  13.086  1.00  0.00    -0.384 N 
ATOM     31  H62 UNL     1     -23.849   6.003  12.806  1.00  0.00     0.157 HD
ATOM     32  H61 UNL     1     -22.631   6.564  13.995  1.00  0.00     0.157 HD
ENDBRANCH  16  30
TORSDOF 4
ENDMDL
MODEL 4
REMARK VINA RESULT: -7.234102498      3.197      7.407
REMARK  4 active torsions:
REMARK  status: ('A' for Active; 'I' for Inactive)
REMARK    1  A    between atoms: C4_6  and  C5_7 
REMARK    2  A    between atoms: C11_19  and  S1_20 
REMARK    3  A    between atoms: S1_20  and  C12_21 
REMARK    4  A    between atoms: C15_26  and  N6_27 
ROOT
HETATM    1  C5  UNL     1     -22.772   7.714   9.887  1.00  0.00     0.021 A 
HETATM    2  C6  UNL     1     -23.741   7.393   8.947  1.00  0.00     0.127 A 
HETATM    3 CL1  UNL     1     -24.735   5.950   8.822  1.00  0.00    -0.062 Cl
HETATM    4  N2  UNL     1     -23.835   8.457   8.099  1.00  0.00    -0.289 N 
ATOM      5  H2  UNL     1     -24.473   8.505   7.304  1.00  0.00     0.188 HD
HETATM    6  N3  UNL     1     -23.008   9.399   8.434  1.00  0.00    -0.298 N 
ATOM      7  H3  UNL     1     -22.888  10.294   7.959  1.00  0.00     0.187 HD
HETATM    8  C7  UNL     1     -22.341   8.978   9.521  1.00  0.00     0.071 A 
HETATM    9  C8  UNL     1     -21.304   9.726  10.178  1.00  0.00     0.041 A 
HETATM   10  C9  UNL     1     -20.025   9.159  10.121  1.00  0.00     0.092 A 
HETATM   11  C10 UNL     1     -19.673   8.017   9.341  1.00  0.00     0.103 C 
HETATM   12  N4  UNL     1     -19.359   7.091   8.689  1.00  0.00    -0.191 NA
HETATM   13  C11 UNL     1     -19.010   9.802  10.803  1.00  0.00     0.093 A 
HETATM   14  N5  UNL     1     -19.221  10.939  11.498  1.00  0.00    -0.335 N 
ATOM     15  H5  UNL     1     -18.455  11.397  11.992  1.00  0.00     0.168 HD
HETATM   16  C15 UNL     1     -20.478  11.463  11.527  1.00  0.00     0.121 A 
HETATM   17  C16 UNL     1     -21.548  10.879  10.875  1.00  0.00     0.102 A 
HETATM   18  C17 UNL     1     -22.884  11.436  10.909  1.00  0.00     0.104 C 
HETATM   19  N7  UNL     1     -23.949  11.897  10.942  1.00  0.00    -0.191 NA
ENDROOT
BRANCH  13  20
HETATM   20  S1  UNL     1     -17.366   9.096  10.804  1.00  0.00    -0.107 SA
BRANCH  20  21
HETATM   21  C12 UNL     1     -16.210   9.876  11.907  1.00  0.00     0.045 C 
HETATM   22  C13 UNL     1     -15.038  10.524  11.237  1.00  0.00     0.021 C 
HETATM   23  C14 UNL     1     -15.703   8.826  12.881  1.00  0.00     0.021 C 
ENDBRANCH  20  21
ENDBRANCH  13  20
BRANCH   1  24
HETATM   24  C4  UNL     1     -22.308   6.825  10.970  1.00  0.00     0.075 A 
HETATM   25  C2  UNL     1     -22.965   6.506  12.185  1.00  0.00    -0.008 A 
HETATM   26  N1  UNL     1     -23.844   5.812  12.820  1.00  0.00    -0.400 N 
HETATM   27  C3  UNL     1     -21.913   7.568  12.274  1.00  0.00     0.068 A 
HETATM   28  C1  UNL     1     -24.634   4.827  12.129  1.00  0.00     0.145 C 
ATOM     29  H1  UNL     1     -23.982   5.962  13.820  1.00  0.00     0.158 HD
ENDBRANCH   1  24
BRANCH  16  30
HETATM   30  N6  UNL     1     -20.718  12.541  12.175  1.00  0.00    -0.384 N 
ATOM     31  H62 UNL     1     -20.095  12.757  12.953  1.00  0.00     0.157 HD
ATOM     32  H61 UNL     1     -21.500  13.141  11.910  1.00  0.00     0.157 HD
ENDBRANCH  16  30
TORSDOF 4
ENDMDL
MODEL 5
REMARK VINA RESULT: -7.011499529      6.937     11.079
REMARK  4 active torsions:
REMARK  status: ('A' for Active; 'I' for Inactive)
REMARK    1  A    between atoms: C4_6  and  C5_7 
REMARK    2  A    between atoms: C11_19  and  S1_20 
REMARK    3  A    between atoms: S1_20  and  C12_21 
REMARK    4  A    between atoms: C15_26  and  N6_27 
ROOT
HETATM    1  C5  UNL     1     -26.874   0.336  19.408  1.00  0.00     0.021 A 
HETATM    2  C6  UNL     1     -27.081  -0.936  19.921  1.00  0.00     0.127 A 
HETATM    3 CL1  UNL     1     -26.199  -1.786  21.180  1.00  0.00    -0.062 Cl
HETATM    4  N2  UNL     1     -28.172  -1.446  19.282  1.00  0.00    -0.289 N 
ATOM      5  H2  UNL     1     -28.563  -2.372  19.458  1.00  0.00     0.188 HD
HETATM    6  N3  UNL     1     -28.649  -0.601  18.420  1.00  0.00    -0.298 N 
ATOM      7  H3  UNL     1     -29.459  -0.745  17.817  1.00  0.00     0.187 HD
HETATM    8  C7  UNL     1     -27.878   0.498  18.469  1.00  0.00     0.071 A 
HETATM    9  C8  UNL     1     -28.059   1.655  17.635  1.00  0.00     0.041 A 
HETATM   10  C9  UNL     1     -27.025   1.908  16.725  1.00  0.00     0.092 A 
HETATM   11  C10 UNL     1     -25.928   1.030  16.472  1.00  0.00     0.103 C 
HETATM   12  N4  UNL     1     -25.030   0.312  16.235  1.00  0.00    -0.191 NA
HETATM   13  C11 UNL     1     -27.117   3.051  15.955  1.00  0.00     0.093 A 
HETATM   14  N5  UNL     1     -28.160   3.901  16.055  1.00  0.00    -0.335 N 
ATOM     15  H5  UNL     1     -28.206   4.738  15.474  1.00  0.00     0.168 HD
HETATM   16  C15 UNL     1     -29.149   3.619  16.948  1.00  0.00     0.121 A 
HETATM   17  C16 UNL     1     -29.129   2.499  17.758  1.00  0.00     0.102 A 
HETATM   18  C17 UNL     1     -30.180   2.202  18.709  1.00  0.00     0.104 C 
HETATM   19  N7  UNL     1     -31.034   1.976  19.463  1.00  0.00    -0.191 NA
ENDROOT
BRANCH  13  20
HETATM   20  S1  UNL     1     -25.800   3.449  14.811  1.00  0.00    -0.107 SA
BRANCH  20  21
HETATM   21  C12 UNL     1     -25.982   2.763  13.181  1.00  0.00     0.045 C 
HETATM   22  C13 UNL     1     -25.550   3.663  12.065  1.00  0.00     0.021 C 
HETATM   23  C14 UNL     1     -27.443   2.396  12.982  1.00  0.00     0.021 C 
ENDBRANCH  20  21
ENDBRANCH  13  20
BRANCH   1  24
HETATM   24  C4  UNL     1     -25.764   1.235  19.782  1.00  0.00     0.075 A 
HETATM   25  C2  UNL     1     -24.795   1.056  20.801  1.00  0.00    -0.008 A 
HETATM   26  N1  UNL     1     -23.693   0.526  21.200  1.00  0.00    -0.400 N 
HETATM   27  C3  UNL     1     -25.952   1.939  21.152  1.00  0.00     0.068 A 
HETATM   28  C1  UNL     1     -22.929  -0.318  20.319  1.00  0.00     0.145 C 
ATOM     29  H1  UNL     1     -23.358   0.704  22.147  1.00  0.00     0.158 HD
ENDBRANCH   1  24
BRANCH  16  30
HETATM   30  N6  UNL     1     -30.155   4.401  17.072  1.00  0.00    -0.384 N 
ATOM     31  H62 UNL     1     -29.983   5.396  16.925  1.00  0.00     0.157 HD
ATOM     32  H61 UNL     1     -31.075   4.028  17.306  1.00  0.00     0.157 HD
ENDBRANCH  16  30
TORSDOF 4
ENDMDL
