MODEL 1
REMARK VINA RESULT: -10.602837119      0.000      0.000
REMARK  13 active torsions:
REMARK  status: ('A' for Active; 'I' for Inactive)
REMARK    1  A    between atoms: N1_4  and  C4_5 
REMARK    2  A    between atoms: C4_5  and  O1_6 
REMARK    3  A    between atoms: C4_5  and  N2_8 
REMARK    4  A    between atoms: C7_11  and  C8_12 
REMARK    5  A    between atoms: C7_11  and  C10_15 
REMARK    6  A    between atoms: C10_15  and  N4_16 
REMARK       I    between atoms: N4_16  and  C11_18 
REMARK       I    between atoms: C11_18  and  N5_20 
REMARK    7  A    between atoms: N5_20  and  C12_22 
REMARK    8  A    between atoms: C15_25  and  C16_26 
REMARK    9  A    between atoms: C16_26  and  C17_27 
REMARK   10  A    between atoms: C17_27  and  C18_28 
REMARK   11  A    between atoms: C18_28  and  C19_29 
REMARK   12  A    between atoms: C19_29  and  C20_30 
REMARK   13  A    between atoms: N9_37  and  C21_38 
ROOT
HETATM    1  C8  UNL     1      18.799 -20.947  -3.058  1.00  0.00     0.136 C 
HETATM    2  C9  UNL     1      18.050 -21.664  -4.083  1.00  0.00     0.060 C 
HETATM    3  N3  UNL     1      17.437 -22.242  -4.884  1.00  0.00    -0.197 NA
ENDROOT
BRANCH   1   4
HETATM    4  C7  UNL     1      19.166 -19.537  -3.504  1.00  0.00    -0.002 C 
HETATM    5  C6  UNL     1      19.180 -19.623  -5.042  1.00  0.00     0.033 C 
HETATM    6  C5  UNL     1      19.782 -18.342  -5.548  1.00  0.00     0.127 C 
HETATM    7  N2  UNL     1      21.225 -18.404  -5.223  1.00  0.00    -0.347 N 
HETATM    8  C28 UNL     1      21.585 -19.043  -4.018  1.00  0.00     0.136 C 
HETATM    9  C25 UNL     1      20.457 -19.037  -2.969  1.00  0.00    -0.021 C 
HETATM   10  C26 UNL     1      21.012 -19.887  -1.835  1.00  0.00     0.017 C 
HETATM   11  C27 UNL     1      20.372 -17.615  -2.447  1.00  0.00     0.017 C 
BRANCH   7  12
HETATM   12  C4  UNL     1      22.128 -17.808  -6.111  1.00  0.00     0.217 C 
BRANCH  12  13
HETATM   13  N1  UNL     1      22.960 -16.694  -5.970  1.00  0.00    -0.342 N 
HETATM   14  C3  UNL     1      22.432 -15.429  -6.524  1.00  0.00     0.158 C 
HETATM   15  C2  UNL     1      23.528 -14.828  -7.365  1.00  0.00     0.136 C 
HETATM   16  C1  UNL     1      22.979 -13.547  -7.965  1.00  0.00     0.041 C 
HETATM   17  O3  UNL     1      24.525 -14.447  -6.459  1.00  0.00    -0.373 OA
HETATM   18  C30 UNL     1      25.151 -15.522  -5.896  1.00  0.00     0.070 C 
HETATM   19  C29 UNL     1      24.255 -16.614  -5.375  1.00  0.00     0.163 C 
HETATM   20  C31 UNL     1      26.195 -16.118  -6.836  1.00  0.00     0.047 C 
HETATM   21  C32 UNL     1      25.960 -14.989  -4.705  1.00  0.00     0.047 C 
ENDBRANCH  12  13
BRANCH  12  22
HETATM   22  O1  UNL     1      22.198 -18.401  -7.271  1.00  0.00    -0.333 OA
ATOM     23  H1  UNL     1      21.426 -18.899  -7.512  1.00  0.00     0.220 HD
ENDBRANCH  12  22
ENDBRANCH   7  12
BRANCH   4  24
HETATM   24  C10 UNL     1      17.964 -18.680  -3.179  1.00  0.00     0.135 C 
BRANCH  24  25
HETATM   25  N4  UNL     1      16.723 -19.168  -3.716  1.00  0.00    -0.342 N 
HETATM   26  C11 UNL     1      15.970 -18.321  -4.547  1.00  0.00     0.321 C 
HETATM   27  O2  UNL     1      16.365 -17.149  -4.828  1.00  0.00    -0.247 OA
HETATM   28  N5  UNL     1      14.733 -18.703  -5.121  1.00  0.00    -0.294 N 
ATOM     29  H5  UNL     1      13.862 -18.519  -4.622  1.00  0.00     0.172 HD
ATOM     30  H4  UNL     1      16.395 -20.110  -3.498  1.00  0.00     0.164 HD
BRANCH  28  31
HETATM   31  C12 UNL     1      14.703 -19.283  -6.274  1.00  0.00     0.123 A 
HETATM   32  C13 UNL     1      15.835 -19.937  -6.767  1.00  0.00     0.052 A 
HETATM   33  C14 UNL     1      15.761 -20.542  -7.999  1.00  0.00     0.030 A 
HETATM   34  C15 UNL     1      14.582 -20.475  -8.688  1.00  0.00     0.026 A 
HETATM   35  N10 UNL     1      13.503 -19.822  -8.162  1.00  0.00    -0.303 N 
HETATM   36  N11 UNL     1      13.563 -19.243  -6.986  1.00  0.00    -0.285 N 
ATOM     37  H10 UNL     1      12.634 -19.783  -8.693  1.00  0.00     0.186 HD
ATOM     38  H11 UNL     1      12.745 -18.763  -6.612  1.00  0.00     0.188 HD
BRANCH  34  39
HETATM   39  C16 UNL     1      14.370 -21.079 -10.017  1.00  0.00     0.058 C 
BRANCH  39  40
HETATM   40  C17 UNL     1      14.156 -22.547  -9.904  1.00  0.00     0.006 C 
BRANCH  40  41
HETATM   41  C18 UNL     1      12.987 -22.997  -9.109  1.00  0.00     0.008 C 
BRANCH  41  42
HETATM   42  C19 UNL     1      13.334 -23.186  -7.622  1.00  0.00     0.080 C 
BRANCH  42  43
HETATM   43  C20 UNL     1      12.127 -22.892  -6.846  1.00  0.00     0.116 A 
HETATM   44  N6  UNL     1      10.947 -22.362  -7.281  1.00  0.00    -0.272 N 
HETATM   45  N7  UNL     1      10.172 -22.282  -6.223  1.00  0.00    -0.227 N 
ATOM     46  H6  UNL     1      10.714 -22.085  -8.235  1.00  0.00     0.190 HD
HETATM   47  N8  UNL     1      10.801 -22.726  -5.173  1.00  0.00    -0.224 N 
ATOM     48  H7  UNL     1       9.217 -21.924  -6.224  1.00  0.00     0.210 HD
HETATM   49  N9  UNL     1      12.023 -23.117  -5.518  1.00  0.00    -0.255 N 
ATOM     50  H8  UNL     1      10.414 -22.767  -4.230  1.00  0.00     0.210 HD
BRANCH  49  51
HETATM   51  C21 UNL     1      12.972 -23.648  -4.612  1.00  0.00     0.046 C 
HETATM   52  C22 UNL     1      12.252 -24.099  -3.356  1.00  0.00     0.040 C 
HETATM   53  C23 UNL     1      13.976 -22.582  -4.147  1.00  0.00     0.040 C 
HETATM   54  C24 UNL     1      13.778 -24.808  -5.091  1.00  0.00     0.040 C 
ENDBRANCH  49  51
ENDBRANCH  42  43
ENDBRANCH  41  42
ENDBRANCH  40  41
ENDBRANCH  39  40
ENDBRANCH  34  39
ENDBRANCH  28  31
ENDBRANCH  24  25
ENDBRANCH   4  24
ENDBRANCH   1   4
TORSDOF 13
ENDMDL
MODEL 2
REMARK VINA RESULT: -10.586688024      1.049      1.348
REMARK  13 active torsions:
REMARK  status: ('A' for Active; 'I' for Inactive)
REMARK    1  A    between atoms: N1_4  and  C4_5 
REMARK    2  A    between atoms: C4_5  and  O1_6 
REMARK    3  A    between atoms: C4_5  and  N2_8 
REMARK    4  A    between atoms: C7_11  and  C8_12 
REMARK    5  A    between atoms: C7_11  and  C10_15 
REMARK    6  A    between atoms: C10_15  and  N4_16 
REMARK       I    between atoms: N4_16  and  C11_18 
REMARK       I    between atoms: C11_18  and  N5_20 
REMARK    7  A    between atoms: N5_20  and  C12_22 
REMARK    8  A    between atoms: C15_25  and  C16_26 
REMARK    9  A    between atoms: C16_26  and  C17_27 
REMARK   10  A    between atoms: C17_27  and  C18_28 
REMARK   11  A    between atoms: C18_28  and  C19_29 
REMARK   12  A    between atoms: C19_29  and  C20_30 
REMARK   13  A    between atoms: N9_37  and  C21_38 
ROOT
HETATM    1  C8  UNL     1      18.599 -20.894  -3.175  1.00  0.00     0.136 C 
HETATM    2  C9  UNL     1      18.156 -21.671  -4.326  1.00  0.00     0.060 C 
HETATM    3  N3  UNL     1      17.783 -22.296  -5.233  1.00  0.00    -0.197 NA
ENDROOT
BRANCH   1   4
HETATM    4  C7  UNL     1      19.065 -19.500  -3.575  1.00  0.00    -0.002 C 
HETATM    5  C6  UNL     1      19.066 -19.533  -5.114  1.00  0.00     0.033 C 
HETATM    6  C5  UNL     1      19.757 -18.282  -5.580  1.00  0.00     0.127 C 
HETATM    7  N2  UNL     1      21.193 -18.459  -5.267  1.00  0.00    -0.347 N 
HETATM    8  C28 UNL     1      21.511 -19.164  -4.088  1.00  0.00     0.136 C 
HETATM    9  C25 UNL     1      20.392 -19.113  -3.032  1.00  0.00    -0.021 C 
HETATM   10  C26 UNL     1      20.889 -20.039  -1.931  1.00  0.00     0.017 C 
HETATM   11  C27 UNL     1      20.411 -17.708  -2.460  1.00  0.00     0.017 C 
BRANCH   7  12
HETATM   12  C4  UNL     1      22.133 -17.898  -6.140  1.00  0.00     0.217 C 
BRANCH  12  13
HETATM   13  N1  UNL     1      22.961 -16.780  -6.009  1.00  0.00    -0.342 N 
HETATM   14  C3  UNL     1      22.418 -15.518  -6.554  1.00  0.00     0.158 C 
HETATM   15  C2  UNL     1      23.499 -14.909  -7.410  1.00  0.00     0.136 C 
HETATM   16  C1  UNL     1      22.935 -13.630  -7.999  1.00  0.00     0.041 C 
HETATM   17  O3  UNL     1      24.506 -14.524  -6.516  1.00  0.00    -0.373 OA
HETATM   18  C30 UNL     1      25.146 -15.596  -5.964  1.00  0.00     0.070 C 
HETATM   19  C29 UNL     1      24.264 -16.693  -5.432  1.00  0.00     0.163 C 
HETATM   20  C31 UNL     1      26.181 -16.185  -6.919  1.00  0.00     0.047 C 
HETATM   21  C32 UNL     1      25.968 -15.060  -4.783  1.00  0.00     0.047 C 
ENDBRANCH  12  13
BRANCH  12  22
HETATM   22  O1  UNL     1      22.249 -18.536  -7.273  1.00  0.00    -0.333 OA
ATOM     23  H1  UNL     1      21.552 -19.154  -7.456  1.00  0.00     0.220 HD
ENDBRANCH  12  22
ENDBRANCH   7  12
BRANCH   4  24
HETATM   24  C10 UNL     1      17.930 -18.571  -3.212  1.00  0.00     0.135 C 
BRANCH  24  25
HETATM   25  N4  UNL     1      16.626 -19.057  -3.572  1.00  0.00    -0.342 N 
HETATM   26  C11 UNL     1      15.834 -18.281  -4.437  1.00  0.00     0.321 C 
HETATM   27  O2  UNL     1      16.249 -17.174  -4.899  1.00  0.00    -0.247 OA
HETATM   28  N5  UNL     1      14.535 -18.666  -4.849  1.00  0.00    -0.294 N 
ATOM     29  H5  UNL     1      13.722 -18.376  -4.305  1.00  0.00     0.172 HD
ATOM     30  H4  UNL     1      16.281 -19.945  -3.208  1.00  0.00     0.164 HD
BRANCH  28  31
HETATM   31  C12 UNL     1      14.376 -19.382  -5.912  1.00  0.00     0.123 A 
HETATM   32  C13 UNL     1      15.203 -20.482  -6.155  1.00  0.00     0.052 A 
HETATM   33  C14 UNL     1      15.000 -21.217  -7.298  1.00  0.00     0.030 A 
HETATM   34  C15 UNL     1      13.997 -20.839  -8.146  1.00  0.00     0.026 A 
HETATM   35  N10 UNL     1      13.215 -19.755  -7.863  1.00  0.00    -0.303 N 
HETATM   36  N11 UNL     1      13.400 -19.047  -6.774  1.00  0.00    -0.285 N 
ATOM     37  H10 UNL     1      12.473 -19.490  -8.510  1.00  0.00     0.186 HD
ATOM     38  H11 UNL     1      12.803 -18.243  -6.582  1.00  0.00     0.188 HD
BRANCH  34  39
HETATM   39  C16 UNL     1      13.675 -21.541  -9.404  1.00  0.00     0.058 C 
BRANCH  39  40
HETATM   40  C17 UNL     1      13.106 -22.888  -9.129  1.00  0.00     0.006 C 
BRANCH  40  41
HETATM   41  C18 UNL     1      11.715 -22.940  -8.616  1.00  0.00     0.008 C 
BRANCH  41  42
HETATM   42  C19 UNL     1      11.665 -23.024  -7.081  1.00  0.00     0.080 C 
BRANCH  42  43
HETATM   43  C20 UNL     1      11.631 -24.443  -6.717  1.00  0.00     0.116 A 
HETATM   44  N6  UNL     1      10.981 -25.464  -7.347  1.00  0.00    -0.272 N 
HETATM   45  N7  UNL     1      11.244 -26.547  -6.651  1.00  0.00    -0.227 N 
ATOM     46  H6  UNL     1      10.407 -25.400  -8.188  1.00  0.00     0.190 HD
HETATM   47  N8  UNL     1      12.010 -26.254  -5.639  1.00  0.00    -0.224 N 
ATOM     48  H7  UNL     1      10.899 -27.481  -6.870  1.00  0.00     0.210 HD
HETATM   49  N9  UNL     1      12.275 -24.952  -5.644  1.00  0.00    -0.255 N 
ATOM     50  H8  UNL     1      12.353 -26.922  -4.949  1.00  0.00     0.210 HD
BRANCH  49  51
HETATM   51  C21 UNL     1      13.079 -24.302  -4.678  1.00  0.00     0.046 C 
HETATM   52  C22 UNL     1      14.528 -24.371  -5.119  1.00  0.00     0.040 C 
HETATM   53  C23 UNL     1      13.030 -25.019  -3.319  1.00  0.00     0.040 C 
HETATM   54  C24 UNL     1      12.775 -22.866  -4.410  1.00  0.00     0.040 C 
ENDBRANCH  49  51
ENDBRANCH  42  43
ENDBRANCH  41  42
ENDBRANCH  40  41
ENDBRANCH  39  40
ENDBRANCH  34  39
ENDBRANCH  28  31
ENDBRANCH  24  25
ENDBRANCH   4  24
ENDBRANCH   1   4
TORSDOF 13
ENDMDL
MODEL 3
REMARK VINA RESULT: -10.456001671      1.366      1.626
REMARK  13 active torsions:
REMARK  status: ('A' for Active; 'I' for Inactive)
REMARK    1  A    between atoms: N1_4  and  C4_5 
REMARK    2  A    between atoms: C4_5  and  O1_6 
REMARK    3  A    between atoms: C4_5  and  N2_8 
REMARK    4  A    between atoms: C7_11  and  C8_12 
REMARK    5  A    between atoms: C7_11  and  C10_15 
REMARK    6  A    between atoms: C10_15  and  N4_16 
REMARK       I    between atoms: N4_16  and  C11_18 
REMARK       I    between atoms: C11_18  and  N5_20 
REMARK    7  A    between atoms: N5_20  and  C12_22 
REMARK    8  A    between atoms: C15_25  and  C16_26 
REMARK    9  A    between atoms: C16_26  and  C17_27 
REMARK   10  A    between atoms: C17_27  and  C18_28 
REMARK   11  A    between atoms: C18_28  and  C19_29 
REMARK   12  A    between atoms: C19_29  and  C20_30 
REMARK   13  A    between atoms: N9_37  and  C21_38 
ROOT
HETATM    1  C8  UNL     1      18.693 -20.955  -3.082  1.00  0.00     0.136 C 
HETATM    2  C9  UNL     1      17.954 -21.653  -4.127  1.00  0.00     0.060 C 
HETATM    3  N3  UNL     1      17.349 -22.215  -4.945  1.00  0.00    -0.197 NA
ENDROOT
BRANCH   1   4
HETATM    4  C7  UNL     1      19.104 -19.553  -3.516  1.00  0.00    -0.002 C 
HETATM    5  C6  UNL     1      19.124 -19.628  -5.054  1.00  0.00     0.033 C 
HETATM    6  C5  UNL     1      19.766 -18.361  -5.547  1.00  0.00     0.127 C 
HETATM    7  N2  UNL     1      21.205 -18.469  -5.214  1.00  0.00    -0.347 N 
HETATM    8  C28 UNL     1      21.539 -19.127  -4.013  1.00  0.00     0.136 C 
HETATM    9  C25 UNL     1      20.407 -19.095  -2.970  1.00  0.00    -0.021 C 
HETATM   10  C26 UNL     1      20.930 -19.969  -1.839  1.00  0.00     0.017 C 
HETATM   11  C27 UNL     1      20.360 -17.676  -2.437  1.00  0.00     0.017 C 
BRANCH   7  12
HETATM   12  C4  UNL     1      22.130 -17.892  -6.093  1.00  0.00     0.217 C 
BRANCH  12  13
HETATM   13  N1  UNL     1      22.934 -16.757  -5.970  1.00  0.00    -0.342 N 
HETATM   14  C3  UNL     1      22.367 -15.509  -6.525  1.00  0.00     0.158 C 
HETATM   15  C2  UNL     1      23.436 -14.885  -7.384  1.00  0.00     0.136 C 
HETATM   16  C1  UNL     1      22.846 -13.623  -7.984  1.00  0.00     0.041 C 
HETATM   17  O3  UNL     1      24.434 -14.473  -6.493  1.00  0.00    -0.373 OA
HETATM   18  C30 UNL     1      25.095 -15.528  -5.932  1.00  0.00     0.070 C 
HETATM   19  C29 UNL     1      24.235 -16.639  -5.392  1.00  0.00     0.163 C 
HETATM   20  C31 UNL     1      26.142 -16.102  -6.882  1.00  0.00     0.047 C 
HETATM   21  C32 UNL     1      25.905 -14.966  -4.755  1.00  0.00     0.047 C 
ENDBRANCH  12  13
BRANCH  12  22
HETATM   22  O1  UNL     1      22.255 -18.533  -7.223  1.00  0.00    -0.333 OA
ATOM     23  H1  UNL     1      21.941 -19.429  -7.211  1.00  0.00     0.220 HD
ENDBRANCH  12  22
ENDBRANCH   7  12
BRANCH   4  24
HETATM   24  C10 UNL     1      17.927 -18.663  -3.190  1.00  0.00     0.135 C 
BRANCH  24  25
HETATM   25  N4  UNL     1      16.666 -19.137  -3.696  1.00  0.00    -0.342 N 
HETATM   26  C11 UNL     1      15.994 -18.363  -4.657  1.00  0.00     0.321 C 
HETATM   27  O2  UNL     1      16.477 -17.269  -5.081  1.00  0.00    -0.247 OA
HETATM   28  N5  UNL     1      14.747 -18.736  -5.214  1.00  0.00    -0.294 N 
ATOM     29  H5  UNL     1      13.880 -18.428  -4.773  1.00  0.00     0.172 HD
ATOM     30  H4  UNL     1      16.268 -20.015  -3.363  1.00  0.00     0.164 HD
BRANCH  28  31
HETATM   31  C12 UNL     1      14.702 -19.465  -6.279  1.00  0.00     0.123 A 
HETATM   32  C13 UNL     1      13.593 -19.412  -7.128  1.00  0.00     0.052 A 
HETATM   33  C14 UNL     1      13.586 -20.204  -8.251  1.00  0.00     0.030 A 
HETATM   34  C15 UNL     1      14.666 -21.010  -8.487  1.00  0.00     0.026 A 
HETATM   35  N10 UNL     1      15.726 -21.025  -7.625  1.00  0.00    -0.303 N 
HETATM   36  N11 UNL     1      15.743 -20.272  -6.551  1.00  0.00    -0.285 N 
ATOM     37  H10 UNL     1      16.520 -21.634  -7.820  1.00  0.00     0.186 HD
ATOM     38  H11 UNL     1      16.546 -20.298  -5.923  1.00  0.00     0.188 HD
BRANCH  34  39
HETATM   39  C16 UNL     1      14.783 -21.907  -9.652  1.00  0.00     0.058 C 
BRANCH  39  40
HETATM   40  C17 UNL     1      13.448 -22.176 -10.251  1.00  0.00     0.006 C 
BRANCH  40  41
HETATM   41  C18 UNL     1      12.808 -23.472  -9.913  1.00  0.00     0.008 C 
BRANCH  41  42
HETATM   42  C19 UNL     1      11.549 -23.290  -9.049  1.00  0.00     0.080 C 
BRANCH  42  43
HETATM   43  C20 UNL     1      11.282 -24.567  -8.383  1.00  0.00     0.116 A 
HETATM   44  N6  UNL     1      11.026 -25.782  -8.949  1.00  0.00    -0.272 N 
HETATM   45  N7  UNL     1      10.849 -26.618  -7.951  1.00  0.00    -0.227 N 
ATOM     46  H6  UNL     1      10.982 -25.997  -9.945  1.00  0.00     0.190 HD
HETATM   47  N8  UNL     1      10.978 -25.995  -6.816  1.00  0.00    -0.224 N 
ATOM     48  H7  UNL     1      10.639 -27.612  -8.051  1.00  0.00     0.210 HD
HETATM   49  N9  UNL     1      11.250 -24.714  -7.040  1.00  0.00    -0.255 N 
ATOM     50  H8  UNL     1      10.885 -26.425  -5.895  1.00  0.00     0.210 HD
BRANCH  49  51
HETATM   51  C21 UNL     1      11.447 -23.754  -6.019  1.00  0.00     0.046 C 
HETATM   52  C22 UNL     1      11.263 -24.425  -4.672  1.00  0.00     0.040 C 
HETATM   53  C23 UNL     1      10.388 -22.641  -6.070  1.00  0.00     0.040 C 
HETATM   54  C24 UNL     1      12.774 -23.074  -5.986  1.00  0.00     0.040 C 
ENDBRANCH  49  51
ENDBRANCH  42  43
ENDBRANCH  41  42
ENDBRANCH  40  41
ENDBRANCH  39  40
ENDBRANCH  34  39
ENDBRANCH  28  31
ENDBRANCH  24  25
ENDBRANCH   4  24
ENDBRANCH   1   4
TORSDOF 13
ENDMDL
MODEL 4
REMARK VINA RESULT: -10.426012452      2.085      2.882
REMARK  13 active torsions:
REMARK  status: ('A' for Active; 'I' for Inactive)
REMARK    1  A    between atoms: N1_4  and  C4_5 
REMARK    2  A    between atoms: C4_5  and  O1_6 
REMARK    3  A    between atoms: C4_5  and  N2_8 
REMARK    4  A    between atoms: C7_11  and  C8_12 
REMARK    5  A    between atoms: C7_11  and  C10_15 
REMARK    6  A    between atoms: C10_15  and  N4_16 
REMARK       I    between atoms: N4_16  and  C11_18 
REMARK       I    between atoms: C11_18  and  N5_20 
REMARK    7  A    between atoms: N5_20  and  C12_22 
REMARK    8  A    between atoms: C15_25  and  C16_26 
REMARK    9  A    between atoms: C16_26  and  C17_27 
REMARK   10  A    between atoms: C17_27  and  C18_28 
REMARK   11  A    between atoms: C18_28  and  C19_29 
REMARK   12  A    between atoms: C19_29  and  C20_30 
REMARK   13  A    between atoms: N9_37  and  C21_38 
ROOT
HETATM    1  C8  UNL     1      18.740 -20.319  -4.554  1.00  0.00     0.136 C 
HETATM    2  C9  UNL     1      18.836 -19.991  -5.971  1.00  0.00     0.060 C 
HETATM    3  N3  UNL     1      18.890 -19.734  -7.103  1.00  0.00    -0.197 NA
ENDROOT
BRANCH   1   4
HETATM    4  C7  UNL     1      19.396 -19.258  -3.679  1.00  0.00    -0.002 C 
HETATM    5  C6  UNL     1      20.318 -18.493  -4.647  1.00  0.00     0.033 C 
HETATM    6  C5  UNL     1      21.189 -17.599  -3.810  1.00  0.00     0.127 C 
HETATM    7  N2  UNL     1      22.145 -18.487  -3.110  1.00  0.00    -0.347 N 
HETATM    8  C28 UNL     1      21.672 -19.754  -2.711  1.00  0.00     0.136 C 
HETATM    9  C25 UNL     1      20.145 -19.794  -2.515  1.00  0.00    -0.021 C 
HETATM   10  C26 UNL     1      19.854 -21.262  -2.232  1.00  0.00     0.017 C 
HETATM   11  C27 UNL     1      19.862 -19.039  -1.229  1.00  0.00     0.017 C 
BRANCH   7  12
HETATM   12  C4  UNL     1      23.438 -18.006  -2.870  1.00  0.00     0.217 C 
BRANCH  12  13
HETATM   13  N1  UNL     1      24.521 -17.806  -3.730  1.00  0.00    -0.342 N 
HETATM   14  C3  UNL     1      25.784 -18.461  -3.328  1.00  0.00     0.158 C 
HETATM   15  C2  UNL     1      26.868 -17.419  -3.421  1.00  0.00     0.136 C 
HETATM   16  C1  UNL     1      28.160 -18.077  -2.976  1.00  0.00     0.041 C 
HETATM   17  O3  UNL     1      27.009 -17.151  -4.788  1.00  0.00    -0.373 OA
HETATM   18  C30 UNL     1      25.929 -16.490  -5.300  1.00  0.00     0.070 C 
HETATM   19  C29 UNL     1      24.578 -17.044  -4.936  1.00  0.00     0.163 C 
HETATM   20  C31 UNL     1      25.979 -15.000  -4.976  1.00  0.00     0.047 C 
HETATM   21  C32 UNL     1      26.053 -16.559  -6.829  1.00  0.00     0.047 C 
ENDBRANCH  12  13
BRANCH  12  22
HETATM   22  O1  UNL     1      23.662 -17.692  -1.623  1.00  0.00    -0.333 OA
ATOM     23  H1  UNL     1      22.967 -17.927  -1.021  1.00  0.00     0.220 HD
ENDBRANCH  12  22
ENDBRANCH   7  12
BRANCH   4  24
HETATM   24  C10 UNL     1      18.300 -18.276  -3.337  1.00  0.00     0.135 C 
BRANCH  24  25
HETATM   25  N4  UNL     1      16.967 -18.787  -3.513  1.00  0.00    -0.342 N 
HETATM   26  C11 UNL     1      16.148 -18.205  -4.494  1.00  0.00     0.321 C 
HETATM   27  O2  UNL     1      16.560 -17.249  -5.219  1.00  0.00    -0.247 OA
HETATM   28  N5  UNL     1      14.820 -18.630  -4.744  1.00  0.00    -0.294 N 
ATOM     29  H5  UNL     1      14.044 -18.197  -4.243  1.00  0.00     0.172 HD
ATOM     30  H4  UNL     1      16.624 -19.557  -2.937  1.00  0.00     0.164 HD
BRANCH  28  31
HETATM   31  C12 UNL     1      14.587 -19.566  -5.603  1.00  0.00     0.123 A 
HETATM   32  C13 UNL     1      15.372 -20.722  -5.621  1.00  0.00     0.052 A 
HETATM   33  C14 UNL     1      15.091 -21.693  -6.551  1.00  0.00     0.030 A 
HETATM   34  C15 UNL     1      14.056 -21.484  -7.420  1.00  0.00     0.026 A 
HETATM   35  N10 UNL     1      13.319 -20.334  -7.362  1.00  0.00    -0.303 N 
HETATM   36  N11 UNL     1      13.578 -19.402  -6.477  1.00  0.00    -0.285 N 
ATOM     37  H10 UNL     1      12.552 -20.198  -8.020  1.00  0.00     0.186 HD
ATOM     38  H11 UNL     1      13.014 -18.553  -6.450  1.00  0.00     0.188 HD
BRANCH  34  39
HETATM   39  C16 UNL     1      13.652 -22.443  -8.465  1.00  0.00     0.058 C 
BRANCH  39  40
HETATM   40  C17 UNL     1      12.180 -22.656  -8.449  1.00  0.00     0.006 C 
BRANCH  40  41
HETATM   41  C18 UNL     1      11.676 -23.813  -7.667  1.00  0.00     0.008 C 
BRANCH  41  42
HETATM   42  C19 UNL     1      11.211 -23.403  -6.259  1.00  0.00     0.080 C 
BRANCH  42  43
HETATM   43  C20 UNL     1      10.911 -24.631  -5.519  1.00  0.00     0.116 A 
HETATM   44  N6  UNL     1       9.845 -25.470  -5.663  1.00  0.00    -0.272 N 
HETATM   45  N7  UNL     1      10.011 -26.426  -4.778  1.00  0.00    -0.227 N 
ATOM     46  H6  UNL     1       9.074 -25.374  -6.325  1.00  0.00     0.190 HD
HETATM   47  N8  UNL     1      11.107 -26.226  -4.103  1.00  0.00    -0.224 N 
ATOM     48  H7  UNL     1       9.375 -27.211  -4.639  1.00  0.00     0.210 HD
HETATM   49  N9  UNL     1      11.698 -25.118  -4.534  1.00  0.00    -0.255 N 
ATOM     50  H8  UNL     1      11.457 -26.828  -3.358  1.00  0.00     0.210 HD
BRANCH  49  51
HETATM   51  C21 UNL     1      12.911 -24.610  -4.010  1.00  0.00     0.046 C 
HETATM   52  C22 UNL     1      14.066 -25.158  -4.826  1.00  0.00     0.040 C 
HETATM   53  C23 UNL     1      13.159 -25.094  -2.573  1.00  0.00     0.040 C 
HETATM   54  C24 UNL     1      13.062 -23.126  -3.988  1.00  0.00     0.040 C 
ENDBRANCH  49  51
ENDBRANCH  42  43
ENDBRANCH  41  42
ENDBRANCH  40  41
ENDBRANCH  39  40
ENDBRANCH  34  39
ENDBRANCH  28  31
ENDBRANCH  24  25
ENDBRANCH   4  24
ENDBRANCH   1   4
TORSDOF 13
ENDMDL
MODEL 5
REMARK VINA RESULT: -10.343679681      0.992      1.432
REMARK  13 active torsions:
REMARK  status: ('A' for Active; 'I' for Inactive)
REMARK    1  A    between atoms: N1_4  and  C4_5 
REMARK    2  A    between atoms: C4_5  and  O1_6 
REMARK    3  A    between atoms: C4_5  and  N2_8 
REMARK    4  A    between atoms: C7_11  and  C8_12 
REMARK    5  A    between atoms: C7_11  and  C10_15 
REMARK    6  A    between atoms: C10_15  and  N4_16 
REMARK       I    between atoms: N4_16  and  C11_18 
REMARK       I    between atoms: C11_18  and  N5_20 
REMARK    7  A    between atoms: N5_20  and  C12_22 
REMARK    8  A    between atoms: C15_25  and  C16_26 
REMARK    9  A    between atoms: C16_26  and  C17_27 
REMARK   10  A    between atoms: C17_27  and  C18_28 
REMARK   11  A    between atoms: C18_28  and  C19_29 
REMARK   12  A    between atoms: C19_29  and  C20_30 
REMARK   13  A    between atoms: N9_37  and  C21_38 
ROOT
HETATM    1  C8  UNL     1      18.842 -20.933  -3.077  1.00  0.00     0.136 C 
HETATM    2  C9  UNL     1      18.083 -21.627  -4.110  1.00  0.00     0.060 C 
HETATM    3  N3  UNL     1      17.462 -22.186  -4.918  1.00  0.00    -0.197 NA
ENDROOT
BRANCH   1   4
HETATM    4  C7  UNL     1      19.221 -19.520  -3.502  1.00  0.00    -0.002 C 
HETATM    5  C6  UNL     1      19.225 -19.580  -5.041  1.00  0.00     0.033 C 
HETATM    6  C5  UNL     1      19.837 -18.297  -5.530  1.00  0.00     0.127 C 
HETATM    7  N2  UNL     1      21.281 -18.379  -5.215  1.00  0.00    -0.347 N 
HETATM    8  C28 UNL     1      21.642 -19.042  -4.024  1.00  0.00     0.136 C 
HETATM    9  C25 UNL     1      20.521 -19.042  -2.967  1.00  0.00    -0.021 C 
HETATM   10  C26 UNL     1      21.075 -19.916  -1.851  1.00  0.00     0.017 C 
HETATM   11  C27 UNL     1      20.453 -17.628  -2.421  1.00  0.00     0.017 C 
BRANCH   7  12
HETATM   12  C4  UNL     1      22.184 -17.778  -6.099  1.00  0.00     0.217 C 
BRANCH  12  13
HETATM   13  N1  UNL     1      23.007 -16.657  -5.955  1.00  0.00    -0.342 N 
HETATM   14  C3  UNL     1      22.480 -15.401  -6.528  1.00  0.00     0.158 C 
HETATM   15  C2  UNL     1      23.584 -14.799  -7.357  1.00  0.00     0.136 C 
HETATM   16  C1  UNL     1      23.037 -13.527  -7.976  1.00  0.00     0.041 C 
HETATM   17  O3  UNL     1      24.565 -14.405  -6.439  1.00  0.00    -0.373 OA
HETATM   18  C30 UNL     1      25.190 -15.471  -5.858  1.00  0.00     0.070 C 
HETATM   19  C29 UNL     1      24.293 -16.563  -5.341  1.00  0.00     0.163 C 
HETATM   20  C31 UNL     1      26.252 -16.068  -6.777  1.00  0.00     0.047 C 
HETATM   21  C32 UNL     1      25.977 -14.922  -4.659  1.00  0.00     0.047 C 
ENDBRANCH  12  13
BRANCH  12  22
HETATM   22  O1  UNL     1      22.265 -18.371  -7.258  1.00  0.00    -0.333 OA
ATOM     23  H1  UNL     1      21.995 -17.841  -7.998  1.00  0.00     0.220 HD
ENDBRANCH  12  22
ENDBRANCH   7  12
BRANCH   4  24
HETATM   24  C10 UNL     1      18.031 -18.656  -3.155  1.00  0.00     0.135 C 
BRANCH  24  25
HETATM   25  N4  UNL     1      16.784 -19.113  -3.706  1.00  0.00    -0.342 N 
HETATM   26  C11 UNL     1      16.088 -18.267  -4.587  1.00  0.00     0.321 C 
HETATM   27  O2  UNL     1      16.538 -17.123  -4.900  1.00  0.00    -0.247 OA
HETATM   28  N5  UNL     1      14.851 -18.619  -5.180  1.00  0.00    -0.294 N 
ATOM     29  H5  UNL     1      13.976 -18.381  -4.711  1.00  0.00     0.172 HD
ATOM     30  H4  UNL     1      16.411 -20.031  -3.464  1.00  0.00     0.164 HD
BRANCH  28  31
HETATM   31  C12 UNL     1      14.825 -19.239  -6.312  1.00  0.00     0.123 A 
HETATM   32  C13 UNL     1      16.000 -19.767  -6.856  1.00  0.00     0.052 A 
HETATM   33  C14 UNL     1      15.929 -20.420  -8.063  1.00  0.00     0.030 A 
HETATM   34  C15 UNL     1      14.712 -20.524  -8.678  1.00  0.00     0.026 A 
HETATM   35  N10 UNL     1      13.593 -19.989  -8.104  1.00  0.00    -0.303 N 
HETATM   36  N11 UNL     1      13.650 -19.365  -6.952  1.00  0.00    -0.285 N 
ATOM     37  H10 UNL     1      12.696 -20.078  -8.580  1.00  0.00     0.186 HD
ATOM     38  H11 UNL     1      12.801 -18.976  -6.541  1.00  0.00     0.188 HD
BRANCH  34  39
HETATM   39  C16 UNL     1      14.500 -21.197  -9.974  1.00  0.00     0.058 C 
BRANCH  39  40
HETATM   40  C17 UNL     1      13.403 -22.198  -9.877  1.00  0.00     0.006 C 
BRANCH  40  41
HETATM   41  C18 UNL     1      13.545 -23.255  -8.845  1.00  0.00     0.008 C 
BRANCH  41  42
HETATM   42  C19 UNL     1      12.570 -23.056  -7.672  1.00  0.00     0.080 C 
BRANCH  42  43
HETATM   43  C20 UNL     1      13.314 -23.300  -6.434  1.00  0.00     0.116 A 
HETATM   44  N6  UNL     1      14.594 -22.940  -6.129  1.00  0.00    -0.272 N 
HETATM   45  N7  UNL     1      14.815 -23.381  -4.910  1.00  0.00    -0.227 N 
ATOM     46  H6  UNL     1      15.247 -22.431  -6.725  1.00  0.00     0.190 HD
HETATM   47  N8  UNL     1      13.757 -23.985  -4.454  1.00  0.00    -0.224 N 
ATOM     48  H7  UNL     1      15.689 -23.266  -4.397  1.00  0.00     0.210 HD
HETATM   49  N9  UNL     1      12.797 -23.957  -5.372  1.00  0.00    -0.255 N 
ATOM     50  H8  UNL     1      13.676 -24.415  -3.532  1.00  0.00     0.210 HD
BRANCH  49  51
HETATM   51  C21 UNL     1      11.515 -24.529  -5.199  1.00  0.00     0.046 C 
HETATM   52  C22 UNL     1      11.303 -24.821  -3.726  1.00  0.00     0.040 C 
HETATM   53  C23 UNL     1      11.396 -25.889  -5.906  1.00  0.00     0.040 C 
HETATM   54  C24 UNL     1      10.350 -23.715  -5.651  1.00  0.00     0.040 C 
ENDBRANCH  49  51
ENDBRANCH  42  43
ENDBRANCH  41  42
ENDBRANCH  40  41
ENDBRANCH  39  40
ENDBRANCH  34  39
ENDBRANCH  28  31
ENDBRANCH  24  25
ENDBRANCH   4  24
ENDBRANCH   1   4
TORSDOF 13
ENDMDL
