MODEL 1
REMARK VINA RESULT: -9.036146841      0.000      0.000
REMARK  11 active torsions:
REMARK  status: ('A' for Active; 'I' for Inactive)
REMARK    1  A    between atoms: C2_2  and  C3_3 
REMARK    2  A    between atoms: C11_18  and  N4_19 
REMARK       I    between atoms: N4_19  and  C12_21 
REMARK    3  A    between atoms: C12_21  and  C13_23 
REMARK    4  A    between atoms: N5_26  and  C15_27 
REMARK    5  A    between atoms: C15_27  and  C17_29 
REMARK    6  A    between atoms: C17_29  and  C18_30 
REMARK    7  A    between atoms: C18_30  and  C19_31 
REMARK    8  A    between atoms: C19_31  and  C22_34 
REMARK    9  A    between atoms: C22_34  and  N6_35 
REMARK   10  A    between atoms: C24_41  and  C25_42 
REMARK   11  A    between atoms: N7_45  and  C28_46 
ROOT
HETATM    1  C13 UNL     1      21.284 -17.252  -3.519  1.00  0.00     0.262 C 
HETATM    2  C14 UNL     1      20.372 -18.356  -3.258  1.00  0.00     0.249 C 
HETATM    3  O4  UNL     1      20.128 -18.474  -2.001  1.00  0.00    -0.271 OA
HETATM    4  N5  UNL     1      19.688 -19.322  -4.030  1.00  0.00    -0.281 N 
HETATM    5  C23 UNL     1      19.480 -19.229  -5.438  1.00  0.00     0.250 C 
HETATM    6  O5  UNL     1      19.057 -20.305  -5.931  1.00  0.00    -0.271 OA
HETATM    7  C24 UNL     1      19.697 -18.053  -6.360  1.00  0.00     0.184 C 
HETATM    8  N7  UNL     1      20.991 -17.472  -6.175  1.00  0.00    -0.329 N 
HETATM    9  C32 UNL     1      21.437 -16.871  -4.941  1.00  0.00     0.243 C 
HETATM   10  O6  UNL     1      22.092 -15.805  -5.096  1.00  0.00    -0.272 OA
ENDROOT
BRANCH   1  11
HETATM   11  C12 UNL     1      22.614 -17.549  -2.894  1.00  0.00     0.241 C 
HETATM   12  N4  UNL     1      23.790 -17.749  -3.658  1.00  0.00    -0.342 N 
ATOM     13  H4  UNL     1      23.746 -17.684  -4.676  1.00  0.00     0.163 HD
HETATM   14  O3  UNL     1      22.691 -17.627  -1.647  1.00  0.00    -0.272 OA
BRANCH  12  15
HETATM   15  C11 UNL     1      25.071 -18.049  -3.002  1.00  0.00     0.222 C 
HETATM   16  C3  UNL     1      25.843 -18.952  -3.873  1.00  0.00     0.020 C 
HETATM   17  N1  UNL     1      26.525 -18.764  -4.949  1.00  0.00    -0.339 N 
HETATM   18  C4  UNL     1      26.871 -17.677  -5.802  1.00  0.00     0.180 A 
ATOM     19  H1  UNL     1      26.932 -19.638  -5.284  1.00  0.00     0.167 HD
HETATM   20  O1  UNL     1      27.278 -18.016  -7.030  1.00  0.00    -0.219 OA
HETATM   21  C7  UNL     1      26.911 -16.311  -5.731  1.00  0.00     0.037 A 
HETATM   22  N2  UNL     1      27.563 -16.952  -7.706  1.00  0.00    -0.263 N 
HETATM   23  C5  UNL     1      27.354 -15.845  -6.948  1.00  0.00     0.041 A 
ATOM     24  H2  UNL     1      27.896 -16.946  -8.670  1.00  0.00     0.194 HD
HETATM   25  C6  UNL     1      27.566 -14.424  -7.361  1.00  0.00     0.071 C 
HETATM   26  C8  UNL     1      26.610 -15.301  -4.721  1.00  0.00     0.170 C 
HETATM   27  N3  UNL     1      26.447 -15.767  -3.391  1.00  0.00    -0.350 N 
HETATM   28  C9  UNL     1      27.249 -14.995  -2.465  1.00  0.00     0.153 C 
HETATM   29  C10 UNL     1      25.724 -16.771  -2.700  1.00  0.00     0.248 C 
HETATM   30  O2  UNL     1      25.598 -16.497  -1.456  1.00  0.00    -0.271 OA
BRANCH  16  31
HETATM   31  C2  UNL     1      25.836 -20.391  -3.419  1.00  0.00     0.051 C 
HETATM   32  C1  UNL     1      27.136 -21.068  -3.786  1.00  0.00     0.011 C 
ENDBRANCH  16  31
ENDBRANCH  12  15
ENDBRANCH   1  11
BRANCH   4  33
HETATM   33  C15 UNL     1      19.161 -20.486  -3.351  1.00  0.00     0.092 C 
HETATM   34  C16 UNL     1      20.312 -21.327  -2.890  1.00  0.00     0.033 C 
BRANCH  33  35
HETATM   35  C17 UNL     1      18.144 -21.255  -4.164  1.00  0.00     0.026 C 
BRANCH  35  36
HETATM   36  C18 UNL     1      16.780 -20.972  -3.579  1.00  0.00     0.012 C 
BRANCH  36  37
HETATM   37  C19 UNL     1      15.643 -21.467  -4.407  1.00  0.00    -0.024 C 
HETATM   38  C20 UNL     1      14.601 -22.206  -3.599  1.00  0.00     0.016 C 
HETATM   39  C21 UNL     1      16.219 -22.461  -5.405  1.00  0.00     0.016 C 
BRANCH  37  40
HETATM   40  C22 UNL     1      14.948 -20.397  -5.194  1.00  0.00     0.238 C 
BRANCH  40  41
HETATM   41  N6  UNL     1      14.253 -19.521  -4.305  1.00  0.00    -0.079 N 
ATOM     42  H63 UNL     1      14.546 -19.644  -3.336  1.00  0.00     0.274 HD
ATOM     43  H62 UNL     1      14.538 -18.548  -4.422  1.00  0.00     0.274 HD
ATOM     44  H61 UNL     1      13.247 -19.643  -4.420  1.00  0.00     0.274 HD
ENDBRANCH  40  41
ENDBRANCH  37  40
ENDBRANCH  36  37
ENDBRANCH  35  36
ENDBRANCH  33  35
ENDBRANCH   4  33
BRANCH   8  45
HETATM   45  C28 UNL     1      21.980 -17.444  -7.216  1.00  0.00     0.025 C 
HETATM   46  C29 UNL     1      21.827 -18.649  -8.168  1.00  0.00     0.037 C 
HETATM   47  C30 UNL     1      23.403 -17.465  -6.753  1.00  0.00     0.037 C 
HETATM   48  C31 UNL     1      21.832 -16.252  -8.161  1.00  0.00     0.037 C 
ENDBRANCH   8  45
BRANCH   7  49
HETATM   49  C25 UNL     1      18.524 -17.160  -6.394  1.00  0.00     0.010 C 
HETATM   50  C26 UNL     1      17.945 -16.791  -7.715  1.00  0.00     0.012 C 
HETATM   51  C27 UNL     1      17.366 -17.589  -5.518  1.00  0.00     0.012 C 
ENDBRANCH   7  49
TORSDOF 11
ENDMDL
MODEL 2
REMARK VINA RESULT: -7.875743864      2.782      6.653
REMARK  11 active torsions:
REMARK  status: ('A' for Active; 'I' for Inactive)
REMARK    1  A    between atoms: C2_2  and  C3_3 
REMARK    2  A    between atoms: C11_18  and  N4_19 
REMARK       I    between atoms: N4_19  and  C12_21 
REMARK    3  A    between atoms: C12_21  and  C13_23 
REMARK    4  A    between atoms: N5_26  and  C15_27 
REMARK    5  A    between atoms: C15_27  and  C17_29 
REMARK    6  A    between atoms: C17_29  and  C18_30 
REMARK    7  A    between atoms: C18_30  and  C19_31 
REMARK    8  A    between atoms: C19_31  and  C22_34 
REMARK    9  A    between atoms: C22_34  and  N6_35 
REMARK   10  A    between atoms: C24_41  and  C25_42 
REMARK   11  A    between atoms: N7_45  and  C28_46 
ROOT
HETATM    1  C13 UNL     1      22.398 -16.346  -4.666  1.00  0.00     0.262 C 
HETATM    2  C14 UNL     1      23.098 -17.226  -3.742  1.00  0.00     0.249 C 
HETATM    3  O4  UNL     1      24.143 -16.656  -3.256  1.00  0.00    -0.271 OA
HETATM    4  N5  UNL     1      22.922 -18.537  -3.245  1.00  0.00    -0.281 N 
HETATM    5  C23 UNL     1      21.700 -19.270  -3.319  1.00  0.00     0.250 C 
HETATM    6  O5  UNL     1      21.851 -20.482  -3.024  1.00  0.00    -0.271 OA
HETATM    7  C24 UNL     1      20.318 -18.787  -3.691  1.00  0.00     0.184 C 
HETATM    8  N7  UNL     1      20.333 -18.040  -4.910  1.00  0.00    -0.329 N 
HETATM    9  C32 UNL     1      21.055 -16.803  -5.091  1.00  0.00     0.243 C 
HETATM   10  O6  UNL     1      20.422 -15.929  -5.741  1.00  0.00    -0.272 OA
ENDROOT
BRANCH   1  11
HETATM   11  C12 UNL     1      23.273 -16.071  -5.850  1.00  0.00     0.241 C 
HETATM   12  N4  UNL     1      24.030 -14.880  -5.981  1.00  0.00    -0.342 N 
ATOM     13  H4  UNL     1      23.993 -14.176  -5.244  1.00  0.00     0.163 HD
HETATM   14  O3  UNL     1      23.339 -16.924  -6.764  1.00  0.00    -0.272 OA
BRANCH  12  15
HETATM   15  C11 UNL     1      24.869 -14.649  -7.168  1.00  0.00     0.222 C 
HETATM   16  C3  UNL     1      24.399 -13.425  -7.840  1.00  0.00     0.020 C 
HETATM   17  N1  UNL     1      24.546 -12.171  -7.586  1.00  0.00    -0.339 N 
HETATM   18  C4  UNL     1      25.186 -11.363  -6.603  1.00  0.00     0.180 A 
ATOM     19  H1  UNL     1      24.073 -11.596  -8.283  1.00  0.00     0.167 HD
HETATM   20  O1  UNL     1      24.743 -10.104  -6.516  1.00  0.00    -0.219 OA
HETATM   21  C7  UNL     1      26.175 -11.503  -5.668  1.00  0.00     0.037 A 
HETATM   22  N2  UNL     1      25.395  -9.473  -5.596  1.00  0.00    -0.263 N 
HETATM   23  C5  UNL     1      26.312 -10.295  -5.023  1.00  0.00     0.041 A 
ATOM     24  H2  UNL     1      25.243  -8.498  -5.338  1.00  0.00     0.194 HD
HETATM   25  C6  UNL     1      27.264  -9.947  -3.924  1.00  0.00     0.071 C 
HETATM   26  C8  UNL     1      27.063 -12.576  -5.229  1.00  0.00     0.170 C 
HETATM   27  N3  UNL     1      27.144 -13.714  -6.071  1.00  0.00    -0.350 N 
HETATM   28  C9  UNL     1      28.521 -14.062  -6.350  1.00  0.00     0.153 C 
HETATM   29  C10 UNL     1      26.265 -14.615  -6.723  1.00  0.00     0.248 C 
HETATM   30  O2  UNL     1      26.845 -15.720  -7.012  1.00  0.00    -0.271 OA
BRANCH  16  31
HETATM   31  C2  UNL     1      23.578 -13.686  -9.079  1.00  0.00     0.051 C 
HETATM   32  C1  UNL     1      22.177 -14.108  -8.706  1.00  0.00     0.011 C 
ENDBRANCH  16  31
ENDBRANCH  12  15
ENDBRANCH   1  11
BRANCH   4  33
HETATM   33  C15 UNL     1      24.054 -19.184  -2.616  1.00  0.00     0.092 C 
HETATM   34  C16 UNL     1      24.486 -18.352  -1.449  1.00  0.00     0.033 C 
BRANCH  33  35
HETATM   35  C17 UNL     1      25.179 -19.505  -3.574  1.00  0.00     0.026 C 
BRANCH  35  36
HETATM   36  C18 UNL     1      26.482 -19.269  -2.845  1.00  0.00     0.012 C 
BRANCH  36  37
HETATM   37  C19 UNL     1      27.559 -18.680  -3.692  1.00  0.00    -0.024 C 
HETATM   38  C20 UNL     1      27.204 -18.643  -5.161  1.00  0.00     0.016 C 
HETATM   39  C21 UNL     1      28.778 -19.582  -3.552  1.00  0.00     0.016 C 
BRANCH  37  40
HETATM   40  C22 UNL     1      27.975 -17.300  -3.279  1.00  0.00     0.238 C 
BRANCH  40  41
HETATM   41  N6  UNL     1      27.034 -16.346  -3.774  1.00  0.00    -0.079 N 
ATOM     42  H63 UNL     1      27.437 -15.746  -4.494  1.00  0.00     0.274 HD
ATOM     43  H62 UNL     1      26.305 -16.783  -4.339  1.00  0.00     0.274 HD
ATOM     44  H61 UNL     1      26.649 -15.809  -2.998  1.00  0.00     0.274 HD
ENDBRANCH  40  41
ENDBRANCH  37  40
ENDBRANCH  36  37
ENDBRANCH  35  36
ENDBRANCH  33  35
ENDBRANCH   4  33
BRANCH   8  45
HETATM   45  C28 UNL     1      19.627 -18.467  -6.086  1.00  0.00     0.025 C 
HETATM   46  C29 UNL     1      18.939 -19.830  -5.862  1.00  0.00     0.037 C 
HETATM   47  C30 UNL     1      20.463 -18.626  -7.317  1.00  0.00     0.037 C 
HETATM   48  C31 UNL     1      18.455 -17.558  -6.452  1.00  0.00     0.037 C 
ENDBRANCH   8  45
BRANCH   7  49
HETATM   49  C25 UNL     1      19.604 -18.224  -2.530  1.00  0.00     0.010 C 
HETATM   50  C26 UNL     1      18.225 -18.703  -2.239  1.00  0.00     0.012 C 
HETATM   51  C27 UNL     1      20.365 -18.274  -1.222  1.00  0.00     0.012 C 
ENDBRANCH   7  49
TORSDOF 11
ENDMDL
MODEL 3
REMARK VINA RESULT: -7.832313355      7.094     14.725
REMARK  11 active torsions:
REMARK  status: ('A' for Active; 'I' for Inactive)
REMARK    1  A    between atoms: C2_2  and  C3_3 
REMARK    2  A    between atoms: C11_18  and  N4_19 
REMARK       I    between atoms: N4_19  and  C12_21 
REMARK    3  A    between atoms: C12_21  and  C13_23 
REMARK    4  A    between atoms: N5_26  and  C15_27 
REMARK    5  A    between atoms: C15_27  and  C17_29 
REMARK    6  A    between atoms: C17_29  and  C18_30 
REMARK    7  A    between atoms: C18_30  and  C19_31 
REMARK    8  A    between atoms: C19_31  and  C22_34 
REMARK    9  A    between atoms: C22_34  and  N6_35 
REMARK   10  A    between atoms: C24_41  and  C25_42 
REMARK   11  A    between atoms: N7_45  and  C28_46 
ROOT
HETATM    1  C13 UNL     1      11.401 -22.859  -7.503  1.00  0.00     0.262 C 
HETATM    2  C14 UNL     1      12.554 -22.078  -7.928  1.00  0.00     0.249 C 
HETATM    3  O4  UNL     1      12.231 -21.223  -8.832  1.00  0.00    -0.271 OA
HETATM    4  N5  UNL     1      13.927 -22.020  -7.600  1.00  0.00    -0.281 N 
HETATM    5  C23 UNL     1      14.498 -22.578  -6.417  1.00  0.00     0.250 C 
HETATM    6  O5  UNL     1      15.754 -22.604  -6.459  1.00  0.00    -0.271 OA
HETATM    7  C24 UNL     1      13.809 -23.115  -5.186  1.00  0.00     0.184 C 
HETATM    8  N7  UNL     1      12.773 -24.040  -5.524  1.00  0.00    -0.329 N 
HETATM    9  C32 UNL     1      11.604 -23.696  -6.299  1.00  0.00     0.243 C 
HETATM   10  O6  UNL     1      10.535 -24.208  -5.871  1.00  0.00    -0.272 OA
ENDROOT
BRANCH   1  11
HETATM   11  C12 UNL     1      10.907 -23.682  -8.654  1.00  0.00     0.241 C 
HETATM   12  N4  UNL     1      10.920 -25.098  -8.642  1.00  0.00    -0.342 N 
ATOM     13  H4  UNL     1      11.271 -25.592  -7.821  1.00  0.00     0.163 HD
HETATM   14  O3  UNL     1      10.468 -23.097  -9.669  1.00  0.00    -0.272 OA
BRANCH  12  15
HETATM   15  C11 UNL     1      10.435 -25.864  -9.801  1.00  0.00     0.222 C 
HETATM   16  C3  UNL     1      11.186 -27.130  -9.873  1.00  0.00     0.020 C 
HETATM   17  N1  UNL     1      11.116 -28.232  -9.211  1.00  0.00    -0.339 N 
HETATM   18  C4  UNL     1      10.342 -28.774  -8.145  1.00  0.00     0.180 A 
ATOM     19  H1  UNL     1      11.808 -28.905  -9.542  1.00  0.00     0.167 HD
HETATM   20  O1  UNL     1      10.883 -29.825  -7.519  1.00  0.00    -0.219 OA
HETATM   21  C7  UNL     1       9.142 -28.523  -7.539  1.00  0.00     0.037 A 
HETATM   22  N2  UNL     1      10.093 -30.227  -6.578  1.00  0.00    -0.263 N 
HETATM   23  C5  UNL     1       8.979 -29.451  -6.536  1.00  0.00     0.041 A 
ATOM     24  H2  UNL     1      10.280 -31.014  -5.956  1.00  0.00     0.194 HD
HETATM   25  C6  UNL     1       7.827 -29.589  -5.595  1.00  0.00     0.071 C 
HETATM   26  C8  UNL     1       8.062 -27.554  -7.705  1.00  0.00     0.170 C 
HETATM   27  N3  UNL     1       8.073 -26.796  -8.905  1.00  0.00    -0.350 N 
HETATM   28  C9  UNL     1       6.779 -26.828  -9.554  1.00  0.00     0.153 C 
HETATM   29  C10 UNL     1       8.983 -26.013  -9.657  1.00  0.00     0.248 C 
HETATM   30  O2  UNL     1       8.379 -25.197 -10.437  1.00  0.00    -0.271 OA
BRANCH  16  31
HETATM   31  C2  UNL     1      12.258 -27.144 -10.935  1.00  0.00     0.051 C 
HETATM   32  C1  UNL     1      11.653 -27.410 -12.294  1.00  0.00     0.011 C 
ENDBRANCH  16  31
ENDBRANCH  12  15
ENDBRANCH   1  11
BRANCH   4  33
HETATM   33  C15 UNL     1      14.819 -21.349  -8.521  1.00  0.00     0.092 C 
HETATM   34  C16 UNL     1      14.986 -22.214  -9.732  1.00  0.00     0.033 C 
BRANCH  33  35
HETATM   35  C17 UNL     1      16.131 -20.928  -7.900  1.00  0.00     0.026 C 
BRANCH  35  36
HETATM   36  C18 UNL     1      16.025 -19.461  -7.553  1.00  0.00     0.012 C 
BRANCH  36  37
HETATM   37  C19 UNL     1      17.225 -18.906  -6.863  1.00  0.00    -0.024 C 
HETATM   38  C20 UNL     1      17.712 -17.612  -7.472  1.00  0.00     0.016 C 
HETATM   39  C21 UNL     1      18.344 -19.925  -7.028  1.00  0.00     0.016 C 
BRANCH  37  40
HETATM   40  C22 UNL     1      17.036 -18.686  -5.391  1.00  0.00     0.238 C 
BRANCH  40  41
HETATM   41  N6  UNL     1      16.072 -17.653  -5.180  1.00  0.00    -0.079 N 
ATOM     42  H63 UNL     1      16.161 -16.899  -5.861  1.00  0.00     0.274 HD
ATOM     43  H62 UNL     1      15.127 -17.955  -5.417  1.00  0.00     0.274 HD
ATOM     44  H61 UNL     1      16.138 -17.313  -4.221  1.00  0.00     0.274 HD
ENDBRANCH  40  41
ENDBRANCH  37  40
ENDBRANCH  36  37
ENDBRANCH  35  36
ENDBRANCH  33  35
ENDBRANCH   4  33
BRANCH   8  45
HETATM   45  C28 UNL     1      12.809 -25.420  -5.124  1.00  0.00     0.025 C 
HETATM   46  C29 UNL     1      14.259 -25.934  -5.018  1.00  0.00     0.037 C 
HETATM   47  C30 UNL     1      12.101 -26.373  -6.036  1.00  0.00     0.037 C 
HETATM   48  C31 UNL     1      12.266 -25.657  -3.716  1.00  0.00     0.037 C 
ENDBRANCH   8  45
BRANCH   7  49
HETATM   49  C25 UNL     1      13.507 -22.044  -4.217  1.00  0.00     0.010 C 
HETATM   50  C26 UNL     1      13.781 -22.289  -2.774  1.00  0.00     0.012 C 
HETATM   51  C27 UNL     1      14.103 -20.692  -4.549  1.00  0.00     0.012 C 
ENDBRANCH   7  49
TORSDOF 11
ENDMDL
MODEL 4
REMARK VINA RESULT: -7.505052023      2.815      6.603
REMARK  11 active torsions:
REMARK  status: ('A' for Active; 'I' for Inactive)
REMARK    1  A    between atoms: C2_2  and  C3_3 
REMARK    2  A    between atoms: C11_18  and  N4_19 
REMARK       I    between atoms: N4_19  and  C12_21 
REMARK    3  A    between atoms: C12_21  and  C13_23 
REMARK    4  A    between atoms: N5_26  and  C15_27 
REMARK    5  A    between atoms: C15_27  and  C17_29 
REMARK    6  A    between atoms: C17_29  and  C18_30 
REMARK    7  A    between atoms: C18_30  and  C19_31 
REMARK    8  A    between atoms: C19_31  and  C22_34 
REMARK    9  A    between atoms: C22_34  and  N6_35 
REMARK   10  A    between atoms: C24_41  and  C25_42 
REMARK   11  A    between atoms: N7_45  and  C28_46 
ROOT
HETATM    1  C13 UNL     1      22.249 -16.433  -4.741  1.00  0.00     0.262 C 
HETATM    2  C14 UNL     1      22.978 -17.279  -3.806  1.00  0.00     0.249 C 
HETATM    3  O4  UNL     1      24.015 -16.677  -3.344  1.00  0.00    -0.271 OA
HETATM    4  N5  UNL     1      22.835 -18.582  -3.280  1.00  0.00    -0.281 N 
HETATM    5  C23 UNL     1      21.628 -19.342  -3.326  1.00  0.00     0.250 C 
HETATM    6  O5  UNL     1      21.807 -20.545  -3.008  1.00  0.00    -0.271 OA
HETATM    7  C24 UNL     1      20.232 -18.897  -3.694  1.00  0.00     0.184 C 
HETATM    8  N7  UNL     1      20.219 -18.176  -4.929  1.00  0.00    -0.329 N 
HETATM    9  C32 UNL     1      20.913 -16.927  -5.142  1.00  0.00     0.243 C 
HETATM   10  O6  UNL     1      20.255 -16.081  -5.804  1.00  0.00    -0.272 OA
ENDROOT
BRANCH   1  11
HETATM   11  C12 UNL     1      23.107 -16.165  -5.940  1.00  0.00     0.241 C 
HETATM   12  N4  UNL     1      23.886 -14.989  -6.075  1.00  0.00    -0.342 N 
ATOM     13  H4  UNL     1      23.877 -14.291  -5.330  1.00  0.00     0.163 HD
HETATM   14  O3  UNL     1      23.137 -17.010  -6.862  1.00  0.00    -0.272 OA
BRANCH  12  15
HETATM   15  C11 UNL     1      24.705 -14.763  -7.275  1.00  0.00     0.222 C 
HETATM   16  C3  UNL     1      24.280 -13.498  -7.900  1.00  0.00     0.020 C 
HETATM   17  N1  UNL     1      24.495 -12.261  -7.614  1.00  0.00    -0.339 N 
HETATM   18  C4  UNL     1      25.198 -11.515  -6.625  1.00  0.00     0.180 A 
ATOM     19  H1  UNL     1      24.033 -11.643  -8.282  1.00  0.00     0.167 HD
HETATM   20  O1  UNL     1      24.819 -10.239  -6.491  1.00  0.00    -0.219 OA
HETATM   21  C7  UNL     1      26.201 -11.730  -5.721  1.00  0.00     0.037 A 
HETATM   22  N2  UNL     1      25.524  -9.668  -5.571  1.00  0.00    -0.263 N 
HETATM   23  C5  UNL     1      26.413 -10.550  -5.045  1.00  0.00     0.041 A 
ATOM     24  H2  UNL     1      25.427  -8.695  -5.281  1.00  0.00     0.194 HD
HETATM   25  C6  UNL     1      27.407 -10.281  -3.962  1.00  0.00     0.071 C 
HETATM   26  C8  UNL     1      27.046 -12.857  -5.335  1.00  0.00     0.170 C 
HETATM   27  N3  UNL     1      27.049 -13.973  -6.212  1.00  0.00    -0.350 N 
HETATM   28  C9  UNL     1      28.401 -14.378  -6.536  1.00  0.00     0.153 C 
HETATM   29  C10 UNL     1      26.112 -14.810  -6.867  1.00  0.00     0.248 C 
HETATM   30  O2  UNL     1      26.629 -15.933  -7.202  1.00  0.00    -0.271 OA
BRANCH  16  31
HETATM   31  C2  UNL     1      23.417 -13.682  -9.125  1.00  0.00     0.051 C 
HETATM   32  C1  UNL     1      22.041 -14.165  -8.734  1.00  0.00     0.011 C 
ENDBRANCH  16  31
ENDBRANCH  12  15
ENDBRANCH   1  11
BRANCH   4  33
HETATM   33  C15 UNL     1      23.986 -19.192  -2.650  1.00  0.00     0.092 C 
HETATM   34  C16 UNL     1      24.276 -18.455  -1.379  1.00  0.00     0.033 C 
BRANCH  33  35
HETATM   35  C17 UNL     1      25.186 -19.310  -3.562  1.00  0.00     0.026 C 
BRANCH  35  36
HETATM   36  C18 UNL     1      26.425 -19.158  -2.711  1.00  0.00     0.012 C 
BRANCH  36  37
HETATM   37  C19 UNL     1      27.376 -20.304  -2.802  1.00  0.00    -0.024 C 
HETATM   38  C20 UNL     1      28.731 -19.907  -3.340  1.00  0.00     0.016 C 
HETATM   39  C21 UNL     1      26.780 -21.300  -3.787  1.00  0.00     0.016 C 
BRANCH  37  40
HETATM   40  C22 UNL     1      27.585 -21.028  -1.506  1.00  0.00     0.238 C 
BRANCH  40  41
HETATM   41  N6  UNL     1      27.557 -22.439  -1.734  1.00  0.00    -0.079 N 
ATOM     42  H63 UNL     1      28.482 -22.860  -1.646  1.00  0.00     0.274 HD
ATOM     43  H62 UNL     1      27.094 -22.941  -0.976  1.00  0.00     0.274 HD
ATOM     44  H61 UNL     1      27.132 -22.631  -2.640  1.00  0.00     0.274 HD
ENDBRANCH  40  41
ENDBRANCH  37  40
ENDBRANCH  36  37
ENDBRANCH  35  36
ENDBRANCH  33  35
ENDBRANCH   4  33
BRANCH   8  45
HETATM   45  C28 UNL     1      19.510 -18.642  -6.088  1.00  0.00     0.025 C 
HETATM   46  C29 UNL     1      18.384 -17.665  -6.487  1.00  0.00     0.037 C 
HETATM   47  C30 UNL     1      18.860 -19.983  -5.948  1.00  0.00     0.037 C 
HETATM   48  C31 UNL     1      20.373 -18.689  -7.347  1.00  0.00     0.037 C 
ENDBRANCH   8  45
BRANCH   7  49
HETATM   49  C25 UNL     1      19.518 -18.325  -2.538  1.00  0.00     0.010 C 
HETATM   50  C26 UNL     1      18.101 -18.720  -2.308  1.00  0.00     0.012 C 
HETATM   51  C27 UNL     1      20.229 -18.468  -1.209  1.00  0.00     0.012 C 
ENDBRANCH   7  49
TORSDOF 11
ENDMDL
MODEL 5
REMARK VINA RESULT: -7.362678658      0.662      1.012
REMARK  11 active torsions:
REMARK  status: ('A' for Active; 'I' for Inactive)
REMARK    1  A    between atoms: C2_2  and  C3_3 
REMARK    2  A    between atoms: C11_18  and  N4_19 
REMARK       I    between atoms: N4_19  and  C12_21 
REMARK    3  A    between atoms: C12_21  and  C13_23 
REMARK    4  A    between atoms: N5_26  and  C15_27 
REMARK    5  A    between atoms: C15_27  and  C17_29 
REMARK    6  A    between atoms: C17_29  and  C18_30 
REMARK    7  A    between atoms: C18_30  and  C19_31 
REMARK    8  A    between atoms: C19_31  and  C22_34 
REMARK    9  A    between atoms: C22_34  and  N6_35 
REMARK   10  A    between atoms: C24_41  and  C25_42 
REMARK   11  A    between atoms: N7_45  and  C28_46 
ROOT
HETATM    1  C13 UNL     1      21.411 -17.297  -3.669  1.00  0.00     0.262 C 
HETATM    2  C14 UNL     1      20.491 -18.388  -3.380  1.00  0.00     0.249 C 
HETATM    3  O4  UNL     1      20.303 -18.515  -2.114  1.00  0.00    -0.271 OA
HETATM    4  N5  UNL     1      19.757 -19.333  -4.129  1.00  0.00    -0.281 N 
HETATM    5  C23 UNL     1      19.487 -19.221  -5.526  1.00  0.00     0.250 C 
HETATM    6  O5  UNL     1      19.024 -20.284  -6.011  1.00  0.00    -0.271 OA
HETATM    7  C24 UNL     1      19.684 -18.039  -6.445  1.00  0.00     0.184 C 
HETATM    8  N7  UNL     1      20.995 -17.483  -6.312  1.00  0.00    -0.329 N 
HETATM    9  C32 UNL     1      21.507 -16.903  -5.093  1.00  0.00     0.243 C 
HETATM   10  O6  UNL     1      22.173 -15.848  -5.267  1.00  0.00    -0.272 OA
ENDROOT
BRANCH   1  11
HETATM   11  C12 UNL     1      22.762 -17.624  -3.108  1.00  0.00     0.241 C 
HETATM   12  N4  UNL     1      23.967 -17.293  -3.775  1.00  0.00    -0.342 N 
ATOM     13  H4  UNL     1      23.930 -16.805  -4.670  1.00  0.00     0.163 HD
HETATM   14  O3  UNL     1      22.831 -18.217  -2.008  1.00  0.00    -0.272 OA
BRANCH  12  15
HETATM   15  C11 UNL     1      25.271 -17.643  -3.190  1.00  0.00     0.222 C 
HETATM   16  C3  UNL     1      26.033 -18.423  -4.181  1.00  0.00     0.020 C 
HETATM   17  N1  UNL     1      26.683 -18.097  -5.244  1.00  0.00    -0.339 N 
HETATM   18  C4  UNL     1      26.988 -16.910  -5.970  1.00  0.00     0.180 A 
ATOM     19  H1  UNL     1      27.094 -18.917  -5.690  1.00  0.00     0.167 HD
HETATM   20  O1  UNL     1      27.367 -17.095  -7.239  1.00  0.00    -0.219 OA
HETATM   21  C7  UNL     1      27.008 -15.562  -5.739  1.00  0.00     0.037 A 
HETATM   22  N2  UNL     1      27.617 -15.954  -7.792  1.00  0.00    -0.263 N 
HETATM   23  C5  UNL     1      27.411 -14.947  -6.903  1.00  0.00     0.041 A 
ATOM     24  H2  UNL     1      27.924 -15.827  -8.756  1.00  0.00     0.194 HD
HETATM   25  C6  UNL     1      27.590 -13.484  -7.151  1.00  0.00     0.071 C 
HETATM   26  C8  UNL     1      26.719 -14.684  -4.610  1.00  0.00     0.170 C 
HETATM   27  N3  UNL     1      26.599 -15.306  -3.341  1.00  0.00    -0.350 N 
HETATM   28  C9  UNL     1      27.413 -14.634  -2.350  1.00  0.00     0.153 C 
HETATM   29  C10 UNL     1      25.911 -16.398  -2.756  1.00  0.00     0.248 C 
HETATM   30  O2  UNL     1      25.813 -16.275  -1.485  1.00  0.00    -0.271 OA
BRANCH  16  31
HETATM   31  C2  UNL     1      26.061 -19.906  -3.901  1.00  0.00     0.051 C 
HETATM   32  C1  UNL     1      26.220 -20.161  -2.420  1.00  0.00     0.011 C 
ENDBRANCH  16  31
ENDBRANCH  12  15
ENDBRANCH   1  11
BRANCH   4  33
HETATM   33  C15 UNL     1      19.239 -20.495  -3.439  1.00  0.00     0.092 C 
HETATM   34  C16 UNL     1      20.397 -21.300  -2.934  1.00  0.00     0.033 C 
BRANCH  33  35
HETATM   35  C17 UNL     1      18.260 -21.304  -4.260  1.00  0.00     0.026 C 
BRANCH  35  36
HETATM   36  C18 UNL     1      16.906 -21.193  -3.599  1.00  0.00     0.012 C 
BRANCH  36  37
HETATM   37  C19 UNL     1      15.763 -21.588  -4.472  1.00  0.00    -0.024 C 
HETATM   38  C20 UNL     1      15.826 -23.033  -4.911  1.00  0.00     0.016 C 
HETATM   39  C21 UNL     1      15.850 -20.737  -5.731  1.00  0.00     0.016 C 
BRANCH  37  40
HETATM   40  C22 UNL     1      14.415 -21.345  -3.861  1.00  0.00     0.238 C 
BRANCH  40  41
HETATM   41  N6  UNL     1      13.394 -21.773  -4.765  1.00  0.00    -0.079 N 
ATOM     42  H63 UNL     1      13.081 -21.018  -5.375  1.00  0.00     0.274 HD
ATOM     43  H62 UNL     1      13.755 -22.402  -5.482  1.00  0.00     0.274 HD
ATOM     44  H61 UNL     1      12.625 -22.189  -4.240  1.00  0.00     0.274 HD
ENDBRANCH  40  41
ENDBRANCH  37  40
ENDBRANCH  36  37
ENDBRANCH  35  36
ENDBRANCH  33  35
ENDBRANCH   4  33
BRANCH   8  45
HETATM   45  C28 UNL     1      21.937 -17.460  -7.396  1.00  0.00     0.025 C 
HETATM   46  C29 UNL     1      23.390 -17.517  -6.878  1.00  0.00     0.037 C 
HETATM   47  C30 UNL     1      21.866 -16.259  -8.287  1.00  0.00     0.037 C 
HETATM   48  C31 UNL     1      21.856 -18.693  -8.295  1.00  0.00     0.037 C 
ENDBRANCH   8  45
BRANCH   7  49
HETATM   49  C25 UNL     1      18.527 -17.125  -6.417  1.00  0.00     0.010 C 
HETATM   50  C26 UNL     1      17.875 -16.759  -7.704  1.00  0.00     0.012 C 
HETATM   51  C27 UNL     1      17.417 -17.524  -5.466  1.00  0.00     0.012 C 
ENDBRANCH   7  49
TORSDOF 11
ENDMDL
