MODEL 1
REMARK VINA RESULT: -4.964440299      0.000      0.000
REMARK  13 active torsions:
REMARK  status: ('A' for Active; 'I' for Inactive)
REMARK    1  A    between atoms: C2_2  and  O2_4 
REMARK    2  A    between atoms: O2_4  and  C3_5 
REMARK    3  A    between atoms: C4_6  and  O3_7 
REMARK    4  A    between atoms: O3_7  and  C5_8 
REMARK    5  A    between atoms: C5_8  and  C6_10 
REMARK    6  A    between atoms: C14_18  and  O5_19 
REMARK    7  A    between atoms: C15_21  and  O6_22 
REMARK    8  A    between atoms: O6_22  and  C16_23 
REMARK    9  A    between atoms: C16_23  and  C17_25 
REMARK   10  A    between atoms: C17_25  and  C18_26 
REMARK   11  A    between atoms: C18_26  and  S1_27 
REMARK   12  A    between atoms: C21_30  and  C22_31 
REMARK   13  A    between atoms: C22_31  and  O8_32 
ROOT
HETATM    1  C3  UNL     1      23.168 -17.133  -3.105  1.00  0.00     0.171 C 
HETATM    2  C4  UNL     1      22.444 -17.357  -4.394  1.00  0.00     0.170 C 
HETATM    3  C10 UNL     1      23.326 -16.720  -5.454  1.00  0.00    -0.011 C 
HETATM    4  C11 UNL     1      23.084 -17.494  -6.714  1.00  0.00     0.018 C 
HETATM    5  C12 UNL     1      22.628 -15.362  -5.767  1.00  0.00     0.018 C 
HETATM    6  C13 UNL     1      24.661 -16.369  -5.027  1.00  0.00     0.045 C 
HETATM    7  C14 UNL     1      25.435 -15.790  -6.163  1.00  0.00     0.158 C 
HETATM    8  C15 UNL     1      26.394 -14.798  -5.578  1.00  0.00     0.192 C 
HETATM    9  C21 UNL     1      26.806 -15.039  -4.187  1.00  0.00    -0.018 C 
HETATM   10  C23 UNL     1      26.624 -16.425  -3.598  1.00  0.00    -0.025 C 
HETATM   11  C24 UNL     1      27.963 -16.973  -3.347  1.00  0.00     0.088 C 
HETATM   12  C25 UNL     1      28.571 -16.205  -2.150  1.00  0.00     0.051 C 
HETATM   13  C26 UNL     1      28.981 -16.718  -4.470  1.00  0.00     0.051 C 
HETATM   14  O9  UNL     1      28.139 -18.308  -2.975  1.00  0.00    -0.303 OA
HETATM   15  C27 UNL     1      27.804 -19.404  -3.760  1.00  0.00     0.283 C 
HETATM   16  O10 UNL     1      28.352 -20.513  -3.571  1.00  0.00    -0.260 OA
HETATM   17  C28 UNL     1      26.818 -19.369  -4.840  1.00  0.00     0.079 C 
HETATM   18  C29 UNL     1      25.859 -18.434  -4.941  1.00  0.00    -0.005 C 
HETATM   19  C30 UNL     1      25.496 -17.259  -4.109  1.00  0.00     0.021 C 
HETATM   20  C31 UNL     1      24.540 -17.774  -3.063  1.00  0.00    -0.003 C 
HETATM   21  C32 UNL     1      24.301 -19.280  -3.156  1.00  0.00     0.019 C 
HETATM   22  C33 UNL     1      24.913 -17.549  -1.622  1.00  0.00     0.019 C 
ENDROOT
BRANCH   8  23
HETATM   23  O6  UNL     1      25.762 -13.525  -5.645  1.00  0.00    -0.309 OA
BRANCH  23  24
HETATM   24  C16 UNL     1      26.019 -12.631  -6.663  1.00  0.00     0.260 C 
HETATM   25  O7  UNL     1      26.978 -12.850  -7.450  1.00  0.00    -0.265 OA
BRANCH  24  26
HETATM   26  C17 UNL     1      25.207 -11.411  -6.878  1.00  0.00     0.120 C 
BRANCH  26  27
HETATM   27  C18 UNL     1      25.487 -10.388  -5.826  1.00  0.00     0.072 C 
BRANCH  27  28
HETATM   28  S1  UNL     1      24.436  -8.991  -6.020  1.00  0.00    -0.227 SA
HETATM   29  C19 UNL     1      24.061  -8.238  -4.453  1.00  0.00     0.078 C 
HETATM   30  C20 UNL     1      25.151  -7.787  -7.089  1.00  0.00     0.078 C 
ENDBRANCH  27  28
ENDBRANCH  26  27
ENDBRANCH  24  26
ENDBRANCH  23  24
ENDBRANCH   8  23
BRANCH   7  31
HETATM   31  O5  UNL     1      26.098 -16.671  -6.972  1.00  0.00    -0.392 OA
ATOM     32  H5  UNL     1      27.012 -16.837  -6.769  1.00  0.00     0.210 HD
ENDBRANCH   7  31
BRANCH   9  33
HETATM   33  C22 UNL     1      26.436 -13.913  -3.211  1.00  0.00     0.201 C 
BRANCH  33  34
HETATM   34  O8  UNL     1      27.305 -12.837  -3.305  1.00  0.00    -0.397 OA
ATOM     35  H8  UNL     1      28.029 -12.909  -2.695  1.00  0.00     0.209 HD
ENDBRANCH  33  34
ENDBRANCH   9  33
BRANCH   2  36
HETATM   36  O3  UNL     1      22.102 -18.671  -4.686  1.00  0.00    -0.312 OA
BRANCH  36  37
HETATM   37  C5  UNL     1      20.819 -19.197  -4.629  1.00  0.00     0.267 C 
HETATM   38  O4  UNL     1      20.637 -20.105  -3.783  1.00  0.00    -0.264 OA
BRANCH  37  39
HETATM   39  C6  UNL     1      19.708 -18.765  -5.474  1.00  0.00     0.037 C 
HETATM   40  C7  UNL     1      18.465 -19.515  -4.974  1.00  0.00     0.025 C 
HETATM   41  C8  UNL     1      19.941 -19.024  -6.945  1.00  0.00     0.025 C 
HETATM   42  C9  UNL     1      19.425 -17.301  -5.224  1.00  0.00     0.025 C 
ENDBRANCH  37  39
ENDBRANCH  36  37
ENDBRANCH   2  36
BRANCH   1  43
HETATM   43  O2  UNL     1      22.371 -17.753  -2.103  1.00  0.00    -0.313 OA
BRANCH  43  44
HETATM   44  C2  UNL     1      21.106 -17.280  -1.746  1.00  0.00     0.255 C 
HETATM   45  C1  UNL     1      20.026 -18.131  -1.221  1.00  0.00     0.126 C 
HETATM   46  O1  UNL     1      20.888 -16.057  -1.885  1.00  0.00    -0.266 OA
ENDBRANCH  43  44
ENDBRANCH   1  43
TORSDOF 13
ENDMDL
MODEL 2
REMARK VINA RESULT: -4.520973787      0.951      1.037
REMARK  13 active torsions:
REMARK  status: ('A' for Active; 'I' for Inactive)
REMARK    1  A    between atoms: C2_2  and  O2_4 
REMARK    2  A    between atoms: O2_4  and  C3_5 
REMARK    3  A    between atoms: C4_6  and  O3_7 
REMARK    4  A    between atoms: O3_7  and  C5_8 
REMARK    5  A    between atoms: C5_8  and  C6_10 
REMARK    6  A    between atoms: C14_18  and  O5_19 
REMARK    7  A    between atoms: C15_21  and  O6_22 
REMARK    8  A    between atoms: O6_22  and  C16_23 
REMARK    9  A    between atoms: C16_23  and  C17_25 
REMARK   10  A    between atoms: C17_25  and  C18_26 
REMARK   11  A    between atoms: C18_26  and  S1_27 
REMARK   12  A    between atoms: C21_30  and  C22_31 
REMARK   13  A    between atoms: C22_31  and  O8_32 
ROOT
HETATM    1  C3  UNL     1      23.004 -17.205  -3.243  1.00  0.00     0.171 C 
HETATM    2  C4  UNL     1      22.497 -17.196  -4.649  1.00  0.00     0.170 C 
HETATM    3  C10 UNL     1      23.584 -16.501  -5.452  1.00  0.00    -0.011 C 
HETATM    4  C11 UNL     1      23.514 -17.081  -6.832  1.00  0.00     0.018 C 
HETATM    5  C12 UNL     1      23.032 -15.061  -5.676  1.00  0.00     0.018 C 
HETATM    6  C13 UNL     1      24.845 -16.322  -4.771  1.00  0.00     0.045 C 
HETATM    7  C14 UNL     1      25.835 -15.665  -5.674  1.00  0.00     0.158 C 
HETATM    8  C15 UNL     1      26.738 -14.842  -4.807  1.00  0.00     0.192 C 
HETATM    9  C21 UNL     1      26.892 -15.296  -3.416  1.00  0.00    -0.018 C 
HETATM   10  C23 UNL     1      26.530 -16.728  -3.069  1.00  0.00    -0.025 C 
HETATM   11  C24 UNL     1      27.771 -17.413  -2.686  1.00  0.00     0.088 C 
HETATM   12  C25 UNL     1      28.211 -16.861  -1.310  1.00  0.00     0.051 C 
HETATM   13  C26 UNL     1      28.979 -17.099  -3.583  1.00  0.00     0.051 C 
HETATM   14  O9  UNL     1      27.800 -18.795  -2.486  1.00  0.00    -0.303 OA
HETATM   15  C27 UNL     1      27.539 -19.748  -3.463  1.00  0.00     0.283 C 
HETATM   16  O10 UNL     1      27.978 -20.913  -3.349  1.00  0.00    -0.260 OA
HETATM   17  C28 UNL     1      26.754 -19.489  -4.671  1.00  0.00     0.079 C 
HETATM   18  C29 UNL     1      25.885 -18.473  -4.789  1.00  0.00    -0.005 C 
HETATM   19  C30 UNL     1      25.457 -17.391  -3.868  1.00  0.00     0.021 C 
HETATM   20  C31 UNL     1      24.307 -17.957  -3.073  1.00  0.00    -0.003 C 
HETATM   21  C32 UNL     1      23.998 -19.412  -3.417  1.00  0.00     0.019 C 
HETATM   22  C33 UNL     1      24.442 -17.955  -1.574  1.00  0.00     0.019 C 
ENDROOT
BRANCH   8  23
HETATM   23  O6  UNL     1      26.204 -13.523  -4.791  1.00  0.00    -0.309 OA
BRANCH  23  24
HETATM   24  C16 UNL     1      26.870 -12.456  -5.356  1.00  0.00     0.260 C 
HETATM   25  O7  UNL     1      27.807 -11.905  -4.720  1.00  0.00    -0.265 OA
BRANCH  24  26
HETATM   26  C17 UNL     1      26.532 -11.923  -6.696  1.00  0.00     0.120 C 
BRANCH  26  27
HETATM   27  C18 UNL     1      25.118 -11.443  -6.742  1.00  0.00     0.072 C 
BRANCH  27  28
HETATM   28  S1  UNL     1      25.030  -9.724  -6.385  1.00  0.00    -0.227 SA
HETATM   29  C19 UNL     1      24.942  -9.427  -4.634  1.00  0.00     0.078 C 
HETATM   30  C20 UNL     1      26.407  -8.853  -7.056  1.00  0.00     0.078 C 
ENDBRANCH  27  28
ENDBRANCH  26  27
ENDBRANCH  24  26
ENDBRANCH  23  24
ENDBRANCH   8  23
BRANCH   7  31
HETATM   31  O5  UNL     1      26.572 -16.485  -6.483  1.00  0.00    -0.392 OA
ATOM     32  H5  UNL     1      27.053 -16.071  -7.191  1.00  0.00     0.210 HD
ENDBRANCH   7  31
BRANCH   9  33
HETATM   33  C22 UNL     1      26.430 -14.280  -2.361  1.00  0.00     0.201 C 
BRANCH  33  34
HETATM   34  O8  UNL     1      27.418 -13.356  -2.062  1.00  0.00    -0.397 OA
ATOM     35  H8  UNL     1      27.605 -12.783  -2.796  1.00  0.00     0.209 HD
ENDBRANCH  33  34
ENDBRANCH   9  33
BRANCH   2  36
HETATM   36  O3  UNL     1      22.132 -18.428  -5.177  1.00  0.00    -0.312 OA
BRANCH  36  37
HETATM   37  C5  UNL     1      20.836 -18.811  -5.497  1.00  0.00     0.267 C 
HETATM   38  O4  UNL     1      20.237 -19.490  -4.629  1.00  0.00    -0.264 OA
BRANCH  37  39
HETATM   39  C6  UNL     1      20.159 -18.476  -6.747  1.00  0.00     0.037 C 
HETATM   40  C7  UNL     1      18.952 -19.420  -6.852  1.00  0.00     0.025 C 
HETATM   41  C8  UNL     1      21.050 -18.600  -7.961  1.00  0.00     0.025 C 
HETATM   42  C9  UNL     1      19.576 -17.084  -6.647  1.00  0.00     0.025 C 
ENDBRANCH  37  39
ENDBRANCH  36  37
ENDBRANCH   2  36
BRANCH   1  43
HETATM   43  O2  UNL     1      22.011 -17.881  -2.480  1.00  0.00    -0.313 OA
BRANCH  43  44
HETATM   44  C2  UNL     1      20.828 -17.267  -2.067  1.00  0.00     0.255 C 
HETATM   45  C1  UNL     1      19.616 -17.998  -1.664  1.00  0.00     0.126 C 
HETATM   46  O1  UNL     1      20.806 -16.017  -2.042  1.00  0.00    -0.266 OA
ENDBRANCH  43  44
ENDBRANCH   1  43
TORSDOF 13
ENDMDL
MODEL 3
REMARK VINA RESULT: -4.438715998     15.397     20.097
REMARK  13 active torsions:
REMARK  status: ('A' for Active; 'I' for Inactive)
REMARK    1  A    between atoms: C2_2  and  O2_4 
REMARK    2  A    between atoms: O2_4  and  C3_5 
REMARK    3  A    between atoms: C4_6  and  O3_7 
REMARK    4  A    between atoms: O3_7  and  C5_8 
REMARK    5  A    between atoms: C5_8  and  C6_10 
REMARK    6  A    between atoms: C14_18  and  O5_19 
REMARK    7  A    between atoms: C15_21  and  O6_22 
REMARK    8  A    between atoms: O6_22  and  C16_23 
REMARK    9  A    between atoms: C16_23  and  C17_25 
REMARK   10  A    between atoms: C17_25  and  C18_26 
REMARK   11  A    between atoms: C18_26  and  S1_27 
REMARK   12  A    between atoms: C21_30  and  C22_31 
REMARK   13  A    between atoms: C22_31  and  O8_32 
ROOT
HETATM    1  C3  UNL     1       9.822 -27.583  -9.674  1.00  0.00     0.171 C 
HETATM    2  C4  UNL     1      10.851 -26.513  -9.496  1.00  0.00     0.170 C 
HETATM    3  C10 UNL     1      11.305 -26.168 -10.904  1.00  0.00    -0.011 C 
HETATM    4  C11 UNL     1      11.716 -24.728 -10.865  1.00  0.00     0.018 C 
HETATM    5  C12 UNL     1      12.676 -26.895 -11.054  1.00  0.00     0.018 C 
HETATM    6  C13 UNL     1      10.482 -26.690 -11.971  1.00  0.00     0.045 C 
HETATM    7  C14 UNL     1      11.008 -26.253 -13.296  1.00  0.00     0.158 C 
HETATM    8  C15 UNL     1      10.686 -27.340 -14.275  1.00  0.00     0.192 C 
HETATM    9  C21 UNL     1       9.514 -28.170 -13.958  1.00  0.00    -0.018 C 
HETATM   10  C23 UNL     1       8.485 -27.642 -12.976  1.00  0.00    -0.025 C 
HETATM   11  C24 UNL     1       7.242 -27.417 -13.722  1.00  0.00     0.088 C 
HETATM   12  C25 UNL     1       6.648 -28.800 -14.080  1.00  0.00     0.051 C 
HETATM   13  C26 UNL     1       7.430 -26.759 -15.099  1.00  0.00     0.051 C 
HETATM   14  O9  UNL     1       6.157 -26.760 -13.137  1.00  0.00    -0.303 OA
HETATM   15  C27 UNL     1       6.167 -25.442 -12.696  1.00  0.00     0.283 C 
HETATM   16  O10 UNL     1       5.099 -24.802 -12.582  1.00  0.00    -0.260 OA
HETATM   17  C28 UNL     1       7.380 -24.707 -12.336  1.00  0.00     0.079 C 
HETATM   18  C29 UNL     1       8.538 -25.300 -12.007  1.00  0.00    -0.005 C 
HETATM   19  C30 UNL     1       8.957 -26.721 -11.899  1.00  0.00     0.021 C 
HETATM   20  C31 UNL     1       8.625 -27.142 -10.489  1.00  0.00    -0.003 C 
HETATM   21  C32 UNL     1       7.949 -26.039  -9.677  1.00  0.00     0.019 C 
HETATM   22  C33 UNL     1       7.716 -28.330 -10.323  1.00  0.00     0.019 C 
ENDROOT
BRANCH   8  23
HETATM   23  O6  UNL     1      11.829 -28.185 -14.344  1.00  0.00    -0.309 OA
BRANCH  23  24
HETATM   24  C16 UNL     1      13.060 -27.721 -14.756  1.00  0.00     0.260 C 
HETATM   25  O7  UNL     1      13.123 -26.894 -15.705  1.00  0.00    -0.265 OA
BRANCH  24  26
HETATM   26  C17 UNL     1      14.328 -28.152 -14.124  1.00  0.00     0.120 C 
BRANCH  26  27
HETATM   27  C18 UNL     1      15.478 -27.333 -14.611  1.00  0.00     0.072 C 
BRANCH  27  28
HETATM   28  S1  UNL     1      16.915 -28.328 -14.806  1.00  0.00    -0.227 SA
HETATM   29  C19 UNL     1      18.381 -27.457 -14.299  1.00  0.00     0.078 C 
HETATM   30  C20 UNL     1      16.787 -29.833 -13.900  1.00  0.00     0.078 C 
ENDBRANCH  27  28
ENDBRANCH  26  27
ENDBRANCH  24  26
ENDBRANCH  23  24
ENDBRANCH   8  23
BRANCH   7  31
HETATM   31  O5  UNL     1      10.571 -25.045 -13.767  1.00  0.00    -0.392 OA
ATOM     32  H5  UNL     1      10.082 -24.499 -13.161  1.00  0.00     0.210 HD
ENDBRANCH   7  31
BRANCH   9  33
HETATM   33  C22 UNL     1       9.825 -29.662 -13.766  1.00  0.00     0.201 C 
BRANCH  33  34
HETATM   34  O8  UNL     1       9.942 -30.001 -12.428  1.00  0.00    -0.397 OA
ATOM     35  H8  UNL     1      10.355 -29.313 -11.920  1.00  0.00     0.209 HD
ENDBRANCH  33  34
ENDBRANCH   9  33
BRANCH   2  36
HETATM   36  O3  UNL     1      10.459 -25.401  -8.761  1.00  0.00    -0.312 OA
BRANCH  36  37
HETATM   37  C5  UNL     1      10.967 -25.041  -7.520  1.00  0.00     0.267 C 
HETATM   38  O4  UNL     1      11.029 -25.960  -6.668  1.00  0.00    -0.264 OA
BRANCH  37  39
HETATM   39  C6  UNL     1      11.415 -23.696  -7.167  1.00  0.00     0.037 C 
HETATM   40  C7  UNL     1      11.022 -22.786  -8.340  1.00  0.00     0.025 C 
HETATM   41  C8  UNL     1      12.899 -23.615  -6.892  1.00  0.00     0.025 C 
HETATM   42  C9  UNL     1      10.620 -23.195  -5.983  1.00  0.00     0.025 C 
ENDBRANCH  37  39
ENDBRANCH  36  37
ENDBRANCH   2  36
BRANCH   1  43
HETATM   43  O2  UNL     1       9.362 -27.897  -8.365  1.00  0.00    -0.313 OA
BRANCH  43  44
HETATM   44  C2  UNL     1       9.755 -29.051  -7.683  1.00  0.00     0.255 C 
HETATM   45  C1  UNL     1       8.828 -30.102  -7.238  1.00  0.00     0.126 C 
HETATM   46  O1  UNL     1      10.974 -29.189  -7.441  1.00  0.00    -0.266 OA
ENDBRANCH  43  44
ENDBRANCH   1  43
TORSDOF 13
ENDMDL
MODEL 4
REMARK VINA RESULT: -4.389065562     16.285     20.710
REMARK  13 active torsions:
REMARK  status: ('A' for Active; 'I' for Inactive)
REMARK    1  A    between atoms: C2_2  and  O2_4 
REMARK    2  A    between atoms: O2_4  and  C3_5 
REMARK    3  A    between atoms: C4_6  and  O3_7 
REMARK    4  A    between atoms: O3_7  and  C5_8 
REMARK    5  A    between atoms: C5_8  and  C6_10 
REMARK    6  A    between atoms: C14_18  and  O5_19 
REMARK    7  A    between atoms: C15_21  and  O6_22 
REMARK    8  A    between atoms: O6_22  and  C16_23 
REMARK    9  A    between atoms: C16_23  and  C17_25 
REMARK   10  A    between atoms: C17_25  and  C18_26 
REMARK   11  A    between atoms: C18_26  and  S1_27 
REMARK   12  A    between atoms: C21_30  and  C22_31 
REMARK   13  A    between atoms: C22_31  and  O8_32 
ROOT
HETATM    1  C3  UNL     1       8.907 -28.168 -10.086  1.00  0.00     0.171 C 
HETATM    2  C4  UNL     1       9.974 -27.265  -9.557  1.00  0.00     0.170 C 
HETATM    3  C10 UNL     1      10.670 -26.717 -10.791  1.00  0.00    -0.011 C 
HETATM    4  C11 UNL     1      11.181 -25.361 -10.411  1.00  0.00     0.018 C 
HETATM    5  C12 UNL     1      11.987 -27.545 -10.888  1.00  0.00     0.018 C 
HETATM    6  C13 UNL     1       9.988 -26.943 -12.045  1.00  0.00     0.045 C 
HETATM    7  C14 UNL     1      10.749 -26.327 -13.170  1.00  0.00     0.158 C 
HETATM    8  C15 UNL     1      10.502 -27.175 -14.380  1.00  0.00     0.192 C 
HETATM    9  C21 UNL     1       9.234 -27.920 -14.402  1.00  0.00    -0.018 C 
HETATM   10  C23 UNL     1       8.108 -27.475 -13.488  1.00  0.00    -0.025 C 
HETATM   11  C24 UNL     1       7.019 -26.985 -14.342  1.00  0.00     0.088 C 
HETATM   12  C25 UNL     1       6.383 -28.207 -15.046  1.00  0.00     0.051 C 
HETATM   13  C26 UNL     1       7.473 -26.109 -15.521  1.00  0.00     0.051 C 
HETATM   14  O9  UNL     1       5.909 -26.336 -13.795  1.00  0.00    -0.303 OA
HETATM   15  C27 UNL     1       5.952 -25.130 -13.106  1.00  0.00     0.283 C 
HETATM   16  O10 UNL     1       4.932 -24.412 -13.018  1.00  0.00    -0.260 OA
HETATM   17  C28 UNL     1       7.146 -24.608 -12.441  1.00  0.00     0.079 C 
HETATM   18  C29 UNL     1       8.188 -25.371 -12.077  1.00  0.00    -0.005 C 
HETATM   19  C30 UNL     1       8.473 -26.824 -12.195  1.00  0.00     0.021 C 
HETATM   20  C31 UNL     1       7.891 -27.459 -10.957  1.00  0.00    -0.003 C 
HETATM   21  C32 UNL     1       7.183 -26.460 -10.045  1.00  0.00     0.019 C 
HETATM   22  C33 UNL     1       6.878 -28.554 -11.159  1.00  0.00     0.019 C 
ENDROOT
BRANCH   8  23
HETATM   23  O6  UNL     1      11.573 -28.110 -14.455  1.00  0.00    -0.309 OA
BRANCH  23  24
HETATM   24  C16 UNL     1      12.820 -27.759 -14.925  1.00  0.00     0.260 C 
HETATM   25  O7  UNL     1      12.935 -26.769 -15.696  1.00  0.00    -0.265 OA
BRANCH  24  26
HETATM   26  C17 UNL     1      14.049 -28.501 -14.559  1.00  0.00     0.120 C 
BRANCH  26  27
HETATM   27  C18 UNL     1      15.273 -27.714 -14.896  1.00  0.00     0.072 C 
BRANCH  27  28
HETATM   28  S1  UNL     1      16.441 -27.783 -13.583  1.00  0.00    -0.227 SA
HETATM   29  C19 UNL     1      17.604 -26.440 -13.677  1.00  0.00     0.078 C 
HETATM   30  C20 UNL     1      15.648 -27.760 -12.011  1.00  0.00     0.078 C 
ENDBRANCH  27  28
ENDBRANCH  26  27
ENDBRANCH  24  26
ENDBRANCH  23  24
ENDBRANCH   8  23
BRANCH   7  31
HETATM   31  O5  UNL     1      10.487 -25.014 -13.449  1.00  0.00    -0.392 OA
ATOM     32  H5  UNL     1       9.573 -24.767 -13.534  1.00  0.00     0.210 HD
ENDBRANCH   7  31
BRANCH   9  33
HETATM   33  C22 UNL     1       9.395 -29.445 -14.468  1.00  0.00     0.201 C 
BRANCH  33  34
HETATM   34  O8  UNL     1       9.847 -29.868 -15.707  1.00  0.00    -0.397 OA
ATOM     35  H8  UNL     1       9.444 -29.384 -16.418  1.00  0.00     0.209 HD
ENDBRANCH  33  34
ENDBRANCH   9  33
BRANCH   2  36
HETATM   36  O3  UNL     1       9.559 -26.272  -8.679  1.00  0.00    -0.312 OA
BRANCH  36  37
HETATM   37  C5  UNL     1      10.060 -26.072  -7.400  1.00  0.00     0.267 C 
HETATM   38  O4  UNL     1      10.625 -24.970  -7.201  1.00  0.00    -0.264 OA
BRANCH  37  39
HETATM   39  C6  UNL     1       9.968 -27.043  -6.313  1.00  0.00     0.037 C 
HETATM   40  C7  UNL     1      10.553 -26.359  -5.068  1.00  0.00     0.025 C 
HETATM   41  C8  UNL     1      10.688 -28.339  -6.607  1.00  0.00     0.025 C 
HETATM   42  C9  UNL     1       8.513 -27.298  -5.988  1.00  0.00     0.025 C 
ENDBRANCH  37  39
ENDBRANCH  36  37
ENDBRANCH   2  36
BRANCH   1  43
HETATM   43  O2  UNL     1       8.223 -28.667  -8.943  1.00  0.00    -0.313 OA
BRANCH  43  44
HETATM   44  C2  UNL     1       8.294 -30.004  -8.545  1.00  0.00     0.255 C 
HETATM   45  C1  UNL     1       7.455 -30.596  -7.490  1.00  0.00     0.126 C 
HETATM   46  O1  UNL     1       9.124 -30.735  -9.127  1.00  0.00    -0.266 OA
ENDBRANCH  43  44
ENDBRANCH   1  43
TORSDOF 13
ENDMDL
MODEL 5
REMARK VINA RESULT: -4.134237986      0.856      1.156
REMARK  13 active torsions:
REMARK  status: ('A' for Active; 'I' for Inactive)
REMARK    1  A    between atoms: C2_2  and  O2_4 
REMARK    2  A    between atoms: O2_4  and  C3_5 
REMARK    3  A    between atoms: C4_6  and  O3_7 
REMARK    4  A    between atoms: O3_7  and  C5_8 
REMARK    5  A    between atoms: C5_8  and  C6_10 
REMARK    6  A    between atoms: C14_18  and  O5_19 
REMARK    7  A    between atoms: C15_21  and  O6_22 
REMARK    8  A    between atoms: O6_22  and  C16_23 
REMARK    9  A    between atoms: C16_23  and  C17_25 
REMARK   10  A    between atoms: C17_25  and  C18_26 
REMARK   11  A    between atoms: C18_26  and  S1_27 
REMARK   12  A    between atoms: C21_30  and  C22_31 
REMARK   13  A    between atoms: C22_31  and  O8_32 
ROOT
HETATM    1  C3  UNL     1      23.057 -16.885  -3.726  1.00  0.00     0.171 C 
HETATM    2  C4  UNL     1      22.507 -16.974  -5.114  1.00  0.00     0.170 C 
HETATM    3  C10 UNL     1      23.497 -16.209  -5.976  1.00  0.00    -0.011 C 
HETATM    4  C11 UNL     1      23.439 -16.841  -7.333  1.00  0.00     0.018 C 
HETATM    5  C12 UNL     1      22.806 -14.835  -6.226  1.00  0.00     0.018 C 
HETATM    6  C13 UNL     1      24.757 -15.889  -5.345  1.00  0.00     0.045 C 
HETATM    7  C14 UNL     1      25.651 -15.175  -6.302  1.00  0.00     0.158 C 
HETATM    8  C15 UNL     1      26.500 -14.241  -5.494  1.00  0.00     0.192 C 
HETATM    9  C21 UNL     1      26.740 -14.630  -4.096  1.00  0.00    -0.018 C 
HETATM   10  C23 UNL     1      26.526 -16.076  -3.690  1.00  0.00    -0.025 C 
HETATM   11  C24 UNL     1      27.837 -16.628  -3.329  1.00  0.00     0.088 C 
HETATM   12  C25 UNL     1      28.267 -15.990  -1.988  1.00  0.00     0.051 C 
HETATM   13  C26 UNL     1      28.981 -16.235  -4.278  1.00  0.00     0.051 C 
HETATM   14  O9  UNL     1      28.003 -17.994  -3.086  1.00  0.00    -0.303 OA
HETATM   15  C27 UNL     1      27.802 -19.000  -4.023  1.00  0.00     0.283 C 
HETATM   16  O10 UNL     1      28.353 -20.115  -3.886  1.00  0.00    -0.260 OA
HETATM   17  C28 UNL     1      26.959 -18.859  -5.210  1.00  0.00     0.079 C 
HETATM   18  C29 UNL     1      25.994 -17.933  -5.331  1.00  0.00    -0.005 C 
HETATM   19  C30 UNL     1      25.495 -16.864  -4.430  1.00  0.00     0.021 C 
HETATM   20  C31 UNL     1      24.430 -17.506  -3.578  1.00  0.00    -0.003 C 
HETATM   21  C32 UNL     1      24.249 -18.995  -3.865  1.00  0.00     0.019 C 
HETATM   22  C33 UNL     1      24.611 -17.439  -2.085  1.00  0.00     0.019 C 
ENDROOT
BRANCH   8  23
HETATM   23  O6  UNL     1      25.844 -12.977  -5.502  1.00  0.00    -0.309 OA
BRANCH  23  24
HETATM   24  C16 UNL     1      26.268 -11.937  -6.301  1.00  0.00     0.260 C 
HETATM   25  O7  UNL     1      26.362 -12.113  -7.545  1.00  0.00    -0.265 OA
BRANCH  24  26
HETATM   26  C17 UNL     1      26.621 -10.606  -5.758  1.00  0.00     0.120 C 
BRANCH  26  27
HETATM   27  C18 UNL     1      25.447  -9.970  -5.088  1.00  0.00     0.072 C 
BRANCH  27  28
HETATM   28  S1  UNL     1      24.440  -9.128  -6.259  1.00  0.00    -0.227 SA
HETATM   29  C19 UNL     1      23.287  -8.037  -5.458  1.00  0.00     0.078 C 
HETATM   30  C20 UNL     1      25.412  -8.212  -7.407  1.00  0.00     0.078 C 
ENDBRANCH  27  28
ENDBRANCH  26  27
ENDBRANCH  24  26
ENDBRANCH  23  24
ENDBRANCH   8  23
BRANCH   7  31
HETATM   31  O5  UNL     1      26.437 -15.950  -7.110  1.00  0.00    -0.392 OA
ATOM     32  H5  UNL     1      26.174 -16.856  -7.223  1.00  0.00     0.210 HD
ENDBRANCH   7  31
BRANCH   9  33
HETATM   33  C22 UNL     1      26.218 -13.625  -3.059  1.00  0.00     0.201 C 
BRANCH  33  34
HETATM   34  O8  UNL     1      27.102 -12.578  -2.857  1.00  0.00    -0.397 OA
ATOM     35  H8  UNL     1      27.651 -12.716  -2.094  1.00  0.00     0.209 HD
ENDBRANCH  33  34
ENDBRANCH   9  33
BRANCH   2  36
HETATM   36  O3  UNL     1      22.244 -18.252  -5.589  1.00  0.00    -0.312 OA
BRANCH  36  37
HETATM   37  C5  UNL     1      21.113 -18.624  -6.304  1.00  0.00     0.267 C 
HETATM   38  O4  UNL     1      21.306 -18.951  -7.499  1.00  0.00    -0.264 OA
BRANCH  37  39
HETATM   39  C6  UNL     1      19.759 -18.653  -5.756  1.00  0.00     0.037 C 
HETATM   40  C7  UNL     1      19.338 -17.188  -5.563  1.00  0.00     0.025 C 
HETATM   41  C8  UNL     1      19.656 -19.421  -4.458  1.00  0.00     0.025 C 
HETATM   42  C9  UNL     1      18.809 -19.213  -6.790  1.00  0.00     0.025 C 
ENDBRANCH  37  39
ENDBRANCH  36  37
ENDBRANCH   2  36
BRANCH   1  43
HETATM   43  O2  UNL     1      22.157 -17.624  -2.908  1.00  0.00    -0.313 OA
BRANCH  43  44
HETATM   44  C2  UNL     1      21.113 -17.024  -2.201  1.00  0.00     0.255 C 
HETATM   45  C1  UNL     1      20.300 -17.714  -1.188  1.00  0.00     0.126 C 
HETATM   46  O1  UNL     1      20.861 -15.826  -2.453  1.00  0.00    -0.266 OA
ENDBRANCH  43  44
ENDBRANCH   1  43
TORSDOF 13
ENDMDL
