MODEL 1
REMARK VINA RESULT: -8.985858918      0.000      0.000
REMARK  7 active torsions:
REMARK  status: ('A' for Active; 'I' for Inactive)
REMARK    1  A    between atoms: C6_8  and  N2_9 
REMARK    2  A    between atoms: N2_9  and  C7_11 
REMARK    3  A    between atoms: C9_18  and  O1_19 
REMARK    4  A    between atoms: C10_21  and  C11_22 
REMARK    5  A    between atoms: C11_22  and  C12_23 
REMARK    6  A    between atoms: C12_23  and  C13_24 
REMARK    7  A    between atoms: C13_24  and  C14_25 
ROOT
HETATM    1  C7  UNL     1       5.137  56.771   0.857  1.00  0.00     0.153 A 
HETATM    2  N3  UNL     1       4.060  57.355   1.392  1.00  0.00    -0.334 N 
ATOM      3  H3  UNL     1       3.345  56.773   1.828  1.00  0.00     0.168 HD
HETATM    4  C8  UNL     1       3.892  58.707   1.370  1.00  0.00     0.199 A 
HETATM    5  N4  UNL     1       4.866  59.419   0.782  1.00  0.00    -0.286 N 
ATOM      6  H4  UNL     1       4.763  60.433   0.753  1.00  0.00     0.188 HD
HETATM    7  N5  UNL     1       5.950  58.895   0.239  1.00  0.00    -0.211 N 
HETATM    8  C9  UNL     1       7.039  59.381  -0.393  1.00  0.00     0.186 A 
HETATM    9  C10 UNL     1       7.879  58.355  -0.763  1.00  0.00     0.064 A 
HETATM   10  N7  UNL     1       7.278  57.231  -0.342  1.00  0.00    -0.338 N 
ATOM     11  H7  UNL     1       7.640  56.284  -0.459  1.00  0.00     0.167 HD
HETATM   12  C19 UNL     1       6.100  57.564   0.269  1.00  0.00     0.174 A 
ENDROOT
BRANCH   9  13
HETATM   13  C11 UNL     1       9.203  58.443  -1.488  1.00  0.00     0.062 C 
BRANCH  13  14
HETATM   14  C12 UNL     1       9.568  57.069  -1.994  1.00  0.00     0.012 C 
BRANCH  14  15
HETATM   15  C13 UNL     1      10.958  56.656  -1.691  1.00  0.00     0.057 C 
BRANCH  15  16
HETATM   16  C14 UNL     1      10.966  55.471  -0.812  1.00  0.00     0.009 A 
HETATM   17  C15 UNL     1      10.399  55.489   0.448  1.00  0.00     0.028 A 
HETATM   18  C16 UNL     1      10.459  54.335   1.197  1.00  0.00     0.045 A 
HETATM   19  C17 UNL     1      11.063  53.179   0.728  1.00  0.00     0.131 A 
HETATM   20  F1  UNL     1      11.115  52.050   1.477  1.00  0.00    -0.205 F 
HETATM   21  C18 UNL     1      11.612  53.208  -0.530  1.00  0.00     0.130 A 
HETATM   22  N6  UNL     1      11.561  54.330  -1.274  1.00  0.00    -0.366 N 
ATOM     23  H6  UNL     1      11.976  54.328  -2.206  1.00  0.00     0.165 HD
ENDBRANCH  15  16
ENDBRANCH  14  15
ENDBRANCH  13  14
ENDBRANCH   9  13
BRANCH   8  24
HETATM   24  O1  UNL     1       7.253  60.733  -0.622  1.00  0.00    -0.343 OA
ATOM     25  H1  UNL     1       7.169  61.399   0.050  1.00  0.00     0.219 HD
ENDBRANCH   8  24
BRANCH   1  26
HETATM   26  N2  UNL     1       5.303  55.522   0.876  1.00  0.00    -0.339 N 
ATOM     27  H2  UNL     1       4.736  55.000   0.207  1.00  0.00     0.167 HD
BRANCH  26  28
HETATM   28  C6  UNL     1       6.143  54.741   1.675  1.00  0.00     0.042 A 
HETATM   29  C2  UNL     1       6.703  53.569   1.215  1.00  0.00    -0.020 A 
HETATM   30  C1  UNL     1       6.378  53.167  -0.166  1.00  0.00     0.052 C 
HETATM   31  C3  UNL     1       7.536  52.790   1.996  1.00  0.00     0.096 A 
HETATM   32  N1  UNL     1       7.816  53.183   3.251  1.00  0.00    -0.375 N 
HETATM   33  C4  UNL     1       7.289  54.318   3.734  1.00  0.00     0.090 A 
ATOM     34  H1  UNL     1       8.429  52.617   3.837  1.00  0.00     0.164 HD
HETATM   35  C5  UNL     1       6.442  55.124   2.964  1.00  0.00     0.047 A 
ENDBRANCH  26  28
ENDBRANCH   1  26
TORSDOF 7
ENDMDL
MODEL 2
REMARK VINA RESULT: -8.917619504      1.340      1.925
REMARK  7 active torsions:
REMARK  status: ('A' for Active; 'I' for Inactive)
REMARK    1  A    between atoms: C6_8  and  N2_9 
REMARK    2  A    between atoms: N2_9  and  C7_11 
REMARK    3  A    between atoms: C9_18  and  O1_19 
REMARK    4  A    between atoms: C10_21  and  C11_22 
REMARK    5  A    between atoms: C11_22  and  C12_23 
REMARK    6  A    between atoms: C12_23  and  C13_24 
REMARK    7  A    between atoms: C13_24  and  C14_25 
ROOT
HETATM    1  C7  UNL     1       6.255  57.535   0.139  1.00  0.00     0.153 A 
HETATM    2  N3  UNL     1       5.489  58.597   0.407  1.00  0.00    -0.334 N 
ATOM      3  H3  UNL     1       4.600  58.460   0.889  1.00  0.00     0.168 HD
HETATM    4  C8  UNL     1       5.864  59.859   0.055  1.00  0.00     0.199 A 
HETATM    5  N4  UNL     1       7.043  59.975  -0.576  1.00  0.00    -0.286 N 
ATOM      6  H4  UNL     1       7.345  60.910  -0.850  1.00  0.00     0.188 HD
HETATM    7  N5  UNL     1       7.838  58.962  -0.865  1.00  0.00    -0.211 N 
HETATM    8  C9  UNL     1       9.035  58.823  -1.474  1.00  0.00     0.186 A 
HETATM    9  C10 UNL     1       9.409  57.498  -1.505  1.00  0.00     0.064 A 
HETATM   10  N7  UNL     1       8.412  56.831  -0.900  1.00  0.00    -0.338 N 
ATOM     11  H7  UNL     1       8.375  55.822  -0.756  1.00  0.00     0.167 HD
HETATM   12  C19 UNL     1       7.455  57.728  -0.511  1.00  0.00     0.174 A 
ENDROOT
BRANCH   9  13
HETATM   13  C11 UNL     1      10.666  56.892  -2.086  1.00  0.00     0.062 C 
BRANCH  13  14
HETATM   14  C12 UNL     1      10.804  55.480  -1.572  1.00  0.00     0.012 C 
BRANCH  14  15
HETATM   15  C13 UNL     1      10.897  55.374  -0.098  1.00  0.00     0.057 C 
BRANCH  15  16
HETATM   16  C14 UNL     1      11.017  53.962   0.314  1.00  0.00     0.009 A 
HETATM   17  C15 UNL     1      10.090  53.008  -0.060  1.00  0.00     0.028 A 
HETATM   18  C16 UNL     1      10.284  51.717   0.375  1.00  0.00     0.045 A 
HETATM   19  C17 UNL     1      11.365  51.357   1.166  1.00  0.00     0.131 A 
HETATM   20  F1  UNL     1      11.542  50.082   1.588  1.00  0.00    -0.205 F 
HETATM   21  C18 UNL     1      12.260  52.338   1.512  1.00  0.00     0.130 A 
HETATM   22  N6  UNL     1      12.083  53.606   1.093  1.00  0.00    -0.366 N 
ATOM     23  H6  UNL     1      12.761  54.319   1.363  1.00  0.00     0.165 HD
ENDBRANCH  15  16
ENDBRANCH  14  15
ENDBRANCH  13  14
ENDBRANCH   9  13
BRANCH   8  24
HETATM   24  O1  UNL     1       9.762  59.887  -1.987  1.00  0.00    -0.343 OA
ATOM     25  H1  UNL     1      10.259  60.492  -1.448  1.00  0.00     0.219 HD
ENDBRANCH   8  24
BRANCH   1  26
HETATM   26  N2  UNL     1       5.917  56.365   0.465  1.00  0.00    -0.339 N 
ATOM     27  H2  UNL     1       5.169  55.958  -0.097  1.00  0.00     0.167 HD
BRANCH  26  28
HETATM   28  C6  UNL     1       6.411  55.540   1.480  1.00  0.00     0.042 A 
HETATM   29  C2  UNL     1       6.762  54.228   1.245  1.00  0.00    -0.020 A 
HETATM   30  C1  UNL     1       6.596  53.725  -0.131  1.00  0.00     0.052 C 
HETATM   31  C3  UNL     1       7.253  53.403   2.241  1.00  0.00     0.096 A 
HETATM   32  N1  UNL     1       7.395  53.891   3.486  1.00  0.00    -0.375 N 
HETATM   33  C4  UNL     1       7.062  55.163   3.753  1.00  0.00     0.090 A 
ATOM     34  H1  UNL     1       7.756  53.293   4.229  1.00  0.00     0.164 HD
HETATM   35  C5  UNL     1       6.564  56.018   2.762  1.00  0.00     0.047 A 
ENDBRANCH  26  28
ENDBRANCH   1  26
TORSDOF 7
ENDMDL
MODEL 3
REMARK VINA RESULT: -8.872980604      3.082      7.282
REMARK  7 active torsions:
REMARK  status: ('A' for Active; 'I' for Inactive)
REMARK    1  A    between atoms: C6_8  and  N2_9 
REMARK    2  A    between atoms: N2_9  and  C7_11 
REMARK    3  A    between atoms: C9_18  and  O1_19 
REMARK    4  A    between atoms: C10_21  and  C11_22 
REMARK    5  A    between atoms: C11_22  and  C12_23 
REMARK    6  A    between atoms: C12_23  and  C13_24 
REMARK    7  A    between atoms: C13_24  and  C14_25 
ROOT
HETATM    1  C7  UNL     1      10.226  54.668  -0.600  1.00  0.00     0.153 A 
HETATM    2  N3  UNL     1      11.465  54.372  -0.194  1.00  0.00    -0.334 N 
ATOM      3  H3  UNL     1      12.260  54.715  -0.735  1.00  0.00     0.168 HD
HETATM    4  C8  UNL     1      11.696  53.625   0.922  1.00  0.00     0.199 A 
HETATM    5  N4  UNL     1      10.611  53.203   1.590  1.00  0.00    -0.286 N 
ATOM      6  H4  UNL     1      10.758  52.642   2.429  1.00  0.00     0.188 HD
HETATM    7  N5  UNL     1       9.367  53.465   1.235  1.00  0.00    -0.211 N 
HETATM    8  C9  UNL     1       8.145  53.165   1.724  1.00  0.00     0.186 A 
HETATM    9  C10 UNL     1       7.161  53.713   0.931  1.00  0.00     0.064 A 
HETATM   10  N7  UNL     1       7.811  54.354  -0.053  1.00  0.00    -0.338 N 
ATOM     11  H7  UNL     1       7.372  54.871  -0.816  1.00  0.00     0.167 HD
HETATM   12  C19 UNL     1       9.157  54.201   0.136  1.00  0.00     0.174 A 
ENDROOT
BRANCH   9  13
HETATM   13  C11 UNL     1       5.661  53.628   1.105  1.00  0.00     0.062 C 
BRANCH  13  14
HETATM   14  C12 UNL     1       5.219  54.735   2.031  1.00  0.00     0.012 C 
BRANCH  14  15
HETATM   15  C13 UNL     1       4.056  55.511   1.543  1.00  0.00     0.057 C 
BRANCH  15  16
HETATM   16  C14 UNL     1       4.454  56.894   1.218  1.00  0.00     0.009 A 
HETATM   17  C15 UNL     1       5.519  57.173   0.382  1.00  0.00     0.028 A 
HETATM   18  C16 UNL     1       5.817  58.495   0.140  1.00  0.00     0.045 A 
HETATM   19  C17 UNL     1       5.091  59.533   0.704  1.00  0.00     0.131 A 
HETATM   20  F1  UNL     1       5.397  60.829   0.457  1.00  0.00    -0.205 F 
HETATM   21  C18 UNL     1       4.042  59.207   1.527  1.00  0.00     0.130 A 
HETATM   22  N6  UNL     1       3.738  57.918   1.772  1.00  0.00    -0.366 N 
ATOM     23  H6  UNL     1       2.954  57.700   2.387  1.00  0.00     0.165 HD
ENDBRANCH  15  16
ENDBRANCH  14  15
ENDBRANCH  13  14
ENDBRANCH   9  13
BRANCH   8  24
HETATM   24  O1  UNL     1       7.941  52.408   2.868  1.00  0.00    -0.343 OA
ATOM     25  H1  UNL     1       7.934  51.457   2.874  1.00  0.00     0.219 HD
ENDBRANCH   8  24
BRANCH   1  26
HETATM   26  N2  UNL     1      10.004  55.361  -1.629  1.00  0.00    -0.339 N 
ATOM     27  H2  UNL     1       9.812  54.828  -2.476  1.00  0.00     0.167 HD
BRANCH  26  28
HETATM   28  C6  UNL     1       9.982  56.750  -1.786  1.00  0.00     0.042 A 
HETATM   29  C2  UNL     1      10.864  57.403  -2.618  1.00  0.00    -0.020 A 
HETATM   30  C1  UNL     1      11.842  56.572  -3.344  1.00  0.00     0.052 C 
HETATM   31  C3  UNL     1      10.850  58.776  -2.782  1.00  0.00     0.096 A 
HETATM   32  N1  UNL     1       9.945  59.508  -2.107  1.00  0.00    -0.375 N 
HETATM   33  C4  UNL     1       9.071  58.907  -1.287  1.00  0.00     0.090 A 
ATOM     34  H1  UNL     1       9.924  60.521  -2.220  1.00  0.00     0.164 HD
HETATM   35  C5  UNL     1       9.064  57.519  -1.104  1.00  0.00     0.047 A 
ENDBRANCH  26  28
ENDBRANCH   1  26
TORSDOF 7
ENDMDL
MODEL 4
REMARK VINA RESULT: -8.869527845      2.382      5.683
REMARK  7 active torsions:
REMARK  status: ('A' for Active; 'I' for Inactive)
REMARK    1  A    between atoms: C6_8  and  N2_9 
REMARK    2  A    between atoms: N2_9  and  C7_11 
REMARK    3  A    between atoms: C9_18  and  O1_19 
REMARK    4  A    between atoms: C10_21  and  C11_22 
REMARK    5  A    between atoms: C11_22  and  C12_23 
REMARK    6  A    between atoms: C12_23  and  C13_24 
REMARK    7  A    between atoms: C13_24  and  C14_25 
ROOT
HETATM    1  C7  UNL     1      10.104  54.352   0.597  1.00  0.00     0.153 A 
HETATM    2  N3  UNL     1      10.900  53.302   0.369  1.00  0.00    -0.334 N 
ATOM      3  H3  UNL     1      10.869  52.508   1.008  1.00  0.00     0.168 HD
HETATM    4  C8  UNL     1      11.751  53.264  -0.695  1.00  0.00     0.199 A 
HETATM    5  N4  UNL     1      11.746  54.339  -1.499  1.00  0.00    -0.286 N 
ATOM      6  H4  UNL     1      12.375  54.334  -2.303  1.00  0.00     0.188 HD
HETATM    7  N5  UNL     1      10.982  55.401  -1.322  1.00  0.00    -0.211 N 
HETATM    8  C9  UNL     1      10.799  56.571  -1.969  1.00  0.00     0.186 A 
HETATM    9  C10 UNL     1       9.850  57.333  -1.326  1.00  0.00     0.064 A 
HETATM   10  N7  UNL     1       9.457  56.601  -0.271  1.00  0.00    -0.338 N 
ATOM     11  H7  UNL     1       8.757  56.879   0.417  1.00  0.00     0.167 HD
HETATM   12  C19 UNL     1      10.151  55.422  -0.272  1.00  0.00     0.174 A 
ENDROOT
BRANCH   9  13
HETATM   13  C11 UNL     1       9.336  58.705  -1.703  1.00  0.00     0.062 C 
BRANCH  13  14
HETATM   14  C12 UNL     1       8.556  59.265  -0.538  1.00  0.00     0.012 C 
BRANCH  14  15
HETATM   15  C13 UNL     1       7.174  59.678  -0.872  1.00  0.00     0.057 C 
BRANCH  15  16
HETATM   16  C14 UNL     1       6.194  58.791  -0.215  1.00  0.00     0.009 A 
HETATM   17  C15 UNL     1       6.235  57.418  -0.363  1.00  0.00     0.028 A 
HETATM   18  C16 UNL     1       5.277  56.672   0.285  1.00  0.00     0.045 A 
HETATM   19  C17 UNL     1       4.290  57.254   1.067  1.00  0.00     0.131 A 
HETATM   20  F1  UNL     1       3.353  56.507   1.698  1.00  0.00    -0.205 F 
HETATM   21  C18 UNL     1       4.290  58.622   1.185  1.00  0.00     0.130 A 
HETATM   22  N6  UNL     1       5.222  59.364   0.556  1.00  0.00    -0.366 N 
ATOM     23  H6  UNL     1       5.202  60.379   0.659  1.00  0.00     0.165 HD
ENDBRANCH  15  16
ENDBRANCH  14  15
ENDBRANCH  13  14
ENDBRANCH   9  13
BRANCH   8  24
HETATM   24  O1  UNL     1      11.487  56.927  -3.120  1.00  0.00    -0.343 OA
ATOM     25  H1  UNL     1      12.240  57.506  -3.124  1.00  0.00     0.219 HD
ENDBRANCH   8  24
BRANCH   1  26
HETATM   26  N2  UNL     1       9.312  54.393   1.576  1.00  0.00    -0.339 N 
ATOM     27  H2  UNL     1       9.715  54.745   2.444  1.00  0.00     0.167 HD
BRANCH  26  28
HETATM   28  C6  UNL     1       7.964  54.031   1.654  1.00  0.00     0.042 A 
HETATM   29  C2  UNL     1       7.128  54.542   2.623  1.00  0.00    -0.020 A 
HETATM   30  C1  UNL     1       7.715  55.495   3.581  1.00  0.00     0.052 C 
HETATM   31  C3  UNL     1       5.793  54.191   2.708  1.00  0.00     0.096 A 
HETATM   32  N1  UNL     1       5.285  53.320   1.818  1.00  0.00    -0.375 N 
HETATM   33  C4  UNL     1       6.069  52.801   0.861  1.00  0.00     0.090 A 
ATOM     34  H1  UNL     1       4.302  53.054   1.870  1.00  0.00     0.164 HD
HETATM   35  C5  UNL     1       7.423  53.140   0.753  1.00  0.00     0.047 A 
ENDBRANCH  26  28
ENDBRANCH   1  26
TORSDOF 7
ENDMDL
MODEL 5
REMARK VINA RESULT: -8.781845766      3.645      6.647
REMARK  7 active torsions:
REMARK  status: ('A' for Active; 'I' for Inactive)
REMARK    1  A    between atoms: C6_8  and  N2_9 
REMARK    2  A    between atoms: N2_9  and  C7_11 
REMARK    3  A    between atoms: C9_18  and  O1_19 
REMARK    4  A    between atoms: C10_21  and  C11_22 
REMARK    5  A    between atoms: C11_22  and  C12_23 
REMARK    6  A    between atoms: C12_23  and  C13_24 
REMARK    7  A    between atoms: C13_24  and  C14_25 
ROOT
HETATM    1  C7  UNL     1       8.713  50.842   2.230  1.00  0.00     0.153 A 
HETATM    2  N3  UNL     1       9.343  49.672   2.091  1.00  0.00    -0.334 N 
ATOM      3  H3  UNL     1       8.909  48.827   2.464  1.00  0.00     0.168 HD
HETATM    4  C8  UNL     1      10.549  49.575   1.464  1.00  0.00     0.199 A 
HETATM    5  N4  UNL     1      11.069  50.721   0.995  1.00  0.00    -0.286 N 
ATOM      6  H4  UNL     1      11.971  50.675   0.522  1.00  0.00     0.188 HD
HETATM    7  N5  UNL     1      10.491  51.903   1.104  1.00  0.00    -0.211 N 
HETATM    8  C9  UNL     1      10.801  53.162   0.729  1.00  0.00     0.186 A 
HETATM    9  C10 UNL     1       9.808  54.036   1.112  1.00  0.00     0.064 A 
HETATM   10  N7  UNL     1       8.885  53.282   1.729  1.00  0.00    -0.338 N 
ATOM     11  H7  UNL     1       8.014  53.623   2.136  1.00  0.00     0.167 HD
HETATM   12  C19 UNL     1       9.306  51.980   1.723  1.00  0.00     0.174 A 
ENDROOT
BRANCH   9  13
HETATM   13  C11 UNL     1       9.742  55.532   0.897  1.00  0.00     0.062 C 
BRANCH  13  14
HETATM   14  C12 UNL     1       9.034  55.801  -0.409  1.00  0.00     0.012 C 
BRANCH  14  15
HETATM   15  C13 UNL     1       7.700  55.168  -0.521  1.00  0.00     0.057 C 
BRANCH  15  16
HETATM   16  C14 UNL     1       6.653  56.065   0.005  1.00  0.00     0.009 A 
HETATM   17  C15 UNL     1       6.614  57.410  -0.312  1.00  0.00     0.028 A 
HETATM   18  C16 UNL     1       5.601  58.169   0.230  1.00  0.00     0.045 A 
HETATM   19  C17 UNL     1       4.639  57.628   1.069  1.00  0.00     0.131 A 
HETATM   20  F1  UNL     1       3.648  58.388   1.595  1.00  0.00    -0.205 F 
HETATM   21  C18 UNL     1       4.718  56.288   1.354  1.00  0.00     0.130 A 
HETATM   22  N6  UNL     1       5.704  55.533   0.831  1.00  0.00    -0.366 N 
ATOM     23  H6  UNL     1       5.742  54.539   1.058  1.00  0.00     0.165 HD
ENDBRANCH  15  16
ENDBRANCH  14  15
ENDBRANCH  13  14
ENDBRANCH   9  13
BRANCH   8  24
HETATM   24  O1  UNL     1      11.965  53.496   0.053  1.00  0.00    -0.343 OA
ATOM     25  H1  UNL     1      12.177  53.178  -0.817  1.00  0.00     0.219 HD
ENDBRANCH   8  24
BRANCH   1  26
HETATM   26  N2  UNL     1       7.596  50.939   2.805  1.00  0.00    -0.339 N 
ATOM     27  H2  UNL     1       7.633  51.263   3.771  1.00  0.00     0.167 HD
BRANCH  26  28
HETATM   28  C6  UNL     1       6.312  50.670   2.320  1.00  0.00     0.042 A 
HETATM   29  C2  UNL     1       5.468  49.780   2.949  1.00  0.00    -0.020 A 
HETATM   30  C1  UNL     1       5.976  49.118   4.164  1.00  0.00     0.052 C 
HETATM   31  C3  UNL     1       4.197  49.508   2.479  1.00  0.00     0.096 A 
HETATM   32  N1  UNL     1       3.760  50.129   1.370  1.00  0.00    -0.375 N 
HETATM   33  C4  UNL     1       4.554  51.000   0.729  1.00  0.00     0.090 A 
ATOM     34  H1  UNL     1       2.824  49.937   1.013  1.00  0.00     0.164 HD
HETATM   35  C5  UNL     1       5.845  51.294   1.185  1.00  0.00     0.047 A 
ENDBRANCH  26  28
ENDBRANCH   1  26
TORSDOF 7
ENDMDL
