MODEL 1
REMARK VINA RESULT: -8.387036464      0.000      0.000
REMARK  7 active torsions:
REMARK  status: ('A' for Active; 'I' for Inactive)
REMARK    1  A    between atoms: N1_1  and  C1_4 
REMARK    2  A    between atoms: C2_9  and  S1_10 
REMARK    3  A    between atoms: S1_10  and  C3_11 
REMARK    4  A    between atoms: C3_11  and  C4_12 
REMARK    5  A    between atoms: C7_15  and  S2_16 
REMARK    6  A    between atoms: S2_16  and  N4_18 
REMARK    7  A    between atoms: N4_18  and  C8_20 
ROOT
HETATM    1  C4  UNL     1       6.361  53.522   2.404  1.00  0.00    -0.033 A 
HETATM    2  C5  UNL     1       5.601  53.805   1.288  1.00  0.00     0.012 A 
HETATM    3  C6  UNL     1       5.256  55.085   0.979  1.00  0.00     0.042 A 
HETATM    4  C7  UNL     1       5.665  56.142   1.783  1.00  0.00     0.121 A 
HETATM    5  N5  UNL     1       6.405  55.865   2.867  1.00  0.00    -0.357 N 
ATOM      6  H5  UNL     1       6.714  56.628   3.468  1.00  0.00     0.166 HD
HETATM    7  C14 UNL     1       6.752  54.590   3.181  1.00  0.00     0.096 A 
ENDROOT
BRANCH   1   8
HETATM    8  C3  UNL     1       6.701  52.126   2.685  1.00  0.00     0.121 C 
BRANCH   8   9
HETATM    9  S1  UNL     1       7.609  51.321   1.362  1.00  0.00    -0.099 SA
BRANCH   9  10
HETATM   10  C2  UNL     1       9.285  52.007   1.372  1.00  0.00     0.130 A 
HETATM   11  N3  UNL     1       9.656  53.278   1.377  1.00  0.00    -0.286 N 
HETATM   12  N2  UNL     1      10.888  53.585   1.384  1.00  0.00    -0.279 N 
ATOM     13  H3  UNL     1       8.949  54.012   1.376  1.00  0.00     0.188 HD
HETATM   14  C1  UNL     1      11.793  52.600   1.384  1.00  0.00     0.159 A 
ATOM     15  H2  UNL     1      11.181  54.563   1.390  1.00  0.00     0.189 HD
HETATM   16  S3  UNL     1      10.797  51.213   1.375  1.00  0.00    -0.027 SA
BRANCH  14  17
HETATM   17  N1  UNL     1      13.099  52.746   1.390  1.00  0.00    -0.379 N 
ATOM     18  H12 UNL     1      13.698  53.528   1.656  1.00  0.00     0.158 HD
ATOM     19  H11 UNL     1      13.785  52.046   1.107  1.00  0.00     0.158 HD
ENDBRANCH  14  17
ENDBRANCH   9  10
ENDBRANCH   8   9
ENDBRANCH   1   8
BRANCH   4  20
HETATM   20  S2  UNL     1       5.187  57.824   1.337  1.00  0.00     0.168 S 
HETATM   21  O1  UNL     1       3.720  58.438   2.055  1.00  0.00    -0.228 OA
BRANCH  20  22
HETATM   22  N4  UNL     1       5.688  58.440  -0.067  1.00  0.00    -0.298 N 
ATOM     23  H4  UNL     1       5.041  58.995  -0.627  1.00  0.00     0.177 HD
BRANCH  22  24
HETATM   24  C8  UNL     1       7.002  58.225  -0.539  1.00  0.00     0.079 A 
HETATM   25  C9  UNL     1       7.542  56.961  -0.575  1.00  0.00     0.033 A 
HETATM   26  C10 UNL     1       8.843  56.807  -1.050  1.00  0.00     0.002 A 
HETATM   27  C11 UNL     1       9.601  57.865  -1.479  1.00  0.00     0.003 A 
HETATM   28  C12 UNL     1       9.041  59.125  -1.434  1.00  0.00     0.044 A 
HETATM   29  C13 UNL     1       7.758  59.285  -0.968  1.00  0.00     0.143 A 
HETATM   30  F1  UNL     1       7.215  60.534  -0.928  1.00  0.00    -0.204 F 
ENDBRANCH  22  24
ENDBRANCH  20  22
ENDBRANCH   4  20
TORSDOF 7
ENDMDL
MODEL 2
REMARK VINA RESULT: -8.363291009      2.940      4.027
REMARK  7 active torsions:
REMARK  status: ('A' for Active; 'I' for Inactive)
REMARK    1  A    between atoms: N1_1  and  C1_4 
REMARK    2  A    between atoms: C2_9  and  S1_10 
REMARK    3  A    between atoms: S1_10  and  C3_11 
REMARK    4  A    between atoms: C3_11  and  C4_12 
REMARK    5  A    between atoms: C7_15  and  S2_16 
REMARK    6  A    between atoms: S2_16  and  N4_18 
REMARK    7  A    between atoms: N4_18  and  C8_20 
ROOT
HETATM    1  C4  UNL     1       6.936  53.597   2.500  1.00  0.00    -0.033 A 
HETATM    2  C5  UNL     1       6.163  53.714   1.363  1.00  0.00     0.012 A 
HETATM    3  C6  UNL     1       5.632  54.911   0.996  1.00  0.00     0.042 A 
HETATM    4  C7  UNL     1       5.856  56.051   1.759  1.00  0.00     0.121 A 
HETATM    5  N5  UNL     1       6.608  55.935   2.864  1.00  0.00    -0.357 N 
ATOM      6  H5  UNL     1       6.783  56.760   3.436  1.00  0.00     0.166 HD
HETATM    7  C14 UNL     1       7.142  54.743   3.237  1.00  0.00     0.096 A 
ENDROOT
BRANCH   1   8
HETATM    8  C3  UNL     1       7.482  52.283   2.846  1.00  0.00     0.121 C 
BRANCH   8   9
HETATM    9  S1  UNL     1       6.997  50.977   1.713  1.00  0.00    -0.099 SA
BRANCH   9  10
HETATM   10  C2  UNL     1       5.585  50.123   2.459  1.00  0.00     0.130 A 
HETATM   11  N3  UNL     1       4.329  50.091   2.045  1.00  0.00    -0.286 N 
HETATM   12  N2  UNL     1       3.457  49.434   2.695  1.00  0.00    -0.279 N 
ATOM     13  H3  UNL     1       4.059  50.595   1.201  1.00  0.00     0.188 HD
HETATM   14  C1  UNL     1       3.839  48.783   3.799  1.00  0.00     0.159 A 
ATOM     15  H2  UNL     1       2.487  49.404   2.381  1.00  0.00     0.189 HD
HETATM   16  S3  UNL     1       5.505  49.154   3.864  1.00  0.00    -0.027 SA
BRANCH  14  17
HETATM   17  N1  UNL     1       3.067  48.063   4.582  1.00  0.00    -0.379 N 
ATOM     18  H12 UNL     1       2.413  47.306   4.387  1.00  0.00     0.158 HD
ATOM     19  H11 UNL     1       2.988  48.150   5.596  1.00  0.00     0.158 HD
ENDBRANCH  14  17
ENDBRANCH   9  10
ENDBRANCH   8   9
ENDBRANCH   1   8
BRANCH   4  20
HETATM   20  S2  UNL     1       5.132  57.618   1.236  1.00  0.00     0.168 S 
HETATM   21  O1  UNL     1       3.519  57.964   1.800  1.00  0.00    -0.228 OA
BRANCH  20  22
HETATM   22  N4  UNL     1       5.649  58.308  -0.128  1.00  0.00    -0.298 N 
ATOM     23  H4  UNL     1       5.000  58.868  -0.681  1.00  0.00     0.177 HD
BRANCH  22  24
HETATM   24  C8  UNL     1       6.982  58.154  -0.573  1.00  0.00     0.079 A 
HETATM   25  C9  UNL     1       7.558  56.909  -0.656  1.00  0.00     0.033 A 
HETATM   26  C10 UNL     1       8.875  56.815  -1.102  1.00  0.00     0.002 A 
HETATM   27  C11 UNL     1       9.613  57.914  -1.458  1.00  0.00     0.003 A 
HETATM   28  C12 UNL     1       9.015  59.153  -1.367  1.00  0.00     0.044 A 
HETATM   29  C13 UNL     1       7.716  59.255  -0.929  1.00  0.00     0.143 A 
HETATM   30  F1  UNL     1       7.137  60.484  -0.843  1.00  0.00    -0.204 F 
ENDBRANCH  22  24
ENDBRANCH  20  22
ENDBRANCH   4  20
TORSDOF 7
ENDMDL
MODEL 3
REMARK VINA RESULT: -8.243299259      3.657      5.188
REMARK  7 active torsions:
REMARK  status: ('A' for Active; 'I' for Inactive)
REMARK    1  A    between atoms: N1_1  and  C1_4 
REMARK    2  A    between atoms: C2_9  and  S1_10 
REMARK    3  A    between atoms: S1_10  and  C3_11 
REMARK    4  A    between atoms: C3_11  and  C4_12 
REMARK    5  A    between atoms: C7_15  and  S2_16 
REMARK    6  A    between atoms: S2_16  and  N4_18 
REMARK    7  A    between atoms: N4_18  and  C8_20 
ROOT
HETATM    1  C4  UNL     1       9.120  51.479   0.696  1.00  0.00    -0.033 A 
HETATM    2  C5  UNL     1       8.305  52.480   1.182  1.00  0.00     0.012 A 
HETATM    3  C6  UNL     1       8.493  53.777   0.818  1.00  0.00     0.042 A 
HETATM    4  C7  UNL     1       9.515  54.126  -0.058  1.00  0.00     0.121 A 
HETATM    5  N5  UNL     1      10.305  53.151  -0.530  1.00  0.00    -0.357 N 
ATOM      6  H5  UNL     1      11.060  53.389  -1.173  1.00  0.00     0.166 HD
HETATM    7  C14 UNL     1      10.123  51.854  -0.170  1.00  0.00     0.096 A 
ENDROOT
BRANCH   1   8
HETATM    8  C3  UNL     1       8.869  50.101   1.123  1.00  0.00     0.121 C 
BRANCH   8   9
HETATM    9  S1  UNL     1       8.446  49.947   2.861  1.00  0.00    -0.099 SA
BRANCH   9  10
HETATM   10  C2  UNL     1       6.657  49.684   2.953  1.00  0.00     0.130 A 
HETATM   11  N3  UNL     1       5.717  50.119   2.130  1.00  0.00    -0.286 N 
HETATM   12  N2  UNL     1       4.497  49.838   2.346  1.00  0.00    -0.279 N 
ATOM     13  H3  UNL     1       5.973  50.684   1.321  1.00  0.00     0.188 HD
HETATM   14  C1  UNL     1       4.191  49.097   3.417  1.00  0.00     0.159 A 
ATOM     15  H2  UNL     1       3.767  50.170   1.715  1.00  0.00     0.189 HD
HETATM   16  S3  UNL     1       5.732  48.822   4.101  1.00  0.00    -0.027 SA
BRANCH  14  17
HETATM   17  N1  UNL     1       2.986  48.721   3.781  1.00  0.00    -0.379 N 
ATOM     18  H12 UNL     1       2.087  49.201   3.766  1.00  0.00     0.158 HD
ATOM     19  H11 UNL     1       2.730  47.814   4.171  1.00  0.00     0.158 HD
ENDBRANCH  14  17
ENDBRANCH   9  10
ENDBRANCH   8   9
ENDBRANCH   1   8
BRANCH   4  20
HETATM   20  S2  UNL     1       9.729  55.858  -0.515  1.00  0.00     0.168 S 
HETATM   21  O1  UNL     1      10.699  56.837   0.554  1.00  0.00    -0.228 OA
BRANCH  20  22
HETATM   22  N4  UNL     1       8.614  56.574  -1.435  1.00  0.00    -0.298 N 
ATOM     23  H4  UNL     1       8.517  56.293  -2.411  1.00  0.00     0.177 HD
BRANCH  22  24
HETATM   24  C8  UNL     1       7.769  57.583  -0.919  1.00  0.00     0.079 A 
HETATM   25  C9  UNL     1       8.147  58.904  -0.952  1.00  0.00     0.033 A 
HETATM   26  C10 UNL     1       7.276  59.858  -0.429  1.00  0.00     0.002 A 
HETATM   27  C11 UNL     1       6.061  59.527   0.114  1.00  0.00     0.003 A 
HETATM   28  C12 UNL     1       5.702  58.196   0.137  1.00  0.00     0.044 A 
HETATM   29  C13 UNL     1       6.556  57.249  -0.377  1.00  0.00     0.143 A 
HETATM   30  F1  UNL     1       6.190  55.938  -0.349  1.00  0.00    -0.204 F 
ENDBRANCH  22  24
ENDBRANCH  20  22
ENDBRANCH   4  20
TORSDOF 7
ENDMDL
MODEL 4
REMARK VINA RESULT: -8.189629380      3.580      5.056
REMARK  7 active torsions:
REMARK  status: ('A' for Active; 'I' for Inactive)
REMARK    1  A    between atoms: N1_1  and  C1_4 
REMARK    2  A    between atoms: C2_9  and  S1_10 
REMARK    3  A    between atoms: S1_10  and  C3_11 
REMARK    4  A    between atoms: C3_11  and  C4_12 
REMARK    5  A    between atoms: C7_15  and  S2_16 
REMARK    6  A    between atoms: S2_16  and  N4_18 
REMARK    7  A    between atoms: N4_18  and  C8_20 
ROOT
HETATM    1  C4  UNL     1       9.064  51.481   0.698  1.00  0.00    -0.033 A 
HETATM    2  C5  UNL     1       8.233  52.482   1.156  1.00  0.00     0.012 A 
HETATM    3  C6  UNL     1       8.432  53.779   0.795  1.00  0.00     0.042 A 
HETATM    4  C7  UNL     1       9.481  54.127  -0.048  1.00  0.00     0.121 A 
HETATM    5  N5  UNL     1      10.287  53.150  -0.492  1.00  0.00    -0.357 N 
ATOM      6  H5  UNL     1      11.061  53.387  -1.112  1.00  0.00     0.166 HD
HETATM    7  C14 UNL     1      10.094  51.854  -0.135  1.00  0.00     0.096 A 
ENDROOT
BRANCH   1   8
HETATM    8  C3  UNL     1       8.800  50.103   1.121  1.00  0.00     0.121 C 
BRANCH   8   9
HETATM    9  S1  UNL     1       8.395  49.945   2.863  1.00  0.00    -0.099 SA
BRANCH   9  10
HETATM   10  C2  UNL     1       6.609  49.671   2.972  1.00  0.00     0.130 A 
HETATM   11  N3  UNL     1       5.658  50.097   2.156  1.00  0.00    -0.286 N 
HETATM   12  N2  UNL     1       4.443  49.809   2.384  1.00  0.00    -0.279 N 
ATOM     13  H3  UNL     1       5.903  50.659   1.342  1.00  0.00     0.188 HD
HETATM   14  C1  UNL     1       4.151  49.071   3.461  1.00  0.00     0.159 A 
ATOM     15  H2  UNL     1       3.704  50.133   1.759  1.00  0.00     0.189 HD
HETATM   16  S3  UNL     1       5.700  48.808   4.132  1.00  0.00    -0.027 SA
BRANCH  14  17
HETATM   17  N1  UNL     1       2.952  48.688   3.838  1.00  0.00    -0.379 N 
ATOM     18  H12 UNL     1       2.228  48.146   3.367  1.00  0.00     0.158 HD
ATOM     19  H11 UNL     1       2.511  48.885   4.737  1.00  0.00     0.158 HD
ENDBRANCH  14  17
ENDBRANCH   9  10
ENDBRANCH   8   9
ENDBRANCH   1   8
BRANCH   4  20
HETATM   20  S2  UNL     1       9.709  55.858  -0.503  1.00  0.00     0.168 S 
HETATM   21  O1  UNL     1      10.667  56.833   0.581  1.00  0.00    -0.228 OA
BRANCH  20  22
HETATM   22  N4  UNL     1       8.611  56.578  -1.439  1.00  0.00    -0.298 N 
ATOM     23  H4  UNL     1       8.532  56.303  -2.418  1.00  0.00     0.177 HD
BRANCH  22  24
HETATM   24  C8  UNL     1       7.755  57.582  -0.932  1.00  0.00     0.079 A 
HETATM   25  C9  UNL     1       6.551  57.257  -0.353  1.00  0.00     0.033 A 
HETATM   26  C10 UNL     1       5.747  58.287   0.130  1.00  0.00     0.002 A 
HETATM   27  C11 UNL     1       6.110  59.606   0.049  1.00  0.00     0.003 A 
HETATM   28  C12 UNL     1       7.322  59.910  -0.536  1.00  0.00     0.044 A 
HETATM   29  C13 UNL     1       8.122  58.900  -1.014  1.00  0.00     0.143 A 
HETATM   30  F1  UNL     1       9.316  59.212  -1.590  1.00  0.00    -0.204 F 
ENDBRANCH  22  24
ENDBRANCH  20  22
ENDBRANCH   4  20
TORSDOF 7
ENDMDL
MODEL 5
REMARK VINA RESULT: -8.185615922      1.066      1.232
REMARK  7 active torsions:
REMARK  status: ('A' for Active; 'I' for Inactive)
REMARK    1  A    between atoms: N1_1  and  C1_4 
REMARK    2  A    between atoms: C2_9  and  S1_10 
REMARK    3  A    between atoms: S1_10  and  C3_11 
REMARK    4  A    between atoms: C3_11  and  C4_12 
REMARK    5  A    between atoms: C7_15  and  S2_16 
REMARK    6  A    between atoms: S2_16  and  N4_18 
REMARK    7  A    between atoms: N4_18  and  C8_20 
ROOT
HETATM    1  C4  UNL     1       6.415  53.216   2.459  1.00  0.00    -0.033 A 
HETATM    2  C5  UNL     1       5.627  53.472   1.356  1.00  0.00     0.012 A 
HETATM    3  C6  UNL     1       5.230  54.738   1.055  1.00  0.00     0.042 A 
HETATM    4  C7  UNL     1       5.611  55.809   1.854  1.00  0.00     0.121 A 
HETATM    5  N5  UNL     1       6.378  55.558   2.926  1.00  0.00    -0.357 N 
ATOM      6  H5  UNL     1       6.667  56.332   3.524  1.00  0.00     0.166 HD
HETATM    7  C14 UNL     1       6.777  54.296   3.233  1.00  0.00     0.096 A 
ENDROOT
BRANCH   1   8
HETATM    8  C3  UNL     1       6.811  51.834   2.733  1.00  0.00     0.121 C 
BRANCH   8   9
HETATM    9  S1  UNL     1       7.980  51.167   1.544  1.00  0.00    -0.099 SA
BRANCH   9  10
HETATM   10  C2  UNL     1       9.195  52.465   1.206  1.00  0.00     0.130 A 
HETATM   11  N3  UNL     1      10.398  52.626   1.734  1.00  0.00    -0.286 N 
HETATM   12  N2  UNL     1      11.128  53.603   1.379  1.00  0.00    -0.279 N 
ATOM     13  H3  UNL     1      10.740  51.963   2.429  1.00  0.00     0.188 HD
HETATM   14  C1  UNL     1      10.652  54.458   0.466  1.00  0.00     0.159 A 
ATOM     15  H2  UNL     1      12.056  53.733   1.781  1.00  0.00     0.189 HD
HETATM   16  S3  UNL     1       9.111  53.797   0.139  1.00  0.00    -0.027 SA
BRANCH  14  17
HETATM   17  N1  UNL     1      11.275  55.515  -0.006  1.00  0.00    -0.379 N 
ATOM     18  H12 UNL     1      12.185  55.923   0.207  1.00  0.00     0.158 HD
ATOM     19  H11 UNL     1      10.923  56.152  -0.721  1.00  0.00     0.158 HD
ENDBRANCH  14  17
ENDBRANCH   9  10
ENDBRANCH   8   9
ENDBRANCH   1   8
BRANCH   4  20
HETATM   20  S2  UNL     1       5.063  57.472   1.419  1.00  0.00     0.168 S 
HETATM   21  O1  UNL     1       3.715  58.113   2.320  1.00  0.00    -0.228 OA
BRANCH  20  22
HETATM   22  N4  UNL     1       5.349  58.033  -0.066  1.00  0.00    -0.298 N 
ATOM     23  H4  UNL     1       4.562  58.241  -0.681  1.00  0.00     0.177 HD
BRANCH  22  24
HETATM   24  C8  UNL     1       6.666  58.240  -0.535  1.00  0.00     0.079 A 
HETATM   25  C9  UNL     1       7.516  57.180  -0.742  1.00  0.00     0.033 A 
HETATM   26  C10 UNL     1       8.804  57.441  -1.205  1.00  0.00     0.002 A 
HETATM   27  C11 UNL     1       9.252  58.712  -1.460  1.00  0.00     0.003 A 
HETATM   28  C12 UNL     1       8.383  59.761  -1.245  1.00  0.00     0.044 A 
HETATM   29  C13 UNL     1       7.111  59.511  -0.789  1.00  0.00     0.143 A 
HETATM   30  F1  UNL     1       6.261  60.555  -0.580  1.00  0.00    -0.204 F 
ENDBRANCH  22  24
ENDBRANCH  20  22
ENDBRANCH   4  20
TORSDOF 7
ENDMDL
