MODEL 1
REMARK VINA RESULT: -7.352805531      0.000      0.000
REMARK  9 active torsions:
REMARK  status: ('A' for Active; 'I' for Inactive)
REMARK    1  A    between atoms: C2_3  and  C3_4 
REMARK    2  A    between atoms: C4_5  and  C5_6 
REMARK    3  A    between atoms: N4_11  and  C6_12 
REMARK    4  A    between atoms: C7_13  and  C8_14 
REMARK    5  A    between atoms: C8_14  and  S1_15 
REMARK    6  A    between atoms: S1_15  and  N5_16 
REMARK    7  A    between atoms: C9_23  and  N7_24 
REMARK    8  A    between atoms: C11_31  and  N9_32 
REMARK    9  A    between atoms: N9_32  and  C12_34 
ROOT
HETATM    1  N1  UNL     1       7.411   7.135 -46.792  1.00  0.00    -0.197 NA
HETATM    2  C1  UNL     1       6.568   7.705 -47.379  1.00  0.00     0.062 C 
HETATM    3  C2  UNL     1       5.509   8.420 -48.090  1.00  0.00     0.151 C 
ENDROOT
BRANCH   3   4
HETATM    4  C3  UNL     1       4.564   7.421 -48.690  1.00  0.00    -0.010 C 
HETATM    5  C4  UNL     1       3.342   7.701 -49.015  1.00  0.00     0.032 C 
BRANCH   5   6
HETATM    6  C5  UNL     1       2.300   6.884 -49.599  1.00  0.00     0.095 A 
HETATM    7  N2  UNL     1       1.921   7.164 -50.919  1.00  0.00    -0.282 N 
HETATM    8  N3  UNL     1       0.947   6.373 -51.246  1.00  0.00    -0.233 N 
ATOM      9  H2  UNL     1       2.340   7.872 -51.521  1.00  0.00     0.188 HD
HETATM   10  N4  UNL     1       0.624   5.573 -50.272  1.00  0.00    -0.216 N 
ATOM     11  H3  UNL     1       0.489   6.377 -52.157  1.00  0.00     0.209 HD
HETATM   12  C11 UNL     1       1.489   5.885 -49.209  1.00  0.00     0.159 A 
BRANCH  10  13
HETATM   13  C6  UNL     1      -0.352   4.567 -50.172  1.00  0.00     0.152 A 
HETATM   14  C7  UNL     1       0.000   3.250 -50.467  1.00  0.00     0.076 A 
HETATM   15  N6  UNL     1      -0.931   2.288 -50.372  1.00  0.00    -0.192 N 
HETATM   16  C9  UNL     1      -2.206   2.593 -49.993  1.00  0.00     0.679 A 
ATOM     17  H6  UNL     1      -0.685   1.321 -50.585  1.00  0.00     0.184 HD
HETATM   18  N8  UNL     1      -2.564   3.851 -49.706  1.00  0.00    -0.154 N 
HETATM   19  C10 UNL     1      -1.661   4.840 -49.789  1.00  0.00     0.290 A 
ATOM     20  H8  UNL     1      -3.522   4.058 -49.425  1.00  0.00     0.187 HD
HETATM   21  O3  UNL     1      -1.953   6.049 -49.527  1.00  0.00    -0.265 OA
BRANCH  14  22
HETATM   22  C8  UNL     1       1.387   3.005 -50.872  1.00  0.00     0.223 C 
BRANCH  22  23
HETATM   23  S1  UNL     1       2.231   1.772 -49.955  1.00  0.00     0.229 S 
HETATM   24  O1  UNL     1       1.798   0.382 -50.343  1.00  0.00    -0.206 OA
HETATM   25  O2  UNL     1       1.895   1.914 -48.489  1.00  0.00    -0.206 OA
BRANCH  23  26
HETATM   26  N5  UNL     1       3.931   1.846 -50.174  1.00  0.00    -0.328 N 
ATOM     27  H52 UNL     1       4.383   1.689 -51.075  1.00  0.00     0.168 HD
ATOM     28  H51 UNL     1       4.424   2.063 -49.308  1.00  0.00     0.168 HD
ENDBRANCH  23  26
ENDBRANCH  22  23
ENDBRANCH  14  22
BRANCH  16  29
HETATM   29  N7  UNL     1      -3.038   1.602 -49.928  1.00  0.00    -0.234 N 
ATOM     30  H72 UNL     1      -2.890   0.730 -50.435  1.00  0.00     0.174 HD
ATOM     31  H71 UNL     1      -3.858   1.740 -49.338  1.00  0.00     0.174 HD
ENDBRANCH  16  29
ENDBRANCH  10  13
BRANCH  12  32
HETATM   32  N9  UNL     1       1.540   5.044 -48.081  1.00  0.00    -0.317 N 
ATOM     33  H9  UNL     1       2.365   4.444 -48.086  1.00  0.00     0.169 HD
BRANCH  32  34
HETATM   34  C12 UNL     1       0.754   4.829 -46.974  1.00  0.00     0.354 C 
HETATM   35  O4  UNL     1      -0.097   3.953 -46.730  1.00  0.00    -0.283 OA
ENDBRANCH  32  34
ENDBRANCH  12  32
ENDBRANCH   5   6
ENDBRANCH   3   4
TORSDOF 9
ENDMDL
MODEL 2
REMARK VINA RESULT: -6.969703225      1.936      3.630
REMARK  9 active torsions:
REMARK  status: ('A' for Active; 'I' for Inactive)
REMARK    1  A    between atoms: C2_3  and  C3_4 
REMARK    2  A    between atoms: C4_5  and  C5_6 
REMARK    3  A    between atoms: N4_11  and  C6_12 
REMARK    4  A    between atoms: C7_13  and  C8_14 
REMARK    5  A    between atoms: C8_14  and  S1_15 
REMARK    6  A    between atoms: S1_15  and  N5_16 
REMARK    7  A    between atoms: C9_23  and  N7_24 
REMARK    8  A    between atoms: C11_31  and  N9_32 
REMARK    9  A    between atoms: N9_32  and  C12_34 
ROOT
HETATM    1  N1  UNL     1       7.358   7.104 -46.778  1.00  0.00    -0.197 NA
HETATM    2  C1  UNL     1       6.507   7.659 -47.369  1.00  0.00     0.062 C 
HETATM    3  C2  UNL     1       5.439   8.355 -48.086  1.00  0.00     0.151 C 
ENDROOT
BRANCH   3   4
HETATM    4  C3  UNL     1       4.504   7.340 -48.673  1.00  0.00    -0.010 C 
HETATM    5  C4  UNL     1       3.293   7.614 -49.040  1.00  0.00     0.032 C 
BRANCH   5   6
HETATM    6  C5  UNL     1       2.261   6.782 -49.620  1.00  0.00     0.095 A 
HETATM    7  N2  UNL     1       1.874   7.056 -50.939  1.00  0.00    -0.282 N 
HETATM    8  N3  UNL     1       0.911   6.250 -51.263  1.00  0.00    -0.233 N 
ATOM      9  H2  UNL     1       2.282   7.769 -51.543  1.00  0.00     0.188 HD
HETATM   10  N4  UNL     1       0.603   5.446 -50.288  1.00  0.00    -0.216 N 
ATOM     11  H3  UNL     1       0.451   6.247 -52.173  1.00  0.00     0.209 HD
HETATM   12  C11 UNL     1       1.466   5.772 -49.228  1.00  0.00     0.159 A 
BRANCH  10  13
HETATM   13  C6  UNL     1      -0.359   4.426 -50.185  1.00  0.00     0.152 A 
HETATM   14  C7  UNL     1      -1.610   4.727 -49.650  1.00  0.00     0.076 A 
HETATM   15  N6  UNL     1      -2.529   3.753 -49.550  1.00  0.00    -0.192 N 
HETATM   16  C9  UNL     1      -2.243   2.486 -49.967  1.00  0.00     0.679 A 
ATOM     17  H6  UNL     1      -3.448   3.962 -49.160  1.00  0.00     0.184 HD
HETATM   18  N8  UNL     1      -1.048   2.177 -50.483  1.00  0.00    -0.154 N 
HETATM   19  C10 UNL     1      -0.103   3.122 -50.599  1.00  0.00     0.290 A 
ATOM     20  H8  UNL     1      -0.855   1.223 -50.788  1.00  0.00     0.187 HD
HETATM   21  O3  UNL     1       1.046   2.878 -51.083  1.00  0.00    -0.265 OA
BRANCH  14  22
HETATM   22  C8  UNL     1      -1.838   6.110 -49.220  1.00  0.00     0.223 C 
BRANCH  22  23
HETATM   23  S1  UNL     1      -2.765   7.098 -50.331  1.00  0.00     0.229 S 
HETATM   24  O1  UNL     1      -3.812   6.299 -51.063  1.00  0.00    -0.206 OA
HETATM   25  O2  UNL     1      -1.850   7.654 -51.398  1.00  0.00    -0.206 OA
BRANCH  23  26
HETATM   26  N5  UNL     1      -3.581   8.382 -49.536  1.00  0.00    -0.328 N 
ATOM     27  H52 UNL     1      -3.877   8.333 -48.561  1.00  0.00     0.168 HD
ATOM     28  H51 UNL     1      -3.730   9.184 -50.148  1.00  0.00     0.168 HD
ENDBRANCH  23  26
ENDBRANCH  22  23
ENDBRANCH  14  22
BRANCH  16  29
HETATM   29  N7  UNL     1      -3.190   1.611 -49.833  1.00  0.00    -0.234 N 
ATOM     30  H72 UNL     1      -4.057   1.815 -49.337  1.00  0.00     0.174 HD
ATOM     31  H71 UNL     1      -3.022   0.697 -50.253  1.00  0.00     0.174 HD
ENDBRANCH  16  29
ENDBRANCH  10  13
BRANCH  12  32
HETATM   32  N9  UNL     1       1.532   4.932 -48.099  1.00  0.00    -0.317 N 
ATOM     33  H9  UNL     1       2.382   4.368 -48.089  1.00  0.00     0.169 HD
BRANCH  32  34
HETATM   34  C12 UNL     1       0.735   4.683 -47.006  1.00  0.00     0.354 C 
HETATM   35  O4  UNL     1       0.039   3.694 -46.707  1.00  0.00    -0.283 OA
ENDBRANCH  32  34
ENDBRANCH  12  32
ENDBRANCH   5   6
ENDBRANCH   3   4
TORSDOF 9
ENDMDL
MODEL 3
REMARK VINA RESULT: -6.952769356      4.736      6.855
REMARK  9 active torsions:
REMARK  status: ('A' for Active; 'I' for Inactive)
REMARK    1  A    between atoms: C2_3  and  C3_4 
REMARK    2  A    between atoms: C4_5  and  C5_6 
REMARK    3  A    between atoms: N4_11  and  C6_12 
REMARK    4  A    between atoms: C7_13  and  C8_14 
REMARK    5  A    between atoms: C8_14  and  S1_15 
REMARK    6  A    between atoms: S1_15  and  N5_16 
REMARK    7  A    between atoms: C9_23  and  N7_24 
REMARK    8  A    between atoms: C11_31  and  N9_32 
REMARK    9  A    between atoms: N9_32  and  C12_34 
ROOT
HETATM    1  N1  UNL     1      -2.680  13.143 -55.046  1.00  0.00    -0.197 NA
HETATM    2  C1  UNL     1      -3.036  12.035 -55.209  1.00  0.00     0.062 C 
HETATM    3  C2  UNL     1      -3.498  10.661 -55.405  1.00  0.00     0.151 C 
ENDROOT
BRANCH   3   4
HETATM    4  C3  UNL     1      -2.949   9.801 -54.305  1.00  0.00    -0.010 C 
HETATM    5  C4  UNL     1      -2.973  10.140 -53.056  1.00  0.00     0.032 C 
BRANCH   5   6
HETATM    6  C5  UNL     1      -2.504   9.452 -51.872  1.00  0.00     0.095 A 
HETATM    7  N2  UNL     1      -1.606  10.133 -51.040  1.00  0.00    -0.282 N 
HETATM    8  N3  UNL     1      -1.260   9.344 -50.071  1.00  0.00    -0.233 N 
ATOM      9  H2  UNL     1      -1.279  11.089 -51.174  1.00  0.00     0.188 HD
HETATM   10  N4  UNL     1      -1.840   8.183 -50.160  1.00  0.00    -0.216 N 
ATOM     11  H3  UNL     1      -0.610   9.602 -49.328  1.00  0.00     0.209 HD
HETATM   12  C11 UNL     1      -2.648   8.239 -51.309  1.00  0.00     0.159 A 
BRANCH  10  13
HETATM   13  C6  UNL     1      -1.769   7.036 -49.350  1.00  0.00     0.152 A 
HETATM   14  C7  UNL     1      -0.717   6.140 -49.538  1.00  0.00     0.076 A 
HETATM   15  N6  UNL     1      -0.648   5.044 -48.766  1.00  0.00    -0.192 N 
HETATM   16  C9  UNL     1      -1.593   4.809 -47.810  1.00  0.00     0.679 A 
ATOM     17  H6  UNL     1       0.117   4.381 -48.894  1.00  0.00     0.184 HD
HETATM   18  N8  UNL     1      -2.610   5.657 -47.615  1.00  0.00    -0.154 N 
HETATM   19  C10 UNL     1      -2.713   6.764 -48.366  1.00  0.00     0.290 A 
ATOM     20  H8  UNL     1      -3.306   5.463 -46.895  1.00  0.00     0.187 HD
HETATM   21  O3  UNL     1      -3.660   7.599 -48.218  1.00  0.00    -0.265 OA
BRANCH  14  22
HETATM   22  C8  UNL     1       0.253   6.460 -50.588  1.00  0.00     0.223 C 
BRANCH  22  23
HETATM   23  S1  UNL     1       1.608   7.451 -50.083  1.00  0.00     0.229 S 
HETATM   24  O1  UNL     1       1.673   7.599 -48.585  1.00  0.00    -0.206 OA
HETATM   25  O2  UNL     1       1.442   8.850 -50.628  1.00  0.00    -0.206 OA
BRANCH  23  26
HETATM   26  N5  UNL     1       3.114   6.803 -50.588  1.00  0.00    -0.328 N 
ATOM     27  H52 UNL     1       3.193   5.973 -51.176  1.00  0.00     0.168 HD
ATOM     28  H51 UNL     1       3.906   7.340 -50.233  1.00  0.00     0.168 HD
ENDBRANCH  23  26
ENDBRANCH  22  23
ENDBRANCH  14  22
BRANCH  16  29
HETATM   29  N7  UNL     1      -1.446   3.727 -47.112  1.00  0.00    -0.234 N 
ATOM     30  H72 UNL     1      -0.867   2.948 -47.425  1.00  0.00     0.174 HD
ATOM     31  H71 UNL     1      -1.945   3.693 -46.223  1.00  0.00     0.174 HD
ENDBRANCH  16  29
ENDBRANCH  10  13
BRANCH  12  32
HETATM   32  N9  UNL     1      -3.578   7.211 -51.559  1.00  0.00    -0.317 N 
ATOM     33  H9  UNL     1      -3.205   6.291 -51.325  1.00  0.00     0.169 HD
BRANCH  32  34
HETATM   34  C12 UNL     1      -4.863   7.139 -52.042  1.00  0.00     0.354 C 
HETATM   35  O4  UNL     1      -5.303   6.790 -53.154  1.00  0.00    -0.283 OA
ENDBRANCH  32  34
ENDBRANCH  12  32
ENDBRANCH   5   6
ENDBRANCH   3   4
TORSDOF 9
ENDMDL
MODEL 4
REMARK VINA RESULT: -6.738308120      1.128      1.286
REMARK  9 active torsions:
REMARK  status: ('A' for Active; 'I' for Inactive)
REMARK    1  A    between atoms: C2_3  and  C3_4 
REMARK    2  A    between atoms: C4_5  and  C5_6 
REMARK    3  A    between atoms: N4_11  and  C6_12 
REMARK    4  A    between atoms: C7_13  and  C8_14 
REMARK    5  A    between atoms: C8_14  and  S1_15 
REMARK    6  A    between atoms: S1_15  and  N5_16 
REMARK    7  A    between atoms: C9_23  and  N7_24 
REMARK    8  A    between atoms: C11_31  and  N9_32 
REMARK    9  A    between atoms: N9_32  and  C12_34 
ROOT
HETATM    1  N1  UNL     1       7.216   7.143 -46.756  1.00  0.00    -0.197 NA
HETATM    2  C1  UNL     1       6.439   7.722 -47.420  1.00  0.00     0.062 C 
HETATM    3  C2  UNL     1       5.465   8.454 -48.228  1.00  0.00     0.151 C 
ENDROOT
BRANCH   3   4
HETATM    4  C3  UNL     1       4.329   7.536 -48.572  1.00  0.00    -0.010 C 
HETATM    5  C4  UNL     1       3.385   7.849 -49.401  1.00  0.00     0.032 C 
BRANCH   5   6
HETATM    6  C5  UNL     1       2.228   7.106 -49.852  1.00  0.00     0.095 A 
HETATM    7  N2  UNL     1       1.689   7.444 -51.101  1.00  0.00    -0.282 N 
HETATM    8  N3  UNL     1       0.636   6.716 -51.307  1.00  0.00    -0.233 N 
ATOM      9  H2  UNL     1       2.061   8.145 -51.740  1.00  0.00     0.188 HD
HETATM   10  N4  UNL     1       0.404   5.906 -50.316  1.00  0.00    -0.216 N 
ATOM     11  H3  UNL     1       0.059   6.771 -52.146  1.00  0.00     0.209 HD
HETATM   12  C11 UNL     1       1.423   6.141 -49.375  1.00  0.00     0.159 A 
BRANCH  10  13
HETATM   13  C6  UNL     1      -0.605   4.951 -50.103  1.00  0.00     0.152 A 
HETATM   14  C7  UNL     1      -0.347   3.615 -50.406  1.00  0.00     0.076 A 
HETATM   15  N6  UNL     1      -1.310   2.702 -50.204  1.00  0.00    -0.192 N 
HETATM   16  C9  UNL     1      -2.526   3.075 -49.709  1.00  0.00     0.679 A 
ATOM     17  H6  UNL     1      -1.133   1.721 -50.422  1.00  0.00     0.184 HD
HETATM   18  N8  UNL     1      -2.793   4.353 -49.412  1.00  0.00    -0.154 N 
HETATM   19  C10 UNL     1      -1.856   5.294 -49.601  1.00  0.00     0.290 A 
ATOM     20  H8  UNL     1      -3.708   4.611 -49.044  1.00  0.00     0.187 HD
HETATM   21  O3  UNL     1      -2.062   6.520 -49.334  1.00  0.00    -0.265 OA
BRANCH  14  22
HETATM   22  C8  UNL     1       0.980   3.296 -50.939  1.00  0.00     0.223 C 
BRANCH  22  23
HETATM   23  S1  UNL     1       1.143   1.699 -51.642  1.00  0.00     0.229 S 
HETATM   24  O1  UNL     1       2.249   1.639 -52.663  1.00  0.00    -0.206 OA
HETATM   25  O2  UNL     1      -0.123   1.343 -52.385  1.00  0.00    -0.206 OA
BRANCH  23  26
HETATM   26  N5  UNL     1       1.484   0.499 -50.463  1.00  0.00    -0.328 N 
ATOM     27  H52 UNL     1       1.754   0.722 -49.505  1.00  0.00     0.168 HD
ATOM     28  H51 UNL     1       1.386  -0.447 -50.833  1.00  0.00     0.168 HD
ENDBRANCH  23  26
ENDBRANCH  22  23
ENDBRANCH  14  22
BRANCH  16  29
HETATM   29  N7  UNL     1      -3.394   2.128 -49.546  1.00  0.00    -0.234 N 
ATOM     30  H72 UNL     1      -3.125   1.148 -49.461  1.00  0.00     0.174 HD
ATOM     31  H71 UNL     1      -4.372   2.414 -49.507  1.00  0.00     0.174 HD
ENDBRANCH  16  29
ENDBRANCH  10  13
BRANCH  12  32
HETATM   32  N9  UNL     1       1.579   5.266 -48.283  1.00  0.00    -0.317 N 
ATOM     33  H9  UNL     1       2.457   4.749 -48.328  1.00  0.00     0.169 HD
BRANCH  32  34
HETATM   34  C12 UNL     1       0.842   4.935 -47.171  1.00  0.00     0.354 C 
HETATM   35  O4  UNL     1       0.134   3.940 -46.922  1.00  0.00    -0.283 OA
ENDBRANCH  32  34
ENDBRANCH  12  32
ENDBRANCH   5   6
ENDBRANCH   3   4
TORSDOF 9
ENDMDL
MODEL 5
REMARK VINA RESULT: -6.670615631      1.972      3.628
REMARK  9 active torsions:
REMARK  status: ('A' for Active; 'I' for Inactive)
REMARK    1  A    between atoms: C2_3  and  C3_4 
REMARK    2  A    between atoms: C4_5  and  C5_6 
REMARK    3  A    between atoms: N4_11  and  C6_12 
REMARK    4  A    between atoms: C7_13  and  C8_14 
REMARK    5  A    between atoms: C8_14  and  S1_15 
REMARK    6  A    between atoms: S1_15  and  N5_16 
REMARK    7  A    between atoms: C9_23  and  N7_24 
REMARK    8  A    between atoms: C11_31  and  N9_32 
REMARK    9  A    between atoms: N9_32  and  C12_34 
ROOT
HETATM    1  N1  UNL     1       5.768   8.626 -46.052  1.00  0.00    -0.197 NA
HETATM    2  C1  UNL     1       5.784   8.288 -47.177  1.00  0.00     0.062 C 
HETATM    3  C2  UNL     1       5.806   7.889 -48.583  1.00  0.00     0.151 C 
ENDROOT
BRANCH   3   4
HETATM    4  C3  UNL     1       4.421   7.484 -48.997  1.00  0.00    -0.010 C 
HETATM    5  C4  UNL     1       4.110   6.281 -49.362  1.00  0.00     0.032 C 
BRANCH   5   6
HETATM    6  C5  UNL     1       2.849   5.710 -49.784  1.00  0.00     0.095 A 
HETATM    7  N2  UNL     1       1.992   6.521 -50.541  1.00  0.00    -0.282 N 
HETATM    8  N3  UNL     1       0.900   5.862 -50.776  1.00  0.00    -0.233 N 
ATOM      9  H2  UNL     1       2.193   7.469 -50.854  1.00  0.00     0.188 HD
HETATM   10  N4  UNL     1       0.929   4.672 -50.252  1.00  0.00    -0.216 N 
ATOM     11  H3  UNL     1       0.113   6.233 -51.309  1.00  0.00     0.209 HD
HETATM   12  C11 UNL     1       2.178   4.557 -49.616  1.00  0.00     0.159 A 
BRANCH  10  13
HETATM   13  C6  UNL     1      -0.011   3.627 -50.250  1.00  0.00     0.152 A 
HETATM   14  C7  UNL     1      -1.026   3.632 -49.294  1.00  0.00     0.076 A 
HETATM   15  N6  UNL     1      -1.924   2.634 -49.290  1.00  0.00    -0.192 N 
HETATM   16  C9  UNL     1      -1.845   1.628 -50.209  1.00  0.00     0.679 A 
ATOM     17  H6  UNL     1      -2.670   2.627 -48.595  1.00  0.00     0.184 HD
HETATM   18  N8  UNL     1      -0.878   1.605 -51.134  1.00  0.00    -0.154 N 
HETATM   19  C10 UNL     1       0.037   2.585 -51.170  1.00  0.00     0.290 A 
ATOM     20  H8  UNL     1      -0.838   0.844 -51.812  1.00  0.00     0.187 HD
HETATM   21  O3  UNL     1       0.974   2.608 -52.030  1.00  0.00    -0.265 OA
BRANCH  14  22
HETATM   22  C8  UNL     1      -1.038   4.743 -48.339  1.00  0.00     0.223 C 
BRANCH  22  23
HETATM   23  S1  UNL     1      -1.829   6.204 -48.897  1.00  0.00     0.229 S 
HETATM   24  O1  UNL     1      -2.348   6.065 -50.304  1.00  0.00    -0.206 OA
HETATM   25  O2  UNL     1      -0.829   7.336 -48.936  1.00  0.00    -0.206 OA
BRANCH  23  26
HETATM   26  N5  UNL     1      -3.165   6.639 -47.912  1.00  0.00    -0.328 N 
ATOM     27  H52 UNL     1      -3.425   6.125 -47.070  1.00  0.00     0.168 HD
ATOM     28  H51 UNL     1      -3.657   7.459 -48.266  1.00  0.00     0.168 HD
ENDBRANCH  23  26
ENDBRANCH  22  23
ENDBRANCH  14  22
BRANCH  16  29
HETATM   29  N7  UNL     1      -2.754   0.707 -50.131  1.00  0.00    -0.234 N 
ATOM     30  H72 UNL     1      -3.702   0.843 -50.481  1.00  0.00     0.174 HD
ATOM     31  H71 UNL     1      -2.470  -0.171 -49.697  1.00  0.00     0.174 HD
ENDBRANCH  16  29
ENDBRANCH  10  13
BRANCH  12  32
HETATM   32  N9  UNL     1       2.606   3.303 -49.139  1.00  0.00    -0.317 N 
ATOM     33  H9  UNL     1       2.235   3.098 -48.212  1.00  0.00     0.169 HD
BRANCH  32  34
HETATM   34  C12 UNL     1       3.399   2.285 -49.614  1.00  0.00     0.354 C 
HETATM   35  O4  UNL     1       3.133   1.100 -49.891  1.00  0.00    -0.283 OA
ENDBRANCH  32  34
ENDBRANCH  12  32
ENDBRANCH   5   6
ENDBRANCH   3   4
TORSDOF 9
ENDMDL
