MODEL 1
REMARK VINA RESULT: -9.144763236      0.000      0.000
REMARK  14 active torsions:
REMARK  status: ('A' for Active; 'I' for Inactive)
REMARK    1  A    between atoms: O1_2  and  C2_3 
REMARK    2  A    between atoms: C2_3  and  C3_5 
REMARK    3  A    between atoms: C6_8  and  N1_9 
REMARK       I    between atoms: N1_9  and  C7_11 
REMARK    4  A    between atoms: C7_11  and  O4_13 
REMARK    5  A    between atoms: O4_13  and  C8_14 
REMARK    6  A    between atoms: C8_14  and  C9_15 
REMARK    7  A    between atoms: C9_15  and  O5_16 
REMARK    8  A    between atoms: C9_15  and  C10_18 
REMARK    9  A    between atoms: C10_18  and  C11_20 
REMARK   10  A    between atoms: C11_20  and  N2_21 
REMARK   11  A    between atoms: C11_20  and  C12_25 
REMARK       I    between atoms: C12_25  and  N3_27 
REMARK   12  A    between atoms: N3_27  and  N4_29 
REMARK   13  A    between atoms: N4_29  and  C13_30 
REMARK   14  A    between atoms: C13_30  and  O8_32 
ROOT
HETATM    1  C9  UNL     1       0.713   7.164 -50.470  1.00  0.00     0.214 C 
ENDROOT
BRANCH   1   2
HETATM    2  C8  UNL     1       1.018   7.196 -48.996  1.00  0.00     0.220 C 
BRANCH   2   3
HETATM    3  O4  UNL     1       1.941   8.195 -48.699  1.00  0.00    -0.301 OA
BRANCH   3   4
HETATM    4  C7  UNL     1       3.341   8.007 -48.721  1.00  0.00     0.365 C 
HETATM    5  N1  UNL     1       4.192   8.953 -48.109  1.00  0.00    -0.303 N 
ATOM      6  H1  UNL     1       3.794   9.793 -47.688  1.00  0.00     0.171 HD
HETATM    7  O3  UNL     1       3.764   7.000 -49.284  1.00  0.00    -0.238 OA
BRANCH   5   8
HETATM    8  C6  UNL     1       5.579   8.751 -48.074  1.00  0.00     0.036 A 
HETATM    9  C5  UNL     1       6.115   7.879 -47.169  1.00  0.00     0.030 A 
HETATM   10  C4  UNL     1       7.504   7.613 -47.147  1.00  0.00     0.020 A 
HETATM   11  C3  UNL     1       8.316   8.251 -48.057  1.00  0.00     0.039 A 
HETATM   12  C16 UNL     1       7.757   9.122 -48.954  1.00  0.00     0.020 A 
HETATM   13  C15 UNL     1       6.379   9.397 -48.988  1.00  0.00     0.030 A 
BRANCH  11  14
HETATM   14  C2  UNL     1       9.751   7.965 -48.069  1.00  0.00     0.292 C 
HETATM   15  O2  UNL     1      10.636   8.826 -47.959  1.00  0.00    -0.259 OA
BRANCH  14  16
HETATM   16  O1  UNL     1      10.139   6.625 -48.212  1.00  0.00    -0.323 OA
HETATM   17  C1  UNL     1      10.210   5.730 -47.105  1.00  0.00     0.213 C 
ENDBRANCH  14  16
ENDBRANCH  11  14
ENDBRANCH   5   8
ENDBRANCH   3   4
ENDBRANCH   2   3
ENDBRANCH   1   2
BRANCH   1  18
HETATM   18  O5  UNL     1       1.783   6.822 -51.271  1.00  0.00    -0.386 OA
ATOM     19  H5  UNL     1       1.546   6.512 -52.137  1.00  0.00     0.210 HD
ENDBRANCH   1  18
BRANCH   1  20
HETATM   20  C10 UNL     1       0.243   8.530 -50.875  1.00  0.00     0.197 C 
HETATM   21  O6  UNL     1       1.058   9.398 -51.153  1.00  0.00    -0.292 OA
BRANCH  20  22
HETATM   22  C11 UNL     1      -1.201   8.872 -50.957  1.00  0.00     0.348 C 
BRANCH  22  23
HETATM   23  N2  UNL     1      -1.759   9.405 -49.756  1.00  0.00    -0.059 N 
ATOM     24  H23 UNL     1      -1.207  10.201 -49.433  1.00  0.00     0.275 HD
ATOM     25  H22 UNL     1      -2.643   9.872 -49.955  1.00  0.00     0.275 HD
ATOM     26  H21 UNL     1      -1.877   8.728 -49.003  1.00  0.00     0.275 HD
ENDBRANCH  22  23
BRANCH  22  27
HETATM   27  C12 UNL     1      -1.414   9.876 -52.020  1.00  0.00     0.284 C 
HETATM   28  O7  UNL     1      -1.905   9.523 -53.134  1.00  0.00    -0.268 OA
HETATM   29  N3  UNL     1      -1.047  11.246 -51.762  1.00  0.00    -0.199 N 
ATOM     30  H3  UNL     1      -0.653  11.493 -50.853  1.00  0.00     0.205 HD
BRANCH  29  31
HETATM   31  N4  UNL     1      -1.213  12.230 -52.708  1.00  0.00    -0.302 NA
BRANCH  31  32
HETATM   32  C13 UNL     1      -1.368  13.151 -53.595  1.00  0.00     0.210 C 
HETATM   33  C14 UNL     1      -0.177  14.131 -53.856  1.00  0.00     0.117 C 
BRANCH  32  34
HETATM   34  O8  UNL     1      -2.329  13.518 -54.391  1.00  0.00    -0.338 OA
ATOM     35  H8  UNL     1      -2.392  13.768 -55.306  1.00  0.00     0.220 HD
ENDBRANCH  32  34
ENDBRANCH  31  32
ENDBRANCH  29  31
ENDBRANCH  22  27
ENDBRANCH  20  22
ENDBRANCH   1  20
TORSDOF 14
ENDMDL
MODEL 2
REMARK VINA RESULT: -8.928634259      0.447      1.041
REMARK  14 active torsions:
REMARK  status: ('A' for Active; 'I' for Inactive)
REMARK    1  A    between atoms: O1_2  and  C2_3 
REMARK    2  A    between atoms: C2_3  and  C3_5 
REMARK    3  A    between atoms: C6_8  and  N1_9 
REMARK       I    between atoms: N1_9  and  C7_11 
REMARK    4  A    between atoms: C7_11  and  O4_13 
REMARK    5  A    between atoms: O4_13  and  C8_14 
REMARK    6  A    between atoms: C8_14  and  C9_15 
REMARK    7  A    between atoms: C9_15  and  O5_16 
REMARK    8  A    between atoms: C9_15  and  C10_18 
REMARK    9  A    between atoms: C10_18  and  C11_20 
REMARK   10  A    between atoms: C11_20  and  N2_21 
REMARK   11  A    between atoms: C11_20  and  C12_25 
REMARK       I    between atoms: C12_25  and  N3_27 
REMARK   12  A    between atoms: N3_27  and  N4_29 
REMARK   13  A    between atoms: N4_29  and  C13_30 
REMARK   14  A    between atoms: C13_30  and  O8_32 
ROOT
HETATM    1  C9  UNL     1       0.622   7.163 -50.486  1.00  0.00     0.214 C 
ENDROOT
BRANCH   1   2
HETATM    2  C8  UNL     1       0.931   7.217 -49.013  1.00  0.00     0.220 C 
BRANCH   2   3
HETATM    3  O4  UNL     1       1.888   8.190 -48.739  1.00  0.00    -0.301 OA
BRANCH   3   4
HETATM    4  C7  UNL     1       3.280   7.949 -48.736  1.00  0.00     0.365 C 
HETATM    5  N1  UNL     1       4.163   8.903 -48.185  1.00  0.00    -0.303 N 
ATOM      6  H1  UNL     1       3.794   9.785 -47.827  1.00  0.00     0.171 HD
HETATM    7  O3  UNL     1       3.667   6.890 -49.225  1.00  0.00    -0.238 OA
BRANCH   5   8
HETATM    8  C6  UNL     1       5.541   8.653 -48.125  1.00  0.00     0.036 A 
HETATM    9  C5  UNL     1       6.041   7.842 -47.145  1.00  0.00     0.030 A 
HETATM   10  C4  UNL     1       7.419   7.527 -47.092  1.00  0.00     0.020 A 
HETATM   11  C3  UNL     1       8.257   8.052 -48.050  1.00  0.00     0.039 A 
HETATM   12  C16 UNL     1       7.734   8.863 -49.022  1.00  0.00     0.020 A 
HETATM   13  C15 UNL     1       6.367   9.186 -49.088  1.00  0.00     0.030 A 
BRANCH  11  14
HETATM   14  C2  UNL     1       9.680   7.712 -48.029  1.00  0.00     0.292 C 
HETATM   15  O2  UNL     1      10.121   6.557 -47.945  1.00  0.00    -0.259 OA
BRANCH  14  16
HETATM   16  O1  UNL     1      10.596   8.770 -48.113  1.00  0.00    -0.323 OA
HETATM   17  C1  UNL     1      10.239  10.114 -47.797  1.00  0.00     0.213 C 
ENDBRANCH  14  16
ENDBRANCH  11  14
ENDBRANCH   5   8
ENDBRANCH   3   4
ENDBRANCH   2   3
ENDBRANCH   1   2
BRANCH   1  18
HETATM   18  O5  UNL     1       1.687   6.799 -51.283  1.00  0.00    -0.386 OA
ATOM     19  H5  UNL     1       2.328   6.241 -50.857  1.00  0.00     0.210 HD
ENDBRANCH   1  18
BRANCH   1  20
HETATM   20  C10 UNL     1       0.162   8.526 -50.912  1.00  0.00     0.197 C 
HETATM   21  O6  UNL     1       0.985   9.386 -51.197  1.00  0.00    -0.292 OA
BRANCH  20  22
HETATM   22  C11 UNL     1      -1.279   8.876 -51.006  1.00  0.00     0.348 C 
BRANCH  22  23
HETATM   23  N2  UNL     1      -1.849   9.392 -49.804  1.00  0.00    -0.059 N 
ATOM     24  H23 UNL     1      -1.243   9.188 -49.009  1.00  0.00     0.275 HD
ATOM     25  H22 UNL     1      -1.806  10.411 -49.802  1.00  0.00     0.275 HD
ATOM     26  H21 UNL     1      -2.801   9.078 -49.613  1.00  0.00     0.275 HD
ENDBRANCH  22  23
BRANCH  22  27
HETATM   27  C12 UNL     1      -1.474   9.897 -52.056  1.00  0.00     0.284 C 
HETATM   28  O7  UNL     1      -1.967   9.566 -53.176  1.00  0.00    -0.268 OA
HETATM   29  N3  UNL     1      -1.089  11.258 -51.778  1.00  0.00    -0.199 N 
ATOM     30  H3  UNL     1      -0.695  11.486 -50.865  1.00  0.00     0.205 HD
BRANCH  29  31
HETATM   31  N4  UNL     1      -1.239  12.257 -52.710  1.00  0.00    -0.302 NA
BRANCH  31  32
HETATM   32  C13 UNL     1      -1.378  13.194 -53.584  1.00  0.00     0.210 C 
HETATM   33  C14 UNL     1      -0.141  14.101 -53.894  1.00  0.00     0.117 C 
BRANCH  32  34
HETATM   34  O8  UNL     1      -2.350  13.628 -54.331  1.00  0.00    -0.338 OA
ATOM     35  H8  UNL     1      -2.416  14.173 -55.107  1.00  0.00     0.220 HD
ENDBRANCH  32  34
ENDBRANCH  31  32
ENDBRANCH  29  31
ENDBRANCH  22  27
ENDBRANCH  20  22
ENDBRANCH   1  20
TORSDOF 14
ENDMDL
MODEL 3
REMARK VINA RESULT: -8.834877052      0.938      1.147
REMARK  14 active torsions:
REMARK  status: ('A' for Active; 'I' for Inactive)
REMARK    1  A    between atoms: O1_2  and  C2_3 
REMARK    2  A    between atoms: C2_3  and  C3_5 
REMARK    3  A    between atoms: C6_8  and  N1_9 
REMARK       I    between atoms: N1_9  and  C7_11 
REMARK    4  A    between atoms: C7_11  and  O4_13 
REMARK    5  A    between atoms: O4_13  and  C8_14 
REMARK    6  A    between atoms: C8_14  and  C9_15 
REMARK    7  A    between atoms: C9_15  and  O5_16 
REMARK    8  A    between atoms: C9_15  and  C10_18 
REMARK    9  A    between atoms: C10_18  and  C11_20 
REMARK   10  A    between atoms: C11_20  and  N2_21 
REMARK   11  A    between atoms: C11_20  and  C12_25 
REMARK       I    between atoms: C12_25  and  N3_27 
REMARK   12  A    between atoms: N3_27  and  N4_29 
REMARK   13  A    between atoms: N4_29  and  C13_30 
REMARK   14  A    between atoms: C13_30  and  O8_32 
ROOT
HETATM    1  C9  UNL     1       0.458   8.209 -50.505  1.00  0.00     0.214 C 
ENDROOT
BRANCH   1   2
HETATM    2  C8  UNL     1       1.040   7.505 -49.308  1.00  0.00     0.220 C 
BRANCH   2   3
HETATM    3  O4  UNL     1       1.959   8.317 -48.649  1.00  0.00    -0.301 OA
BRANCH   3   4
HETATM    4  C7  UNL     1       3.358   8.126 -48.700  1.00  0.00     0.365 C 
HETATM    5  N1  UNL     1       4.217   8.984 -47.977  1.00  0.00    -0.303 N 
ATOM      6  H1  UNL     1       3.824   9.767 -47.453  1.00  0.00     0.171 HD
HETATM    7  O3  UNL     1       3.774   7.196 -49.386  1.00  0.00    -0.238 OA
BRANCH   5   8
HETATM    8  C6  UNL     1       5.603   8.773 -47.972  1.00  0.00     0.036 A 
HETATM    9  C5  UNL     1       6.150   7.884 -47.090  1.00  0.00     0.030 A 
HETATM   10  C4  UNL     1       7.536   7.609 -47.099  1.00  0.00     0.020 A 
HETATM   11  C3  UNL     1       8.336   8.253 -48.016  1.00  0.00     0.039 A 
HETATM   12  C16 UNL     1       7.766   9.140 -48.890  1.00  0.00     0.020 A 
HETATM   13  C15 UNL     1       6.388   9.425 -48.894  1.00  0.00     0.030 A 
BRANCH  11  14
HETATM   14  C2  UNL     1       9.768   7.957 -48.060  1.00  0.00     0.292 C 
HETATM   15  O2  UNL     1      10.661   8.807 -47.933  1.00  0.00    -0.259 OA
BRANCH  14  16
HETATM   16  O1  UNL     1      10.143   6.621 -48.258  1.00  0.00    -0.323 OA
HETATM   17  C1  UNL     1      10.270   5.697 -47.180  1.00  0.00     0.213 C 
ENDBRANCH  14  16
ENDBRANCH  11  14
ENDBRANCH   5   8
ENDBRANCH   3   4
ENDBRANCH   2   3
ENDBRANCH   1   2
BRANCH   1  18
HETATM   18  O5  UNL     1       1.136   9.347 -50.889  1.00  0.00    -0.386 OA
ATOM     19  H5  UNL     1       0.615   9.972 -51.378  1.00  0.00     0.210 HD
ENDBRANCH   1  18
BRANCH   1  20
HETATM   20  C10 UNL     1      -0.954   8.595 -50.173  1.00  0.00     0.197 C 
HETATM   21  O6  UNL     1      -1.238   8.954 -49.039  1.00  0.00    -0.292 OA
BRANCH  20  22
HETATM   22  C11 UNL     1      -2.038   8.560 -51.189  1.00  0.00     0.348 C 
BRANCH  22  23
HETATM   23  N2  UNL     1      -3.358   8.673 -50.658  1.00  0.00    -0.059 N 
ATOM     24  H23 UNL     1      -3.373   8.382 -49.681  1.00  0.00     0.275 HD
ATOM     25  H22 UNL     1      -3.614   9.655 -50.554  1.00  0.00     0.275 HD
ATOM     26  H21 UNL     1      -4.075   8.176 -51.186  1.00  0.00     0.275 HD
ENDBRANCH  22  23
BRANCH  22  27
HETATM   27  C12 UNL     1      -1.856   9.669 -52.148  1.00  0.00     0.284 C 
HETATM   28  O7  UNL     1      -2.170   9.510 -53.366  1.00  0.00    -0.268 OA
HETATM   29  N3  UNL     1      -1.315  10.917 -51.669  1.00  0.00    -0.199 N 
ATOM     30  H3  UNL     1      -1.073  11.007 -50.682  1.00  0.00     0.205 HD
BRANCH  29  31
HETATM   31  N4  UNL     1      -1.115  11.988 -52.507  1.00  0.00    -0.302 NA
BRANCH  31  32
HETATM   32  C13 UNL     1      -0.928  12.993 -53.291  1.00  0.00     0.210 C 
HETATM   33  C14 UNL     1      -1.948  13.218 -54.456  1.00  0.00     0.117 C 
BRANCH  32  34
HETATM   34  O8  UNL     1      -0.043  13.941 -53.387  1.00  0.00    -0.338 OA
ATOM     35  H8  UNL     1       0.521  14.274 -54.076  1.00  0.00     0.220 HD
ENDBRANCH  32  34
ENDBRANCH  31  32
ENDBRANCH  29  31
ENDBRANCH  22  27
ENDBRANCH  20  22
ENDBRANCH   1  20
TORSDOF 14
ENDMDL
MODEL 4
REMARK VINA RESULT: -8.705971724      1.535      2.022
REMARK  14 active torsions:
REMARK  status: ('A' for Active; 'I' for Inactive)
REMARK    1  A    between atoms: O1_2  and  C2_3 
REMARK    2  A    between atoms: C2_3  and  C3_5 
REMARK    3  A    between atoms: C6_8  and  N1_9 
REMARK       I    between atoms: N1_9  and  C7_11 
REMARK    4  A    between atoms: C7_11  and  O4_13 
REMARK    5  A    between atoms: O4_13  and  C8_14 
REMARK    6  A    between atoms: C8_14  and  C9_15 
REMARK    7  A    between atoms: C9_15  and  O5_16 
REMARK    8  A    between atoms: C9_15  and  C10_18 
REMARK    9  A    between atoms: C10_18  and  C11_20 
REMARK   10  A    between atoms: C11_20  and  N2_21 
REMARK   11  A    between atoms: C11_20  and  C12_25 
REMARK       I    between atoms: C12_25  and  N3_27 
REMARK   12  A    between atoms: N3_27  and  N4_29 
REMARK   13  A    between atoms: N4_29  and  C13_30 
REMARK   14  A    between atoms: C13_30  and  O8_32 
ROOT
HETATM    1  C9  UNL     1       0.043   6.639 -50.602  1.00  0.00     0.214 C 
ENDROOT
BRANCH   1   2
HETATM    2  C8  UNL     1       0.744   6.617 -49.270  1.00  0.00     0.220 C 
BRANCH   2   3
HETATM    3  O4  UNL     1       2.111   6.409 -49.429  1.00  0.00    -0.301 OA
BRANCH   3   4
HETATM    4  C7  UNL     1       3.103   7.307 -48.974  1.00  0.00     0.365 C 
HETATM    5  N1  UNL     1       4.469   6.958 -49.064  1.00  0.00    -0.303 N 
ATOM      6  H1  UNL     1       4.733   6.039 -49.421  1.00  0.00     0.171 HD
HETATM    7  O3  UNL     1       2.721   8.378 -48.510  1.00  0.00    -0.238 OA
BRANCH   5   8
HETATM    8  C6  UNL     1       5.467   7.860 -48.668  1.00  0.00     0.036 A 
HETATM    9  C5  UNL     1       5.900   8.818 -49.542  1.00  0.00     0.030 A 
HETATM   10  C4  UNL     1       6.864   9.776 -49.153  1.00  0.00     0.020 A 
HETATM   11  C3  UNL     1       7.365   9.732 -47.872  1.00  0.00     0.039 A 
HETATM   12  C16 UNL     1       6.917   8.763 -47.014  1.00  0.00     0.020 A 
HETATM   13  C15 UNL     1       5.959   7.803 -47.385  1.00  0.00     0.030 A 
BRANCH  11  14
HETATM   14  C2  UNL     1       8.341  10.735 -47.442  1.00  0.00     0.292 C 
HETATM   15  O2  UNL     1       8.081  11.682 -46.687  1.00  0.00    -0.259 OA
BRANCH  14  16
HETATM   16  O1  UNL     1       9.652  10.602 -47.920  1.00  0.00    -0.323 OA
HETATM   17  C1  UNL     1      10.312   9.342 -47.994  1.00  0.00     0.213 C 
ENDBRANCH  14  16
ENDBRANCH  11  14
ENDBRANCH   5   8
ENDBRANCH   3   4
ENDBRANCH   2   3
ENDBRANCH   1   2
BRANCH   1  18
HETATM   18  O5  UNL     1       0.711   5.983 -51.614  1.00  0.00    -0.386 OA
ATOM     19  H5  UNL     1       0.191   5.826 -52.394  1.00  0.00     0.210 HD
ENDBRANCH   1  18
BRANCH   1  20
HETATM   20  C10 UNL     1      -0.132   8.073 -51.009  1.00  0.00     0.197 C 
HETATM   21  O6  UNL     1       0.841   8.735 -51.342  1.00  0.00    -0.292 OA
BRANCH  20  22
HETATM   22  C11 UNL     1      -1.465   8.729 -51.025  1.00  0.00     0.348 C 
BRANCH  22  23
HETATM   23  N2  UNL     1      -1.866   9.300 -49.780  1.00  0.00    -0.059 N 
ATOM     24  H23 UNL     1      -1.077   9.772 -49.337  1.00  0.00     0.275 HD
ATOM     25  H22 UNL     1      -2.482  10.098 -49.940  1.00  0.00     0.275 HD
ATOM     26  H21 UNL     1      -2.298   8.645 -49.128  1.00  0.00     0.275 HD
ENDBRANCH  22  23
BRANCH  22  27
HETATM   27  C12 UNL     1      -1.471   9.816 -52.026  1.00  0.00     0.284 C 
HETATM   28  O7  UNL     1      -1.962   9.612 -53.177  1.00  0.00    -0.268 OA
HETATM   29  N3  UNL     1      -0.907  11.093 -51.666  1.00  0.00    -0.199 N 
ATOM     30  H3  UNL     1      -0.520  11.218 -50.730  1.00  0.00     0.205 HD
BRANCH  29  31
HETATM   31  N4  UNL     1      -0.876  12.145 -52.549  1.00  0.00    -0.302 NA
BRANCH  31  32
HETATM   32  C13 UNL     1      -0.850  13.132 -53.377  1.00  0.00     0.210 C 
HETATM   33  C14 UNL     1      -1.958  13.200 -54.478  1.00  0.00     0.117 C 
BRANCH  32  34
HETATM   34  O8  UNL     1      -0.082  14.165 -53.562  1.00  0.00    -0.338 OA
ATOM     35  H8  UNL     1       0.334  14.574 -54.313  1.00  0.00     0.220 HD
ENDBRANCH  32  34
ENDBRANCH  31  32
ENDBRANCH  29  31
ENDBRANCH  22  27
ENDBRANCH  20  22
ENDBRANCH   1  20
TORSDOF 14
ENDMDL
MODEL 5
REMARK VINA RESULT: -8.541253865      1.698      2.039
REMARK  14 active torsions:
REMARK  status: ('A' for Active; 'I' for Inactive)
REMARK    1  A    between atoms: O1_2  and  C2_3 
REMARK    2  A    between atoms: C2_3  and  C3_5 
REMARK    3  A    between atoms: C6_8  and  N1_9 
REMARK       I    between atoms: N1_9  and  C7_11 
REMARK    4  A    between atoms: C7_11  and  O4_13 
REMARK    5  A    between atoms: O4_13  and  C8_14 
REMARK    6  A    between atoms: C8_14  and  C9_15 
REMARK    7  A    between atoms: C9_15  and  O5_16 
REMARK    8  A    between atoms: C9_15  and  C10_18 
REMARK    9  A    between atoms: C10_18  and  C11_20 
REMARK   10  A    between atoms: C11_20  and  N2_21 
REMARK   11  A    between atoms: C11_20  and  C12_25 
REMARK       I    between atoms: C12_25  and  N3_27 
REMARK   12  A    between atoms: N3_27  and  N4_29 
REMARK   13  A    between atoms: N4_29  and  C13_30 
REMARK   14  A    between atoms: C13_30  and  O8_32 
ROOT
HETATM    1  C9  UNL     1       0.119   5.914 -50.318  1.00  0.00     0.214 C 
ENDROOT
BRANCH   1   2
HETATM    2  C8  UNL     1       1.058   5.933 -49.141  1.00  0.00     0.220 C 
BRANCH   2   3
HETATM    3  O4  UNL     1       2.375   6.111 -49.555  1.00  0.00    -0.301 OA
BRANCH   3   4
HETATM    4  C7  UNL     1       3.228   7.121 -49.056  1.00  0.00     0.365 C 
HETATM    5  N1  UNL     1       4.624   6.909 -49.009  1.00  0.00    -0.303 N 
ATOM      6  H1  UNL     1       5.008   6.009 -49.299  1.00  0.00     0.171 HD
HETATM    7  O3  UNL     1       2.703   8.165 -48.678  1.00  0.00    -0.238 OA
BRANCH   5   8
HETATM    8  C6  UNL     1       5.488   7.922 -48.570  1.00  0.00     0.036 A 
HETATM    9  C5  UNL     1       5.904   7.941 -47.268  1.00  0.00     0.030 A 
HETATM   10  C4  UNL     1       6.818   8.917 -46.810  1.00  0.00     0.020 A 
HETATM   11  C3  UNL     1       7.288   9.857 -47.699  1.00  0.00     0.039 A 
HETATM   12  C16 UNL     1       6.857   9.819 -48.999  1.00  0.00     0.020 A 
HETATM   13  C15 UNL     1       5.948   8.855 -49.470  1.00  0.00     0.030 A 
BRANCH  11  14
HETATM   14  C2  UNL     1       8.259  10.856 -47.250  1.00  0.00     0.292 C 
HETATM   15  O2  UNL     1       7.989  11.801 -46.496  1.00  0.00    -0.259 OA
BRANCH  14  16
HETATM   16  O1  UNL     1       9.577  10.722 -47.708  1.00  0.00    -0.323 OA
HETATM   17  C1  UNL     1      10.191   9.451 -47.904  1.00  0.00     0.213 C 
ENDBRANCH  14  16
ENDBRANCH  11  14
ENDBRANCH   5   8
ENDBRANCH   3   4
ENDBRANCH   2   3
ENDBRANCH   1   2
BRANCH   1  18
HETATM   18  O5  UNL     1       0.523   5.109 -51.362  1.00  0.00    -0.386 OA
ATOM     19  H5  UNL     1      -0.007   5.183 -52.147  1.00  0.00     0.210 HD
ENDBRANCH   1  18
BRANCH   1  20
HETATM   20  C10 UNL     1      -0.006   7.319 -50.831  1.00  0.00     0.197 C 
HETATM   21  O6  UNL     1       0.715   7.702 -51.743  1.00  0.00    -0.292 OA
BRANCH  20  22
HETATM   22  C11 UNL     1      -0.991   8.277 -50.268  1.00  0.00     0.348 C 
BRANCH  22  23
HETATM   23  N2  UNL     1      -0.507   9.062 -49.178  1.00  0.00    -0.059 N 
ATOM     24  H23 UNL     1      -1.259   9.247 -48.514  1.00  0.00     0.275 HD
ATOM     25  H22 UNL     1       0.114   8.505 -48.590  1.00  0.00     0.275 HD
ATOM     26  H21 UNL     1      -0.051   9.933 -49.448  1.00  0.00     0.275 HD
ENDBRANCH  22  23
BRANCH  22  27
HETATM   27  C12 UNL     1      -1.429   9.216 -51.321  1.00  0.00     0.284 C 
HETATM   28  O7  UNL     1      -2.378   8.896 -52.098  1.00  0.00    -0.268 OA
HETATM   29  N3  UNL     1      -0.755  10.485 -51.441  1.00  0.00    -0.199 N 
ATOM     30  H3  UNL     1       0.005  10.707 -50.798  1.00  0.00     0.205 HD
BRANCH  29  31
HETATM   31  N4  UNL     1      -1.108  11.403 -52.401  1.00  0.00    -0.302 NA
BRANCH  31  32
HETATM   32  C13 UNL     1      -1.439  12.262 -53.302  1.00  0.00     0.210 C 
HETATM   33  C14 UNL     1      -1.883  11.727 -54.703  1.00  0.00     0.117 C 
BRANCH  32  34
HETATM   34  O8  UNL     1      -1.500  13.560 -53.367  1.00  0.00    -0.338 OA
ATOM     35  H8  UNL     1      -1.978  14.239 -52.905  1.00  0.00     0.220 HD
ENDBRANCH  32  34
ENDBRANCH  31  32
ENDBRANCH  29  31
ENDBRANCH  22  27
ENDBRANCH  20  22
ENDBRANCH   1  20
TORSDOF 14
ENDMDL
