MODEL 1
REMARK VINA RESULT: -8.476887765      0.000      0.000
REMARK  11 active torsions:
REMARK  status: ('A' for Active; 'I' for Inactive)
REMARK    1  A    between atoms: N1_2  and  C2_3 
REMARK    2  A    between atoms: N1_2  and  C10_12 
REMARK    3  A    between atoms: C2_3  and  C3_4 
REMARK    4  A    between atoms: C3_4  and  C4_5 
REMARK    5  A    between atoms: C4_5  and  N2_6 
REMARK    6  A    between atoms: C10_12  and  C11_13 
REMARK    7  A    between atoms: C10_12  and  C17_21 
REMARK    8  A    between atoms: C11_13  and  C12_14 
REMARK    9  A    between atoms: C12_14  and  O2_16 
REMARK   10  A    between atoms: O2_16  and  C13_17 
REMARK   11  A    between atoms: C17_21  and  N3_22 
ROOT
HETATM    1  C10 UNL     1      42.769  40.156 -54.880  1.00  0.00     0.250 C 
ENDROOT
BRANCH   1   2
HETATM    2  N1  UNL     1      42.274  39.270 -53.881  1.00  0.00     0.091 N 
HETATM    3  C1  UNL     1      43.290  38.290 -53.481  1.00  0.00     0.310 C 
BRANCH   2   4
HETATM    4  C2  UNL     1      41.836  39.992 -52.681  1.00  0.00     0.274 C 
BRANCH   4   5
HETATM    5  C3  UNL     1      40.790  39.245 -51.922  1.00  0.00     0.060 C 
BRANCH   5   6
HETATM    6  C4  UNL     1      40.792  39.470 -50.434  1.00  0.00     0.274 C 
BRANCH   6   7
HETATM    7  N2  UNL     1      39.591  38.833 -49.902  1.00  0.00     0.088 N 
HETATM    8  C5  UNL     1      38.948  39.657 -48.898  1.00  0.00     0.272 C 
HETATM    9  C6  UNL     1      37.909  38.736 -48.237  1.00  0.00     0.030 C 
HETATM   10  C7  UNL     1      36.806  38.469 -49.267  1.00  0.00     0.003 C 
HETATM   11  C8  UNL     1      37.230  38.934 -50.635  1.00  0.00     0.030 C 
HETATM   12  C9  UNL     1      38.653  38.551 -50.972  1.00  0.00     0.272 C 
ENDBRANCH   6   7
ENDBRANCH   5   6
ENDBRANCH   4   5
ENDBRANCH   2   4
ENDBRANCH   1   2
BRANCH   1  13
HETATM   13  C11 UNL     1      43.023  41.582 -54.510  1.00  0.00     0.148 C 
BRANCH  13  14
HETATM   14  C12 UNL     1      44.366  42.116 -54.624  1.00  0.00     0.261 C 
HETATM   15  O1  UNL     1      45.195  41.862 -53.682  1.00  0.00    -0.265 OA
BRANCH  14  16
HETATM   16  O2  UNL     1      44.860  42.886 -55.657  1.00  0.00    -0.311 OA
BRANCH  16  17
HETATM   17  C13 UNL     1      45.655  42.419 -56.707  1.00  0.00     0.060 C 
HETATM   18  C14 UNL     1      47.043  43.038 -56.523  1.00  0.00     0.045 C 
HETATM   19  C15 UNL     1      45.781  40.916 -56.785  1.00  0.00     0.045 C 
HETATM   20  C16 UNL     1      45.118  42.911 -58.025  1.00  0.00     0.045 C 
ENDBRANCH  16  17
ENDBRANCH  14  16
ENDBRANCH  13  14
ENDBRANCH   1  13
BRANCH   1  21
HETATM   21  C17 UNL     1      41.989  40.159 -56.132  1.00  0.00     0.171 C 
BRANCH  21  22
HETATM   22  N3  UNL     1      40.675  39.645 -56.141  1.00  0.00    -0.286 N 
HETATM   23  C18 UNL     1      40.160  38.377 -56.538  1.00  0.00     0.227 C 
HETATM   24  O3  UNL     1      40.825  37.329 -56.471  1.00  0.00    -0.273 OA
HETATM   25  C19 UNL     1      38.753  38.631 -57.005  1.00  0.00     0.122 C 
HETATM   26  C20 UNL     1      38.329  39.659 -55.977  1.00  0.00     0.050 C 
HETATM   27  C21 UNL     1      37.861  39.032 -54.684  1.00  0.00     0.020 C 
HETATM   28  C24 UNL     1      37.198  40.477 -56.503  1.00  0.00     0.020 C 
HETATM   29  C25 UNL     1      39.549  40.455 -55.698  1.00  0.00     0.235 C 
HETATM   30  C22 UNL     1      36.948  40.132 -54.149  1.00  0.00     0.001 C 
HETATM   31  C23 UNL     1      36.196  40.548 -55.378  1.00  0.00     0.001 C 
HETATM   32  O4  UNL     1      39.593  41.607 -55.180  1.00  0.00    -0.272 OA
ENDBRANCH  21  22
ENDBRANCH   1  21
TORSDOF 11
ENDMDL
MODEL 2
REMARK VINA RESULT: -8.197483208      1.442      5.553
REMARK  11 active torsions:
REMARK  status: ('A' for Active; 'I' for Inactive)
REMARK    1  A    between atoms: N1_2  and  C2_3 
REMARK    2  A    between atoms: N1_2  and  C10_12 
REMARK    3  A    between atoms: C2_3  and  C3_4 
REMARK    4  A    between atoms: C3_4  and  C4_5 
REMARK    5  A    between atoms: C4_5  and  N2_6 
REMARK    6  A    between atoms: C10_12  and  C11_13 
REMARK    7  A    between atoms: C10_12  and  C17_21 
REMARK    8  A    between atoms: C11_13  and  C12_14 
REMARK    9  A    between atoms: C12_14  and  O2_16 
REMARK   10  A    between atoms: O2_16  and  C13_17 
REMARK   11  A    between atoms: C17_21  and  N3_22 
ROOT
HETATM    1  C10 UNL     1      41.625  39.466 -55.013  1.00  0.00     0.250 C 
ENDROOT
BRANCH   1   2
HETATM    2  N1  UNL     1      41.149  38.554 -54.029  1.00  0.00     0.091 N 
HETATM    3  C1  UNL     1      41.524  37.172 -54.352  1.00  0.00     0.310 C 
BRANCH   2   4
HETATM    4  C2  UNL     1      41.672  38.870 -52.695  1.00  0.00     0.274 C 
BRANCH   4   5
HETATM    5  C3  UNL     1      40.597  39.306 -51.755  1.00  0.00     0.060 C 
BRANCH   5   6
HETATM    6  C4  UNL     1      40.822  38.950 -50.310  1.00  0.00     0.274 C 
BRANCH   6   7
HETATM    7  N2  UNL     1      39.532  38.546 -49.761  1.00  0.00     0.088 N 
HETATM    8  C5  UNL     1      38.995  39.547 -48.861  1.00  0.00     0.272 C 
HETATM    9  C6  UNL     1      37.821  38.853 -48.152  1.00  0.00     0.030 C 
HETATM   10  C7  UNL     1      36.711  38.646 -49.189  1.00  0.00     0.003 C 
HETATM   11  C8  UNL     1      37.225  38.909 -50.579  1.00  0.00     0.030 C 
HETATM   12  C9  UNL     1      38.584  38.296 -50.831  1.00  0.00     0.272 C 
ENDBRANCH   6   7
ENDBRANCH   5   6
ENDBRANCH   4   5
ENDBRANCH   2   4
ENDBRANCH   1   2
BRANCH   1  13
HETATM   13  C11 UNL     1      40.628  40.208 -55.844  1.00  0.00     0.148 C 
BRANCH  13  14
HETATM   14  C12 UNL     1      39.735  41.153 -55.205  1.00  0.00     0.261 C 
HETATM   15  O1  UNL     1      40.196  41.859 -54.241  1.00  0.00    -0.265 OA
BRANCH  14  16
HETATM   16  O2  UNL     1      38.412  41.380 -55.526  1.00  0.00    -0.311 OA
BRANCH  16  17
HETATM   17  C13 UNL     1      37.353  40.509 -55.259  1.00  0.00     0.060 C 
HETATM   18  C14 UNL     1      36.935  39.894 -56.597  1.00  0.00     0.045 C 
HETATM   19  C15 UNL     1      37.672  39.407 -54.276  1.00  0.00     0.045 C 
HETATM   20  C16 UNL     1      36.169  41.275 -54.731  1.00  0.00     0.045 C 
ENDBRANCH  16  17
ENDBRANCH  14  16
ENDBRANCH  13  14
ENDBRANCH   1  13
BRANCH   1  21
HETATM   21  C17 UNL     1      42.629  38.899 -55.933  1.00  0.00     0.171 C 
BRANCH  21  22
HETATM   22  N3  UNL     1      43.358  39.752 -56.789  1.00  0.00    -0.286 N 
HETATM   23  C18 UNL     1      43.478  39.785 -58.209  1.00  0.00     0.227 C 
HETATM   24  O3  UNL     1      42.576  39.398 -58.971  1.00  0.00    -0.273 OA
HETATM   25  C19 UNL     1      44.841  40.355 -58.494  1.00  0.00     0.122 C 
HETATM   26  C20 UNL     1      44.902  41.413 -57.411  1.00  0.00     0.050 C 
HETATM   27  C21 UNL     1      44.207  42.694 -57.808  1.00  0.00     0.020 C 
HETATM   28  C24 UNL     1      46.321  41.758 -57.109  1.00  0.00     0.020 C 
HETATM   29  C25 UNL     1      44.182  40.826 -56.255  1.00  0.00     0.235 C 
HETATM   30  C22 UNL     1      44.936  43.699 -56.921  1.00  0.00     0.001 C 
HETATM   31  C23 UNL     1      46.364  43.265 -57.054  1.00  0.00     0.001 C 
HETATM   32  O4  UNL     1      44.273  41.191 -55.049  1.00  0.00    -0.272 OA
ENDBRANCH  21  22
ENDBRANCH   1  21
TORSDOF 11
ENDMDL
MODEL 3
REMARK VINA RESULT: -8.144567905      1.262      1.986
REMARK  11 active torsions:
REMARK  status: ('A' for Active; 'I' for Inactive)
REMARK    1  A    between atoms: N1_2  and  C2_3 
REMARK    2  A    between atoms: N1_2  and  C10_12 
REMARK    3  A    between atoms: C2_3  and  C3_4 
REMARK    4  A    between atoms: C3_4  and  C4_5 
REMARK    5  A    between atoms: C4_5  and  N2_6 
REMARK    6  A    between atoms: C10_12  and  C11_13 
REMARK    7  A    between atoms: C10_12  and  C17_21 
REMARK    8  A    between atoms: C11_13  and  C12_14 
REMARK    9  A    between atoms: C12_14  and  O2_16 
REMARK   10  A    between atoms: O2_16  and  C13_17 
REMARK   11  A    between atoms: C17_21  and  N3_22 
ROOT
HETATM    1  C10 UNL     1      42.958  39.456 -54.940  1.00  0.00     0.250 C 
ENDROOT
BRANCH   1   2
HETATM    2  N1  UNL     1      42.158  38.465 -54.303  1.00  0.00     0.091 N 
HETATM    3  C1  UNL     1      42.671  37.114 -54.562  1.00  0.00     0.310 C 
BRANCH   2   4
HETATM    4  C2  UNL     1      42.102  38.662 -52.850  1.00  0.00     0.274 C 
BRANCH   4   5
HETATM    5  C3  UNL     1      40.700  38.687 -52.337  1.00  0.00     0.060 C 
BRANCH   5   6
HETATM    6  C4  UNL     1      40.562  38.609 -50.840  1.00  0.00     0.274 C 
BRANCH   6   7
HETATM    7  N2  UNL     1      39.175  38.256 -50.555  1.00  0.00     0.088 N 
HETATM    8  C5  UNL     1      38.538  39.236 -49.697  1.00  0.00     0.272 C 
HETATM    9  C6  UNL     1      37.221  38.577 -49.254  1.00  0.00     0.030 C 
HETATM   10  C7  UNL     1      36.306  38.500 -50.481  1.00  0.00     0.003 C 
HETATM   11  C8  UNL     1      37.074  38.810 -51.739  1.00  0.00     0.030 C 
HETATM   12  C9  UNL     1      38.422  38.128 -51.788  1.00  0.00     0.272 C 
ENDBRANCH   6   7
ENDBRANCH   5   6
ENDBRANCH   4   5
ENDBRANCH   2   4
ENDBRANCH   1   2
BRANCH   1  13
HETATM   13  C11 UNL     1      43.681  40.449 -54.089  1.00  0.00     0.148 C 
BRANCH  13  14
HETATM   14  C12 UNL     1      44.949  40.984 -54.543  1.00  0.00     0.261 C 
HETATM   15  O1  UNL     1      45.994  40.260 -54.394  1.00  0.00    -0.265 OA
BRANCH  14  16
HETATM   16  O2  UNL     1      45.159  42.215 -55.131  1.00  0.00    -0.311 OA
BRANCH  16  17
HETATM   17  C13 UNL     1      45.589  42.423 -56.444  1.00  0.00     0.060 C 
HETATM   18  C14 UNL     1      47.046  42.888 -56.366  1.00  0.00     0.045 C 
HETATM   19  C15 UNL     1      45.493  41.212 -57.341  1.00  0.00     0.045 C 
HETATM   20  C16 UNL     1      44.799  43.536 -57.079  1.00  0.00     0.045 C 
ENDBRANCH  16  17
ENDBRANCH  14  16
ENDBRANCH  13  14
ENDBRANCH   1  13
BRANCH   1  21
HETATM   21  C17 UNL     1      42.262  40.210 -56.000  1.00  0.00     0.171 C 
BRANCH  21  22
HETATM   22  N3  UNL     1      40.895  40.528 -55.853  1.00  0.00    -0.286 N 
HETATM   23  C18 UNL     1      40.207  41.315 -54.884  1.00  0.00     0.227 C 
HETATM   24  O3  UNL     1      40.738  42.271 -54.293  1.00  0.00    -0.273 OA
HETATM   25  C19 UNL     1      38.822  40.736 -54.790  1.00  0.00     0.122 C 
HETATM   26  C20 UNL     1      38.580  40.426 -56.252  1.00  0.00     0.050 C 
HETATM   27  C21 UNL     1      38.099  41.628 -57.032  1.00  0.00     0.020 C 
HETATM   28  C24 UNL     1      37.536  39.368 -56.387  1.00  0.00     0.020 C 
HETATM   29  C25 UNL     1      39.901  40.017 -56.787  1.00  0.00     0.235 C 
HETATM   30  C22 UNL     1      37.357  40.945 -58.177  1.00  0.00     0.001 C 
HETATM   31  C23 UNL     1      36.606  39.858 -57.469  1.00  0.00     0.001 C 
HETATM   32  O4  UNL     1      40.114  39.356 -57.843  1.00  0.00    -0.272 OA
ENDBRANCH  21  22
ENDBRANCH   1  21
TORSDOF 11
ENDMDL
MODEL 4
REMARK VINA RESULT: -8.111194845      1.010      1.540
REMARK  11 active torsions:
REMARK  status: ('A' for Active; 'I' for Inactive)
REMARK    1  A    between atoms: N1_2  and  C2_3 
REMARK    2  A    between atoms: N1_2  and  C10_12 
REMARK    3  A    between atoms: C2_3  and  C3_4 
REMARK    4  A    between atoms: C3_4  and  C4_5 
REMARK    5  A    between atoms: C4_5  and  N2_6 
REMARK    6  A    between atoms: C10_12  and  C11_13 
REMARK    7  A    between atoms: C10_12  and  C17_21 
REMARK    8  A    between atoms: C11_13  and  C12_14 
REMARK    9  A    between atoms: C12_14  and  O2_16 
REMARK   10  A    between atoms: O2_16  and  C13_17 
REMARK   11  A    between atoms: C17_21  and  N3_22 
ROOT
HETATM    1  C10 UNL     1      42.935  40.441 -54.129  1.00  0.00     0.250 C 
ENDROOT
BRANCH   1   2
HETATM    2  N1  UNL     1      42.472  41.389 -53.174  1.00  0.00     0.091 N 
HETATM    3  C1  UNL     1      42.127  42.667 -53.810  1.00  0.00     0.310 C 
BRANCH   2   4
HETATM    4  C2  UNL     1      41.290  40.904 -52.453  1.00  0.00     0.274 C 
BRANCH   4   5
HETATM    5  C3  UNL     1      41.452  39.497 -51.982  1.00  0.00     0.060 C 
BRANCH   5   6
HETATM    6  C4  UNL     1      40.256  38.607 -52.188  1.00  0.00     0.274 C 
BRANCH   6   7
HETATM    7  N2  UNL     1      39.236  39.030 -51.234  1.00  0.00     0.088 N 
HETATM    8  C5  UNL     1      38.033  38.230 -51.345  1.00  0.00     0.272 C 
HETATM    9  C6  UNL     1      36.980  38.981 -50.513  1.00  0.00     0.030 C 
HETATM   10  C7  UNL     1      37.380  38.855 -49.039  1.00  0.00     0.003 C 
HETATM   11  C8  UNL     1      38.778  38.313 -48.910  1.00  0.00     0.030 C 
HETATM   12  C9  UNL     1      39.749  38.950 -49.879  1.00  0.00     0.272 C 
ENDBRANCH   6   7
ENDBRANCH   5   6
ENDBRANCH   4   5
ENDBRANCH   2   4
ENDBRANCH   1   2
BRANCH   1  13
HETATM   13  C11 UNL     1      44.407  40.313 -54.355  1.00  0.00     0.148 C 
BRANCH  13  14
HETATM   14  C12 UNL     1      45.227  41.507 -54.383  1.00  0.00     0.261 C 
HETATM   15  O1  UNL     1      46.101  41.658 -53.460  1.00  0.00    -0.265 OA
BRANCH  14  16
HETATM   16  O2  UNL     1      45.167  42.525 -55.314  1.00  0.00    -0.311 OA
BRANCH  16  17
HETATM   17  C13 UNL     1      45.749  42.496 -56.584  1.00  0.00     0.060 C 
HETATM   18  C14 UNL     1      47.193  42.977 -56.422  1.00  0.00     0.045 C 
HETATM   19  C15 UNL     1      45.740  41.142 -57.254  1.00  0.00     0.045 C 
HETATM   20  C16 UNL     1      45.053  43.471 -57.496  1.00  0.00     0.045 C 
ENDBRANCH  16  17
ENDBRANCH  14  16
ENDBRANCH  13  14
ENDBRANCH   1  13
BRANCH   1  21
HETATM   21  C17 UNL     1      42.295  40.549 -55.454  1.00  0.00     0.171 C 
BRANCH  21  22
HETATM   22  N3  UNL     1      41.115  39.824 -55.725  1.00  0.00    -0.286 N 
HETATM   23  C18 UNL     1      40.880  38.427 -55.880  1.00  0.00     0.227 C 
HETATM   24  O3  UNL     1      41.566  37.561 -55.309  1.00  0.00    -0.273 OA
HETATM   25  C19 UNL     1      39.709  38.307 -56.816  1.00  0.00     0.122 C 
HETATM   26  C20 UNL     1      38.868  39.462 -56.314  1.00  0.00     0.050 C 
HETATM   27  C21 UNL     1      38.032  39.096 -55.110  1.00  0.00     0.020 C 
HETATM   28  C24 UNL     1      37.928  39.915 -57.380  1.00  0.00     0.020 C 
HETATM   29  C25 UNL     1      39.842  40.505 -55.910  1.00  0.00     0.235 C 
HETATM   30  C22 UNL     1      36.900  40.113 -55.229  1.00  0.00     0.001 C 
HETATM   31  C23 UNL     1      36.594  40.079 -56.696  1.00  0.00     0.001 C 
HETATM   32  O4  UNL     1      39.606  41.737 -55.760  1.00  0.00    -0.272 OA
ENDBRANCH  21  22
ENDBRANCH   1  21
TORSDOF 11
ENDMDL
MODEL 5
REMARK VINA RESULT: -8.045354025      1.652      5.470
REMARK  11 active torsions:
REMARK  status: ('A' for Active; 'I' for Inactive)
REMARK    1  A    between atoms: N1_2  and  C2_3 
REMARK    2  A    between atoms: N1_2  and  C10_12 
REMARK    3  A    between atoms: C2_3  and  C3_4 
REMARK    4  A    between atoms: C3_4  and  C4_5 
REMARK    5  A    between atoms: C4_5  and  N2_6 
REMARK    6  A    between atoms: C10_12  and  C11_13 
REMARK    7  A    between atoms: C10_12  and  C17_21 
REMARK    8  A    between atoms: C11_13  and  C12_14 
REMARK    9  A    between atoms: C12_14  and  O2_16 
REMARK   10  A    between atoms: O2_16  and  C13_17 
REMARK   11  A    between atoms: C17_21  and  N3_22 
ROOT
HETATM    1  C10 UNL     1      42.500  39.184 -54.380  1.00  0.00     0.250 C 
ENDROOT
BRANCH   1   2
HETATM    2  N1  UNL     1      42.200  39.710 -53.091  1.00  0.00     0.091 N 
HETATM    3  C1  UNL     1      41.351  40.903 -53.183  1.00  0.00     0.310 C 
BRANCH   2   4
HETATM    4  C2  UNL     1      41.515  38.725 -52.247  1.00  0.00     0.274 C 
BRANCH   4   5
HETATM    5  C3  UNL     1      40.299  39.291 -51.590  1.00  0.00     0.060 C 
BRANCH   5   6
HETATM    6  C4  UNL     1      40.279  39.200 -50.088  1.00  0.00     0.274 C 
BRANCH   6   7
HETATM    7  N2  UNL     1      39.033  38.537 -49.714  1.00  0.00     0.088 N 
HETATM    8  C5  UNL     1      38.413  39.168 -48.566  1.00  0.00     0.272 C 
HETATM    9  C6  UNL     1      37.311  38.191 -48.126  1.00  0.00     0.030 C 
HETATM   10  C7  UNL     1      36.218  38.211 -49.200  1.00  0.00     0.003 C 
HETATM   11  C8  UNL     1      36.698  38.927 -50.435  1.00  0.00     0.030 C 
HETATM   12  C9  UNL     1      38.105  38.541 -50.830  1.00  0.00     0.272 C 
ENDBRANCH   6   7
ENDBRANCH   5   6
ENDBRANCH   4   5
ENDBRANCH   2   4
ENDBRANCH   1   2
BRANCH   1  13
HETATM   13  C11 UNL     1      42.284  37.726 -54.626  1.00  0.00     0.148 C 
BRANCH  13  14
HETATM   14  C12 UNL     1      41.228  37.306 -55.525  1.00  0.00     0.261 C 
HETATM   15  O1  UNL     1      41.561  36.706 -56.606  1.00  0.00    -0.265 OA
BRANCH  14  16
HETATM   16  O2  UNL     1      39.872  37.489 -55.343  1.00  0.00    -0.311 OA
BRANCH  16  17
HETATM   17  C13 UNL     1      39.111  38.518 -55.903  1.00  0.00     0.060 C 
HETATM   18  C14 UNL     1      38.276  39.122 -54.771  1.00  0.00     0.045 C 
HETATM   19  C15 UNL     1      39.914  39.607 -56.574  1.00  0.00     0.045 C 
HETATM   20  C16 UNL     1      38.148  37.958 -56.917  1.00  0.00     0.045 C 
ENDBRANCH  16  17
ENDBRANCH  14  16
ENDBRANCH  13  14
ENDBRANCH   1  13
BRANCH   1  21
HETATM   21  C17 UNL     1      43.849  39.518 -54.874  1.00  0.00     0.171 C 
BRANCH  21  22
HETATM   22  N3  UNL     1      44.027  40.615 -55.743  1.00  0.00    -0.286 N 
HETATM   23  C18 UNL     1      44.426  41.961 -55.496  1.00  0.00     0.227 C 
HETATM   24  O3  UNL     1      45.173  42.280 -54.554  1.00  0.00    -0.273 OA
HETATM   25  C19 UNL     1      43.771  42.788 -56.567  1.00  0.00     0.122 C 
HETATM   26  C20 UNL     1      43.929  41.848 -57.743  1.00  0.00     0.050 C 
HETATM   27  C21 UNL     1      45.287  41.953 -58.396  1.00  0.00     0.020 C 
HETATM   28  C24 UNL     1      42.912  42.159 -58.790  1.00  0.00     0.020 C 
HETATM   29  C25 UNL     1      43.785  40.486 -57.173  1.00  0.00     0.235 C 
HETATM   30  C22 UNL     1      44.963  41.463 -59.805  1.00  0.00     0.001 C 
HETATM   31  C23 UNL     1      43.668  42.158 -60.095  1.00  0.00     0.001 C 
HETATM   32  O4  UNL     1      43.507  39.430 -57.809  1.00  0.00    -0.272 OA
ENDBRANCH  21  22
ENDBRANCH   1  21
TORSDOF 11
ENDMDL
