MODEL 1
REMARK VINA RESULT: -8.835462674      0.000      0.000
REMARK  8 active torsions:
REMARK  status: ('A' for Active; 'I' for Inactive)
REMARK    1  A    between atoms: C2_2  and  C3_3 
REMARK    2  A    between atoms: C3_3  and  C4_4 
REMARK    3  A    between atoms: C4_4  and  C5_5 
REMARK    4  A    between atoms: C5_5  and  C6_6 
REMARK    5  A    between atoms: C6_6  and  C7_7 
REMARK    6  A    between atoms: C7_7  and  N1_8 
REMARK    7  A    between atoms: C8_11  and  C9_12 
REMARK       I    between atoms: C9_12  and  N3_14 
REMARK    8  A    between atoms: C14_21  and  C15_22 
ROOT
HETATM    1  N1  UNL     1      41.988  41.029 -52.414  1.00  0.00    -0.278 N 
HETATM    2  N2  UNL     1      43.180  41.482 -52.837  1.00  0.00    -0.277 N 
ATOM      3  H2  UNL     1      43.710  42.222 -52.376  1.00  0.00     0.189 HD
HETATM    4  C8  UNL     1      43.578  40.845 -53.926  1.00  0.00     0.191 A 
HETATM    5  N4  UNL     1      42.625  39.966 -54.211  1.00  0.00    -0.325 N 
ATOM      6  H4  UNL     1      42.633  39.317 -54.998  1.00  0.00     0.169 HD
HETATM    7  C14 UNL     1      41.627  40.072 -53.276  1.00  0.00     0.106 A 
ENDROOT
BRANCH   7   8
HETATM    8  C15 UNL     1      40.393  39.260 -53.301  1.00  0.00     0.079 C 
HETATM    9  C16 UNL     1      40.454  38.096 -54.255  1.00  0.00     0.020 C 
HETATM   10  C17 UNL     1      39.193  37.304 -54.102  1.00  0.00     0.000 C 
HETATM   11  C18 UNL     1      39.495  36.015 -53.377  1.00  0.00     0.011 C 
HETATM   12  C19 UNL     1      38.145  38.039 -53.310  1.00  0.00     0.127 C 
HETATM   13  N5  UNL     1      38.007  39.422 -53.694  1.00  0.00    -0.374 N 
HETATM   14  C20 UNL     1      37.148  39.638 -54.772  1.00  0.00     0.196 C 
HETATM   15  C22 UNL     1      39.179  40.150 -53.647  1.00  0.00     0.109 C 
HETATM   16  S1  UNL     1      37.748  41.155 -55.476  1.00  0.00     0.181 S 
HETATM   17  O2  UNL     1      37.714  41.125 -56.970  1.00  0.00    -0.222 OA
HETATM   18  O3  UNL     1      37.077  42.326 -54.877  1.00  0.00    -0.222 OA
HETATM   19  C21 UNL     1      39.429  40.953 -54.869  1.00  0.00     0.172 C 
ENDBRANCH   7   8
BRANCH   1  20
HETATM   20  C7  UNL     1      41.282  41.492 -51.237  1.00  0.00     0.150 C 
BRANCH  20  21
HETATM   21  C6  UNL     1      41.129  40.466 -50.155  1.00  0.00     0.022 C 
BRANCH  21  22
HETATM   22  C5  UNL     1      40.363  40.910 -48.964  1.00  0.00     0.002 C 
BRANCH  22  23
HETATM   23  C4  UNL     1      39.183  40.049 -48.644  1.00  0.00     0.000 C 
BRANCH  23  24
HETATM   24  C3  UNL     1      38.849  39.087 -49.772  1.00  0.00    -0.000 C 
BRANCH  24  25
HETATM   25  C2  UNL     1      37.399  38.667 -49.659  1.00  0.00    -0.005 C 
HETATM   26  C1  UNL     1      37.154  38.244 -48.209  1.00  0.00     0.005 C 
ENDBRANCH  24  25
ENDBRANCH  23  24
ENDBRANCH  22  23
ENDBRANCH  21  22
ENDBRANCH  20  21
ENDBRANCH   1  20
BRANCH   4  27
HETATM   27  C9  UNL     1      44.826  41.088 -54.634  1.00  0.00     0.289 C 
HETATM   28  O1  UNL     1      45.882  40.442 -54.294  1.00  0.00    -0.264 OA
HETATM   29  N3  UNL     1      44.963  42.014 -55.705  1.00  0.00    -0.345 N 
HETATM   30  C10 UNL     1      43.921  42.841 -56.237  1.00  0.00     0.126 C 
HETATM   31  C13 UNL     1      46.194  42.237 -56.426  1.00  0.00     0.126 C 
HETATM   32  C11 UNL     1      44.645  43.885 -57.049  1.00  0.00     0.021 C 
HETATM   33  C12 UNL     1      45.847  43.171 -57.567  1.00  0.00     0.021 C 
ENDBRANCH   4  27
TORSDOF 8
ENDMDL
MODEL 2
REMARK VINA RESULT: -8.542185095      1.468      1.793
REMARK  8 active torsions:
REMARK  status: ('A' for Active; 'I' for Inactive)
REMARK    1  A    between atoms: C2_2  and  C3_3 
REMARK    2  A    between atoms: C3_3  and  C4_4 
REMARK    3  A    between atoms: C4_4  and  C5_5 
REMARK    4  A    between atoms: C5_5  and  C6_6 
REMARK    5  A    between atoms: C6_6  and  C7_7 
REMARK    6  A    between atoms: C7_7  and  N1_8 
REMARK    7  A    between atoms: C8_11  and  C9_12 
REMARK       I    between atoms: C9_12  and  N3_14 
REMARK    8  A    between atoms: C14_21  and  C15_22 
ROOT
HETATM    1  N1  UNL     1      41.680  40.406 -52.897  1.00  0.00    -0.278 N 
HETATM    2  N2  UNL     1      42.879  40.975 -53.108  1.00  0.00    -0.277 N 
ATOM      3  H2  UNL     1      43.287  41.694 -52.510  1.00  0.00     0.189 HD
HETATM    4  C8  UNL     1      43.461  40.484 -54.190  1.00  0.00     0.191 A 
HETATM    5  N4  UNL     1      42.622  39.583 -54.686  1.00  0.00    -0.325 N 
ATOM      6  H4  UNL     1      42.781  39.023 -55.524  1.00  0.00     0.169 HD
HETATM    7  C14 UNL     1      41.507  39.526 -53.889  1.00  0.00     0.106 A 
ENDROOT
BRANCH   7   8
HETATM    8  C15 UNL     1      40.352  38.645 -54.160  1.00  0.00     0.079 C 
HETATM    9  C16 UNL     1      40.735  37.221 -54.466  1.00  0.00     0.020 C 
HETATM   10  C17 UNL     1      39.477  36.423 -54.613  1.00  0.00     0.000 C 
HETATM   11  C18 UNL     1      39.302  35.536 -53.406  1.00  0.00     0.011 C 
HETATM   12  C19 UNL     1      38.254  37.293 -54.722  1.00  0.00     0.127 C 
HETATM   13  N5  UNL     1      38.428  38.412 -55.615  1.00  0.00    -0.374 N 
HETATM   14  C20 UNL     1      38.174  38.124 -56.957  1.00  0.00     0.196 C 
HETATM   15  C22 UNL     1      39.512  39.216 -55.323  1.00  0.00     0.109 C 
HETATM   16  S1  UNL     1      39.160  39.318 -57.827  1.00  0.00     0.181 S 
HETATM   17  O2  UNL     1      39.805  38.729 -59.040  1.00  0.00    -0.222 OA
HETATM   18  O3  UNL     1      38.397  40.556 -58.085  1.00  0.00    -0.222 OA
HETATM   19  C21 UNL     1      40.358  39.525 -56.501  1.00  0.00     0.172 C 
ENDBRANCH   7   8
BRANCH   1  20
HETATM   20  C7  UNL     1      40.796  40.696 -51.788  1.00  0.00     0.150 C 
BRANCH  20  21
HETATM   21  C6  UNL     1      41.150  40.002 -50.507  1.00  0.00     0.022 C 
BRANCH  21  22
HETATM   22  C5  UNL     1      40.815  38.558 -50.454  1.00  0.00     0.002 C 
BRANCH  22  23
HETATM   23  C4  UNL     1      39.364  38.262 -50.665  1.00  0.00     0.000 C 
BRANCH  23  24
HETATM   24  C3  UNL     1      38.503  38.745 -49.510  1.00  0.00    -0.000 C 
BRANCH  24  25
HETATM   25  C2  UNL     1      37.085  38.955 -49.994  1.00  0.00    -0.005 C 
HETATM   26  C1  UNL     1      37.049  38.593 -51.481  1.00  0.00     0.005 C 
ENDBRANCH  24  25
ENDBRANCH  23  24
ENDBRANCH  22  23
ENDBRANCH  21  22
ENDBRANCH  20  21
ENDBRANCH   1  20
BRANCH   4  27
HETATM   27  C9  UNL     1      44.768  40.878 -54.694  1.00  0.00     0.289 C 
HETATM   28  O1  UNL     1      45.822  40.306 -54.236  1.00  0.00    -0.264 OA
HETATM   29  N3  UNL     1      44.966  41.878 -55.686  1.00  0.00    -0.345 N 
HETATM   30  C10 UNL     1      43.936  42.644 -56.323  1.00  0.00     0.126 C 
HETATM   31  C13 UNL     1      46.260  42.252 -56.206  1.00  0.00     0.126 C 
HETATM   32  C11 UNL     1      44.665  43.797 -56.967  1.00  0.00     0.021 C 
HETATM   33  C12 UNL     1      45.991  43.224 -57.338  1.00  0.00     0.021 C 
ENDBRANCH   4  27
TORSDOF 8
ENDMDL
MODEL 3
REMARK VINA RESULT: -8.404936841      4.792      7.303
REMARK  8 active torsions:
REMARK  status: ('A' for Active; 'I' for Inactive)
REMARK    1  A    between atoms: C2_2  and  C3_3 
REMARK    2  A    between atoms: C3_3  and  C4_4 
REMARK    3  A    between atoms: C4_4  and  C5_5 
REMARK    4  A    between atoms: C5_5  and  C6_6 
REMARK    5  A    between atoms: C6_6  and  C7_7 
REMARK    6  A    between atoms: C7_7  and  N1_8 
REMARK    7  A    between atoms: C8_11  and  C9_12 
REMARK       I    between atoms: C9_12  and  N3_14 
REMARK    8  A    between atoms: C14_21  and  C15_22 
ROOT
HETATM    1  N1  UNL     1      40.208  43.147 -58.779  1.00  0.00    -0.278 N 
HETATM    2  N2  UNL     1      41.415  43.735 -58.770  1.00  0.00    -0.277 N 
ATOM      3  H2  UNL     1      41.721  44.430 -59.451  1.00  0.00     0.189 HD
HETATM    4  C8  UNL     1      42.156  43.298 -57.764  1.00  0.00     0.191 A 
HETATM    5  N4  UNL     1      41.412  42.411 -57.113  1.00  0.00    -0.325 N 
ATOM      6  H4  UNL     1      41.699  41.891 -56.284  1.00  0.00     0.169 HD
HETATM    7  C14 UNL     1      40.195  42.307 -57.737  1.00  0.00     0.106 A 
ENDROOT
BRANCH   7   8
HETATM    8  C15 UNL     1      39.125  41.389 -57.296  1.00  0.00     0.079 C 
HETATM    9  C16 UNL     1      39.034  41.241 -55.799  1.00  0.00     0.020 C 
HETATM   10  C17 UNL     1      37.852  40.376 -55.490  1.00  0.00     0.000 C 
HETATM   11  C18 UNL     1      36.743  41.227 -54.921  1.00  0.00     0.011 C 
HETATM   12  C19 UNL     1      37.313  39.680 -56.711  1.00  0.00     0.127 C 
HETATM   13  N5  UNL     1      38.344  39.108 -57.541  1.00  0.00    -0.374 N 
HETATM   14  C20 UNL     1      38.749  37.828 -57.159  1.00  0.00     0.196 C 
HETATM   15  C22 UNL     1      39.319  40.000 -57.942  1.00  0.00     0.109 C 
HETATM   16  S1  UNL     1      40.412  37.724 -57.774  1.00  0.00     0.181 S 
HETATM   17  O2  UNL     1      41.316  37.020 -56.814  1.00  0.00    -0.222 OA
HETATM   18  O3  UNL     1      40.442  37.179 -59.146  1.00  0.00    -0.222 OA
HETATM   19  C21 UNL     1      40.701  39.499 -57.742  1.00  0.00     0.172 C 
ENDBRANCH   7   8
BRANCH   1  20
HETATM   20  C7  UNL     1      39.148  43.418 -59.728  1.00  0.00     0.150 C 
BRANCH  20  21
HETATM   21  C6  UNL     1      38.401  44.695 -59.483  1.00  0.00     0.022 C 
BRANCH  21  22
HETATM   22  C5  UNL     1      37.291  44.971 -60.429  1.00  0.00     0.002 C 
BRANCH  22  23
HETATM   23  C4  UNL     1      36.298  43.858 -60.542  1.00  0.00     0.000 C 
BRANCH  23  24
HETATM   24  C3  UNL     1      35.021  44.293 -61.242  1.00  0.00    -0.000 C 
BRANCH  24  25
HETATM   25  C2  UNL     1      34.921  45.803 -61.209  1.00  0.00    -0.005 C 
HETATM   26  C1  UNL     1      34.175  46.241 -62.472  1.00  0.00     0.005 C 
ENDBRANCH  24  25
ENDBRANCH  23  24
ENDBRANCH  22  23
ENDBRANCH  21  22
ENDBRANCH  20  21
ENDBRANCH   1  20
BRANCH   4  27
HETATM   27  C9  UNL     1      43.511  43.737 -57.463  1.00  0.00     0.289 C 
HETATM   28  O1  UNL     1      43.769  44.993 -57.398  1.00  0.00    -0.264 OA
HETATM   29  N3  UNL     1      44.598  42.850 -57.230  1.00  0.00    -0.345 N 
HETATM   30  C10 UNL     1      44.535  41.419 -57.264  1.00  0.00     0.126 C 
HETATM   31  C13 UNL     1      45.937  43.283 -56.906  1.00  0.00     0.126 C 
HETATM   32  C11 UNL     1      45.975  40.979 -57.349  1.00  0.00     0.021 C 
HETATM   33  C12 UNL     1      46.718  42.024 -56.589  1.00  0.00     0.021 C 
ENDBRANCH   4  27
TORSDOF 8
ENDMDL
MODEL 4
REMARK VINA RESULT: -8.352593891      1.927      2.443
REMARK  8 active torsions:
REMARK  status: ('A' for Active; 'I' for Inactive)
REMARK    1  A    between atoms: C2_2  and  C3_3 
REMARK    2  A    between atoms: C3_3  and  C4_4 
REMARK    3  A    between atoms: C4_4  and  C5_5 
REMARK    4  A    between atoms: C5_5  and  C6_6 
REMARK    5  A    between atoms: C6_6  and  C7_7 
REMARK    6  A    between atoms: C7_7  and  N1_8 
REMARK    7  A    between atoms: C8_11  and  C9_12 
REMARK       I    between atoms: C9_12  and  N3_14 
REMARK    8  A    between atoms: C14_21  and  C15_22 
ROOT
HETATM    1  N1  UNL     1      41.573  41.112 -53.654  1.00  0.00    -0.278 N 
HETATM    2  N2  UNL     1      42.619  41.779 -54.169  1.00  0.00    -0.277 N 
ATOM      3  H2  UNL     1      43.551  41.792 -53.757  1.00  0.00     0.189 HD
HETATM    4  C8  UNL     1      42.285  42.415 -55.281  1.00  0.00     0.191 A 
HETATM    5  N4  UNL     1      40.999  42.155 -55.485  1.00  0.00    -0.325 N 
ATOM      6  H4  UNL     1      40.440  42.501 -56.265  1.00  0.00     0.169 HD
HETATM    7  C14 UNL     1      40.543  41.344 -54.476  1.00  0.00     0.106 A 
ENDROOT
BRANCH   7   8
HETATM    8  C15 UNL     1      39.145  40.877 -54.371  1.00  0.00     0.079 C 
HETATM    9  C16 UNL     1      39.019  39.406 -54.072  1.00  0.00     0.020 C 
HETATM   10  C17 UNL     1      37.567  39.092 -53.886  1.00  0.00     0.000 C 
HETATM   11  C18 UNL     1      37.289  38.852 -52.423  1.00  0.00     0.011 C 
HETATM   12  C19 UNL     1      36.674  40.214 -54.343  1.00  0.00     0.127 C 
HETATM   13  N5  UNL     1      37.067  40.774 -55.613  1.00  0.00    -0.374 N 
HETATM   14  C20 UNL     1      36.556  40.099 -56.723  1.00  0.00     0.196 C 
HETATM   15  C22 UNL     1      38.376  41.208 -55.669  1.00  0.00     0.109 C 
HETATM   16  S1  UNL     1      37.739  40.456 -57.999  1.00  0.00     0.181 S 
HETATM   17  O2  UNL     1      37.997  39.267 -58.866  1.00  0.00    -0.222 OA
HETATM   18  O3  UNL     1      37.373  41.680 -58.741  1.00  0.00    -0.222 OA
HETATM   19  C21 UNL     1      39.109  40.734 -56.868  1.00  0.00     0.172 C 
ENDBRANCH   7   8
BRANCH   1  20
HETATM   20  C7  UNL     1      41.603  40.294 -52.460  1.00  0.00     0.150 C 
BRANCH  20  21
HETATM   21  C6  UNL     1      41.345  41.039 -51.185  1.00  0.00     0.022 C 
BRANCH  21  22
HETATM   22  C5  UNL     1      40.947  40.199 -50.028  1.00  0.00     0.002 C 
BRANCH  22  23
HETATM   23  C4  UNL     1      40.556  38.804 -50.398  1.00  0.00     0.000 C 
BRANCH  23  24
HETATM   24  C3  UNL     1      39.453  38.258 -49.506  1.00  0.00    -0.000 C 
BRANCH  24  25
HETATM   25  C2  UNL     1      38.771  39.406 -48.792  1.00  0.00    -0.005 C 
HETATM   26  C1  UNL     1      37.533  38.842 -48.093  1.00  0.00     0.005 C 
ENDBRANCH  24  25
ENDBRANCH  23  24
ENDBRANCH  22  23
ENDBRANCH  21  22
ENDBRANCH  20  21
ENDBRANCH   1  20
BRANCH   4  27
HETATM   27  C9  UNL     1      43.184  43.223 -56.091  1.00  0.00     0.289 C 
HETATM   28  O1  UNL     1      42.743  44.287 -56.656  1.00  0.00    -0.264 OA
HETATM   29  N3  UNL     1      44.554  42.908 -56.308  1.00  0.00    -0.345 N 
HETATM   30  C10 UNL     1      45.246  41.768 -55.782  1.00  0.00     0.126 C 
HETATM   31  C13 UNL     1      45.454  43.721 -57.090  1.00  0.00     0.126 C 
HETATM   32  C11 UNL     1      46.510  41.683 -56.600  1.00  0.00     0.021 C 
HETATM   33  C12 UNL     1      46.829  43.104 -56.922  1.00  0.00     0.021 C 
ENDBRANCH   4  27
TORSDOF 8
ENDMDL
MODEL 5
REMARK VINA RESULT: -8.344516853      4.039      7.121
REMARK  8 active torsions:
REMARK  status: ('A' for Active; 'I' for Inactive)
REMARK    1  A    between atoms: C2_2  and  C3_3 
REMARK    2  A    between atoms: C3_3  and  C4_4 
REMARK    3  A    between atoms: C4_4  and  C5_5 
REMARK    4  A    between atoms: C5_5  and  C6_6 
REMARK    5  A    between atoms: C6_6  and  C7_7 
REMARK    6  A    between atoms: C7_7  and  N1_8 
REMARK    7  A    between atoms: C8_11  and  C9_12 
REMARK       I    between atoms: C9_12  and  N3_14 
REMARK    8  A    between atoms: C14_21  and  C15_22 
ROOT
HETATM    1  N1  UNL     1      42.659  43.584 -57.636  1.00  0.00    -0.278 N 
HETATM    2  N2  UNL     1      42.425  44.466 -58.622  1.00  0.00    -0.277 N 
ATOM      3  H2  UNL     1      42.921  45.351 -58.731  1.00  0.00     0.189 HD
HETATM    4  C8  UNL     1      41.469  44.041 -59.432  1.00  0.00     0.191 A 
HETATM    5  N4  UNL     1      41.079  42.863 -58.960  1.00  0.00    -0.325 N 
ATOM      6  H4  UNL     1      40.351  42.273 -59.364  1.00  0.00     0.169 HD
HETATM    7  C14 UNL     1      41.813  42.568 -57.839  1.00  0.00     0.106 A 
ENDROOT
BRANCH   7   8
HETATM    8  C15 UNL     1      41.624  41.341 -57.037  1.00  0.00     0.079 C 
HETATM    9  C16 UNL     1      41.639  40.076 -57.854  1.00  0.00     0.020 C 
HETATM   10  C17 UNL     1      41.546  38.915 -56.914  1.00  0.00     0.000 C 
HETATM   11  C18 UNL     1      42.886  38.225 -56.835  1.00  0.00     0.011 C 
HETATM   12  C19 UNL     1      41.164  39.333 -55.520  1.00  0.00     0.127 C 
HETATM   13  N5  UNL     1      40.085  40.290 -55.488  1.00  0.00    -0.374 N 
HETATM   14  C20 UNL     1      38.810  39.723 -55.519  1.00  0.00     0.196 C 
HETATM   15  C22 UNL     1      40.304  41.427 -56.240  1.00  0.00     0.109 C 
HETATM   16  S1  UNL     1      37.809  41.006 -56.231  1.00  0.00     0.181 S 
HETATM   17  O2  UNL     1      36.795  40.456 -57.182  1.00  0.00    -0.222 OA
HETATM   18  O3  UNL     1      37.247  41.887 -55.187  1.00  0.00    -0.222 OA
HETATM   19  C21 UNL     1      39.164  41.786 -57.119  1.00  0.00     0.172 C 
ENDBRANCH   7   8
BRANCH   1  20
HETATM   20  C7  UNL     1      43.657  43.730 -56.598  1.00  0.00     0.150 C 
BRANCH  20  21
HETATM   21  C6  UNL     1      45.073  43.748 -57.089  1.00  0.00     0.022 C 
BRANCH  21  22
HETATM   22  C5  UNL     1      45.913  42.607 -56.645  1.00  0.00     0.002 C 
BRANCH  22  23
HETATM   23  C4  UNL     1      45.322  41.266 -56.941  1.00  0.00     0.000 C 
BRANCH  23  24
HETATM   24  C3  UNL     1      45.876  40.660 -58.220  1.00  0.00    -0.000 C 
BRANCH  24  25
HETATM   25  C2  UNL     1      44.773  40.576 -59.253  1.00  0.00    -0.005 C 
HETATM   26  C1  UNL     1      44.875  41.821 -60.137  1.00  0.00     0.005 C 
ENDBRANCH  24  25
ENDBRANCH  23  24
ENDBRANCH  22  23
ENDBRANCH  21  22
ENDBRANCH  20  21
ENDBRANCH   1  20
BRANCH   4  27
HETATM   27  C9  UNL     1      40.980  44.753 -60.603  1.00  0.00     0.289 C 
HETATM   28  O1  UNL     1      40.165  45.733 -60.454  1.00  0.00    -0.264 OA
HETATM   29  N3  UNL     1      41.351  44.431 -61.939  1.00  0.00    -0.345 N 
HETATM   30  C10 UNL     1      42.235  43.374 -62.332  1.00  0.00     0.126 C 
HETATM   31  C13 UNL     1      40.887  45.152 -63.100  1.00  0.00     0.126 C 
HETATM   32  C11 UNL     1      41.988  43.205 -63.810  1.00  0.00     0.021 C 
HETATM   33  C12 UNL     1      41.647  44.579 -64.279  1.00  0.00     0.021 C 
ENDBRANCH   4  27
TORSDOF 8
ENDMDL
