MODEL 1
REMARK VINA RESULT: -5.178891695      0.000      0.000
REMARK  7 active torsions:
REMARK  status: ('A' for Active; 'I' for Inactive)
REMARK    1  A    between atoms: C6_6  and  C7_7 
REMARK    2  A    between atoms: C7_7  and  O2_9 
REMARK    3  A    between atoms: O2_9  and  C8_10 
REMARK    4  A    between atoms: C8_10  and  N1_11 
REMARK    5  A    between atoms: C9_15  and  S1_16 
REMARK    6  A    between atoms: S1_16  and  C10_17 
REMARK    7  A    between atoms: N3_20  and  C12_21 
ROOT
HETATM    1  C10 UNL     1      20.261 -20.655 -22.334  1.00  0.00     0.204 C 
HETATM    2  C11 UNL     1      18.989 -20.088 -21.918  1.00  0.00     0.069 C 
HETATM    3  N2  UNL     1      17.990 -19.617 -21.583  1.00  0.00    -0.197 NA
ENDROOT
BRANCH   1   4
HETATM    4  S1  UNL     1      20.324 -22.455 -22.234  1.00  0.00    -0.097 SA
BRANCH   4   5
HETATM    5  C9  UNL     1      18.723 -23.105 -22.697  1.00  0.00     0.090 A 
HETATM    6  C6  UNL     1      17.790 -23.451 -21.734  1.00  0.00     0.081 A 
HETATM    7  C5  UNL     1      16.693 -23.888 -22.416  1.00  0.00    -0.011 A 
HETATM    8  C4  UNL     1      15.335 -24.420 -22.121  1.00  0.00     0.079 C 
HETATM    9  C17 UNL     1      16.981 -23.797 -23.786  1.00  0.00     0.044 A 
HETATM   10  C2  UNL     1      15.019 -25.621 -22.982  1.00  0.00     0.058 C 
HETATM   11  C1  UNL     1      15.746 -26.812 -22.360  1.00  0.00     0.046 C 
HETATM   12  C3  UNL     1      13.540 -25.908 -22.886  1.00  0.00     0.046 C 
HETATM   13  O4  UNL     1      15.488 -25.507 -24.277  1.00  0.00    -0.375 OA
HETATM   14  C18 UNL     1      15.868 -24.238 -24.651  1.00  0.00     0.226 C 
HETATM   15  N3  UNL     1      18.218 -23.319 -23.928  1.00  0.00    -0.337 N 
BRANCH   6  16
HETATM   16  C7  UNL     1      17.880 -23.393 -20.282  1.00  0.00     0.298 C 
HETATM   17  O1  UNL     1      17.556 -22.375 -19.628  1.00  0.00    -0.259 OA
BRANCH  16  18
HETATM   18  O2  UNL     1      18.341 -24.502 -19.588  1.00  0.00    -0.290 OA
BRANCH  18  19
HETATM   19  C8  UNL     1      18.983 -24.423 -18.327  1.00  0.00     0.407 C 
BRANCH  19  20
HETATM   20  N1  UNL     1      17.920 -24.321 -17.334  1.00  0.00    -0.058 N 
ATOM     21  H13 UNL     1      17.967 -23.470 -16.773  1.00  0.00     0.276 HD
ATOM     22  H12 UNL     1      17.000 -24.152 -17.741  1.00  0.00     0.276 HD
ATOM     23  H11 UNL     1      17.967 -25.175 -16.779  1.00  0.00     0.276 HD
ENDBRANCH  19  20
ENDBRANCH  18  19
ENDBRANCH  16  18
ENDBRANCH   6  16
BRANCH  15  24
HETATM   24  C12 UNL     1      18.878 -23.074 -25.173  1.00  0.00     0.094 C 
HETATM   25  C13 UNL     1      18.448 -21.744 -25.797  1.00  0.00     0.052 C 
HETATM   26  C14 UNL     1      19.441 -21.519 -26.943  1.00  0.00     0.169 C 
HETATM   27  O3  UNL     1      19.316 -22.492 -27.914  1.00  0.00    -0.391 OA
HETATM   28  C15 UNL     1      18.414 -23.496 -27.598  1.00  0.00     0.169 C 
HETATM   29  C16 UNL     1      18.718 -24.112 -26.225  1.00  0.00     0.052 C 
ENDBRANCH  15  24
ENDBRANCH   4   5
ENDBRANCH   1   4
TORSDOF 7
ENDMDL
MODEL 2
REMARK VINA RESULT: -5.029441670      3.680      7.032
REMARK  7 active torsions:
REMARK  status: ('A' for Active; 'I' for Inactive)
REMARK    1  A    between atoms: C6_6  and  C7_7 
REMARK    2  A    between atoms: C7_7  and  O2_9 
REMARK    3  A    between atoms: O2_9  and  C8_10 
REMARK    4  A    between atoms: C8_10  and  N1_11 
REMARK    5  A    between atoms: C9_15  and  S1_16 
REMARK    6  A    between atoms: S1_16  and  C10_17 
REMARK    7  A    between atoms: N3_20  and  C12_21 
ROOT
HETATM    1  C10 UNL     1      17.485 -21.062 -20.788  1.00  0.00     0.204 C 
HETATM    2  C11 UNL     1      17.815 -19.665 -21.017  1.00  0.00     0.069 C 
HETATM    3  N2  UNL     1      18.057 -18.550 -21.186  1.00  0.00    -0.197 NA
ENDROOT
BRANCH   1   4
HETATM    4  S1  UNL     1      18.150 -22.182 -22.035  1.00  0.00    -0.097 SA
BRANCH   4   5
HETATM    5  C9  UNL     1      19.675 -22.879 -21.414  1.00  0.00     0.090 A 
HETATM    6  C6  UNL     1      20.902 -22.445 -21.888  1.00  0.00     0.081 A 
HETATM    7  C5  UNL     1      21.842 -23.159 -21.204  1.00  0.00    -0.011 A 
HETATM    8  C4  UNL     1      23.323 -23.280 -21.144  1.00  0.00     0.079 C 
HETATM    9  C17 UNL     1      21.165 -24.016 -20.324  1.00  0.00     0.044 A 
HETATM   10  C2  UNL     1      23.753 -24.729 -21.113  1.00  0.00     0.058 C 
HETATM   11  C1  UNL     1      23.654 -25.248 -22.546  1.00  0.00     0.046 C 
HETATM   12  C3  UNL     1      25.209 -24.792 -20.719  1.00  0.00     0.046 C 
HETATM   13  O4  UNL     1      22.927 -25.529 -20.346  1.00  0.00    -0.375 OA
HETATM   14  C18 UNL     1      22.069 -24.852 -19.509  1.00  0.00     0.226 C 
HETATM   15  N3  UNL     1      19.854 -23.826 -20.471  1.00  0.00    -0.337 N 
BRANCH   6  16
HETATM   16  C7  UNL     1      21.211 -21.444 -22.899  1.00  0.00     0.298 C 
HETATM   17  O1  UNL     1      21.617 -20.296 -22.608  1.00  0.00    -0.259 OA
BRANCH  16  18
HETATM   18  O2  UNL     1      21.053 -21.765 -24.240  1.00  0.00    -0.290 OA
BRANCH  18  19
HETATM   19  C8  UNL     1      22.055 -22.399 -25.015  1.00  0.00     0.407 C 
BRANCH  19  20
HETATM   20  N1  UNL     1      23.172 -21.463 -25.078  1.00  0.00    -0.058 N 
ATOM     21  H13 UNL     1      23.548 -21.343 -26.019  1.00  0.00     0.276 HD
ATOM     22  H12 UNL     1      22.898 -20.493 -24.929  1.00  0.00     0.276 HD
ATOM     23  H11 UNL     1      23.862 -21.798 -24.406  1.00  0.00     0.276 HD
ENDBRANCH  19  20
ENDBRANCH  18  19
ENDBRANCH  16  18
ENDBRANCH   6  16
BRANCH  15  24
HETATM   24  C12 UNL     1      18.828 -24.507 -19.744  1.00  0.00     0.094 C 
HETATM   25  C13 UNL     1      18.896 -24.212 -18.243  1.00  0.00     0.052 C 
HETATM   26  C14 UNL     1      17.586 -24.776 -17.682  1.00  0.00     0.169 C 
HETATM   27  O3  UNL     1      17.524 -26.147 -17.832  1.00  0.00    -0.391 OA
HETATM   28  C15 UNL     1      18.587 -26.689 -18.537  1.00  0.00     0.169 C 
HETATM   29  C16 UNL     1      18.782 -25.986 -19.888  1.00  0.00     0.052 C 
ENDBRANCH  15  24
ENDBRANCH   4   5
ENDBRANCH   1   4
TORSDOF 7
ENDMDL
MODEL 3
REMARK VINA RESULT: -5.007394348      3.076      5.442
REMARK  7 active torsions:
REMARK  status: ('A' for Active; 'I' for Inactive)
REMARK    1  A    between atoms: C6_6  and  C7_7 
REMARK    2  A    between atoms: C7_7  and  O2_9 
REMARK    3  A    between atoms: O2_9  and  C8_10 
REMARK    4  A    between atoms: C8_10  and  N1_11 
REMARK    5  A    between atoms: C9_15  and  S1_16 
REMARK    6  A    between atoms: S1_16  and  C10_17 
REMARK    7  A    between atoms: N3_20  and  C12_21 
ROOT
HETATM    1  C10 UNL     1      18.854 -25.638 -19.276  1.00  0.00     0.204 C 
HETATM    2  C11 UNL     1      17.555 -25.690 -18.626  1.00  0.00     0.069 C 
HETATM    3  N2  UNL     1      16.518 -25.749 -18.124  1.00  0.00    -0.197 NA
ENDROOT
BRANCH   1   4
HETATM    4  S1  UNL     1      19.667 -24.033 -19.152  1.00  0.00    -0.097 SA
BRANCH   4   5
HETATM    5  C9  UNL     1      19.807 -23.340 -20.795  1.00  0.00     0.090 A 
HETATM    6  C6  UNL     1      18.719 -22.746 -21.413  1.00  0.00     0.081 A 
HETATM    7  C5  UNL     1      19.166 -22.316 -22.627  1.00  0.00    -0.011 A 
HETATM    8  C4  UNL     1      18.632 -21.621 -23.830  1.00  0.00     0.079 C 
HETATM    9  C17 UNL     1      20.523 -22.657 -22.724  1.00  0.00     0.044 A 
HETATM   10  C2  UNL     1      19.093 -22.297 -25.101  1.00  0.00     0.058 C 
HETATM   11  C1  UNL     1      18.216 -23.534 -25.285  1.00  0.00     0.046 C 
HETATM   12  C3  UNL     1      18.810 -21.378 -26.265  1.00  0.00     0.046 C 
HETATM   13  O4  UNL     1      20.398 -22.746 -25.041  1.00  0.00    -0.375 OA
HETATM   14  C18 UNL     1      21.143 -22.242 -23.999  1.00  0.00     0.226 C 
HETATM   15  N3  UNL     1      20.886 -23.276 -21.600  1.00  0.00    -0.337 N 
BRANCH   6  16
HETATM   16  C7  UNL     1      17.353 -22.575 -20.937  1.00  0.00     0.298 C 
HETATM   17  O1  UNL     1      16.956 -21.518 -20.396  1.00  0.00    -0.259 OA
BRANCH  16  18
HETATM   18  O2  UNL     1      16.450 -23.618 -21.084  1.00  0.00    -0.290 OA
BRANCH  18  19
HETATM   19  C8  UNL     1      15.898 -24.003 -22.331  1.00  0.00     0.407 C 
BRANCH  19  20
HETATM   20  N1  UNL     1      14.450 -24.006 -22.152  1.00  0.00    -0.058 N 
ATOM     21  H13 UNL     1      14.143 -23.499 -21.321  1.00  0.00     0.276 HD
ATOM     22  H12 UNL     1      13.956 -23.434 -22.836  1.00  0.00     0.276 HD
ATOM     23  H11 UNL     1      14.165 -24.984 -22.159  1.00  0.00     0.276 HD
ENDBRANCH  19  20
ENDBRANCH  18  19
ENDBRANCH  16  18
ENDBRANCH   6  16
BRANCH  15  24
HETATM   24  C12 UNL     1      22.195 -23.773 -21.309  1.00  0.00     0.094 C 
HETATM   25  C13 UNL     1      23.221 -22.644 -21.181  1.00  0.00     0.052 C 
HETATM   26  C14 UNL     1      24.467 -23.322 -20.600  1.00  0.00     0.169 C 
HETATM   27  O3  UNL     1      24.985 -24.256 -21.474  1.00  0.00    -0.391 OA
HETATM   28  C15 UNL     1      24.223 -24.448 -22.616  1.00  0.00     0.169 C 
HETATM   29  C16 UNL     1      22.760 -24.758 -22.269  1.00  0.00     0.052 C 
ENDBRANCH  15  24
ENDBRANCH   4   5
ENDBRANCH   1   4
TORSDOF 7
ENDMDL
MODEL 4
REMARK VINA RESULT: -4.910936600      2.257      4.346
REMARK  7 active torsions:
REMARK  status: ('A' for Active; 'I' for Inactive)
REMARK    1  A    between atoms: C6_6  and  C7_7 
REMARK    2  A    between atoms: C7_7  and  O2_9 
REMARK    3  A    between atoms: O2_9  and  C8_10 
REMARK    4  A    between atoms: C8_10  and  N1_11 
REMARK    5  A    between atoms: C9_15  and  S1_16 
REMARK    6  A    between atoms: S1_16  and  C10_17 
REMARK    7  A    between atoms: N3_20  and  C12_21 
ROOT
HETATM    1  C10 UNL     1      15.263 -26.436 -21.753  1.00  0.00     0.204 C 
HETATM    2  C11 UNL     1      14.854 -25.052 -21.926  1.00  0.00     0.069 C 
HETATM    3  N2  UNL     1      14.507 -23.961 -22.066  1.00  0.00    -0.197 NA
ENDROOT
BRANCH   1   4
HETATM    4  S1  UNL     1      16.986 -26.746 -22.185  1.00  0.00    -0.097 SA
BRANCH   4   5
HETATM    5  C9  UNL     1      17.795 -25.173 -22.454  1.00  0.00     0.090 A 
HETATM    6  C6  UNL     1      18.418 -24.506 -21.414  1.00  0.00     0.081 A 
HETATM    7  C5  UNL     1      18.938 -23.368 -21.956  1.00  0.00    -0.011 A 
HETATM    8  C4  UNL     1      19.710 -22.174 -21.516  1.00  0.00     0.079 C 
HETATM    9  C17 UNL     1      18.620 -23.366 -23.322  1.00  0.00     0.044 A 
HETATM   10  C2  UNL     1      19.131 -20.905 -22.095  1.00  0.00     0.058 C 
HETATM   11  C1  UNL     1      17.900 -20.560 -21.259  1.00  0.00     0.046 C 
HETATM   12  C3  UNL     1      20.126 -19.787 -21.898  1.00  0.00     0.046 C 
HETATM   13  O4  UNL     1      18.694 -21.046 -23.399  1.00  0.00    -0.375 OA
HETATM   14  C18 UNL     1      19.131 -22.182 -24.042  1.00  0.00     0.226 C 
HETATM   15  N3  UNL     1      17.927 -24.472 -23.598  1.00  0.00    -0.337 N 
BRANCH   6  16
HETATM   16  C7  UNL     1      18.540 -24.872 -20.009  1.00  0.00     0.298 C 
HETATM   17  O1  UNL     1      19.612 -25.286 -19.512  1.00  0.00    -0.259 OA
BRANCH  16  18
HETATM   18  O2  UNL     1      17.431 -24.761 -19.183  1.00  0.00    -0.290 OA
BRANCH  18  19
HETATM   19  C8  UNL     1      17.377 -25.295 -17.872  1.00  0.00     0.407 C 
BRANCH  19  20
HETATM   20  N1  UNL     1      18.135 -24.378 -17.028  1.00  0.00    -0.058 N 
ATOM     21  H13 UNL     1      17.711 -23.454 -16.948  1.00  0.00     0.276 HD
ATOM     22  H12 UNL     1      18.101 -24.616 -16.037  1.00  0.00     0.276 HD
ATOM     23  H11 UNL     1      19.082 -24.358 -17.407  1.00  0.00     0.276 HD
ENDBRANCH  19  20
ENDBRANCH  18  19
ENDBRANCH  16  18
ENDBRANCH   6  16
BRANCH  15  24
HETATM   24  C12 UNL     1      17.426 -24.840 -24.885  1.00  0.00     0.094 C 
HETATM   25  C13 UNL     1      18.509 -24.769 -25.964  1.00  0.00     0.052 C 
HETATM   26  C14 UNL     1      17.882 -25.455 -27.183  1.00  0.00     0.169 C 
HETATM   27  O3  UNL     1      16.788 -24.753 -27.647  1.00  0.00    -0.391 OA
HETATM   28  C15 UNL     1      16.439 -23.664 -26.865  1.00  0.00     0.169 C 
HETATM   29  C16 UNL     1      16.264 -24.064 -25.392  1.00  0.00     0.052 C 
ENDBRANCH  15  24
ENDBRANCH   4   5
ENDBRANCH   1   4
TORSDOF 7
ENDMDL
MODEL 5
REMARK VINA RESULT: -4.859986604      3.119      5.312
REMARK  7 active torsions:
REMARK  status: ('A' for Active; 'I' for Inactive)
REMARK    1  A    between atoms: C6_6  and  C7_7 
REMARK    2  A    between atoms: C7_7  and  O2_9 
REMARK    3  A    between atoms: O2_9  and  C8_10 
REMARK    4  A    between atoms: C8_10  and  N1_11 
REMARK    5  A    between atoms: C9_15  and  S1_16 
REMARK    6  A    between atoms: S1_16  and  C10_17 
REMARK    7  A    between atoms: N3_20  and  C12_21 
ROOT
HETATM    1  C10 UNL     1      19.946 -19.843 -21.840  1.00  0.00     0.204 C 
HETATM    2  C11 UNL     1      18.655 -19.351 -21.386  1.00  0.00     0.069 C 
HETATM    3  N2  UNL     1      17.642 -18.950 -21.009  1.00  0.00    -0.197 NA
ENDROOT
BRANCH   1   4
HETATM    4  S1  UNL     1      19.845 -21.345 -22.833  1.00  0.00    -0.097 SA
BRANCH   4   5
HETATM    5  C9  UNL     1      19.990 -22.756 -21.742  1.00  0.00     0.090 A 
HETATM    6  C6  UNL     1      18.864 -23.387 -21.241  1.00  0.00     0.081 A 
HETATM    7  C5  UNL     1      19.322 -24.415 -20.471  1.00  0.00    -0.011 A 
HETATM    8  C4  UNL     1      18.769 -25.505 -19.622  1.00  0.00     0.079 C 
HETATM    9  C17 UNL     1      20.724 -24.390 -20.521  1.00  0.00     0.044 A 
HETATM   10  C2  UNL     1      19.516 -25.610 -18.313  1.00  0.00     0.058 C 
HETATM   11  C1  UNL     1      18.992 -24.490 -17.416  1.00  0.00     0.046 C 
HETATM   12  C3  UNL     1      19.146 -26.916 -17.651  1.00  0.00     0.046 C 
HETATM   13  O4  UNL     1      20.877 -25.408 -18.439  1.00  0.00    -0.375 OA
HETATM   14  C18 UNL     1      21.358 -25.462 -19.728  1.00  0.00     0.226 C 
HETATM   15  N3  UNL     1      21.102 -23.374 -21.298  1.00  0.00    -0.337 N 
BRANCH   6  16
HETATM   16  C7  UNL     1      17.455 -23.082 -21.443  1.00  0.00     0.298 C 
HETATM   17  O1  UNL     1      16.819 -22.307 -20.692  1.00  0.00    -0.259 OA
BRANCH  16  18
HETATM   18  O2  UNL     1      16.782 -23.666 -22.506  1.00  0.00    -0.290 OA
BRANCH  18  19
HETATM   19  C8  UNL     1      15.806 -24.681 -22.350  1.00  0.00     0.407 C 
BRANCH  19  20
HETATM   20  N1  UNL     1      14.540 -23.996 -22.113  1.00  0.00    -0.058 N 
ATOM     21  H13 UNL     1      13.968 -23.898 -22.952  1.00  0.00     0.276 HD
ATOM     22  H12 UNL     1      13.875 -24.548 -21.572  1.00  0.00     0.276 HD
ATOM     23  H11 UNL     1      14.776 -23.105 -21.678  1.00  0.00     0.276 HD
ENDBRANCH  19  20
ENDBRANCH  18  19
ENDBRANCH  16  18
ENDBRANCH   6  16
BRANCH  15  24
HETATM   24  C12 UNL     1      22.453 -23.020 -21.606  1.00  0.00     0.094 C 
HETATM   25  C13 UNL     1      23.065 -23.951 -22.656  1.00  0.00     0.052 C 
HETATM   26  C14 UNL     1      24.375 -23.265 -23.060  1.00  0.00     0.169 C 
HETATM   27  O3  UNL     1      25.256 -23.201 -22.000  1.00  0.00    -0.391 OA
HETATM   28  C15 UNL     1      24.737 -23.664 -20.802  1.00  0.00     0.169 C 
HETATM   29  C16 UNL     1      23.405 -22.979 -20.464  1.00  0.00     0.052 C 
ENDBRANCH  15  24
ENDBRANCH   4   5
ENDBRANCH   1   4
TORSDOF 7
ENDMDL
