MODEL 1
REMARK VINA RESULT: -6.544455057      0.000      0.000
REMARK  7 active torsions:
REMARK  status: ('A' for Active; 'I' for Inactive)
REMARK    1  A    between atoms: C2_2  and  N1_3 
REMARK    2  A    between atoms: N1_3  and  C3_5 
REMARK    3  A    between atoms: C4_7  and  C5_8 
REMARK    4  A    between atoms: N4_17  and  C9_18 
REMARK    5  A    between atoms: N5_21  and  C12_22 
REMARK    6  A    between atoms: C12_22  and  C13_23 
REMARK    7  A    between atoms: C13_23  and  O1_25 
ROOT
HETATM    1  C3  UNL     1      18.769 -21.646 -22.677  1.00  0.00     0.164 A 
HETATM    2  S1  UNL     1      19.083 -23.239 -22.134  1.00  0.00    -0.031 SA
HETATM    3  C4  UNL     1      18.561 -23.056 -20.531  1.00  0.00     0.126 A 
HETATM    4  N3  UNL     1      18.183 -21.798 -20.513  1.00  0.00    -0.287 N 
ATOM      5  H3  UNL     1      17.813 -21.390 -19.654  1.00  0.00     0.188 HD
HETATM    6  N4  UNL     1      18.279 -21.077 -21.575  1.00  0.00    -0.265 N 
ENDROOT
BRANCH   6   7
HETATM    7  C9  UNL     1      17.847 -19.661 -21.538  1.00  0.00     0.114 C 
HETATM    8  C10 UNL     1      16.986 -19.544 -20.285  1.00  0.00     0.057 C 
HETATM    9  C11 UNL     1      16.382 -18.160 -20.175  1.00  0.00     0.274 C 
HETATM   10  N5  UNL     1      17.370 -17.151 -20.542  1.00  0.00     0.091 N 
HETATM   11  C15 UNL     1      18.722 -17.682 -20.443  1.00  0.00     0.274 C 
HETATM   12  C16 UNL     1      18.959 -18.691 -21.570  1.00  0.00     0.057 C 
BRANCH  10  13
HETATM   13  C12 UNL     1      17.277 -16.117 -19.528  1.00  0.00     0.303 C 
BRANCH  13  14
HETATM   14  C13 UNL     1      18.538 -15.289 -19.459  1.00  0.00     0.142 C 
HETATM   15  C14 UNL     1      18.892 -14.990 -17.999  1.00  0.00     0.041 C 
BRANCH  14  16
HETATM   16  O1  UNL     1      18.398 -14.068 -20.094  1.00  0.00    -0.394 OA
ATOM     17  H1  UNL     1      18.759 -14.078 -20.973  1.00  0.00     0.210 HD
ENDBRANCH  14  16
ENDBRANCH  13  14
ENDBRANCH  10  13
ENDBRANCH   6   7
BRANCH   1  18
HETATM   18  N1  UNL     1      18.960 -21.121 -23.866  1.00  0.00    -0.370 N 
ATOM     19  H1  UNL     1      19.101 -20.118 -23.990  1.00  0.00     0.161 HD
BRANCH  18  20
HETATM   20  C2  UNL     1      18.963 -22.042 -25.007  1.00  0.00     0.117 C 
HETATM   21  C1  UNL     1      18.571 -21.346 -26.279  1.00  0.00     0.026 C 
ENDBRANCH  18  20
ENDBRANCH   1  18
BRANCH   3  22
HETATM   22  C5  UNL     1      18.496 -23.972 -19.375  1.00  0.00     0.110 A 
HETATM   23  N2  UNL     1      17.545 -24.854 -19.091  1.00  0.00    -0.352 N 
HETATM   24  C6  UNL     1      17.641 -25.586 -18.029  1.00  0.00     0.012 A 
ATOM     25  H2  UNL     1      16.741 -24.955 -19.709  1.00  0.00     0.166 HD
HETATM   26  C7  UNL     1      16.572 -26.611 -17.661  1.00  0.00     0.068 C 
HETATM   27  C8  UNL     1      18.749 -25.405 -17.232  1.00  0.00     0.076 A 
HETATM   28  S2  UNL     1      19.584 -24.180 -18.079  1.00  0.00    -0.079 SA
ENDBRANCH   3  22
TORSDOF 7
ENDMDL
MODEL 2
REMARK VINA RESULT: -5.911460362      3.315      5.368
REMARK  7 active torsions:
REMARK  status: ('A' for Active; 'I' for Inactive)
REMARK    1  A    between atoms: C2_2  and  N1_3 
REMARK    2  A    between atoms: N1_3  and  C3_5 
REMARK    3  A    between atoms: C4_7  and  C5_8 
REMARK    4  A    between atoms: N4_17  and  C9_18 
REMARK    5  A    between atoms: N5_21  and  C12_22 
REMARK    6  A    between atoms: C12_22  and  C13_23 
REMARK    7  A    between atoms: C13_23  and  O1_25 
ROOT
HETATM    1  C3  UNL     1      21.145 -21.571 -22.459  1.00  0.00     0.164 A 
HETATM    2  S1  UNL     1      21.191 -22.481 -23.909  1.00  0.00    -0.031 SA
HETATM    3  C4  UNL     1      19.688 -22.011 -24.537  1.00  0.00     0.126 A 
HETATM    4  N3  UNL     1      19.249 -21.195 -23.606  1.00  0.00    -0.287 N 
ATOM      5  H3  UNL     1      18.340 -20.744 -23.711  1.00  0.00     0.188 HD
HETATM    6  N4  UNL     1      19.963 -20.962 -22.561  1.00  0.00    -0.265 N 
ENDROOT
BRANCH   6   7
HETATM    7  C9  UNL     1      19.456 -20.037 -21.520  1.00  0.00     0.114 C 
HETATM    8  C10 UNL     1      20.053 -18.680 -21.876  1.00  0.00     0.057 C 
HETATM    9  C11 UNL     1      19.702 -17.646 -20.827  1.00  0.00     0.274 C 
HETATM   10  N5  UNL     1      18.311 -17.805 -20.413  1.00  0.00     0.091 N 
HETATM   11  C15 UNL     1      17.549 -18.543 -21.410  1.00  0.00     0.274 C 
HETATM   12  C16 UNL     1      17.985 -20.010 -21.404  1.00  0.00     0.057 C 
BRANCH  10  13
HETATM   13  C12 UNL     1      17.748 -16.468 -20.395  1.00  0.00     0.303 C 
BRANCH  13  14
HETATM   14  C13 UNL     1      18.590 -15.519 -19.574  1.00  0.00     0.142 C 
HETATM   15  C14 UNL     1      18.179 -15.591 -18.100  1.00  0.00     0.041 C 
BRANCH  14  16
HETATM   16  O1  UNL     1      18.430 -14.203 -19.970  1.00  0.00    -0.394 OA
ATOM     17  H1  UNL     1      18.456 -13.602 -19.236  1.00  0.00     0.210 HD
ENDBRANCH  14  16
ENDBRANCH  13  14
ENDBRANCH  10  13
ENDBRANCH   6   7
BRANCH   1  18
HETATM   18  N1  UNL     1      22.039 -21.493 -21.499  1.00  0.00    -0.370 N 
ATOM     19  H1  UNL     1      22.015 -20.743 -20.808  1.00  0.00     0.161 HD
BRANCH  18  20
HETATM   20  C2  UNL     1      23.072 -22.534 -21.465  1.00  0.00     0.117 C 
HETATM   21  C1  UNL     1      22.833 -23.512 -20.352  1.00  0.00     0.026 C 
ENDBRANCH  18  20
ENDBRANCH   1  18
BRANCH   3  22
HETATM   22  C5  UNL     1      18.955 -22.350 -25.774  1.00  0.00     0.110 A 
HETATM   23  N2  UNL     1      17.651 -22.553 -25.915  1.00  0.00    -0.352 N 
HETATM   24  C6  UNL     1      17.165 -22.844 -27.078  1.00  0.00     0.012 A 
ATOM     25  H2  UNL     1      17.033 -22.481 -25.107  1.00  0.00     0.166 HD
HETATM   26  C7  UNL     1      15.674 -23.089 -27.287  1.00  0.00     0.068 C 
HETATM   27  C8  UNL     1      18.049 -22.929 -28.130  1.00  0.00     0.076 A 
HETATM   28  S2  UNL     1      19.533 -22.580 -27.361  1.00  0.00    -0.079 SA
ENDBRANCH   3  22
TORSDOF 7
ENDMDL
MODEL 3
REMARK VINA RESULT: -5.882341026      1.302      1.415
REMARK  7 active torsions:
REMARK  status: ('A' for Active; 'I' for Inactive)
REMARK    1  A    between atoms: C2_2  and  N1_3 
REMARK    2  A    between atoms: N1_3  and  C3_5 
REMARK    3  A    between atoms: C4_7  and  C5_8 
REMARK    4  A    between atoms: N4_17  and  C9_18 
REMARK    5  A    between atoms: N5_21  and  C12_22 
REMARK    6  A    between atoms: C12_22  and  C13_23 
REMARK    7  A    between atoms: C13_23  and  O1_25 
ROOT
HETATM    1  C3  UNL     1      19.679 -21.679 -22.118  1.00  0.00     0.164 A 
HETATM    2  S1  UNL     1      19.830 -23.294 -21.569  1.00  0.00    -0.031 SA
HETATM    3  C4  UNL     1      18.563 -23.286 -20.443  1.00  0.00     0.126 A 
HETATM    4  N3  UNL     1      18.108 -22.059 -20.556  1.00  0.00    -0.287 N 
ATOM      5  H3  UNL     1      17.322 -21.753 -19.983  1.00  0.00     0.188 HD
HETATM    6  N4  UNL     1      18.652 -21.241 -21.388  1.00  0.00    -0.265 N 
ENDROOT
BRANCH   6   7
HETATM    7  C9  UNL     1      18.127 -19.861 -21.506  1.00  0.00     0.114 C 
HETATM    8  C10 UNL     1      17.156 -19.709 -20.341  1.00  0.00     0.057 C 
HETATM    9  C11 UNL     1      16.454 -18.368 -20.396  1.00  0.00     0.274 C 
HETATM   10  N5  UNL     1      17.403 -17.322 -20.766  1.00  0.00     0.091 N 
HETATM   11  C15 UNL     1      18.773 -17.744 -20.514  1.00  0.00     0.274 C 
HETATM   12  C16 UNL     1      19.172 -18.819 -21.530  1.00  0.00     0.057 C 
BRANCH  10  13
HETATM   13  C12 UNL     1      17.155 -16.221 -19.854  1.00  0.00     0.303 C 
BRANCH  13  14
HETATM   14  C13 UNL     1      18.421 -15.456 -19.547  1.00  0.00     0.142 C 
HETATM   15  C14 UNL     1      18.580 -15.287 -18.033  1.00  0.00     0.041 C 
BRANCH  14  16
HETATM   16  O1  UNL     1      18.408 -14.184 -20.092  1.00  0.00    -0.394 OA
ATOM     17  H1  UNL     1      19.274 -13.898 -20.355  1.00  0.00     0.210 HD
ENDBRANCH  14  16
ENDBRANCH  13  14
ENDBRANCH  10  13
ENDBRANCH   6   7
BRANCH   1  18
HETATM   18  N1  UNL     1      20.388 -21.038 -23.020  1.00  0.00    -0.370 N 
ATOM     19  H1  UNL     1      19.951 -20.407 -23.692  1.00  0.00     0.161 HD
BRANCH  18  20
HETATM   20  C2  UNL     1      21.836 -21.271 -23.016  1.00  0.00     0.117 C 
HETATM   21  C1  UNL     1      22.261 -22.127 -24.174  1.00  0.00     0.026 C 
ENDBRANCH  18  20
ENDBRANCH   1  18
BRANCH   3  22
HETATM   22  C5  UNL     1      18.017 -24.305 -19.524  1.00  0.00     0.110 A 
HETATM   23  N2  UNL     1      17.201 -25.310 -19.819  1.00  0.00    -0.352 N 
HETATM   24  C6  UNL     1      16.813 -26.120 -18.888  1.00  0.00     0.012 A 
ATOM     25  H2  UNL     1      16.881 -25.443 -20.778  1.00  0.00     0.166 HD
HETATM   26  C7  UNL     1      15.874 -27.288 -19.180  1.00  0.00     0.068 C 
HETATM   27  C8  UNL     1      17.278 -25.890 -17.613  1.00  0.00     0.076 A 
HETATM   28  S2  UNL     1      18.251 -24.507 -17.848  1.00  0.00    -0.079 SA
ENDBRANCH   3  22
TORSDOF 7
ENDMDL
MODEL 4
REMARK VINA RESULT: -5.781358193      1.783      5.412
REMARK  7 active torsions:
REMARK  status: ('A' for Active; 'I' for Inactive)
REMARK    1  A    between atoms: C2_2  and  N1_3 
REMARK    2  A    between atoms: N1_3  and  C3_5 
REMARK    3  A    between atoms: C4_7  and  C5_8 
REMARK    4  A    between atoms: N4_17  and  C9_18 
REMARK    5  A    between atoms: N5_21  and  C12_22 
REMARK    6  A    between atoms: C12_22  and  C13_23 
REMARK    7  A    between atoms: C13_23  and  O1_25 
ROOT
HETATM    1  C3  UNL     1      19.149 -22.936 -21.446  1.00  0.00     0.164 A 
HETATM    2  S1  UNL     1      19.099 -23.923 -22.845  1.00  0.00    -0.031 SA
HETATM    3  C4  UNL     1      18.674 -22.727 -23.969  1.00  0.00     0.126 A 
HETATM    4  N3  UNL     1      18.596 -21.658 -23.210  1.00  0.00    -0.287 N 
ATOM      5  H3  UNL     1      18.350 -20.758 -23.622  1.00  0.00     0.188 HD
HETATM    6  N4  UNL     1      18.830 -21.742 -21.947  1.00  0.00    -0.265 N 
ENDROOT
BRANCH   6   7
HETATM    7  C9  UNL     1      18.741 -20.527 -21.104  1.00  0.00     0.114 C 
HETATM    8  C10 UNL     1      19.464 -19.444 -21.898  1.00  0.00     0.057 C 
HETATM    9  C11 UNL     1      19.545 -18.158 -21.103  1.00  0.00     0.274 C 
HETATM   10  N5  UNL     1      18.280 -17.913 -20.416  1.00  0.00     0.091 N 
HETATM   11  C15 UNL     1      17.195 -18.660 -21.036  1.00  0.00     0.274 C 
HETATM   12  C16 UNL     1      17.363 -20.151 -20.733  1.00  0.00     0.057 C 
BRANCH  10  13
HETATM   13  C12 UNL     1      17.973 -16.512 -20.639  1.00  0.00     0.303 C 
BRANCH  13  14
HETATM   14  C13 UNL     1      18.557 -15.635 -19.557  1.00  0.00     0.142 C 
HETATM   15  C14 UNL     1      17.777 -15.819 -18.252  1.00  0.00     0.041 C 
BRANCH  14  16
HETATM   16  O1  UNL     1      18.487 -14.291 -19.879  1.00  0.00    -0.394 OA
ATOM     17  H1  UNL     1      17.598 -14.014 -20.066  1.00  0.00     0.210 HD
ENDBRANCH  14  16
ENDBRANCH  13  14
ENDBRANCH  10  13
ENDBRANCH   6   7
BRANCH   1  18
HETATM   18  N1  UNL     1      19.426 -23.268 -20.205  1.00  0.00    -0.370 N 
ATOM     19  H1  UNL     1      20.370 -23.182 -19.828  1.00  0.00     0.161 HD
BRANCH  18  20
HETATM   20  C2  UNL     1      18.317 -23.768 -19.386  1.00  0.00     0.117 C 
HETATM   21  C1  UNL     1      18.791 -24.237 -18.041  1.00  0.00     0.026 C 
ENDBRANCH  18  20
ENDBRANCH   1  18
BRANCH   3  22
HETATM   22  C5  UNL     1      18.427 -22.746 -25.424  1.00  0.00     0.110 A 
HETATM   23  N2  UNL     1      17.266 -22.608 -26.053  1.00  0.00    -0.352 N 
HETATM   24  C6  UNL     1      17.223 -22.649 -27.345  1.00  0.00     0.012 A 
ATOM     25  H2  UNL     1      16.409 -22.469 -25.518  1.00  0.00     0.166 HD
HETATM   26  C7  UNL     1      15.911 -22.498 -28.110  1.00  0.00     0.068 C 
HETATM   27  C8  UNL     1      18.411 -22.840 -28.013  1.00  0.00     0.076 A 
HETATM   28  S2  UNL     1      19.519 -22.947 -26.718  1.00  0.00    -0.079 SA
ENDBRANCH   3  22
TORSDOF 7
ENDMDL
MODEL 5
REMARK VINA RESULT: -5.763033104      1.856      5.658
REMARK  7 active torsions:
REMARK  status: ('A' for Active; 'I' for Inactive)
REMARK    1  A    between atoms: C2_2  and  N1_3 
REMARK    2  A    between atoms: N1_3  and  C3_5 
REMARK    3  A    between atoms: C4_7  and  C5_8 
REMARK    4  A    between atoms: N4_17  and  C9_18 
REMARK    5  A    between atoms: N5_21  and  C12_22 
REMARK    6  A    between atoms: C12_22  and  C13_23 
REMARK    7  A    between atoms: C13_23  and  O1_25 
ROOT
HETATM    1  C3  UNL     1      18.901 -22.848 -21.434  1.00  0.00     0.164 A 
HETATM    2  S1  UNL     1      19.188 -23.810 -22.821  1.00  0.00    -0.031 SA
HETATM    3  C4  UNL     1      19.453 -22.558 -23.933  1.00  0.00     0.126 A 
HETATM    4  N3  UNL     1      19.305 -21.492 -23.180  1.00  0.00    -0.287 N 
ATOM      5  H3  UNL     1      19.409 -20.563 -23.588  1.00  0.00     0.188 HD
HETATM    6  N4  UNL     1      19.029 -21.616 -21.929  1.00  0.00    -0.265 N 
ENDROOT
BRANCH   6   7
HETATM    7  C9  UNL     1      18.869 -20.405 -21.092  1.00  0.00     0.114 C 
HETATM    8  C10 UNL     1      19.630 -19.311 -21.832  1.00  0.00     0.057 C 
HETATM    9  C11 UNL     1      19.642 -18.026 -21.031  1.00  0.00     0.274 C 
HETATM   10  N5  UNL     1      18.330 -17.798 -20.432  1.00  0.00     0.091 N 
HETATM   11  C15 UNL     1      17.299 -18.556 -21.126  1.00  0.00     0.274 C 
HETATM   12  C16 UNL     1      17.463 -20.046 -20.816  1.00  0.00     0.057 C 
BRANCH  10  13
HETATM   13  C12 UNL     1      18.022 -16.401 -20.673  1.00  0.00     0.303 C 
BRANCH  13  14
HETATM   14  C13 UNL     1      18.628 -15.506 -19.617  1.00  0.00     0.142 C 
HETATM   15  C14 UNL     1      17.945 -15.748 -18.267  1.00  0.00     0.041 C 
BRANCH  14  16
HETATM   16  O1  UNL     1      18.467 -14.165 -19.913  1.00  0.00    -0.394 OA
ATOM     17  H1  UNL     1      18.062 -13.686 -19.199  1.00  0.00     0.210 HD
ENDBRANCH  14  16
ENDBRANCH  13  14
ENDBRANCH  10  13
ENDBRANCH   6   7
BRANCH   1  18
HETATM   18  N1  UNL     1      18.625 -23.223 -20.205  1.00  0.00    -0.370 N 
ATOM     19  H1  UNL     1      17.732 -22.997 -19.766  1.00  0.00     0.161 HD
BRANCH  18  20
HETATM   20  C2  UNL     1      19.659 -23.983 -19.494  1.00  0.00     0.117 C 
HETATM   21  C1  UNL     1      19.368 -24.067 -18.023  1.00  0.00     0.026 C 
ENDBRANCH  18  20
ENDBRANCH   1  18
BRANCH   3  22
HETATM   22  C5  UNL     1      19.768 -22.533 -25.376  1.00  0.00     0.110 A 
HETATM   23  N2  UNL     1      20.826 -21.991 -25.966  1.00  0.00    -0.352 N 
HETATM   24  C6  UNL     1      20.953 -22.057 -27.252  1.00  0.00     0.012 A 
ATOM     25  H2  UNL     1      21.538 -21.522 -25.407  1.00  0.00     0.166 HD
HETATM   26  C7  UNL     1      22.150 -21.446 -27.974  1.00  0.00     0.068 C 
HETATM   27  C8  UNL     1      19.959 -22.702 -27.953  1.00  0.00     0.076 A 
HETATM   28  S2  UNL     1      18.902 -23.172 -26.698  1.00  0.00    -0.079 SA
ENDBRANCH   3  22
TORSDOF 7
ENDMDL
