MODEL 1
REMARK VINA RESULT: -8.069846060      0.000      0.000
REMARK  5 active torsions:
REMARK  status: ('A' for Active; 'I' for Inactive)
REMARK    1  A    between atoms: O1_2  and  C2_3 
REMARK    2  A    between atoms: C10_13  and  O4_14 
REMARK    3  A    between atoms: C12_17  and  S1_18 
REMARK    4  A    between atoms: C14_20  and  O6_21 
REMARK    5  A    between atoms: C16_23  and  O7_24 
ROOT
HETATM    1  C2  UNL     1      18.230 -16.628 -20.230  1.00  0.00     0.104 A 
HETATM    2  C3  UNL     1      19.502 -16.924 -20.659  1.00  0.00     0.078 A 
HETATM    3  C4  UNL     1      19.729 -18.177 -21.194  1.00  0.00     0.095 A 
HETATM    4  O2  UNL     1      20.933 -18.505 -21.619  1.00  0.00    -0.274 OA
HETATM    5  C5  UNL     1      21.187 -19.670 -22.129  1.00  0.00     0.297 A 
HETATM    6  O3  UNL     1      22.362 -19.977 -22.538  1.00  0.00    -0.259 OA
HETATM    7  C6  UNL     1      20.183 -20.611 -22.241  1.00  0.00     0.054 A 
HETATM    8  C7  UNL     1      18.903 -20.334 -21.818  1.00  0.00     0.096 A 
HETATM    9  C8  UNL     1      18.690 -19.081 -21.284  1.00  0.00     0.035 A 
HETATM   10  C9  UNL     1      17.416 -18.759 -20.845  1.00  0.00     0.056 A 
HETATM   11  C10 UNL     1      17.176 -17.514 -20.308  1.00  0.00     0.102 A 
HETATM   12  O5  UNL     1      17.777 -21.138 -21.847  1.00  0.00    -0.331 OA
HETATM   13  C12 UNL     1      17.670 -22.522 -21.762  1.00  0.00     0.221 C 
HETATM   14  C14 UNL     1      18.615 -23.176 -22.730  1.00  0.00     0.189 C 
HETATM   15  C16 UNL     1      20.055 -23.092 -22.313  1.00  0.00     0.155 C 
HETATM   16  C17 UNL     1      20.712 -21.841 -22.844  1.00  0.00     0.082 C 
ENDROOT
BRANCH   1  17
HETATM   17  O1  UNL     1      17.944 -15.382 -19.681  1.00  0.00    -0.353 OA
HETATM   18  C1  UNL     1      18.798 -14.817 -18.703  1.00  0.00     0.210 C 
ENDBRANCH   1  17
BRANCH  11  19
HETATM   19  O4  UNL     1      15.904 -17.200 -19.873  1.00  0.00    -0.353 OA
HETATM   20  C11 UNL     1      15.707 -16.793 -18.552  1.00  0.00     0.210 C 
ENDBRANCH  11  19
BRANCH  13  21
HETATM   21  S1  UNL     1      17.846 -23.071 -20.076  1.00  0.00    -0.139 SA
HETATM   22  C13 UNL     1      17.454 -24.802 -19.834  1.00  0.00     0.092 C 
ENDBRANCH  13  21
BRANCH  15  23
HETATM   23  O7  UNL     1      20.269 -23.254 -20.968  1.00  0.00    -0.393 OA
ATOM     24  H7  UNL     1      21.070 -23.714 -20.749  1.00  0.00     0.210 HD
ENDBRANCH  15  23
BRANCH  14  25
HETATM   25  O6  UNL     1      18.283 -24.502 -22.984  1.00  0.00    -0.385 OA
HETATM   26  C15 UNL     1      17.015 -24.603 -23.592  1.00  0.00     0.202 C 
ENDBRANCH  14  25
TORSDOF 5
ENDMDL
MODEL 2
REMARK VINA RESULT: -6.018712804      3.814      6.968
REMARK  5 active torsions:
REMARK  status: ('A' for Active; 'I' for Inactive)
REMARK    1  A    between atoms: O1_2  and  C2_3 
REMARK    2  A    between atoms: C10_13  and  O4_14 
REMARK    3  A    between atoms: C12_17  and  S1_18 
REMARK    4  A    between atoms: C14_20  and  O6_21 
REMARK    5  A    between atoms: C16_23  and  O7_24 
ROOT
HETATM    1  C2  UNL     1      19.756 -25.382 -17.250  1.00  0.00     0.104 A 
HETATM    2  C3  UNL     1      18.749 -24.491 -17.542  1.00  0.00     0.078 A 
HETATM    3  C4  UNL     1      18.765 -23.880 -18.781  1.00  0.00     0.095 A 
HETATM    4  O2  UNL     1      17.820 -23.020 -19.104  1.00  0.00    -0.274 OA
HETATM    5  C5  UNL     1      17.798 -22.426 -20.257  1.00  0.00     0.297 A 
HETATM    6  O3  UNL     1      16.874 -21.591 -20.559  1.00  0.00    -0.259 OA
HETATM    7  C6  UNL     1      18.783 -22.686 -21.190  1.00  0.00     0.054 A 
HETATM    8  C7  UNL     1      19.798 -23.574 -20.917  1.00  0.00     0.096 A 
HETATM    9  C8  UNL     1      19.772 -24.176 -19.677  1.00  0.00     0.035 A 
HETATM   10  C9  UNL     1      20.776 -25.077 -19.360  1.00  0.00     0.056 A 
HETATM   11  C10 UNL     1      20.772 -25.693 -18.129  1.00  0.00     0.102 A 
HETATM   12  O5  UNL     1      20.861 -23.960 -21.713  1.00  0.00    -0.331 OA
HETATM   13  C12 UNL     1      21.540 -23.249 -22.698  1.00  0.00     0.221 C 
HETATM   14  C14 UNL     1      20.563 -22.634 -23.660  1.00  0.00     0.189 C 
HETATM   15  C16 UNL     1      19.815 -21.463 -23.090  1.00  0.00     0.155 C 
HETATM   16  C17 UNL     1      18.543 -21.900 -22.406  1.00  0.00     0.082 C 
ENDROOT
BRANCH   1  17
HETATM   17  O1  UNL     1      19.791 -26.025 -16.018  1.00  0.00    -0.353 OA
HETATM   18  C1  UNL     1      19.076 -27.230 -15.818  1.00  0.00     0.210 C 
ENDBRANCH   1  17
BRANCH  11  19
HETATM   19  O4  UNL     1      21.776 -26.590 -17.820  1.00  0.00    -0.353 OA
HETATM   20  C11 UNL     1      22.736 -26.910 -18.782  1.00  0.00     0.210 C 
ENDBRANCH  11  19
BRANCH  13  21
HETATM   21  S1  UNL     1      22.686 -22.094 -21.972  1.00  0.00    -0.139 SA
HETATM   22  C13 UNL     1      23.712 -22.805 -20.688  1.00  0.00     0.092 C 
ENDBRANCH  13  21
BRANCH  15  23
HETATM   23  O7  UNL     1      20.570 -20.638 -22.295  1.00  0.00    -0.393 OA
ATOM     24  H7  UNL     1      20.570 -20.870 -21.374  1.00  0.00     0.210 HD
ENDBRANCH  15  23
BRANCH  14  25
HETATM   25  O6  UNL     1      21.159 -22.263 -24.860  1.00  0.00    -0.385 OA
HETATM   26  C15 UNL     1      20.330 -22.571 -25.958  1.00  0.00     0.202 C 
ENDBRANCH  14  25
TORSDOF 5
ENDMDL
MODEL 3
REMARK VINA RESULT: -5.775903839      5.793      9.109
REMARK  5 active torsions:
REMARK  status: ('A' for Active; 'I' for Inactive)
REMARK    1  A    between atoms: O1_2  and  C2_3 
REMARK    2  A    between atoms: C10_13  and  O4_14 
REMARK    3  A    between atoms: C12_17  and  S1_18 
REMARK    4  A    between atoms: C14_20  and  O6_21 
REMARK    5  A    between atoms: C16_23  and  O7_24 
ROOT
HETATM    1  C2  UNL     1      22.251 -27.751 -14.195  1.00  0.00     0.104 A 
HETATM    2  C3  UNL     1      22.832 -27.767 -15.441  1.00  0.00     0.078 A 
HETATM    3  C4  UNL     1      22.215 -27.055 -16.452  1.00  0.00     0.095 A 
HETATM    4  O2  UNL     1      22.736 -27.041 -17.662  1.00  0.00    -0.274 OA
HETATM    5  C5  UNL     1      22.188 -26.385 -18.637  1.00  0.00     0.297 A 
HETATM    6  O3  UNL     1      22.704 -26.379 -19.810  1.00  0.00    -0.259 OA
HETATM    7  C6  UNL     1      21.024 -25.672 -18.426  1.00  0.00     0.054 A 
HETATM    8  C7  UNL     1      20.428 -25.643 -17.186  1.00  0.00     0.096 A 
HETATM    9  C8  UNL     1      21.053 -26.359 -16.187  1.00  0.00     0.035 A 
HETATM   10  C9  UNL     1      20.487 -26.358 -14.922  1.00  0.00     0.056 A 
HETATM   11  C10 UNL     1      21.091 -27.064 -13.907  1.00  0.00     0.102 A 
HETATM   12  O5  UNL     1      19.274 -24.995 -16.784  1.00  0.00    -0.331 OA
HETATM   13  C12 UNL     1      18.131 -24.680 -17.511  1.00  0.00     0.221 C 
HETATM   14  C14 UNL     1      18.505 -24.001 -18.798  1.00  0.00     0.189 C 
HETATM   15  C16 UNL     1      19.102 -24.931 -19.815  1.00  0.00     0.155 C 
HETATM   16  C17 UNL     1      20.602 -25.018 -19.671  1.00  0.00     0.082 C 
ENDROOT
BRANCH   1  17
HETATM   17  O1  UNL     1      22.829 -28.451 -13.141  1.00  0.00    -0.353 OA
HETATM   18  C1  UNL     1      23.976 -27.942 -12.486  1.00  0.00     0.210 C 
ENDBRANCH   1  17
BRANCH  11  19
HETATM   19  O4  UNL     1      20.521 -27.058 -12.649  1.00  0.00    -0.353 OA
HETATM   20  C11 UNL     1      19.464 -27.926 -12.366  1.00  0.00     0.210 C 
ENDBRANCH  11  19
BRANCH  13  21
HETATM   21  S1  UNL     1      17.089 -26.111 -17.709  1.00  0.00    -0.139 SA
HETATM   22  C13 UNL     1      17.619 -27.529 -16.751  1.00  0.00     0.092 C 
ENDBRANCH  13  21
BRANCH  15  23
HETATM   23  O7  UNL     1      18.516 -26.170 -19.867  1.00  0.00    -0.393 OA
ATOM     24  H7  UNL     1      18.964 -26.794 -20.425  1.00  0.00     0.210 HD
ENDBRANCH  15  23
BRANCH  14  25
HETATM   25  O6  UNL     1      17.439 -23.314 -19.368  1.00  0.00    -0.385 OA
HETATM   26  C15 UNL     1      17.833 -22.648 -20.546  1.00  0.00     0.202 C 
ENDBRANCH  14  25
TORSDOF 5
ENDMDL
MODEL 4
REMARK VINA RESULT: -5.634349947      4.178      6.984
REMARK  5 active torsions:
REMARK  status: ('A' for Active; 'I' for Inactive)
REMARK    1  A    between atoms: O1_2  and  C2_3 
REMARK    2  A    between atoms: C10_13  and  O4_14 
REMARK    3  A    between atoms: C12_17  and  S1_18 
REMARK    4  A    between atoms: C14_20  and  O6_21 
REMARK    5  A    between atoms: C16_23  and  O7_24 
ROOT
HETATM    1  C2  UNL     1      19.493 -22.095 -22.117  1.00  0.00     0.104 A 
HETATM    2  C3  UNL     1      18.474 -22.317 -21.221  1.00  0.00     0.078 A 
HETATM    3  C4  UNL     1      18.714 -23.180 -20.169  1.00  0.00     0.095 A 
HETATM    4  O2  UNL     1      17.767 -23.422 -19.285  1.00  0.00    -0.274 OA
HETATM    5  C5  UNL     1      17.952 -24.225 -18.284  1.00  0.00     0.297 A 
HETATM    6  O3  UNL     1      17.023 -24.453 -17.431  1.00  0.00    -0.259 OA
HETATM    7  C6  UNL     1      19.169 -24.856 -18.117  1.00  0.00     0.054 A 
HETATM    8  C7  UNL     1      20.202 -24.647 -19.003  1.00  0.00     0.096 A 
HETATM    9  C8  UNL     1      19.949 -23.785 -20.049  1.00  0.00     0.035 A 
HETATM   10  C9  UNL     1      20.960 -23.545 -20.965  1.00  0.00     0.056 A 
HETATM   11  C10 UNL     1      20.734 -22.688 -22.018  1.00  0.00     0.102 A 
HETATM   12  O5  UNL     1      21.477 -25.183 -19.004  1.00  0.00    -0.331 OA
HETATM   13  C12 UNL     1      21.926 -26.412 -18.532  1.00  0.00     0.221 C 
HETATM   14  C14 UNL     1      21.431 -26.643 -17.133  1.00  0.00     0.189 C 
HETATM   15  C16 UNL     1      19.964 -26.960 -17.061  1.00  0.00     0.155 C 
HETATM   16  C17 UNL     1      19.135 -25.707 -16.921  1.00  0.00     0.082 C 
ENDROOT
BRANCH   1  17
HETATM   17  O1  UNL     1      19.307 -21.237 -23.196  1.00  0.00    -0.353 OA
HETATM   18  C1  UNL     1      18.746 -21.715 -24.404  1.00  0.00     0.210 C 
ENDBRANCH   1  17
BRANCH  11  19
HETATM   19  O4  UNL     1      21.747 -22.454 -22.927  1.00  0.00    -0.353 OA
HETATM   20  C11 UNL     1      23.057 -22.816 -22.610  1.00  0.00     0.210 C 
ENDBRANCH  11  19
BRANCH  13  21
HETATM   21  S1  UNL     1      21.531 -27.716 -19.680  1.00  0.00    -0.139 SA
HETATM   22  C13 UNL     1      21.568 -27.204 -21.396  1.00  0.00     0.092 C 
ENDBRANCH  13  21
BRANCH  15  23
HETATM   23  O7  UNL     1      19.507 -27.771 -18.068  1.00  0.00    -0.393 OA
ATOM     24  H7  UNL     1      18.561 -27.849 -18.112  1.00  0.00     0.210 HD
ENDBRANCH  15  23
BRANCH  14  25
HETATM   25  O6  UNL     1      22.151 -27.630 -16.470  1.00  0.00    -0.385 OA
HETATM   26  C15 UNL     1      22.390 -27.272 -15.128  1.00  0.00     0.202 C 
ENDBRANCH  14  25
TORSDOF 5
ENDMDL
MODEL 5
REMARK VINA RESULT: -5.538565151      5.382      8.766
REMARK  5 active torsions:
REMARK  status: ('A' for Active; 'I' for Inactive)
REMARK    1  A    between atoms: O1_2  and  C2_3 
REMARK    2  A    between atoms: C10_13  and  O4_14 
REMARK    3  A    between atoms: C12_17  and  S1_18 
REMARK    4  A    between atoms: C14_20  and  O6_21 
REMARK    5  A    between atoms: C16_23  and  O7_24 
ROOT
HETATM    1  C2  UNL     1      21.662 -26.869 -14.745  1.00  0.00     0.104 A 
HETATM    2  C3  UNL     1      20.445 -26.234 -14.816  1.00  0.00     0.078 A 
HETATM    3  C4  UNL     1      19.956 -25.910 -16.068  1.00  0.00     0.095 A 
HETATM    4  O2  UNL     1      18.793 -25.301 -16.185  1.00  0.00    -0.274 OA
HETATM    5  C5  UNL     1      18.300 -24.981 -17.340  1.00  0.00     0.297 A 
HETATM    6  O3  UNL     1      17.169 -24.388 -17.441  1.00  0.00    -0.259 OA
HETATM    7  C6  UNL     1      18.994 -25.278 -18.497  1.00  0.00     0.054 A 
HETATM    8  C7  UNL     1      20.214 -25.914 -18.447  1.00  0.00     0.096 A 
HETATM    9  C8  UNL     1      20.691 -26.230 -17.192  1.00  0.00     0.035 A 
HETATM   10  C9  UNL     1      21.915 -26.871 -17.094  1.00  0.00     0.056 A 
HETATM   11  C10 UNL     1      22.413 -27.198 -15.854  1.00  0.00     0.102 A 
HETATM   12  O5  UNL     1      21.049 -26.290 -19.483  1.00  0.00    -0.331 OA
HETATM   13  C12 UNL     1      21.230 -25.710 -20.735  1.00  0.00     0.221 C 
HETATM   14  C14 UNL     1      19.901 -25.480 -21.397  1.00  0.00     0.189 C 
HETATM   15  C16 UNL     1      19.120 -24.347 -20.797  1.00  0.00     0.155 C 
HETATM   16  C17 UNL     1      18.237 -24.821 -19.669  1.00  0.00     0.082 C 
ENDROOT
BRANCH   1  17
HETATM   17  O1  UNL     1      22.202 -27.217 -13.512  1.00  0.00    -0.353 OA
HETATM   18  C1  UNL     1      21.531 -26.876 -12.313  1.00  0.00     0.210 C 
ENDBRANCH   1  17
BRANCH  11  19
HETATM   19  O4  UNL     1      23.634 -27.837 -15.764  1.00  0.00    -0.353 OA
HETATM   20  C11 UNL     1      24.309 -28.204 -16.930  1.00  0.00     0.210 C 
ENDBRANCH  11  19
BRANCH  13  21
HETATM   21  S1  UNL     1      22.258 -24.259 -20.620  1.00  0.00    -0.139 SA
HETATM   22  C13 UNL     1      23.233 -23.947 -22.089  1.00  0.00     0.092 C 
ENDBRANCH  13  21
BRANCH  15  23
HETATM   23  O7  UNL     1      19.877 -23.261 -20.438  1.00  0.00    -0.393 OA
ATOM     24  H7  UNL     1      19.708 -22.936 -19.561  1.00  0.00     0.210 HD
ENDBRANCH  15  23
BRANCH  14  25
HETATM   25  O6  UNL     1      20.017 -25.288 -22.769  1.00  0.00    -0.385 OA
HETATM   26  C15 UNL     1      18.758 -25.055 -23.359  1.00  0.00     0.202 C 
ENDBRANCH  14  25
TORSDOF 5
ENDMDL
