MODEL 1
REMARK VINA RESULT: -7.068114740      0.000      0.000
REMARK  8 active torsions:
REMARK  status: ('A' for Active; 'I' for Inactive)
REMARK    1  A    between atoms: C2_2  and  N1_3 
REMARK    2  A    between atoms: N1_3  and  C3_4 
REMARK    3  A    between atoms: N1_3  and  N2_13 
REMARK    4  A    between atoms: C3_4  and  C4_5 
REMARK    5  A    between atoms: C6_7  and  O1_8 
REMARK    6  A    between atoms: N3_15  and  C9_17 
REMARK    7  A    between atoms: C15_23  and  O3_25 
REMARK    8  A    between atoms: C17_28  and  O5_29 
ROOT
HETATM    1  N2  UNL     1      20.811 -20.993 -22.025  1.00  0.00    -0.241 N 
ATOM      2  H2  UNL     1      20.010 -21.530 -21.691  1.00  0.00     0.208 HD
HETATM    3  N3  UNL     1      20.784 -19.724 -21.980  1.00  0.00    -0.286 N 
ATOM      4  H3  UNL     1      21.593 -19.203 -22.319  1.00  0.00     0.188 HD
ENDROOT
BRANCH   3   5
HETATM    5  C9  UNL     1      19.669 -19.004 -21.475  1.00  0.00     0.050 A 
HETATM    6  C10 UNL     1      18.430 -19.610 -21.586  1.00  0.00     0.031 A 
HETATM    7  C11 UNL     1      17.322 -18.960 -21.114  1.00  0.00     0.015 A 
HETATM    8  C12 UNL     1      17.397 -17.717 -20.529  1.00  0.00     0.008 A 
HETATM    9  C13 UNL     1      18.626 -17.100 -20.413  1.00  0.00     0.016 A 
HETATM   10  C17 UNL     1      16.382 -16.800 -19.944  1.00  0.00     0.298 C 
HETATM   11  C14 UNL     1      19.747 -17.757 -20.889  1.00  0.00     0.044 A 
HETATM   12  C15 UNL     1      18.373 -15.797 -19.752  1.00  0.00     0.191 C 
HETATM   13  C16 UNL     1      19.112 -14.675 -20.450  1.00  0.00     0.085 C 
HETATM   14  O4  UNL     1      17.019 -15.586 -19.869  1.00  0.00    -0.317 OA
BRANCH  12  15
HETATM   15  O3  UNL     1      18.675 -15.828 -18.387  1.00  0.00    -0.362 OA
ATOM     16  H3  UNL     1      17.956 -16.166 -17.867  1.00  0.00     0.213 HD
ENDBRANCH  12  15
BRANCH  10  17
HETATM   17  O5  UNL     1      15.959 -17.201 -18.701  1.00  0.00    -0.362 OA
HETATM   18  C18 UNL     1      15.094 -16.285 -18.105  1.00  0.00     0.205 C 
ENDBRANCH  10  17
ENDBRANCH   3   5
BRANCH   1  19
HETATM   19  N1  UNL     1      21.953 -21.671 -22.541  1.00  0.00    -0.291 N 
BRANCH  19  20
HETATM   20  C2  UNL     1      22.804 -22.282 -21.579  1.00  0.00     0.145 C 
HETATM   21  C1  UNL     1      22.183 -23.541 -20.976  1.00  0.00     0.028 C 
ENDBRANCH  19  20
BRANCH  19  22
HETATM   22  C3  UNL     1      22.147 -21.682 -23.928  1.00  0.00     0.116 C 
BRANCH  22  23
HETATM   23  C4  UNL     1      21.545 -22.708 -24.800  1.00  0.00     0.163 C 
HETATM   24  C5  UNL     1      20.413 -23.522 -24.322  1.00  0.00     0.069 C 
HETATM   25  C6  UNL     1      19.125 -22.728 -24.180  1.00  0.00     0.123 C 
HETATM   26  C7  UNL     1      19.014 -21.729 -25.322  1.00  0.00     0.058 C 
HETATM   27  C8  UNL     1      19.942 -22.169 -26.406  1.00  0.00     0.171 C 
HETATM   28  O2  UNL     1      21.240 -22.072 -26.019  1.00  0.00    -0.380 OA
BRANCH  25  29
HETATM   29  O1  UNL     1      18.073 -23.620 -24.221  1.00  0.00    -0.395 OA
ATOM     30  H1  UNL     1      17.381 -23.279 -23.667  1.00  0.00     0.210 HD
ENDBRANCH  25  29
ENDBRANCH  22  23
ENDBRANCH  19  22
ENDBRANCH   1  19
TORSDOF 8
ENDMDL
MODEL 2
REMARK VINA RESULT: -6.999493187      1.762      2.849
REMARK  8 active torsions:
REMARK  status: ('A' for Active; 'I' for Inactive)
REMARK    1  A    between atoms: C2_2  and  N1_3 
REMARK    2  A    between atoms: N1_3  and  C3_4 
REMARK    3  A    between atoms: N1_3  and  N2_13 
REMARK    4  A    between atoms: C3_4  and  C4_5 
REMARK    5  A    between atoms: C6_7  and  O1_8 
REMARK    6  A    between atoms: N3_15  and  C9_17 
REMARK    7  A    between atoms: C15_23  and  O3_25 
REMARK    8  A    between atoms: C17_28  and  O5_29 
ROOT
HETATM    1  N2  UNL     1      20.815 -21.023 -22.079  1.00  0.00    -0.241 N 
ATOM      2  H2  UNL     1      19.979 -21.554 -21.833  1.00  0.00     0.208 HD
HETATM    3  N3  UNL     1      20.822 -19.759 -21.951  1.00  0.00    -0.286 N 
ATOM      4  H3  UNL     1      21.666 -19.244 -22.202  1.00  0.00     0.188 HD
ENDROOT
BRANCH   3   5
HETATM    5  C9  UNL     1      19.697 -19.037 -21.471  1.00  0.00     0.050 A 
HETATM    6  C10 UNL     1      18.460 -19.642 -21.606  1.00  0.00     0.031 A 
HETATM    7  C11 UNL     1      17.342 -18.991 -21.160  1.00  0.00     0.015 A 
HETATM    8  C12 UNL     1      17.407 -17.746 -20.577  1.00  0.00     0.008 A 
HETATM    9  C13 UNL     1      18.633 -17.130 -20.436  1.00  0.00     0.016 A 
HETATM   10  C17 UNL     1      16.380 -16.827 -20.015  1.00  0.00     0.298 C 
HETATM   11  C14 UNL     1      19.763 -17.789 -20.887  1.00  0.00     0.044 A 
HETATM   12  C15 UNL     1      18.367 -15.825 -19.784  1.00  0.00     0.191 C 
HETATM   13  C16 UNL     1      19.121 -14.705 -20.470  1.00  0.00     0.085 C 
HETATM   14  O4  UNL     1      17.016 -15.613 -19.930  1.00  0.00    -0.317 OA
BRANCH  12  15
HETATM   15  O3  UNL     1      18.640 -15.852 -18.413  1.00  0.00    -0.362 OA
ATOM     16  H3  UNL     1      19.247 -15.168 -18.154  1.00  0.00     0.213 HD
ENDBRANCH  12  15
BRANCH  10  17
HETATM   17  O5  UNL     1      15.931 -17.224 -18.781  1.00  0.00    -0.362 OA
HETATM   18  C18 UNL     1      15.092 -16.284 -18.184  1.00  0.00     0.205 C 
ENDBRANCH  10  17
ENDBRANCH   3   5
BRANCH   1  19
HETATM   19  N1  UNL     1      21.969 -21.703 -22.565  1.00  0.00    -0.291 N 
BRANCH  19  20
HETATM   20  C2  UNL     1      22.348 -21.411 -23.905  1.00  0.00     0.145 C 
HETATM   21  C1  UNL     1      23.426 -22.362 -24.421  1.00  0.00     0.028 C 
ENDBRANCH  19  20
BRANCH  19  22
HETATM   22  C3  UNL     1      22.627 -22.590 -21.705  1.00  0.00     0.116 C 
BRANCH  22  23
HETATM   23  C4  UNL     1      22.205 -23.994 -21.546  1.00  0.00     0.163 C 
HETATM   24  C5  UNL     1      22.123 -24.601 -20.205  1.00  0.00     0.069 C 
HETATM   25  C6  UNL     1      20.983 -24.047 -19.367  1.00  0.00     0.123 C 
HETATM   26  C7  UNL     1      19.769 -23.810 -20.253  1.00  0.00     0.058 C 
HETATM   27  C8  UNL     1      19.954 -24.604 -21.505  1.00  0.00     0.171 C 
HETATM   28  O2  UNL     1      20.990 -24.132 -22.245  1.00  0.00    -0.380 OA
BRANCH  25  29
HETATM   29  O1  UNL     1      20.687 -24.976 -18.390  1.00  0.00    -0.395 OA
ATOM     30  H1  UNL     1      20.147 -24.548 -17.737  1.00  0.00     0.210 HD
ENDBRANCH  25  29
ENDBRANCH  22  23
ENDBRANCH  19  22
ENDBRANCH   1  19
TORSDOF 8
ENDMDL
MODEL 3
REMARK VINA RESULT: -6.961409157      1.899      2.317
REMARK  8 active torsions:
REMARK  status: ('A' for Active; 'I' for Inactive)
REMARK    1  A    between atoms: C2_2  and  N1_3 
REMARK    2  A    between atoms: N1_3  and  C3_4 
REMARK    3  A    between atoms: N1_3  and  N2_13 
REMARK    4  A    between atoms: C3_4  and  C4_5 
REMARK    5  A    between atoms: C6_7  and  O1_8 
REMARK    6  A    between atoms: N3_15  and  C9_17 
REMARK    7  A    between atoms: C15_23  and  O3_25 
REMARK    8  A    between atoms: C17_28  and  O5_29 
ROOT
HETATM    1  N2  UNL     1      20.791 -20.929 -22.280  1.00  0.00    -0.241 N 
ATOM      2  H2  UNL     1      19.902 -21.429 -22.238  1.00  0.00     0.208 HD
HETATM    3  N3  UNL     1      20.850 -19.712 -21.920  1.00  0.00    -0.286 N 
ATOM      4  H3  UNL     1      21.747 -19.228 -21.969  1.00  0.00     0.188 HD
ENDROOT
BRANCH   3   5
HETATM    5  C9  UNL     1      19.714 -19.003 -21.452  1.00  0.00     0.050 A 
HETATM    6  C10 UNL     1      18.483 -19.616 -21.609  1.00  0.00     0.031 A 
HETATM    7  C11 UNL     1      17.354 -18.976 -21.174  1.00  0.00     0.015 A 
HETATM    8  C12 UNL     1      17.401 -17.734 -20.582  1.00  0.00     0.008 A 
HETATM    9  C13 UNL     1      18.621 -17.110 -20.420  1.00  0.00     0.016 A 
HETATM   10  C17 UNL     1      16.359 -16.827 -20.029  1.00  0.00     0.298 C 
HETATM   11  C14 UNL     1      19.761 -17.758 -20.859  1.00  0.00     0.044 A 
HETATM   12  C15 UNL     1      18.335 -15.811 -19.763  1.00  0.00     0.191 C 
HETATM   13  C16 UNL     1      19.090 -14.681 -20.431  1.00  0.00     0.085 C 
HETATM   14  O4  UNL     1      16.985 -15.608 -19.927  1.00  0.00    -0.317 OA
BRANCH  12  15
HETATM   15  O3  UNL     1      18.589 -15.845 -18.389  1.00  0.00    -0.362 OA
ATOM     16  H3  UNL     1      17.793 -15.782 -17.874  1.00  0.00     0.213 HD
ENDBRANCH  12  15
BRANCH  10  17
HETATM   17  O5  UNL     1      15.895 -17.235 -18.804  1.00  0.00    -0.362 OA
HETATM   18  C18 UNL     1      15.084 -16.283 -18.190  1.00  0.00     0.205 C 
ENDBRANCH  10  17
ENDBRANCH   3   5
BRANCH   1  19
HETATM   19  N1  UNL     1      21.960 -21.600 -22.744  1.00  0.00    -0.291 N 
BRANCH  19  20
HETATM   20  C2  UNL     1      22.824 -22.115 -21.738  1.00  0.00     0.145 C 
HETATM   21  C1  UNL     1      22.285 -23.403 -21.118  1.00  0.00     0.028 C 
ENDBRANCH  19  20
BRANCH  19  22
HETATM   22  C3  UNL     1      22.165 -21.697 -24.126  1.00  0.00     0.116 C 
BRANCH  22  23
HETATM   23  C4  UNL     1      23.508 -21.850 -24.715  1.00  0.00     0.163 C 
HETATM   24  C5  UNL     1      23.788 -22.951 -25.654  1.00  0.00     0.069 C 
HETATM   25  C6  UNL     1      23.097 -22.782 -26.996  1.00  0.00     0.123 C 
HETATM   26  C7  UNL     1      23.117 -21.314 -27.398  1.00  0.00     0.058 C 
HETATM   27  C8  UNL     1      24.173 -20.634 -26.590  1.00  0.00     0.171 C 
HETATM   28  O2  UNL     1      23.849 -20.602 -25.272  1.00  0.00    -0.380 OA
BRANCH  25  29
HETATM   29  O1  UNL     1      23.783 -23.540 -27.923  1.00  0.00    -0.395 OA
ATOM     30  H1  UNL     1      23.271 -23.554 -28.723  1.00  0.00     0.210 HD
ENDBRANCH  25  29
ENDBRANCH  22  23
ENDBRANCH  19  22
ENDBRANCH   1  19
TORSDOF 8
ENDMDL
MODEL 4
REMARK VINA RESULT: -6.892372491      1.018      1.123
REMARK  8 active torsions:
REMARK  status: ('A' for Active; 'I' for Inactive)
REMARK    1  A    between atoms: C2_2  and  N1_3 
REMARK    2  A    between atoms: N1_3  and  C3_4 
REMARK    3  A    between atoms: N1_3  and  N2_13 
REMARK    4  A    between atoms: C3_4  and  C4_5 
REMARK    5  A    between atoms: C6_7  and  O1_8 
REMARK    6  A    between atoms: N3_15  and  C9_17 
REMARK    7  A    between atoms: C15_23  and  O3_25 
REMARK    8  A    between atoms: C17_28  and  O5_29 
ROOT
HETATM    1  N2  UNL     1      20.382 -21.354 -21.972  1.00  0.00    -0.241 N 
ATOM      2  H2  UNL     1      19.577 -21.773 -21.506  1.00  0.00     0.208 HD
HETATM    3  N3  UNL     1      20.479 -20.089 -22.052  1.00  0.00    -0.286 N 
ATOM      4  H3  UNL     1      21.290 -19.688 -22.522  1.00  0.00     0.188 HD
ENDROOT
BRANCH   3   5
HETATM    5  C9  UNL     1      19.500 -19.216 -21.509  1.00  0.00     0.050 A 
HETATM    6  C10 UNL     1      18.192 -19.668 -21.502  1.00  0.00     0.031 A 
HETATM    7  C11 UNL     1      17.208 -18.866 -20.991  1.00  0.00     0.015 A 
HETATM    8  C12 UNL     1      17.477 -17.617 -20.479  1.00  0.00     0.008 A 
HETATM    9  C13 UNL     1      18.776 -17.153 -20.480  1.00  0.00     0.016 A 
HETATM   10  C17 UNL     1      16.625 -16.557 -19.874  1.00  0.00     0.298 C 
HETATM   11  C14 UNL     1      19.770 -17.964 -20.997  1.00  0.00     0.044 A 
HETATM   12  C15 UNL     1      18.731 -15.800 -19.873  1.00  0.00     0.191 C 
HETATM   13  C16 UNL     1      19.545 -14.810 -20.679  1.00  0.00     0.085 C 
HETATM   14  O4  UNL     1      17.408 -15.429 -19.908  1.00  0.00    -0.317 OA
BRANCH  12  15
HETATM   15  O3  UNL     1      19.129 -15.808 -18.533  1.00  0.00    -0.362 OA
ATOM     16  H3  UNL     1      20.068 -15.700 -18.436  1.00  0.00     0.213 HD
ENDBRANCH  12  15
BRANCH  10  17
HETATM   17  O5  UNL     1      16.252 -16.847 -18.585  1.00  0.00    -0.362 OA
HETATM   18  C18 UNL     1      14.959 -16.420 -18.290  1.00  0.00     0.205 C 
ENDBRANCH  10  17
ENDBRANCH   3   5
BRANCH   1  19
HETATM   19  N1  UNL     1      21.391 -22.190 -22.533  1.00  0.00    -0.291 N 
BRANCH  19  20
HETATM   20  C2  UNL     1      22.680 -22.096 -21.938  1.00  0.00     0.145 C 
HETATM   21  C1  UNL     1      22.890 -23.144 -20.847  1.00  0.00     0.028 C 
ENDBRANCH  19  20
BRANCH  19  22
HETATM   22  C3  UNL     1      21.043 -23.021 -23.604  1.00  0.00     0.116 C 
BRANCH  22  23
HETATM   23  C4  UNL     1      20.745 -22.491 -24.948  1.00  0.00     0.163 C 
HETATM   24  C5  UNL     1      20.341 -23.402 -26.035  1.00  0.00     0.069 C 
HETATM   25  C6  UNL     1      18.954 -23.990 -25.837  1.00  0.00     0.123 C 
HETATM   26  C7  UNL     1      18.033 -22.935 -25.245  1.00  0.00     0.058 C 
HETATM   27  C8  UNL     1      18.657 -21.599 -25.481  1.00  0.00     0.171 C 
HETATM   28  O2  UNL     1      19.807 -21.455 -24.774  1.00  0.00    -0.380 OA
BRANCH  25  29
HETATM   29  O1  UNL     1      18.487 -24.395 -27.071  1.00  0.00    -0.395 OA
ATOM     30  H1  UNL     1      18.822 -25.267 -27.237  1.00  0.00     0.210 HD
ENDBRANCH  25  29
ENDBRANCH  22  23
ENDBRANCH  19  22
ENDBRANCH   1  19
TORSDOF 8
ENDMDL
MODEL 5
REMARK VINA RESULT: -6.713081981      1.141      1.837
REMARK  8 active torsions:
REMARK  status: ('A' for Active; 'I' for Inactive)
REMARK    1  A    between atoms: C2_2  and  N1_3 
REMARK    2  A    between atoms: N1_3  and  C3_4 
REMARK    3  A    between atoms: N1_3  and  N2_13 
REMARK    4  A    between atoms: C3_4  and  C4_5 
REMARK    5  A    between atoms: C6_7  and  O1_8 
REMARK    6  A    between atoms: N3_15  and  C9_17 
REMARK    7  A    between atoms: C15_23  and  O3_25 
REMARK    8  A    between atoms: C17_28  and  O5_29 
ROOT
HETATM    1  N2  UNL     1      20.877 -21.032 -22.169  1.00  0.00    -0.241 N 
ATOM      2  H2  UNL     1      20.029 -21.564 -21.972  1.00  0.00     0.208 HD
HETATM    3  N3  UNL     1      20.892 -19.775 -21.987  1.00  0.00    -0.286 N 
ATOM      4  H3  UNL     1      21.748 -19.259 -22.190  1.00  0.00     0.188 HD
ENDROOT
BRANCH   3   5
HETATM    5  C9  UNL     1      19.759 -19.063 -21.511  1.00  0.00     0.050 A 
HETATM    6  C10 UNL     1      18.526 -19.673 -21.662  1.00  0.00     0.031 A 
HETATM    7  C11 UNL     1      17.402 -19.030 -21.220  1.00  0.00     0.015 A 
HETATM    8  C12 UNL     1      17.455 -17.789 -20.627  1.00  0.00     0.008 A 
HETATM    9  C13 UNL     1      18.677 -17.168 -20.472  1.00  0.00     0.016 A 
HETATM   10  C17 UNL     1      16.419 -16.880 -20.068  1.00  0.00     0.298 C 
HETATM   11  C14 UNL     1      19.814 -17.818 -20.918  1.00  0.00     0.044 A 
HETATM   12  C15 UNL     1      18.399 -15.869 -19.813  1.00  0.00     0.191 C 
HETATM   13  C16 UNL     1      19.153 -14.740 -20.483  1.00  0.00     0.085 C 
HETATM   14  O4  UNL     1      17.049 -15.663 -19.968  1.00  0.00    -0.317 OA
BRANCH  12  15
HETATM   15  O3  UNL     1      18.661 -15.905 -18.440  1.00  0.00    -0.362 OA
ATOM     16  H3  UNL     1      18.747 -16.793 -18.113  1.00  0.00     0.213 HD
ENDBRANCH  12  15
BRANCH  10  17
HETATM   17  O5  UNL     1      15.962 -17.288 -18.839  1.00  0.00    -0.362 OA
HETATM   18  C18 UNL     1      15.141 -16.342 -18.228  1.00  0.00     0.205 C 
ENDBRANCH  10  17
ENDBRANCH   3   5
BRANCH   1  19
HETATM   19  N1  UNL     1      22.039 -21.704 -22.649  1.00  0.00    -0.291 N 
BRANCH  19  20
HETATM   20  C2  UNL     1      22.935 -22.187 -21.655  1.00  0.00     0.145 C 
HETATM   21  C1  UNL     1      22.416 -23.451 -20.975  1.00  0.00     0.028 C 
ENDBRANCH  19  20
BRANCH  19  22
HETATM   22  C3  UNL     1      22.207 -21.832 -24.033  1.00  0.00     0.116 C 
BRANCH  22  23
HETATM   23  C4  UNL     1      21.266 -22.596 -24.873  1.00  0.00     0.163 C 
HETATM   24  C5  UNL     1      21.771 -23.497 -25.926  1.00  0.00     0.069 C 
HETATM   25  C6  UNL     1      22.457 -24.735 -25.374  1.00  0.00     0.123 C 
HETATM   26  C7  UNL     1      21.711 -25.223 -24.142  1.00  0.00     0.058 C 
HETATM   27  C8  UNL     1      20.346 -24.618 -24.163  1.00  0.00     0.171 C 
HETATM   28  O2  UNL     1      20.397 -23.271 -23.995  1.00  0.00    -0.380 OA
BRANCH  25  29
HETATM   29  O1  UNL     1      22.438 -25.702 -26.358  1.00  0.00    -0.395 OA
ATOM     30  H1  UNL     1      22.309 -26.543 -25.937  1.00  0.00     0.210 HD
ENDBRANCH  25  29
ENDBRANCH  22  23
ENDBRANCH  19  22
ENDBRANCH   1  19
TORSDOF 8
ENDMDL
