MODEL 1
REMARK VINA RESULT: -7.729278768      0.000      0.000
REMARK  8 active torsions:
REMARK  status: ('A' for Active; 'I' for Inactive)
REMARK    1  A    between atoms: C2_2  and  C3_3 
REMARK    2  A    between atoms: C3_3  and  C4_4 
REMARK    3  A    between atoms: N1_7  and  C7_8 
REMARK    4  A    between atoms: C7_8  and  C8_13 
REMARK    5  A    between atoms: N2_9  and  O1_11 
REMARK    6  A    between atoms: C11_18  and  O2_19 
REMARK    7  A    between atoms: O2_19  and  C12_20 
REMARK    8  A    between atoms: C12_20  and  C13_21 
ROOT
HETATM    1  C8  UNL     1     -10.921  -7.664   1.302  1.00  0.00     0.015 A 
HETATM    2  C9  UNL     1      -9.848  -8.201   0.610  1.00  0.00     0.032 A 
HETATM    3  C10 UNL     1      -9.701  -7.880  -0.723  1.00  0.00     0.091 A 
HETATM    4  N3  UNL     1     -10.560  -7.070  -1.364  1.00  0.00    -0.347 N 
ATOM      5  H3  UNL     1     -10.413  -6.858  -2.351  1.00  0.00     0.167 HD
HETATM    6  C11 UNL     1     -11.598  -6.540  -0.727  1.00  0.00     0.142 A 
HETATM    7  C19 UNL     1     -11.784  -6.837   0.620  1.00  0.00     0.071 A 
ENDROOT
BRANCH   1   8
HETATM    8  C7  UNL     1     -11.172  -7.924   2.706  1.00  0.00     0.133 C 
HETATM    9  N2  UNL     1     -12.138  -8.605   3.172  1.00  0.00    -0.252 N 
ATOM     10  H2  UNL     1     -12.186  -8.696   4.187  1.00  0.00     0.196 HD
BRANCH   8  11
HETATM   11  N1  UNL     1     -10.216  -7.329   3.610  1.00  0.00    -0.365 N 
HETATM   12  C6  UNL     1     -10.287  -7.287   5.054  1.00  0.00     0.125 C 
HETATM   13  C5  UNL     1      -9.155  -6.371   5.460  1.00  0.00     0.026 C 
HETATM   14  C4  UNL     1      -8.143  -6.606   4.358  1.00  0.00     0.009 C 
HETATM   15  C20 UNL     1      -9.018  -6.676   3.128  1.00  0.00     0.129 C 
BRANCH  14  16
HETATM   16  C3  UNL     1      -7.144  -5.483   4.255  1.00  0.00     0.032 C 
BRANCH  16  17
HETATM   17  C2  UNL     1      -6.841  -4.931   5.582  1.00  0.00    -0.036 C 
HETATM   18  C1  UNL     1      -5.646  -5.094   6.134  1.00  0.00     0.007 C 
ENDBRANCH  16  17
ENDBRANCH  14  16
ENDBRANCH   8  11
BRANCH   9  19
HETATM   19  O1  UNL     1     -13.111  -9.223   2.461  1.00  0.00    -0.288 OA
ATOM     20  H1  UNL     1     -13.441 -10.104   2.595  1.00  0.00     0.244 HD
ENDBRANCH   9  19
ENDBRANCH   1   8
BRANCH   6  21
HETATM   21  O2  UNL     1     -12.482  -5.705  -1.388  1.00  0.00    -0.335 OA
BRANCH  21  22
HETATM   22  C12 UNL     1     -12.224  -4.315  -1.442  1.00  0.00     0.182 C 
BRANCH  22  23
HETATM   23  C13 UNL     1     -11.776  -3.877  -2.816  1.00  0.00     0.010 C 
HETATM   24  C14 UNL     1     -10.275  -3.675  -2.783  1.00  0.00     0.007 C 
HETATM   25  C15 UNL     1      -9.820  -3.364  -4.182  1.00  0.00     0.000 C 
HETATM   26  C16 UNL     1     -10.565  -2.250  -4.832  1.00  0.00     0.000 C 
HETATM   27  C17 UNL     1     -12.054  -2.317  -4.658  1.00  0.00     0.000 C 
HETATM   28  C18 UNL     1     -12.385  -2.538  -3.185  1.00  0.00     0.007 C 
ENDBRANCH  22  23
ENDBRANCH  21  22
ENDBRANCH   6  21
TORSDOF 8
ENDMDL
MODEL 2
REMARK VINA RESULT: -7.705696791      3.255      5.294
REMARK  8 active torsions:
REMARK  status: ('A' for Active; 'I' for Inactive)
REMARK    1  A    between atoms: C2_2  and  C3_3 
REMARK    2  A    between atoms: C3_3  and  C4_4 
REMARK    3  A    between atoms: N1_7  and  C7_8 
REMARK    4  A    between atoms: C7_8  and  C8_13 
REMARK    5  A    between atoms: N2_9  and  O1_11 
REMARK    6  A    between atoms: C11_18  and  O2_19 
REMARK    7  A    between atoms: O2_19  and  C12_20 
REMARK    8  A    between atoms: C12_20  and  C13_21 
ROOT
HETATM    1  C8  UNL     1      -9.286  -7.121   0.125  1.00  0.00     0.015 A 
HETATM    2  C9  UNL     1      -9.893  -8.102   0.891  1.00  0.00     0.032 A 
HETATM    3  C10 UNL     1     -11.252  -8.290   0.758  1.00  0.00     0.091 A 
HETATM    4  N3  UNL     1     -11.998  -7.556  -0.086  1.00  0.00    -0.347 N 
ATOM      5  H3  UNL     1     -13.001  -7.730  -0.154  1.00  0.00     0.167 HD
HETATM    6  C11 UNL     1     -11.444  -6.608  -0.833  1.00  0.00     0.142 A 
HETATM    7  C19 UNL     1     -10.075  -6.385  -0.731  1.00  0.00     0.071 A 
ENDROOT
BRANCH   1   8
HETATM    8  C7  UNL     1      -7.865  -6.838   0.175  1.00  0.00     0.133 C 
HETATM    9  N2  UNL     1      -7.213  -6.502   1.212  1.00  0.00    -0.252 N 
ATOM     10  H2  UNL     1      -6.215  -6.329   1.089  1.00  0.00     0.196 HD
BRANCH   8  11
HETATM   11  N1  UNL     1      -7.182  -6.958  -1.092  1.00  0.00    -0.365 N 
HETATM   12  C6  UNL     1      -7.665  -6.537  -2.389  1.00  0.00     0.125 C 
HETATM   13  C5  UNL     1      -6.653  -7.093  -3.365  1.00  0.00     0.026 C 
HETATM   14  C4  UNL     1      -5.380  -7.083  -2.546  1.00  0.00     0.009 C 
HETATM   15  C20 UNL     1      -5.864  -7.547  -1.192  1.00  0.00     0.129 C 
BRANCH  14  16
HETATM   16  C3  UNL     1      -4.337  -8.018  -3.103  1.00  0.00     0.032 C 
BRANCH  16  17
HETATM   17  C2  UNL     1      -4.754  -8.544  -4.410  1.00  0.00    -0.036 C 
HETATM   18  C1  UNL     1      -4.291  -9.702  -4.860  1.00  0.00     0.007 C 
ENDBRANCH  16  17
ENDBRANCH  14  16
ENDBRANCH   8  11
BRANCH   9  19
HETATM   19  O1  UNL     1      -7.705  -6.348   2.465  1.00  0.00    -0.288 OA
ATOM     20  H1  UNL     1      -7.270  -5.930   3.199  1.00  0.00     0.244 HD
ENDBRANCH   9  19
ENDBRANCH   1   8
BRANCH   6  21
HETATM   21  O2  UNL     1     -12.213  -5.854  -1.702  1.00  0.00    -0.335 OA
BRANCH  21  22
HETATM   22  C12 UNL     1     -12.116  -4.442  -1.677  1.00  0.00     0.182 C 
BRANCH  22  23
HETATM   23  C13 UNL     1     -11.711  -3.880  -3.018  1.00  0.00     0.010 C 
HETATM   24  C14 UNL     1     -10.216  -3.639  -3.001  1.00  0.00     0.007 C 
HETATM   25  C15 UNL     1      -9.802  -3.202  -4.379  1.00  0.00     0.000 C 
HETATM   26  C16 UNL     1     -10.591  -2.060  -4.919  1.00  0.00     0.000 C 
HETATM   27  C17 UNL     1     -12.074  -2.183  -4.719  1.00  0.00     0.000 C 
HETATM   28  C18 UNL     1     -12.364  -2.534  -3.264  1.00  0.00     0.007 C 
ENDBRANCH  22  23
ENDBRANCH  21  22
ENDBRANCH   6  21
TORSDOF 8
ENDMDL
MODEL 3
REMARK VINA RESULT: -7.581026108      2.313      3.090
REMARK  8 active torsions:
REMARK  status: ('A' for Active; 'I' for Inactive)
REMARK    1  A    between atoms: C2_2  and  C3_3 
REMARK    2  A    between atoms: C3_3  and  C4_4 
REMARK    3  A    between atoms: N1_7  and  C7_8 
REMARK    4  A    between atoms: C7_8  and  C8_13 
REMARK    5  A    between atoms: N2_9  and  O1_11 
REMARK    6  A    between atoms: C11_18  and  O2_19 
REMARK    7  A    between atoms: O2_19  and  C12_20 
REMARK    8  A    between atoms: C12_20  and  C13_21 
ROOT
HETATM    1  C8  UNL     1      -7.647  -7.605   0.314  1.00  0.00     0.015 A 
HETATM    2  C9  UNL     1      -6.337  -7.726  -0.118  1.00  0.00     0.032 A 
HETATM    3  C10 UNL     1      -5.992  -7.174  -1.333  1.00  0.00     0.091 A 
HETATM    4  N3  UNL     1      -6.883  -6.526  -2.104  1.00  0.00    -0.347 N 
ATOM      5  H3  UNL     1      -6.585  -6.132  -2.996  1.00  0.00     0.167 HD
HETATM    6  C11 UNL     1      -8.147  -6.394  -1.717  1.00  0.00     0.142 A 
HETATM    7  C19 UNL     1      -8.537  -6.936  -0.497  1.00  0.00     0.071 A 
ENDROOT
BRANCH   1   8
HETATM    8  C7  UNL     1      -8.122  -8.138   1.575  1.00  0.00     0.133 C 
HETATM    9  N2  UNL     1      -8.619  -9.294   1.751  1.00  0.00    -0.252 N 
ATOM     10  H2  UNL     1      -8.915  -9.526   2.699  1.00  0.00     0.196 HD
BRANCH   8  11
HETATM   11  N1  UNL     1      -8.003  -7.233   2.695  1.00  0.00    -0.365 N 
HETATM   12  C6  UNL     1      -7.304  -5.967   2.725  1.00  0.00     0.125 C 
HETATM   13  C5  UNL     1      -7.323  -5.562   4.182  1.00  0.00     0.026 C 
HETATM   14  C4  UNL     1      -8.617  -6.181   4.668  1.00  0.00     0.009 C 
HETATM   15  C20 UNL     1      -8.612  -7.524   3.974  1.00  0.00     0.129 C 
BRANCH  14  16
HETATM   16  C3  UNL     1      -8.644  -6.340   6.166  1.00  0.00     0.032 C 
BRANCH  16  17
HETATM   17  C2  UNL     1      -9.888  -6.988   6.600  1.00  0.00    -0.036 C 
HETATM   18  C1  UNL     1     -11.047  -6.343   6.556  1.00  0.00     0.007 C 
ENDBRANCH  16  17
ENDBRANCH  14  16
ENDBRANCH   8  11
BRANCH   9  19
HETATM   19  O1  UNL     1      -8.796 -10.252   0.809  1.00  0.00    -0.288 OA
ATOM     20  H1  UNL     1      -8.294 -11.053   0.712  1.00  0.00     0.244 HD
ENDBRANCH   9  19
ENDBRANCH   1   8
BRANCH   6  21
HETATM   21  O2  UNL     1      -9.063  -5.727  -2.512  1.00  0.00    -0.335 OA
BRANCH  21  22
HETATM   22  C12 UNL     1      -9.708  -4.570  -2.015  1.00  0.00     0.182 C 
BRANCH  22  23
HETATM   23  C13 UNL     1     -10.637  -3.959  -3.037  1.00  0.00     0.010 C 
HETATM   24  C14 UNL     1      -9.809  -3.127  -3.993  1.00  0.00     0.007 C 
HETATM   25  C15 UNL     1     -10.721  -2.627  -5.080  1.00  0.00     0.000 C 
HETATM   26  C16 UNL     1     -11.942  -1.936  -4.581  1.00  0.00     0.000 C 
HETATM   27  C17 UNL     1     -12.638  -2.645  -3.456  1.00  0.00     0.000 C 
HETATM   28  C18 UNL     1     -11.622  -3.012  -2.379  1.00  0.00     0.007 C 
ENDBRANCH  22  23
ENDBRANCH  21  22
ENDBRANCH   6  21
TORSDOF 8
ENDMDL
MODEL 4
REMARK VINA RESULT: -7.508570428      4.595      6.728
REMARK  8 active torsions:
REMARK  status: ('A' for Active; 'I' for Inactive)
REMARK    1  A    between atoms: C2_2  and  C3_3 
REMARK    2  A    between atoms: C3_3  and  C4_4 
REMARK    3  A    between atoms: N1_7  and  C7_8 
REMARK    4  A    between atoms: C7_8  and  C8_13 
REMARK    5  A    between atoms: N2_9  and  O1_11 
REMARK    6  A    between atoms: C11_18  and  O2_19 
REMARK    7  A    between atoms: O2_19  and  C12_20 
REMARK    8  A    between atoms: C12_20  and  C13_21 
ROOT
HETATM    1  C8  UNL     1      -7.088  -6.939  -2.721  1.00  0.00     0.015 A 
HETATM    2  C9  UNL     1      -6.448  -6.880  -1.493  1.00  0.00     0.032 A 
HETATM    3  C10 UNL     1      -7.220  -6.854  -0.352  1.00  0.00     0.091 A 
HETATM    4  N3  UNL     1      -8.563  -6.884  -0.394  1.00  0.00    -0.347 N 
ATOM      5  H3  UNL     1      -9.095  -6.864   0.476  1.00  0.00     0.167 HD
HETATM    6  C11 UNL     1      -9.205  -6.939  -1.556  1.00  0.00     0.142 A 
HETATM    7  C19 UNL     1      -8.464  -6.968  -2.733  1.00  0.00     0.071 A 
ENDROOT
BRANCH   1   8
HETATM    8  C7  UNL     1      -6.381  -6.978  -3.985  1.00  0.00     0.133 C 
HETATM    9  N2  UNL     1      -6.672  -6.298  -5.018  1.00  0.00    -0.252 N 
ATOM     10  H2  UNL     1      -6.083  -6.438  -5.839  1.00  0.00     0.196 HD
BRANCH   8  11
HETATM   11  N1  UNL     1      -5.263  -7.891  -4.022  1.00  0.00    -0.365 N 
HETATM   12  C6  UNL     1      -5.010  -8.924  -5.003  1.00  0.00     0.125 C 
HETATM   13  C5  UNL     1      -3.840  -9.698  -4.440  1.00  0.00     0.026 C 
HETATM   14  C4  UNL     1      -3.095  -8.633  -3.664  1.00  0.00     0.009 C 
HETATM   15  C20 UNL     1      -4.221  -7.858  -3.019  1.00  0.00     0.129 C 
BRANCH  14  16
HETATM   16  C3  UNL     1      -2.173  -9.223  -2.628  1.00  0.00     0.032 C 
BRANCH  16  17
HETATM   17  C2  UNL     1      -2.655  -8.925  -1.273  1.00  0.00    -0.036 C 
HETATM   18  C1  UNL     1      -2.614  -9.843  -0.315  1.00  0.00     0.007 C 
ENDBRANCH  16  17
ENDBRANCH  14  16
ENDBRANCH   8  11
BRANCH   9  19
HETATM   19  O1  UNL     1      -7.683  -5.405  -5.142  1.00  0.00    -0.288 OA
ATOM     20  H1  UNL     1      -8.099  -5.126  -5.949  1.00  0.00     0.244 HD
ENDBRANCH   9  19
ENDBRANCH   1   8
BRANCH   6  21
HETATM   21  O2  UNL     1     -10.588  -6.969  -1.597  1.00  0.00    -0.335 OA
BRANCH  21  22
HETATM   22  C12 UNL     1     -11.325  -5.834  -1.185  1.00  0.00     0.182 C 
BRANCH  22  23
HETATM   23  C13 UNL     1     -11.567  -4.873  -2.325  1.00  0.00     0.010 C 
HETATM   24  C14 UNL     1     -10.339  -4.000  -2.477  1.00  0.00     0.007 C 
HETATM   25  C15 UNL     1     -10.535  -3.136  -3.692  1.00  0.00     0.000 C 
HETATM   26  C16 UNL     1     -11.818  -2.380  -3.702  1.00  0.00     0.000 C 
HETATM   27  C17 UNL     1     -13.018  -3.192  -3.311  1.00  0.00     0.000 C 
HETATM   28  C18 UNL     1     -12.724  -3.944  -2.016  1.00  0.00     0.007 C 
ENDBRANCH  22  23
ENDBRANCH  21  22
ENDBRANCH   6  21
TORSDOF 8
ENDMDL
MODEL 5
REMARK VINA RESULT: -7.480896093      2.547      8.134
REMARK  8 active torsions:
REMARK  status: ('A' for Active; 'I' for Inactive)
REMARK    1  A    between atoms: C2_2  and  C3_3 
REMARK    2  A    between atoms: C3_3  and  C4_4 
REMARK    3  A    between atoms: N1_7  and  C7_8 
REMARK    4  A    between atoms: C7_8  and  C8_13 
REMARK    5  A    between atoms: N2_9  and  O1_11 
REMARK    6  A    between atoms: C11_18  and  O2_19 
REMARK    7  A    between atoms: O2_19  and  C12_20 
REMARK    8  A    between atoms: C12_20  and  C13_21 
ROOT
HETATM    1  C8  UNL     1      -8.477  -7.116  -0.586  1.00  0.00     0.015 A 
HETATM    2  C9  UNL     1      -8.942  -8.415  -0.463  1.00  0.00     0.032 A 
HETATM    3  C10 UNL     1      -8.675  -9.100   0.703  1.00  0.00     0.091 A 
HETATM    4  N3  UNL     1      -7.984  -8.548   1.716  1.00  0.00    -0.347 N 
ATOM      5  H3  UNL     1      -7.810  -9.091   2.562  1.00  0.00     0.167 HD
HETATM    6  C11 UNL     1      -7.525  -7.305   1.627  1.00  0.00     0.142 A 
HETATM    7  C19 UNL     1      -7.773  -6.577   0.467  1.00  0.00     0.071 A 
ENDROOT
BRANCH   1   8
HETATM    8  C7  UNL     1      -8.704  -6.298  -1.761  1.00  0.00     0.133 C 
HETATM    9  N2  UNL     1      -7.871  -6.105  -2.701  1.00  0.00    -0.252 N 
ATOM     10  H2  UNL     1      -8.173  -5.496  -3.462  1.00  0.00     0.196 HD
BRANCH   8  11
HETATM   11  N1  UNL     1     -10.001  -5.666  -1.814  1.00  0.00    -0.365 N 
HETATM   12  C6  UNL     1     -11.260  -6.215  -1.362  1.00  0.00     0.125 C 
HETATM   13  C5  UNL     1     -12.298  -5.231  -1.852  1.00  0.00     0.026 C 
HETATM   14  C4  UNL     1     -11.532  -3.924  -1.833  1.00  0.00     0.009 C 
HETATM   15  C20 UNL     1     -10.177  -4.338  -2.360  1.00  0.00     0.129 C 
BRANCH  14  16
HETATM   16  C3  UNL     1     -12.167  -2.880  -2.715  1.00  0.00     0.032 C 
BRANCH  16  17
HETATM   17  C2  UNL     1     -11.483  -2.809  -4.013  1.00  0.00    -0.036 C 
HETATM   18  C1  UNL     1     -11.949  -2.044  -4.992  1.00  0.00     0.007 C 
ENDBRANCH  16  17
ENDBRANCH  14  16
ENDBRANCH   8  11
BRANCH   9  19
HETATM   19  O1  UNL     1      -6.623  -6.623  -2.797  1.00  0.00    -0.288 OA
ATOM     20  H1  UNL     1      -6.023  -6.530  -3.528  1.00  0.00     0.244 HD
ENDBRANCH   9  19
ENDBRANCH   1   8
BRANCH   6  21
HETATM   21  O2  UNL     1      -6.814  -6.738   2.670  1.00  0.00    -0.335 OA
BRANCH  21  22
HETATM   22  C12 UNL     1      -7.264  -5.527   3.247  1.00  0.00     0.182 C 
BRANCH  22  23
HETATM   23  C13 UNL     1      -7.675  -5.706   4.689  1.00  0.00     0.010 C 
HETATM   24  C14 UNL     1      -6.563  -6.437   5.412  1.00  0.00     0.007 C 
HETATM   25  C15 UNL     1      -6.923  -6.498   6.871  1.00  0.00     0.000 C 
HETATM   26  C16 UNL     1      -8.281  -7.045   7.142  1.00  0.00     0.000 C 
HETATM   27  C17 UNL     1      -9.358  -6.494   6.253  1.00  0.00     0.000 C 
HETATM   28  C18 UNL     1      -8.910  -6.578   4.798  1.00  0.00     0.007 C 
ENDBRANCH  22  23
ENDBRANCH  21  22
ENDBRANCH   6  21
TORSDOF 8
ENDMDL
