MODEL 1
REMARK VINA RESULT: -7.609487861      0.000      0.000
REMARK  8 active torsions:
REMARK  status: ('A' for Active; 'I' for Inactive)
REMARK    1  A    between atoms: C2_2  and  C3_3 
REMARK    2  A    between atoms: C3_3  and  C4_4 
REMARK    3  A    between atoms: C4_4  and  C5_5 
REMARK    4  A    between atoms: C7_7  and  C8_8 
REMARK    5  A    between atoms: C8_8  and  C9_9 
REMARK    6  A    between atoms: C9_9  and  C10_10 
REMARK    7  A    between atoms: C10_10  and  C11_11 
REMARK    8  A    between atoms: C17_19  and  O3_20 
ROOT
HETATM    1  C11 UNL     1     -10.669  -8.034  -0.063  1.00  0.00     0.041 C 
HETATM    2  C12 UNL     1     -10.172  -8.278   1.377  1.00  0.00     0.175 C 
HETATM    3  O1  UNL     1      -8.781  -8.003   1.343  1.00  0.00    -0.382 OA
HETATM    4  C13 UNL     1      -8.763  -6.958   0.519  1.00  0.00     0.157 C 
HETATM    5  C14 UNL     1      -9.431  -7.596  -0.715  1.00  0.00     0.157 C 
HETATM    6  O2  UNL     1      -9.355  -6.568  -1.562  1.00  0.00    -0.377 OA
HETATM    7  C15 UNL     1      -8.004  -6.181  -1.517  1.00  0.00     0.131 C 
HETATM    8  C16 UNL     1      -7.084  -7.068  -2.264  1.00  0.00     0.064 C 
HETATM    9  C17 UNL     1      -5.791  -6.964  -1.480  1.00  0.00     0.124 C 
HETATM   10  C18 UNL     1      -6.289  -7.056  -0.037  1.00  0.00     0.019 C 
HETATM   11  C19 UNL     1      -6.218  -8.441   0.492  1.00  0.00     0.013 C 
HETATM   12  C20 UNL     1      -7.576  -6.378  -0.051  1.00  0.00     0.052 C 
ENDROOT
BRANCH   1  13
HETATM   13  C10 UNL     1     -11.724  -6.994  -0.061  1.00  0.00     0.010 C 
BRANCH  13  14
HETATM   14  C9  UNL     1     -12.115  -6.398  -1.356  1.00  0.00     0.007 C 
BRANCH  14  15
HETATM   15  C8  UNL     1     -12.708  -5.031  -1.047  1.00  0.00     0.067 C 
BRANCH  15  16
HETATM   16  C7  UNL     1     -12.582  -4.108  -2.176  1.00  0.00     0.078 A 
HETATM   17  C6  UNL     1     -11.369  -3.624  -2.688  1.00  0.00     0.066 A 
HETATM   18  C5  UNL     1     -11.629  -2.786  -3.741  1.00  0.00     0.057 A 
HETATM   19  N1  UNL     1     -13.023  -2.814  -3.805  1.00  0.00    -0.261 N 
HETATM   20  O4  UNL     1     -13.500  -3.573  -2.901  1.00  0.00    -0.242 OA
ATOM     21  H1  UNL     1     -13.583  -2.297  -4.483  1.00  0.00     0.195 HD
BRANCH  18  22
HETATM   22  C4  UNL     1     -10.816  -2.014  -4.636  1.00  0.00     0.031 C 
BRANCH  22  23
HETATM   23  C3  UNL     1      -9.880  -2.356  -5.418  1.00  0.00     0.002 C 
BRANCH  23  24
HETATM   24  C2  UNL     1      -9.646  -3.583  -6.120  1.00  0.00    -0.010 C 
HETATM   25  C1  UNL     1     -10.409  -3.858  -7.212  1.00  0.00     0.011 C 
ENDBRANCH  23  24
ENDBRANCH  22  23
ENDBRANCH  18  22
ENDBRANCH  15  16
ENDBRANCH  14  15
ENDBRANCH  13  14
ENDBRANCH   1  13
BRANCH   9  26
HETATM   26  O3  UNL     1      -4.894  -7.965  -1.781  1.00  0.00    -0.395 OA
ATOM     27  H3  UNL     1      -4.095  -7.642  -2.181  1.00  0.00     0.210 HD
ENDBRANCH   9  26
TORSDOF 8
ENDMDL
MODEL 2
REMARK VINA RESULT: -7.531510122      1.425      2.008
REMARK  8 active torsions:
REMARK  status: ('A' for Active; 'I' for Inactive)
REMARK    1  A    between atoms: C2_2  and  C3_3 
REMARK    2  A    between atoms: C3_3  and  C4_4 
REMARK    3  A    between atoms: C4_4  and  C5_5 
REMARK    4  A    between atoms: C7_7  and  C8_8 
REMARK    5  A    between atoms: C8_8  and  C9_9 
REMARK    6  A    between atoms: C9_9  and  C10_10 
REMARK    7  A    between atoms: C10_10  and  C11_11 
REMARK    8  A    between atoms: C17_19  and  O3_20 
ROOT
HETATM    1  C11 UNL     1      -9.202  -8.330   0.290  1.00  0.00     0.041 C 
HETATM    2  C12 UNL     1      -8.110  -8.523   1.363  1.00  0.00     0.175 C 
HETATM    3  O1  UNL     1      -6.896  -8.152   0.730  1.00  0.00    -0.382 OA
HETATM    4  C13 UNL     1      -7.311  -7.118   0.002  1.00  0.00     0.157 C 
HETATM    5  C14 UNL     1      -8.407  -7.815  -0.828  1.00  0.00     0.157 C 
HETATM    6  O2  UNL     1      -8.779  -6.794  -1.602  1.00  0.00    -0.377 OA
HETATM    7  C15 UNL     1      -7.574  -6.313  -2.145  1.00  0.00     0.131 C 
HETATM    8  C16 UNL     1      -7.016  -7.142  -3.237  1.00  0.00     0.064 C 
HETATM    9  C17 UNL     1      -5.521  -6.939  -3.095  1.00  0.00     0.124 C 
HETATM   10  C18 UNL     1      -5.330  -7.049  -1.582  1.00  0.00     0.019 C 
HETATM   11  C19 UNL     1      -4.940  -8.419  -1.165  1.00  0.00     0.013 C 
HETATM   12  C20 UNL     1      -6.536  -6.463  -1.018  1.00  0.00     0.052 C 
ENDROOT
BRANCH   1  13
HETATM   13  C10 UNL     1     -10.218  -7.367   0.774  1.00  0.00     0.010 C 
BRANCH  13  14
HETATM   14  C9  UNL     1     -11.644  -7.719   0.607  1.00  0.00     0.007 C 
BRANCH  14  15
HETATM   15  C8  UNL     1     -11.968  -7.540  -0.869  1.00  0.00     0.067 C 
BRANCH  15  16
HETATM   16  C7  UNL     1     -12.327  -6.159  -1.190  1.00  0.00     0.078 A 
HETATM   17  C6  UNL     1     -11.561  -5.291  -1.982  1.00  0.00     0.066 A 
HETATM   18  C5  UNL     1     -12.200  -4.082  -2.071  1.00  0.00     0.057 A 
HETATM   19  N1  UNL     1     -13.347  -4.296  -1.306  1.00  0.00    -0.261 N 
HETATM   20  O4  UNL     1     -13.362  -5.480  -0.838  1.00  0.00    -0.242 OA
ATOM     21  H1  UNL     1     -14.074  -3.599  -1.143  1.00  0.00     0.195 HD
BRANCH  18  22
HETATM   22  C4  UNL     1     -11.911  -2.837  -2.724  1.00  0.00     0.031 C 
BRANCH  22  23
HETATM   23  C3  UNL     1     -11.960  -2.505  -3.944  1.00  0.00     0.002 C 
BRANCH  23  24
HETATM   24  C2  UNL     1     -11.128  -2.875  -5.052  1.00  0.00    -0.010 C 
HETATM   25  C1  UNL     1      -9.780  -2.882  -4.872  1.00  0.00     0.011 C 
ENDBRANCH  23  24
ENDBRANCH  22  23
ENDBRANCH  18  22
ENDBRANCH  15  16
ENDBRANCH  14  15
ENDBRANCH  13  14
ENDBRANCH   1  13
BRANCH   9  26
HETATM   26  O3  UNL     1      -4.781  -7.878  -3.778  1.00  0.00    -0.395 OA
ATOM     27  H3  UNL     1      -3.917  -8.014  -3.406  1.00  0.00     0.210 HD
ENDBRANCH   9  26
TORSDOF 8
ENDMDL
MODEL 3
REMARK VINA RESULT: -7.432644009      2.500      3.668
REMARK  8 active torsions:
REMARK  status: ('A' for Active; 'I' for Inactive)
REMARK    1  A    between atoms: C2_2  and  C3_3 
REMARK    2  A    between atoms: C3_3  and  C4_4 
REMARK    3  A    between atoms: C4_4  and  C5_5 
REMARK    4  A    between atoms: C7_7  and  C8_8 
REMARK    5  A    between atoms: C8_8  and  C9_9 
REMARK    6  A    between atoms: C9_9  and  C10_10 
REMARK    7  A    between atoms: C10_10  and  C11_11 
REMARK    8  A    between atoms: C17_19  and  O3_20 
ROOT
HETATM    1  C11 UNL     1      -9.708  -7.810   1.005  1.00  0.00     0.041 C 
HETATM    2  C12 UNL     1      -8.934  -9.124   0.777  1.00  0.00     0.175 C 
HETATM    3  O1  UNL     1      -8.078  -9.252   1.901  1.00  0.00    -0.382 OA
HETATM    4  C13 UNL     1      -8.878  -8.801   2.863  1.00  0.00     0.157 C 
HETATM    5  C14 UNL     1      -9.178  -7.395   2.306  1.00  0.00     0.157 C 
HETATM    6  O2  UNL     1      -9.927  -6.919   3.302  1.00  0.00    -0.377 OA
HETATM    7  C15 UNL     1      -9.159  -7.155   4.457  1.00  0.00     0.131 C 
HETATM    8  C16 UNL     1      -8.031  -6.216   4.648  1.00  0.00     0.064 C 
HETATM    9  C17 UNL     1      -6.998  -7.061   5.369  1.00  0.00     0.124 C 
HETATM   10  C18 UNL     1      -7.064  -8.373   4.586  1.00  0.00     0.019 C 
HETATM   11  C19 UNL     1      -6.029  -8.444   3.524  1.00  0.00     0.013 C 
HETATM   12  C20 UNL     1      -8.462  -8.505   4.210  1.00  0.00     0.052 C 
ENDROOT
BRANCH   1  13
HETATM   13  C10 UNL     1     -11.164  -8.082   1.030  1.00  0.00     0.010 C 
BRANCH  13  14
HETATM   14  C9  UNL     1     -12.062  -7.123   0.353  1.00  0.00     0.007 C 
BRANCH  14  15
HETATM   15  C8  UNL     1     -11.349  -6.673  -0.914  1.00  0.00     0.067 C 
BRANCH  15  16
HETATM   16  C7  UNL     1     -11.978  -5.495  -1.511  1.00  0.00     0.078 A 
HETATM   17  C6  UNL     1     -11.333  -4.577  -2.352  1.00  0.00     0.066 A 
HETATM   18  C5  UNL     1     -12.224  -3.605  -2.724  1.00  0.00     0.057 A 
HETATM   19  N1  UNL     1     -13.390  -4.004  -2.067  1.00  0.00    -0.261 N 
HETATM   20  O4  UNL     1     -13.188  -5.071  -1.403  1.00  0.00    -0.242 OA
ATOM     21  H1  UNL     1     -14.280  -3.508  -2.112  1.00  0.00     0.195 HD
BRANCH  18  22
HETATM   22  C4  UNL     1     -12.149  -2.434  -3.550  1.00  0.00     0.031 C 
BRANCH  22  23
HETATM   23  C3  UNL     1     -11.592  -2.237  -4.669  1.00  0.00     0.002 C 
BRANCH  23  24
HETATM   24  C2  UNL     1     -10.217  -2.008  -5.005  1.00  0.00    -0.010 C 
HETATM   25  C1  UNL     1      -9.453  -3.074  -5.359  1.00  0.00     0.011 C 
ENDBRANCH  23  24
ENDBRANCH  22  23
ENDBRANCH  18  22
ENDBRANCH  15  16
ENDBRANCH  14  15
ENDBRANCH  13  14
ENDBRANCH   1  13
BRANCH   9  26
HETATM   26  O3  UNL     1      -5.737  -6.509   5.345  1.00  0.00    -0.395 OA
ATOM     27  H3  UNL     1      -5.363  -6.396   6.211  1.00  0.00     0.210 HD
ENDBRANCH   9  26
TORSDOF 8
ENDMDL
MODEL 4
REMARK VINA RESULT: -7.412247076      1.755      3.254
REMARK  8 active torsions:
REMARK  status: ('A' for Active; 'I' for Inactive)
REMARK    1  A    between atoms: C2_2  and  C3_3 
REMARK    2  A    between atoms: C3_3  and  C4_4 
REMARK    3  A    between atoms: C4_4  and  C5_5 
REMARK    4  A    between atoms: C7_7  and  C8_8 
REMARK    5  A    between atoms: C8_8  and  C9_9 
REMARK    6  A    between atoms: C9_9  and  C10_10 
REMARK    7  A    between atoms: C10_10  and  C11_11 
REMARK    8  A    between atoms: C17_19  and  O3_20 
ROOT
HETATM    1  C11 UNL     1      -9.461  -7.041  -0.382  1.00  0.00     0.041 C 
HETATM    2  C12 UNL     1      -7.961  -7.011  -0.739  1.00  0.00     0.175 C 
HETATM    3  O1  UNL     1      -7.319  -7.758   0.282  1.00  0.00    -0.382 OA
HETATM    4  C13 UNL     1      -8.211  -8.728   0.465  1.00  0.00     0.157 C 
HETATM    5  C14 UNL     1      -9.445  -7.875   0.822  1.00  0.00     0.157 C 
HETATM    6  O2  UNL     1     -10.322  -8.851   1.068  1.00  0.00    -0.377 OA
HETATM    7  C15 UNL     1      -9.660  -9.690   1.983  1.00  0.00     0.131 C 
HETATM    8  C16 UNL     1      -9.610  -9.172   3.369  1.00  0.00     0.064 C 
HETATM    9  C17 UNL     1      -8.308  -9.737   3.902  1.00  0.00     0.124 C 
HETATM   10  C18 UNL     1      -7.357  -9.499   2.728  1.00  0.00     0.019 C 
HETATM   11  C19 UNL     1      -6.590  -8.237   2.876  1.00  0.00     0.013 C 
HETATM   12  C20 UNL     1      -8.184  -9.680   1.545  1.00  0.00     0.052 C 
ENDROOT
BRANCH   1  13
HETATM   13  C10 UNL     1     -10.230  -7.642  -1.496  1.00  0.00     0.010 C 
BRANCH  13  14
HETATM   14  C9  UNL     1     -11.676  -7.345  -1.583  1.00  0.00     0.007 C 
BRANCH  14  15
HETATM   15  C8  UNL     1     -11.904  -6.054  -0.810  1.00  0.00     0.067 C 
BRANCH  15  16
HETATM   16  C7  UNL     1     -12.298  -4.951  -1.686  1.00  0.00     0.078 A 
HETATM   17  C6  UNL     1     -11.410  -4.083  -2.336  1.00  0.00     0.066 A 
HETATM   18  C5  UNL     1     -12.126  -3.174  -3.070  1.00  0.00     0.057 A 
HETATM   19  N1  UNL     1     -13.443  -3.557  -2.814  1.00  0.00    -0.261 N 
HETATM   20  O4  UNL     1     -13.475  -4.560  -2.031  1.00  0.00    -0.242 OA
ATOM     21  H1  UNL     1     -14.267  -3.097  -3.202  1.00  0.00     0.195 HD
BRANCH  18  22
HETATM   22  C4  UNL     1     -11.779  -2.071  -3.922  1.00  0.00     0.031 C 
BRANCH  22  23
HETATM   23  C3  UNL     1     -11.211  -2.037  -5.052  1.00  0.00     0.002 C 
BRANCH  23  24
HETATM   24  C2  UNL     1      -9.821  -2.005  -5.403  1.00  0.00    -0.010 C 
HETATM   25  C1  UNL     1      -9.143  -3.182  -5.465  1.00  0.00     0.011 C 
ENDBRANCH  23  24
ENDBRANCH  22  23
ENDBRANCH  18  22
ENDBRANCH  15  16
ENDBRANCH  14  15
ENDBRANCH  13  14
ENDBRANCH   1  13
BRANCH   9  26
HETATM   26  O3  UNL     1      -7.877  -9.112   5.049  1.00  0.00    -0.395 OA
ATOM     27  H3  UNL     1      -8.400  -9.329   5.812  1.00  0.00     0.210 HD
ENDBRANCH   9  26
TORSDOF 8
ENDMDL
MODEL 5
REMARK VINA RESULT: -7.383008241      2.378      3.379
REMARK  8 active torsions:
REMARK  status: ('A' for Active; 'I' for Inactive)
REMARK    1  A    between atoms: C2_2  and  C3_3 
REMARK    2  A    between atoms: C3_3  and  C4_4 
REMARK    3  A    between atoms: C4_4  and  C5_5 
REMARK    4  A    between atoms: C7_7  and  C8_8 
REMARK    5  A    between atoms: C8_8  and  C9_9 
REMARK    6  A    between atoms: C9_9  and  C10_10 
REMARK    7  A    between atoms: C10_10  and  C11_11 
REMARK    8  A    between atoms: C17_19  and  O3_20 
ROOT
HETATM    1  C11 UNL     1     -11.040  -8.367   1.913  1.00  0.00     0.041 C 
HETATM    2  C12 UNL     1     -11.694  -8.473   3.307  1.00  0.00     0.175 C 
HETATM    3  O1  UNL     1     -10.638  -8.261   4.231  1.00  0.00    -0.382 OA
HETATM    4  C13 UNL     1      -9.951  -7.314   3.596  1.00  0.00     0.157 C 
HETATM    5  C14 UNL     1      -9.656  -8.055   2.277  1.00  0.00     0.157 C 
HETATM    6  O2  UNL     1      -8.913  -7.130   1.668  1.00  0.00    -0.377 OA
HETATM    7  C15 UNL     1      -7.928  -6.797   2.615  1.00  0.00     0.131 C 
HETATM    8  C16 UNL     1      -6.846  -7.797   2.757  1.00  0.00     0.064 C 
HETATM    9  C17 UNL     1      -6.439  -7.662   4.211  1.00  0.00     0.124 C 
HETATM   10  C18 UNL     1      -7.796  -7.574   4.911  1.00  0.00     0.019 C 
HETATM   11  C19 UNL     1      -8.253  -8.895   5.411  1.00  0.00     0.013 C 
HETATM   12  C20 UNL     1      -8.643  -6.850   3.977  1.00  0.00     0.052 C 
ENDROOT
BRANCH   1  13
HETATM   13  C10 UNL     1     -11.694  -7.291   1.133  1.00  0.00     0.010 C 
BRANCH  13  14
HETATM   14  C9  UNL     1     -11.961  -7.536  -0.301  1.00  0.00     0.007 C 
BRANCH  14  15
HETATM   15  C8  UNL     1     -11.045  -6.605  -1.082  1.00  0.00     0.067 C 
BRANCH  15  16
HETATM   16  C7  UNL     1     -11.762  -5.444  -1.610  1.00  0.00     0.078 A 
HETATM   17  C6  UNL     1     -11.210  -4.475  -2.460  1.00  0.00     0.066 A 
HETATM   18  C5  UNL     1     -12.165  -3.538  -2.754  1.00  0.00     0.057 A 
HETATM   19  N1  UNL     1     -13.271  -4.009  -2.045  1.00  0.00    -0.261 N 
HETATM   20  O4  UNL     1     -12.982  -5.082  -1.423  1.00  0.00    -0.242 OA
ATOM     21  H1  UNL     1     -14.185  -3.556  -2.027  1.00  0.00     0.195 HD
BRANCH  18  22
HETATM   22  C4  UNL     1     -12.192  -2.344  -3.550  1.00  0.00     0.031 C 
BRANCH  22  23
HETATM   23  C3  UNL     1     -11.688  -2.085  -4.682  1.00  0.00     0.002 C 
BRANCH  23  24
HETATM   24  C2  UNL     1     -10.323  -1.898  -5.080  1.00  0.00    -0.010 C 
HETATM   25  C1  UNL     1      -9.614  -2.986  -5.484  1.00  0.00     0.011 C 
ENDBRANCH  23  24
ENDBRANCH  22  23
ENDBRANCH  18  22
ENDBRANCH  15  16
ENDBRANCH  14  15
ENDBRANCH  13  14
ENDBRANCH   1  13
BRANCH   9  26
HETATM   26  O3  UNL     1      -5.692  -8.725   4.664  1.00  0.00    -0.395 OA
ATOM     27  H3  UNL     1      -4.814  -8.479   4.930  1.00  0.00     0.210 HD
ENDBRANCH   9  26
TORSDOF 8
ENDMDL
