MODEL 1
REMARK VINA RESULT: -7.435257421      0.000      0.000
REMARK  7 active torsions:
REMARK  status: ('A' for Active; 'I' for Inactive)
REMARK    1  A    between atoms: C4_4  and  N1_5 
REMARK    2  A    between atoms: C6_7  and  C7_8 
REMARK    3  A    between atoms: C7_8  and  O1_9 
REMARK    4  A    between atoms: C11_16  and  O2_17 
REMARK    5  A    between atoms: O2_17  and  C12_18 
REMARK    6  A    between atoms: C16_22  and  O3_23 
REMARK    7  A    between atoms: O3_23  and  C17_24 
ROOT
HETATM    1  C1  UNL     1     -11.661  -7.574   0.204  1.00  0.00     0.049 C 
HETATM    2  C2  UNL     1     -10.774  -6.769  -0.640  1.00  0.00    -0.043 A 
HETATM    3  C3  UNL     1     -11.259  -5.712  -1.426  1.00  0.00     0.056 A 
HETATM    4  C4  UNL     1     -10.455  -4.937  -2.229  1.00  0.00     0.104 A 
HETATM    5  N2  UNL     1      -9.161  -5.212  -2.252  1.00  0.00    -0.342 N 
ATOM      6  H2  UNL     1      -8.548  -4.648  -2.841  1.00  0.00     0.167 HD
HETATM    7  C9  UNL     1      -8.621  -6.217  -1.521  1.00  0.00     0.050 A 
HETATM    8  C10 UNL     1      -7.250  -6.458  -1.587  1.00  0.00     0.067 A 
HETATM    9  C11 UNL     1      -6.629  -7.456  -0.877  1.00  0.00     0.074 A 
HETATM   10  C15 UNL     1      -7.462  -8.234  -0.066  1.00  0.00     0.074 A 
HETATM   11  C16 UNL     1      -8.816  -8.006   0.008  1.00  0.00     0.085 A 
HETATM   12  C20 UNL     1      -9.421  -6.997  -0.715  1.00  0.00     0.030 A 
ENDROOT
BRANCH   4  13
HETATM   13  N1  UNL     1     -11.024  -3.870  -3.006  1.00  0.00    -0.366 N 
HETATM   14  C5  UNL     1     -10.558  -3.084  -4.131  1.00  0.00     0.132 A 
HETATM   15  C6  UNL     1     -11.848  -2.321  -4.129  1.00  0.00     0.045 A 
HETATM   16  C8  UNL     1     -12.285  -3.166  -2.967  1.00  0.00     0.132 A 
BRANCH  15  17
HETATM   17  C7  UNL     1     -12.601  -2.544  -5.418  1.00  0.00     0.172 C 
BRANCH  17  18
HETATM   18  O1  UNL     1     -13.088  -1.300  -5.872  1.00  0.00    -0.400 OA
ATOM     19  H1  UNL     1     -12.371  -0.823  -6.273  1.00  0.00     0.209 HD
ENDBRANCH  17  18
ENDBRANCH  15  17
ENDBRANCH   4  13
BRANCH  11  20
HETATM   20  O3  UNL     1      -9.593  -8.785   0.810  1.00  0.00    -0.346 OA
BRANCH  20  21
HETATM   21  C17 UNL     1      -9.223  -9.629   1.847  1.00  0.00     0.120 C 
HETATM   22  C18 UNL     1     -10.396  -9.726   2.833  1.00  0.00     0.040 C 
HETATM   23  C19 UNL     1      -8.994 -11.066   1.369  1.00  0.00     0.040 C 
ENDBRANCH  20  21
ENDBRANCH  11  20
BRANCH   9  24
HETATM   24  O2  UNL     1      -5.270  -7.716  -0.927  1.00  0.00    -0.346 OA
BRANCH  24  25
HETATM   25  C12 UNL     1      -4.396  -7.547  -1.976  1.00  0.00     0.120 C 
HETATM   26  C13 UNL     1      -3.004  -8.106  -1.683  1.00  0.00     0.040 C 
HETATM   27  C14 UNL     1      -4.916  -8.133  -3.285  1.00  0.00     0.040 C 
ENDBRANCH  24  25
ENDBRANCH   9  24
TORSDOF 7
ENDMDL
MODEL 2
REMARK VINA RESULT: -7.196489072      3.222      7.546
REMARK  7 active torsions:
REMARK  status: ('A' for Active; 'I' for Inactive)
REMARK    1  A    between atoms: C4_4  and  N1_5 
REMARK    2  A    between atoms: C6_7  and  C7_8 
REMARK    3  A    between atoms: C7_8  and  O1_9 
REMARK    4  A    between atoms: C11_16  and  O2_17 
REMARK    5  A    between atoms: O2_17  and  C12_18 
REMARK    6  A    between atoms: C16_22  and  O3_23 
REMARK    7  A    between atoms: O3_23  and  C17_24 
ROOT
HETATM    1  C1  UNL     1      -8.285  -8.948   0.586  1.00  0.00     0.049 C 
HETATM    2  C2  UNL     1      -9.671  -8.517   0.782  1.00  0.00    -0.043 A 
HETATM    3  C3  UNL     1     -10.471  -9.046   1.808  1.00  0.00     0.056 A 
HETATM    4  C4  UNL     1     -11.775  -8.664   2.021  1.00  0.00     0.104 A 
HETATM    5  N2  UNL     1     -12.289  -7.751   1.212  1.00  0.00    -0.342 N 
ATOM      6  H2  UNL     1     -13.255  -7.455   1.355  1.00  0.00     0.167 HD
HETATM    7  C9  UNL     1     -11.578  -7.197   0.201  1.00  0.00     0.050 A 
HETATM    8  C10 UNL     1     -12.174  -6.239  -0.618  1.00  0.00     0.067 A 
HETATM    9  C11 UNL     1     -11.519  -5.633  -1.661  1.00  0.00     0.074 A 
HETATM   10  C15 UNL     1     -10.194  -6.033  -1.863  1.00  0.00     0.074 A 
HETATM   11  C16 UNL     1      -9.594  -6.976  -1.062  1.00  0.00     0.085 A 
HETATM   12  C20 UNL     1     -10.271  -7.575  -0.018  1.00  0.00     0.030 A 
ENDROOT
BRANCH   4  13
HETATM   13  N1  UNL     1     -12.534  -9.250   3.092  1.00  0.00    -0.366 N 
HETATM   14  C5  UNL     1     -12.565  -9.056   4.528  1.00  0.00     0.132 A 
HETATM   15  C6  UNL     1     -13.630 -10.104   4.643  1.00  0.00     0.045 A 
HETATM   16  C8  UNL     1     -13.562 -10.264   3.152  1.00  0.00     0.132 A 
BRANCH  15  17
HETATM   17  C7  UNL     1     -14.909  -9.508   5.179  1.00  0.00     0.172 C 
BRANCH  17  18
HETATM   18  O1  UNL     1     -15.453 -10.395   6.131  1.00  0.00    -0.400 OA
ATOM     19  H1  UNL     1     -16.061  -9.913   6.680  1.00  0.00     0.209 HD
ENDBRANCH  17  18
ENDBRANCH  15  17
ENDBRANCH   4  13
BRANCH  11  20
HETATM   20  O3  UNL     1      -8.302  -7.339  -1.291  1.00  0.00    -0.346 OA
BRANCH  20  21
HETATM   21  C17 UNL     1      -7.284  -6.632  -1.913  1.00  0.00     0.120 C 
HETATM   22  C18 UNL     1      -5.946  -7.069  -1.299  1.00  0.00     0.040 C 
HETATM   23  C19 UNL     1      -7.164  -6.979  -3.400  1.00  0.00     0.040 C 
ENDBRANCH  20  21
ENDBRANCH  11  20
BRANCH   9  24
HETATM   24  O2  UNL     1     -12.090  -4.681  -2.488  1.00  0.00    -0.346 OA
BRANCH  24  25
HETATM   25  C12 UNL     1     -11.664  -3.400  -2.756  1.00  0.00     0.120 C 
HETATM   26  C13 UNL     1     -10.346  -3.364  -3.532  1.00  0.00     0.040 C 
HETATM   27  C14 UNL     1     -12.709  -2.564  -3.488  1.00  0.00     0.040 C 
ENDBRANCH  24  25
ENDBRANCH   9  24
TORSDOF 7
ENDMDL
MODEL 3
REMARK VINA RESULT: -6.899333603      1.728      4.712
REMARK  7 active torsions:
REMARK  status: ('A' for Active; 'I' for Inactive)
REMARK    1  A    between atoms: C4_4  and  N1_5 
REMARK    2  A    between atoms: C6_7  and  C7_8 
REMARK    3  A    between atoms: C7_8  and  O1_9 
REMARK    4  A    between atoms: C11_16  and  O2_17 
REMARK    5  A    between atoms: O2_17  and  C12_18 
REMARK    6  A    between atoms: C16_22  and  O3_23 
REMARK    7  A    between atoms: O3_23  and  C17_24 
ROOT
HETATM    1  C1  UNL     1      -7.279  -6.612  -1.179  1.00  0.00     0.049 C 
HETATM    2  C2  UNL     1      -8.713  -6.312  -1.209  1.00  0.00    -0.043 A 
HETATM    3  C3  UNL     1      -9.236  -5.289  -2.016  1.00  0.00     0.056 A 
HETATM    4  C4  UNL     1     -10.576  -4.980  -2.069  1.00  0.00     0.104 A 
HETATM    5  N2  UNL     1     -11.401  -5.691  -1.318  1.00  0.00    -0.342 N 
ATOM      6  H2  UNL     1     -12.398  -5.477  -1.344  1.00  0.00     0.167 HD
HETATM    7  C9  UNL     1     -10.969  -6.693  -0.515  1.00  0.00     0.050 A 
HETATM    8  C10 UNL     1     -11.887  -7.407   0.253  1.00  0.00     0.067 A 
HETATM    9  C11 UNL     1     -11.526  -8.435   1.089  1.00  0.00     0.074 A 
HETATM   10  C15 UNL     1     -10.161  -8.734   1.131  1.00  0.00     0.074 A 
HETATM   11  C16 UNL     1      -9.245  -8.038   0.378  1.00  0.00     0.085 A 
HETATM   12  C20 UNL     1      -9.628  -7.007  -0.457  1.00  0.00     0.030 A 
ENDROOT
BRANCH   4  13
HETATM   13  N1  UNL     1     -11.039  -3.918  -2.920  1.00  0.00    -0.366 N 
HETATM   14  C5  UNL     1     -10.455  -3.186  -4.026  1.00  0.00     0.132 A 
HETATM   15  C6  UNL     1     -11.710  -2.375  -4.147  1.00  0.00     0.045 A 
HETATM   16  C8  UNL     1     -12.270  -3.165  -3.001  1.00  0.00     0.132 A 
BRANCH  15  17
HETATM   17  C7  UNL     1     -12.369  -2.609  -5.485  1.00  0.00     0.172 C 
BRANCH  17  18
HETATM   18  O1  UNL     1     -13.088  -1.449  -5.839  1.00  0.00    -0.400 OA
ATOM     19  H1  UNL     1     -13.655  -1.657  -6.573  1.00  0.00     0.209 HD
ENDBRANCH  17  18
ENDBRANCH  15  17
ENDBRANCH   4  13
BRANCH  11  20
HETATM   20  O3  UNL     1      -7.924  -8.361   0.446  1.00  0.00    -0.346 OA
BRANCH  20  21
HETATM   21  C17 UNL     1      -7.132  -8.607   1.558  1.00  0.00     0.120 C 
HETATM   22  C18 UNL     1      -5.685  -8.807   1.086  1.00  0.00     0.040 C 
HETATM   23  C19 UNL     1      -7.072  -7.402   2.503  1.00  0.00     0.040 C 
ENDBRANCH  20  21
ENDBRANCH  11  20
BRANCH   9  24
HETATM   24  O2  UNL     1     -12.419  -9.157   1.862  1.00  0.00    -0.346 OA
BRANCH  24  25
HETATM   25  C12 UNL     1     -12.228  -9.726   3.100  1.00  0.00     0.120 C 
HETATM   26  C13 UNL     1     -12.093  -8.689   4.215  1.00  0.00     0.040 C 
HETATM   27  C14 UNL     1     -13.315 -10.732   3.468  1.00  0.00     0.040 C 
ENDBRANCH  24  25
ENDBRANCH   9  24
TORSDOF 7
ENDMDL
MODEL 4
REMARK VINA RESULT: -6.755412284      3.366      7.682
REMARK  7 active torsions:
REMARK  status: ('A' for Active; 'I' for Inactive)
REMARK    1  A    between atoms: C4_4  and  N1_5 
REMARK    2  A    between atoms: C6_7  and  C7_8 
REMARK    3  A    between atoms: C7_8  and  O1_9 
REMARK    4  A    between atoms: C11_16  and  O2_17 
REMARK    5  A    between atoms: O2_17  and  C12_18 
REMARK    6  A    between atoms: C16_22  and  O3_23 
REMARK    7  A    between atoms: O3_23  and  C17_24 
ROOT
HETATM    1  C1  UNL     1      -8.396  -9.316   1.239  1.00  0.00     0.049 C 
HETATM    2  C2  UNL     1      -9.798  -8.890   1.277  1.00  0.00    -0.043 A 
HETATM    3  C3  UNL     1     -10.707  -9.422   2.205  1.00  0.00     0.056 A 
HETATM    4  C4  UNL     1     -12.028  -9.046   2.269  1.00  0.00     0.104 A 
HETATM    5  N2  UNL     1     -12.451  -8.136   1.407  1.00  0.00    -0.342 N 
ATOM      6  H2  UNL     1     -13.427  -7.844   1.439  1.00  0.00     0.167 HD
HETATM    7  C9  UNL     1     -11.632  -7.579   0.483  1.00  0.00     0.050 A 
HETATM    8  C10 UNL     1     -12.135  -6.624  -0.399  1.00  0.00     0.067 A 
HETATM    9  C11 UNL     1     -11.369  -6.015  -1.362  1.00  0.00     0.074 A 
HETATM   10  C15 UNL     1     -10.028  -6.410  -1.413  1.00  0.00     0.074 A 
HETATM   11  C16 UNL     1      -9.519  -7.350  -0.548  1.00  0.00     0.085 A 
HETATM   12  C20 UNL     1     -10.307  -7.952   0.413  1.00  0.00     0.030 A 
ENDROOT
BRANCH   4  13
HETATM   13  N1  UNL     1     -12.900  -9.635   3.248  1.00  0.00    -0.366 N 
HETATM   14  C5  UNL     1     -13.850 -10.730   3.223  1.00  0.00     0.132 A 
HETATM   15  C6  UNL     1     -14.167 -10.483   4.667  1.00  0.00     0.045 A 
HETATM   16  C8  UNL     1     -13.170  -9.362   4.642  1.00  0.00     0.132 A 
BRANCH  15  17
HETATM   17  C7  UNL     1     -13.786 -11.678   5.508  1.00  0.00     0.172 C 
BRANCH  17  18
HETATM   18  O1  UNL     1     -14.829 -11.933   6.422  1.00  0.00    -0.400 OA
ATOM     19  H1  UNL     1     -15.656 -11.891   5.955  1.00  0.00     0.209 HD
ENDBRANCH  17  18
ENDBRANCH  15  17
ENDBRANCH   4  13
BRANCH  11  20
HETATM   20  O3  UNL     1      -8.208  -7.707  -0.629  1.00  0.00    -0.346 OA
BRANCH  20  21
HETATM   21  C17 UNL     1      -7.075  -6.908  -0.656  1.00  0.00     0.120 C 
HETATM   22  C18 UNL     1      -6.842  -6.352   0.757  1.00  0.00     0.040 C 
HETATM   23  C19 UNL     1      -5.809  -7.708  -0.975  1.00  0.00     0.040 C 
ENDBRANCH  20  21
ENDBRANCH  11  20
BRANCH   9  24
HETATM   24  O2  UNL     1     -11.847  -5.065  -2.249  1.00  0.00    -0.346 OA
BRANCH  24  25
HETATM   25  C12 UNL     1     -11.471  -3.750  -2.393  1.00  0.00     0.120 C 
HETATM   26  C13 UNL     1     -10.123  -3.591  -3.097  1.00  0.00     0.040 C 
HETATM   27  C14 UNL     1     -12.522  -2.904  -3.106  1.00  0.00     0.040 C 
ENDBRANCH  24  25
ENDBRANCH   9  24
TORSDOF 7
ENDMDL
MODEL 5
REMARK VINA RESULT: -6.731199615      2.286      6.752
REMARK  7 active torsions:
REMARK  status: ('A' for Active; 'I' for Inactive)
REMARK    1  A    between atoms: C4_4  and  N1_5 
REMARK    2  A    between atoms: C6_7  and  C7_8 
REMARK    3  A    between atoms: C7_8  and  O1_9 
REMARK    4  A    between atoms: C11_16  and  O2_17 
REMARK    5  A    between atoms: O2_17  and  C12_18 
REMARK    6  A    between atoms: C16_22  and  O3_23 
REMARK    7  A    between atoms: O3_23  and  C17_24 
ROOT
HETATM    1  C1  UNL     1      -7.968  -8.892   1.687  1.00  0.00     0.049 C 
HETATM    2  C2  UNL     1      -7.667  -8.145   0.463  1.00  0.00    -0.043 A 
HETATM    3  C3  UNL     1      -6.372  -8.104  -0.078  1.00  0.00     0.056 A 
HETATM    4  C4  UNL     1      -6.054  -7.414  -1.224  1.00  0.00     0.104 A 
HETATM    5  N2  UNL     1      -7.028  -6.761  -1.839  1.00  0.00    -0.342 N 
ATOM      6  H2  UNL     1      -6.811  -6.243  -2.691  1.00  0.00     0.167 HD
HETATM    7  C9  UNL     1      -8.301  -6.755  -1.376  1.00  0.00     0.050 A 
HETATM    8  C10 UNL     1      -9.283  -6.049  -2.068  1.00  0.00     0.067 A 
HETATM    9  C11 UNL     1     -10.594  -5.996  -1.662  1.00  0.00     0.074 A 
HETATM   10  C15 UNL     1     -10.899  -6.703  -0.495  1.00  0.00     0.074 A 
HETATM   11  C16 UNL     1      -9.939  -7.405   0.197  1.00  0.00     0.085 A 
HETATM   12  C20 UNL     1      -8.625  -7.445  -0.228  1.00  0.00     0.030 A 
ENDROOT
BRANCH   4  13
HETATM   13  N1  UNL     1      -4.705  -7.417  -1.719  1.00  0.00    -0.366 N 
HETATM   14  C5  UNL     1      -3.609  -8.362  -1.650  1.00  0.00     0.132 A 
HETATM   15  C6  UNL     1      -2.748  -7.417  -2.432  1.00  0.00     0.045 A 
HETATM   16  C8  UNL     1      -3.915  -6.474  -2.478  1.00  0.00     0.132 A 
BRANCH  15  17
HETATM   17  C7  UNL     1      -2.349  -8.027  -3.753  1.00  0.00     0.172 C 
BRANCH  17  18
HETATM   18  O1  UNL     1      -1.328  -7.237  -4.322  1.00  0.00    -0.400 OA
ATOM     19  H1  UNL     1      -0.893  -7.745  -4.997  1.00  0.00     0.209 HD
ENDBRANCH  17  18
ENDBRANCH  15  17
ENDBRANCH   4  13
BRANCH  11  20
HETATM   20  O3  UNL     1     -10.276  -8.080   1.329  1.00  0.00    -0.346 OA
BRANCH  20  21
HETATM   21  C17 UNL     1     -11.381  -7.926   2.153  1.00  0.00     0.120 C 
HETATM   22  C18 UNL     1     -12.088  -9.284   2.273  1.00  0.00     0.040 C 
HETATM   23  C19 UNL     1     -10.986  -7.563   3.588  1.00  0.00     0.040 C 
ENDBRANCH  20  21
ENDBRANCH  11  20
BRANCH   9  24
HETATM   24  O2  UNL     1     -11.587  -5.301  -2.332  1.00  0.00    -0.346 OA
BRANCH  24  25
HETATM   25  C12 UNL     1     -12.297  -4.197  -1.920  1.00  0.00     0.120 C 
HETATM   26  C13 UNL     1     -12.192  -3.026  -2.898  1.00  0.00     0.040 C 
HETATM   27  C14 UNL     1     -13.767  -4.502  -1.646  1.00  0.00     0.040 C 
ENDBRANCH  24  25
ENDBRANCH   9  24
TORSDOF 7
ENDMDL
