MODEL 1
REMARK VINA RESULT: -6.525734598      0.000      0.000
REMARK  7 active torsions:
REMARK  status: ('A' for Active; 'I' for Inactive)
REMARK    1  A    between atoms: C2_2  and  C4_4 
REMARK    2  A    between atoms: C4_4  and  C6_6 
REMARK    3  A    between atoms: C7_7  and  C8_8 
REMARK    4  A    between atoms: N1_9  and  N2_11 
REMARK    5  A    between atoms: N3_14  and  C11_15 
REMARK    6  A    between atoms: C17_21  and  O1_22 
REMARK    7  A    between atoms: C18_24  and  O2_25 
ROOT
HETATM    1  C6  UNL     1      -9.293  -7.866   0.005  1.00  0.00    -0.003 A 
HETATM    2  C7  UNL     1      -8.876  -7.269  -1.205  1.00  0.00    -0.009 A 
HETATM    3  C15 UNL     1      -9.819  -6.442  -1.827  1.00  0.00     0.016 A 
HETATM    4  C16 UNL     1     -11.068  -6.194  -1.342  1.00  0.00     0.040 A 
HETATM    5  C17 UNL     1     -11.422  -6.793  -0.171  1.00  0.00     0.099 A 
HETATM    6  C18 UNL     1     -10.531  -7.638   0.518  1.00  0.00     0.109 A 
ENDROOT
BRANCH   2   7
HETATM    7  C8  UNL     1      -7.609  -7.456  -1.845  1.00  0.00     0.119 C 
HETATM    8  N1  UNL     1      -6.796  -6.685  -2.426  1.00  0.00    -0.313 N 
ATOM      9  H1  UNL     1      -7.012  -5.691  -2.506  1.00  0.00     0.185 HD
BRANCH   8  10
HETATM   10  N2  UNL     1      -5.585  -7.186  -2.968  1.00  0.00    -0.322 N 
HETATM   11  C9  UNL     1      -5.605  -7.802  -4.247  1.00  0.00     0.187 C 
HETATM   12  C10 UNL     1      -4.382  -8.571  -4.633  1.00  0.00     0.084 C 
HETATM   13  N3  UNL     1      -3.185  -8.162  -4.030  1.00  0.00    -0.371 N 
HETATM   14  C13 UNL     1      -3.215  -7.818  -2.661  1.00  0.00     0.148 C 
HETATM   15  C14 UNL     1      -4.391  -7.046  -2.206  1.00  0.00     0.163 C 
BRANCH  13  16
HETATM   16  C11 UNL     1      -1.953  -8.425  -4.646  1.00  0.00     0.059 C 
HETATM   17  C12 UNL     1      -2.172  -9.323  -5.856  1.00  0.00     0.055 C 
ENDBRANCH  13  16
ENDBRANCH   8  10
ENDBRANCH   2   7
BRANCH   1  18
HETATM   18  C4  UNL     1      -8.320  -8.715   0.694  1.00  0.00     0.046 C 
HETATM   19  C5  UNL     1      -8.890 -10.035   1.235  1.00  0.00     0.020 C 
BRANCH  18  20
HETATM   20  C2  UNL     1      -7.737  -7.967   1.873  1.00  0.00    -0.085 C 
HETATM   21  C1  UNL     1      -7.346  -6.720   1.835  1.00  0.00     0.014 C 
HETATM   22  C3  UNL     1      -7.647  -8.724   3.157  1.00  0.00     0.043 C 
ENDBRANCH  18  20
ENDBRANCH   1  18
BRANCH   6  23
HETATM   23  O2  UNL     1     -11.048  -8.138   1.679  1.00  0.00    -0.353 OA
HETATM   24  C19 UNL     1     -11.092  -7.468   2.928  1.00  0.00     0.210 C 
ENDBRANCH   6  23
BRANCH   5  25
HETATM   25  O1  UNL     1     -12.694  -6.545   0.326  1.00  0.00    -0.358 OA
ATOM     26  H1  UNL     1     -12.776  -5.941   1.055  1.00  0.00     0.217 HD
ENDBRANCH   5  25
TORSDOF 7
ENDMDL
MODEL 2
REMARK VINA RESULT: -6.300860235      2.066      3.645
REMARK  7 active torsions:
REMARK  status: ('A' for Active; 'I' for Inactive)
REMARK    1  A    between atoms: C2_2  and  C4_4 
REMARK    2  A    between atoms: C4_4  and  C6_6 
REMARK    3  A    between atoms: C7_7  and  C8_8 
REMARK    4  A    between atoms: N1_9  and  N2_11 
REMARK    5  A    between atoms: N3_14  and  C11_15 
REMARK    6  A    between atoms: C17_21  and  O1_22 
REMARK    7  A    between atoms: C18_24  and  O2_25 
ROOT
HETATM    1  C6  UNL     1      -9.057  -7.178   2.465  1.00  0.00    -0.003 A 
HETATM    2  C7  UNL     1      -7.834  -6.719   1.928  1.00  0.00    -0.009 A 
HETATM    3  C15 UNL     1      -7.045  -5.953   2.793  1.00  0.00     0.016 A 
HETATM    4  C16 UNL     1      -7.384  -5.640   4.076  1.00  0.00     0.040 A 
HETATM    5  C17 UNL     1      -8.574  -6.107   4.546  1.00  0.00     0.099 A 
HETATM    6  C18 UNL     1      -9.426  -6.886   3.741  1.00  0.00     0.109 A 
ENDROOT
BRANCH   2   7
HETATM    7  C8  UNL     1      -7.359  -6.947   0.597  1.00  0.00     0.119 C 
HETATM    8  N1  UNL     1      -7.511  -6.350  -0.505  1.00  0.00    -0.313 N 
ATOM      9  H1  UNL     1      -8.089  -5.511  -0.548  1.00  0.00     0.185 HD
BRANCH   8  10
HETATM   10  N2  UNL     1      -6.887  -6.835  -1.682  1.00  0.00    -0.322 N 
HETATM   11  C9  UNL     1      -5.602  -7.429  -1.587  1.00  0.00     0.187 C 
HETATM   12  C10 UNL     1      -4.871  -7.643  -2.874  1.00  0.00     0.084 C 
HETATM   13  N3  UNL     1      -5.671  -7.795  -4.014  1.00  0.00    -0.371 N 
HETATM   14  C13 UNL     1      -6.800  -6.959  -4.150  1.00  0.00     0.148 C 
HETATM   15  C14 UNL     1      -7.581  -6.708  -2.919  1.00  0.00     0.163 C 
BRANCH  13  16
HETATM   16  C11 UNL     1      -5.185  -8.480  -5.137  1.00  0.00     0.059 C 
HETATM   17  C12 UNL     1      -4.338  -9.662  -4.683  1.00  0.00     0.055 C 
ENDBRANCH  13  16
ENDBRANCH   8  10
ENDBRANCH   2   7
BRANCH   1  18
HETATM   18  C4  UNL     1      -9.894  -8.006   1.594  1.00  0.00     0.046 C 
HETATM   19  C5  UNL     1     -11.385  -7.639   1.601  1.00  0.00     0.020 C 
BRANCH  18  20
HETATM   20  C2  UNL     1      -9.791  -9.455   2.018  1.00  0.00    -0.085 C 
HETATM   21  C1  UNL     1      -8.681 -10.146   2.020  1.00  0.00     0.014 C 
HETATM   22  C3  UNL     1     -11.055 -10.096   2.490  1.00  0.00     0.043 C 
ENDBRANCH  18  20
ENDBRANCH   1  18
BRANCH   6  23
HETATM   23  O2  UNL     1     -10.566  -7.279   4.380  1.00  0.00    -0.353 OA
HETATM   24  C19 UNL     1     -10.654  -8.258   5.402  1.00  0.00     0.210 C 
ENDBRANCH   6  23
BRANCH   5  25
HETATM   25  O1  UNL     1      -8.925  -5.789   5.851  1.00  0.00    -0.358 OA
ATOM     26  H1  UNL     1      -9.187  -6.499   6.426  1.00  0.00     0.217 HD
ENDBRANCH   5  25
TORSDOF 7
ENDMDL
MODEL 3
REMARK VINA RESULT: -6.234711583      4.566      6.213
REMARK  7 active torsions:
REMARK  status: ('A' for Active; 'I' for Inactive)
REMARK    1  A    between atoms: C2_2  and  C4_4 
REMARK    2  A    between atoms: C4_4  and  C6_6 
REMARK    3  A    between atoms: C7_7  and  C8_8 
REMARK    4  A    between atoms: N1_9  and  N2_11 
REMARK    5  A    between atoms: N3_14  and  C11_15 
REMARK    6  A    between atoms: C17_21  and  O1_22 
REMARK    7  A    between atoms: C18_24  and  O2_25 
ROOT
HETATM    1  C6  UNL     1      -8.568  -8.194   2.433  1.00  0.00    -0.003 A 
HETATM    2  C7  UNL     1      -9.074  -8.386   1.128  1.00  0.00    -0.009 A 
HETATM    3  C15 UNL     1      -9.039  -9.702   0.654  1.00  0.00     0.016 A 
HETATM    4  C16 UNL     1      -8.559 -10.765   1.359  1.00  0.00     0.040 A 
HETATM    5  C17 UNL     1      -8.083 -10.528   2.613  1.00  0.00     0.099 A 
HETATM    6  C18 UNL     1      -8.084  -9.233   3.165  1.00  0.00     0.109 A 
ENDROOT
BRANCH   2   7
HETATM    7  C8  UNL     1      -9.585  -7.365   0.263  1.00  0.00     0.119 C 
HETATM    8  N1  UNL     1     -10.145  -7.371  -0.868  1.00  0.00    -0.313 N 
ATOM      9  H1  UNL     1     -10.305  -8.257  -1.347  1.00  0.00     0.185 HD
BRANCH   8  10
HETATM   10  N2  UNL     1     -10.553  -6.158  -1.479  1.00  0.00    -0.322 N 
HETATM   11  C9  UNL     1      -9.577  -5.337  -2.101  1.00  0.00     0.187 C 
HETATM   12  C10 UNL     1     -10.005  -3.949  -2.456  1.00  0.00     0.084 C 
HETATM   13  N3  UNL     1     -11.375  -3.771  -2.690  1.00  0.00    -0.371 N 
HETATM   14  C13 UNL     1     -12.285  -4.431  -1.836  1.00  0.00     0.148 C 
HETATM   15  C14 UNL     1     -11.934  -5.815  -1.448  1.00  0.00     0.163 C 
BRANCH  13  16
HETATM   16  C11 UNL     1     -11.828  -2.714  -3.492  1.00  0.00     0.059 C 
HETATM   17  C12 UNL     1     -10.962  -2.617  -4.740  1.00  0.00     0.055 C 
ENDBRANCH  13  16
ENDBRANCH   8  10
ENDBRANCH   2   7
BRANCH   1  18
HETATM   18  C4  UNL     1      -8.615  -6.833   2.969  1.00  0.00     0.046 C 
HETATM   19  C5  UNL     1      -7.244  -6.222   3.291  1.00  0.00     0.020 C 
BRANCH  18  20
HETATM   20  C2  UNL     1      -9.419  -6.820   4.251  1.00  0.00    -0.085 C 
HETATM   21  C1  UNL     1     -10.616  -7.330   4.376  1.00  0.00     0.014 C 
HETATM   22  C3  UNL     1      -8.757  -6.204   5.439  1.00  0.00     0.043 C 
ENDBRANCH  18  20
ENDBRANCH   1  18
BRANCH   6  23
HETATM   23  O2  UNL     1      -7.584  -9.185   4.434  1.00  0.00    -0.353 OA
HETATM   24  C19 UNL     1      -6.212  -9.120   4.788  1.00  0.00     0.210 C 
ENDBRANCH   6  23
BRANCH   5  25
HETATM   25  O1  UNL     1      -7.591 -11.608   3.334  1.00  0.00    -0.358 OA
ATOM     26  H1  UNL     1      -8.149 -11.982   4.007  1.00  0.00     0.217 HD
ENDBRANCH   5  25
TORSDOF 7
ENDMDL
MODEL 4
REMARK VINA RESULT: -6.187261563      1.891      3.612
REMARK  7 active torsions:
REMARK  status: ('A' for Active; 'I' for Inactive)
REMARK    1  A    between atoms: C2_2  and  C4_4 
REMARK    2  A    between atoms: C4_4  and  C6_6 
REMARK    3  A    between atoms: C7_7  and  C8_8 
REMARK    4  A    between atoms: N1_9  and  N2_11 
REMARK    5  A    between atoms: N3_14  and  C11_15 
REMARK    6  A    between atoms: C17_21  and  O1_22 
REMARK    7  A    between atoms: C18_24  and  O2_25 
ROOT
HETATM    1  C6  UNL     1      -8.978  -7.421   2.429  1.00  0.00    -0.003 A 
HETATM    2  C7  UNL     1      -7.834  -6.820   1.860  1.00  0.00    -0.009 A 
HETATM    3  C15 UNL     1      -7.156  -5.914   2.683  1.00  0.00     0.016 A 
HETATM    4  C16 UNL     1      -7.529  -5.595   3.955  1.00  0.00     0.040 A 
HETATM    5  C17 UNL     1      -8.640  -6.203   4.457  1.00  0.00     0.099 A 
HETATM    6  C18 UNL     1      -9.378  -7.128   3.695  1.00  0.00     0.109 A 
ENDROOT
BRANCH   2   7
HETATM    7  C8  UNL     1      -7.337  -7.037   0.535  1.00  0.00     0.119 C 
HETATM    8  N1  UNL     1      -7.302  -6.339  -0.516  1.00  0.00    -0.313 N 
ATOM      9  H1  UNL     1      -7.697  -5.398  -0.510  1.00  0.00     0.185 HD
BRANCH   8  10
HETATM   10  N2  UNL     1      -6.720  -6.849  -1.704  1.00  0.00    -0.322 N 
HETATM   11  C9  UNL     1      -5.456  -7.490  -1.634  1.00  0.00     0.187 C 
HETATM   12  C10 UNL     1      -4.760  -7.733  -2.934  1.00  0.00     0.084 C 
HETATM   13  N3  UNL     1      -5.588  -7.859  -4.058  1.00  0.00    -0.371 N 
HETATM   14  C13 UNL     1      -6.688  -6.981  -4.173  1.00  0.00     0.148 C 
HETATM   15  C14 UNL     1      -7.434  -6.700  -2.927  1.00  0.00     0.163 C 
BRANCH  13  16
HETATM   16  C11 UNL     1      -5.151  -8.564  -5.188  1.00  0.00     0.059 C 
HETATM   17  C12 UNL     1      -4.355  -9.785  -4.747  1.00  0.00     0.055 C 
ENDBRANCH  13  16
ENDBRANCH   8  10
ENDBRANCH   2   7
BRANCH   1  18
HETATM   18  C4  UNL     1      -9.695  -8.394   1.603  1.00  0.00     0.046 C 
HETATM   19  C5  UNL     1      -8.798  -9.253   0.698  1.00  0.00     0.020 C 
BRANCH  18  20
HETATM   20  C2  UNL     1     -10.673  -7.672   0.702  1.00  0.00    -0.085 C 
HETATM   21  C1  UNL     1     -11.701  -6.986   1.128  1.00  0.00     0.014 C 
HETATM   22  C3  UNL     1     -10.397  -7.744  -0.764  1.00  0.00     0.043 C 
ENDBRANCH  18  20
ENDBRANCH   1  18
BRANCH   6  23
HETATM   23  O2  UNL     1     -10.449  -7.648   4.363  1.00  0.00    -0.353 OA
HETATM   24  C19 UNL     1     -10.483  -8.891   5.045  1.00  0.00     0.210 C 
ENDBRANCH   6  23
BRANCH   5  25
HETATM   25  O1  UNL     1      -9.026  -5.880   5.751  1.00  0.00    -0.358 OA
ATOM     26  H1  UNL     1      -9.512  -5.074   5.881  1.00  0.00     0.217 HD
ENDBRANCH   5  25
TORSDOF 7
ENDMDL
MODEL 5
REMARK VINA RESULT: -6.027959693      4.705      8.990
REMARK  7 active torsions:
REMARK  status: ('A' for Active; 'I' for Inactive)
REMARK    1  A    between atoms: C2_2  and  C4_4 
REMARK    2  A    between atoms: C4_4  and  C6_6 
REMARK    3  A    between atoms: C7_7  and  C8_8 
REMARK    4  A    between atoms: N1_9  and  N2_11 
REMARK    5  A    between atoms: N3_14  and  C11_15 
REMARK    6  A    between atoms: C17_21  and  O1_22 
REMARK    7  A    between atoms: C18_24  and  O2_25 
ROOT
HETATM    1  C6  UNL     1      -9.402  -7.566   1.534  1.00  0.00    -0.003 A 
HETATM    2  C7  UNL     1     -10.698  -7.468   2.088  1.00  0.00    -0.009 A 
HETATM    3  C15 UNL     1     -11.746  -7.398   1.164  1.00  0.00     0.016 A 
HETATM    4  C16 UNL     1     -11.586  -7.419  -0.190  1.00  0.00     0.040 A 
HETATM    5  C17 UNL     1     -10.316  -7.514  -0.674  1.00  0.00     0.099 A 
HETATM    6  C18 UNL     1      -9.206  -7.591   0.189  1.00  0.00     0.109 A 
ENDROOT
BRANCH   2   7
HETATM    7  C8  UNL     1     -11.017  -7.412   3.483  1.00  0.00     0.119 C 
HETATM    8  N1  UNL     1     -12.091  -7.480   4.142  1.00  0.00    -0.313 N 
ATOM      9  H1  UNL     1     -12.978  -7.597   3.651  1.00  0.00     0.185 HD
BRANCH   8  10
HETATM   10  N2  UNL     1     -12.078  -7.394   5.557  1.00  0.00    -0.322 N 
HETATM   11  C9  UNL     1     -11.061  -6.635   6.193  1.00  0.00     0.187 C 
HETATM   12  C10 UNL     1     -10.915  -6.824   7.669  1.00  0.00     0.084 C 
HETATM   13  N3  UNL     1     -12.070  -7.226   8.352  1.00  0.00    -0.371 N 
HETATM   14  C13 UNL     1     -12.894  -8.201   7.747  1.00  0.00     0.148 C 
HETATM   15  C14 UNL     1     -13.094  -8.073   6.287  1.00  0.00     0.163 C 
BRANCH  13  16
HETATM   16  C11 UNL     1     -12.218  -6.956   9.720  1.00  0.00     0.059 C 
HETATM   17  C12 UNL     1     -10.853  -6.663  10.330  1.00  0.00     0.055 C 
ENDBRANCH  13  16
ENDBRANCH   8  10
ENDBRANCH   2   7
BRANCH   1  18
HETATM   18  C4  UNL     1      -8.285  -7.668   2.475  1.00  0.00     0.046 C 
HETATM   19  C5  UNL     1      -7.273  -6.516   2.397  1.00  0.00     0.020 C 
BRANCH  18  20
HETATM   20  C2  UNL     1      -7.521  -8.949   2.219  1.00  0.00    -0.085 C 
HETATM   21  C1  UNL     1      -8.072 -10.130   2.124  1.00  0.00     0.014 C 
HETATM   22  C3  UNL     1      -6.045  -8.811   2.035  1.00  0.00     0.043 C 
ENDBRANCH  18  20
ENDBRANCH   1  18
BRANCH   6  23
HETATM   23  O2  UNL     1      -8.015  -7.697  -0.470  1.00  0.00    -0.353 OA
HETATM   24  C19 UNL     1      -7.317  -6.639  -1.106  1.00  0.00     0.210 C 
ENDBRANCH   6  23
BRANCH   5  25
HETATM   25  O1  UNL     1     -10.147  -7.533  -2.052  1.00  0.00    -0.358 OA
ATOM     26  H1  UNL     1      -9.269  -7.663  -2.389  1.00  0.00     0.217 HD
ENDBRANCH   5  25
TORSDOF 7
ENDMDL
