MODEL 1
REMARK VINA RESULT: -6.759567049      0.000      0.000
REMARK  4 active torsions:
REMARK  status: ('A' for Active; 'I' for Inactive)
REMARK    1  A    between atoms: C2_2  and  O1_3 
REMARK    2  A    between atoms: O1_3  and  C3_4 
REMARK    3  A    between atoms: C3_4  and  C4_5 
REMARK    4  A    between atoms: C12_14  and  O2_15 
ROOT
HETATM    1  C4  UNL     1      60.014 -29.272  34.586  1.00  0.00     0.038 C 
HETATM    2  C5  UNL     1      59.550 -27.957  35.075  1.00  0.00     0.038 C 
HETATM    3  C6  UNL     1      58.435 -27.421  34.252  1.00  0.00     0.103 C 
HETATM    4  N1  UNL     1      58.821 -27.292  32.912  1.00  0.00    -0.267 NA
HETATM    5  C7  UNL     1      57.888 -27.230  31.885  1.00  0.00     0.102 C 
HETATM    6  C8  UNL     1      57.914 -28.368  30.891  1.00  0.00     0.017 C 
HETATM    7  C9  UNL     1      59.329 -28.680  30.418  1.00  0.00     0.017 C 
HETATM    8  C10 UNL     1      59.959 -29.663  31.419  1.00  0.00     0.055 C 
HETATM    9  C11 UNL     1      61.374 -29.278  31.714  1.00  0.00     0.047 C 
HETATM   10  C12 UNL     1      61.811 -30.001  32.990  1.00  0.00     0.120 C 
HETATM   11  C13 UNL     1      61.454 -29.126  34.142  1.00  0.00     0.055 C 
HETATM   12  S1  UNL     1      58.845 -29.643  32.979  1.00  0.00    -0.133 SA
ENDROOT
BRANCH   1  13
HETATM   13  C3  UNL     1      59.855 -30.403  35.555  1.00  0.00     0.188 C 
BRANCH  13  14
HETATM   14  O1  UNL     1      59.535 -29.924  36.805  1.00  0.00    -0.390 OA
BRANCH  14  15
HETATM   15  C2  UNL     1      60.118 -30.705  37.799  1.00  0.00     0.163 C 
HETATM   16  C1  UNL     1      61.372 -31.389  37.340  1.00  0.00     0.033 C 
ENDBRANCH  14  15
ENDBRANCH  13  14
ENDBRANCH   1  13
BRANCH  10  17
HETATM   17  O2  UNL     1      63.202 -30.098  32.936  1.00  0.00    -0.395 OA
ATOM     18  H2  UNL     1      63.518 -29.970  33.823  1.00  0.00     0.210 HD
ENDBRANCH  10  17
TORSDOF 4
ENDMDL
MODEL 2
REMARK VINA RESULT: -6.614722586      2.195      5.408
REMARK  4 active torsions:
REMARK  status: ('A' for Active; 'I' for Inactive)
REMARK    1  A    between atoms: C2_2  and  O1_3 
REMARK    2  A    between atoms: O1_3  and  C3_4 
REMARK    3  A    between atoms: C3_4  and  C4_5 
REMARK    4  A    between atoms: C12_14  and  O2_15 
ROOT
HETATM    1  C4  UNL     1      60.816 -29.339  32.923  1.00  0.00     0.038 C 
HETATM    2  C5  UNL     1      62.282 -29.516  32.984  1.00  0.00     0.038 C 
HETATM    3  C6  UNL     1      62.677 -30.509  34.017  1.00  0.00     0.103 C 
HETATM    4  N1  UNL     1      62.217 -30.123  35.282  1.00  0.00    -0.267 NA
HETATM    5  C7  UNL     1      62.071 -31.038  36.318  1.00  0.00     0.102 C 
HETATM    6  C8  UNL     1      60.662 -31.259  36.817  1.00  0.00     0.017 C 
HETATM    7  C9  UNL     1      59.926 -29.945  37.050  1.00  0.00     0.017 C 
HETATM    8  C10 UNL     1      59.287 -29.516  35.718  1.00  0.00     0.055 C 
HETATM    9  C11 UNL     1      59.470 -28.048  35.497  1.00  0.00     0.047 C 
HETATM   10  C12 UNL     1      59.206 -27.751  34.018  1.00  0.00     0.120 C 
HETATM   11  C13 UNL     1      60.500 -27.905  33.296  1.00  0.00     0.055 C 
HETATM   12  S1  UNL     1      60.106 -30.580  34.351  1.00  0.00    -0.133 SA
ENDROOT
BRANCH   1  13
HETATM   13  C3  UNL     1      60.183 -29.713  31.617  1.00  0.00     0.188 C 
BRANCH  13  14
HETATM   14  O1  UNL     1      59.839 -28.585  30.909  1.00  0.00    -0.390 OA
BRANCH  14  15
HETATM   15  C2  UNL     1      58.676 -28.797  30.174  1.00  0.00     0.163 C 
HETATM   16  C1  UNL     1      57.480 -28.115  30.767  1.00  0.00     0.033 C 
ENDBRANCH  14  15
ENDBRANCH  13  14
ENDBRANCH   1  13
BRANCH  10  17
HETATM   17  O2  UNL     1      58.827 -26.410  33.942  1.00  0.00    -0.395 OA
ATOM     18  H2  UNL     1      57.982 -26.343  34.371  1.00  0.00     0.210 HD
ENDBRANCH  10  17
TORSDOF 4
ENDMDL
MODEL 3
REMARK VINA RESULT: -6.276325173      2.835      5.175
REMARK  4 active torsions:
REMARK  status: ('A' for Active; 'I' for Inactive)
REMARK    1  A    between atoms: C2_2  and  O1_3 
REMARK    2  A    between atoms: O1_3  and  C3_4 
REMARK    3  A    between atoms: C3_4  and  C4_5 
REMARK    4  A    between atoms: C12_14  and  O2_15 
ROOT
HETATM    1  C4  UNL     1      57.831 -28.456  31.908  1.00  0.00     0.038 C 
HETATM    2  C5  UNL     1      58.456 -28.690  30.589  1.00  0.00     0.038 C 
HETATM    3  C6  UNL     1      59.618 -29.611  30.681  1.00  0.00     0.103 C 
HETATM    4  N1  UNL     1      60.588 -29.106  31.554  1.00  0.00    -0.267 NA
HETATM    5  C7  UNL     1      61.542 -29.927  32.142  1.00  0.00     0.102 C 
HETATM    6  C8  UNL     1      61.481 -30.047  33.647  1.00  0.00     0.017 C 
HETATM    7  C9  UNL     1      61.339 -28.689  34.324  1.00  0.00     0.017 C 
HETATM    8  C10 UNL     1      59.842 -28.342  34.384  1.00  0.00     0.055 C 
HETATM    9  C11 UNL     1      59.620 -26.907  34.029  1.00  0.00     0.047 C 
HETATM   10  C12 UNL     1      58.138 -26.719  33.696  1.00  0.00     0.120 C 
HETATM   11  C13 UNL     1      57.972 -26.985  32.239  1.00  0.00     0.055 C 
HETATM   12  S1  UNL     1      58.954 -29.547  33.187  1.00  0.00    -0.133 SA
ENDROOT
BRANCH   1  13
HETATM   13  C3  UNL     1      56.408 -28.908  32.027  1.00  0.00     0.188 C 
BRANCH  13  14
HETATM   14  O1  UNL     1      56.109 -29.819  31.039  1.00  0.00    -0.390 OA
BRANCH  14  15
HETATM   15  C2  UNL     1      55.660 -31.016  31.589  1.00  0.00     0.163 C 
HETATM   16  C1  UNL     1      55.658 -32.145  30.602  1.00  0.00     0.033 C 
ENDBRANCH  14  15
ENDBRANCH  13  14
ENDBRANCH   1  13
BRANCH  10  17
HETATM   17  O2  UNL     1      57.845 -25.374  33.925  1.00  0.00    -0.395 OA
ATOM     18  H2  UNL     1      58.643 -24.889  33.752  1.00  0.00     0.210 HD
ENDBRANCH  10  17
TORSDOF 4
ENDMDL
MODEL 4
REMARK VINA RESULT: -5.940354209      2.289      4.692
REMARK  4 active torsions:
REMARK  status: ('A' for Active; 'I' for Inactive)
REMARK    1  A    between atoms: C2_2  and  O1_3 
REMARK    2  A    between atoms: O1_3  and  C3_4 
REMARK    3  A    between atoms: C3_4  and  C4_5 
REMARK    4  A    between atoms: C12_14  and  O2_15 
ROOT
HETATM    1  C4  UNL     1      60.076 -29.192  33.368  1.00  0.00     0.038 C 
HETATM    2  C5  UNL     1      58.811 -29.925  33.154  1.00  0.00     0.038 C 
HETATM    3  C6  UNL     1      58.143 -30.266  34.437  1.00  0.00     0.103 C 
HETATM    4  N1  UNL     1      58.982 -31.043  35.244  1.00  0.00    -0.267 NA
HETATM    5  C7  UNL     1      58.794 -31.137  36.618  1.00  0.00     0.102 C 
HETATM    6  C8  UNL     1      59.901 -30.581  37.482  1.00  0.00     0.017 C 
HETATM    7  C9  UNL     1      61.276 -31.046  37.017  1.00  0.00     0.017 C 
HETATM    8  C10 UNL     1      61.764 -30.076  35.928  1.00  0.00     0.055 C 
HETATM    9  C11 UNL     1      62.395 -30.826  34.799  1.00  0.00     0.047 C 
HETATM   10  C12 UNL     1      62.478 -29.891  33.590  1.00  0.00     0.120 C 
HETATM   11  C13 UNL     1      61.207 -30.039  32.826  1.00  0.00     0.055 C 
HETATM   12  S1  UNL     1      60.236 -29.058  35.379  1.00  0.00    -0.133 SA
ENDROOT
BRANCH   1  13
HETATM   13  C3  UNL     1      60.113 -27.806  32.801  1.00  0.00     0.188 C 
BRANCH  13  14
HETATM   14  O1  UNL     1      59.129 -27.650  31.851  1.00  0.00    -0.390 OA
BRANCH  14  15
HETATM   15  C2  UNL     1      58.026 -26.989  32.385  1.00  0.00     0.163 C 
HETATM   16  C1  UNL     1      58.400 -25.998  33.447  1.00  0.00     0.033 C 
ENDBRANCH  14  15
ENDBRANCH  13  14
ENDBRANCH   1  13
BRANCH  10  17
HETATM   17  O2  UNL     1      63.520 -30.365  32.791  1.00  0.00    -0.395 OA
ATOM     18  H2  UNL     1      63.285 -31.249  32.534  1.00  0.00     0.210 HD
ENDBRANCH  10  17
TORSDOF 4
ENDMDL
MODEL 5
REMARK VINA RESULT: -5.738078235      2.168      4.840
REMARK  4 active torsions:
REMARK  status: ('A' for Active; 'I' for Inactive)
REMARK    1  A    between atoms: C2_2  and  O1_3 
REMARK    2  A    between atoms: O1_3  and  C3_4 
REMARK    3  A    between atoms: C3_4  and  C4_5 
REMARK    4  A    between atoms: C12_14  and  O2_15 
ROOT
HETATM    1  C4  UNL     1      59.593 -29.090  33.484  1.00  0.00     0.038 C 
HETATM    2  C5  UNL     1      58.354 -29.890  33.380  1.00  0.00     0.038 C 
HETATM    3  C6  UNL     1      57.847 -30.303  34.714  1.00  0.00     0.103 C 
HETATM    4  N1  UNL     1      58.809 -31.051  35.404  1.00  0.00    -0.267 NA
HETATM    5  C7  UNL     1      58.773 -31.191  36.786  1.00  0.00     0.102 C 
HETATM    6  C8  UNL     1      59.933 -30.593  37.547  1.00  0.00     0.017 C 
HETATM    7  C9  UNL     1      61.275 -30.965  36.927  1.00  0.00     0.017 C 
HETATM    8  C10 UNL     1      61.590 -29.939  35.824  1.00  0.00     0.055 C 
HETATM    9  C11 UNL     1      62.138 -30.623  34.612  1.00  0.00     0.047 C 
HETATM   10  C12 UNL     1      62.040 -29.653  33.431  1.00  0.00     0.120 C 
HETATM   11  C13 UNL     1      60.705 -29.855  32.800  1.00  0.00     0.055 C 
HETATM   12  S1  UNL     1      59.957 -28.999  35.470  1.00  0.00    -0.133 SA
ENDROOT
BRANCH   1  13
HETATM   13  C3  UNL     1      59.492 -27.690  32.960  1.00  0.00     0.188 C 
BRANCH  13  14
HETATM   14  O1  UNL     1      58.186 -27.386  32.650  1.00  0.00    -0.390 OA
BRANCH  14  15
HETATM   15  C2  UNL     1      58.030 -27.217  31.277  1.00  0.00     0.163 C 
HETATM   16  C1  UNL     1      57.239 -28.321  30.641  1.00  0.00     0.033 C 
ENDBRANCH  14  15
ENDBRANCH  13  14
ENDBRANCH   1  13
BRANCH  10  17
HETATM   17  O2  UNL     1      63.015 -30.044  32.513  1.00  0.00    -0.395 OA
ATOM     18  H2  UNL     1      63.188 -29.289  31.962  1.00  0.00     0.210 HD
ENDBRANCH  10  17
TORSDOF 4
ENDMDL
