MODEL 1
REMARK VINA RESULT: -8.151400154      0.000      0.000
REMARK  3 active torsions:
REMARK  status: ('A' for Active; 'I' for Inactive)
REMARK    1  A    between atoms: C3_3  and  O1_4 
REMARK    2  A    between atoms: O1_4  and  C4_5 
REMARK    3  A    between atoms: C12_13  and  O2_15 
ROOT
HETATM    1  C1  UNL     1      62.030 -31.688  38.834  1.00  0.00     0.014 C 
HETATM    2  C2  UNL     1      60.991 -31.300  38.346  1.00  0.00    -0.091 C 
HETATM    3  C3  UNL     1      59.738 -30.809  37.769  1.00  0.00     0.263 C 
ENDROOT
BRANCH   3   4
HETATM    4  O1  UNL     1      60.045 -30.002  36.676  1.00  0.00    -0.347 OA
BRANCH   4   5
HETATM    5  C4  UNL     1      60.043 -30.680  35.484  1.00  0.00     0.300 C 
HETATM    6  C5  UNL     1      60.726 -29.937  34.361  1.00  0.00     0.067 C 
HETATM    7  C6  UNL     1      59.924 -30.091  33.063  1.00  0.00     0.049 C 
HETATM    8  C7  UNL     1      58.699 -29.211  33.088  1.00  0.00     0.130 C 
HETATM    9  C8  UNL     1      57.501 -29.930  32.576  1.00  0.00     0.044 C 
HETATM   10  C12 UNL     1      58.921 -27.891  32.401  1.00  0.00     0.088 C 
HETATM   11  O3  UNL     1      58.462 -28.911  34.450  1.00  0.00    -0.196 OA
HETATM   12  C9  UNL     1      57.322 -29.899  31.101  1.00  0.00     0.003 C 
HETATM   13  C10 UNL     1      57.658 -28.604  30.448  1.00  0.00     0.003 C 
HETATM   14  C11 UNL     1      59.005 -28.066  30.898  1.00  0.00     0.041 C 
HETATM   15  C13 UNL     1      57.729 -27.003  32.676  1.00  0.00     0.049 C 
HETATM   16  O4  UNL     1      57.963 -29.939  35.081  1.00  0.00    -0.063 OA
HETATM   17  O5  UNL     1      58.745 -30.993  35.060  1.00  0.00    -0.178 OA
BRANCH  10  18
HETATM   18  O2  UNL     1      60.049 -27.264  32.864  1.00  0.00    -0.387 OA
ATOM     19  H2  UNL     1      59.950 -26.987  33.767  1.00  0.00     0.210 HD
ENDBRANCH  10  18
ENDBRANCH   4   5
ENDBRANCH   3   4
TORSDOF 3
ENDMDL
MODEL 2
REMARK VINA RESULT: -8.011242742      1.487      2.324
REMARK  3 active torsions:
REMARK  status: ('A' for Active; 'I' for Inactive)
REMARK    1  A    between atoms: C3_3  and  O1_4 
REMARK    2  A    between atoms: O1_4  and  C4_5 
REMARK    3  A    between atoms: C12_13  and  O2_15 
ROOT
HETATM    1  C1  UNL     1      60.786 -31.402  38.506  1.00  0.00     0.014 C 
HETATM    2  C2  UNL     1      60.970 -30.977  37.386  1.00  0.00    -0.091 C 
HETATM    3  C3  UNL     1      61.175 -30.481  36.024  1.00  0.00     0.263 C 
ENDROOT
BRANCH   3   4
HETATM    4  O1  UNL     1      60.227 -29.492  35.772  1.00  0.00    -0.347 OA
BRANCH   4   5
HETATM    5  C4  UNL     1      60.568 -28.668  34.729  1.00  0.00     0.300 C 
HETATM    6  C5  UNL     1      59.434 -27.792  34.252  1.00  0.00     0.067 C 
HETATM    7  C6  UNL     1      59.432 -27.723  32.719  1.00  0.00     0.049 C 
HETATM    8  C7  UNL     1      58.880 -28.998  32.131  1.00  0.00     0.130 C 
HETATM    9  C8  UNL     1      59.695 -29.462  30.975  1.00  0.00     0.044 C 
HETATM   10  C12 UNL     1      57.414 -28.897  31.804  1.00  0.00     0.088 C 
HETATM   11  O3  UNL     1      58.991 -29.976  33.147  1.00  0.00    -0.196 OA
HETATM   12  C9  UNL     1      59.335 -28.865  29.662  1.00  0.00     0.003 C 
HETATM   13  C10 UNL     1      57.876 -28.683  29.426  1.00  0.00     0.003 C 
HETATM   14  C11 UNL     1      57.184 -28.011  30.598  1.00  0.00     0.041 C 
HETATM   15  C13 UNL     1      56.911 -30.276  31.442  1.00  0.00     0.049 C 
HETATM   16  O4  UNL     1      60.229 -30.364  33.297  1.00  0.00    -0.063 OA
HETATM   17  O5  UNL     1      61.043 -29.388  33.626  1.00  0.00    -0.178 OA
BRANCH  10  18
HETATM   18  O2  UNL     1      56.689 -28.435  32.873  1.00  0.00    -0.387 OA
ATOM     19  H2  UNL     1      55.910 -27.970  32.592  1.00  0.00     0.210 HD
ENDBRANCH  10  18
ENDBRANCH   4   5
ENDBRANCH   3   4
TORSDOF 3
ENDMDL
MODEL 3
REMARK VINA RESULT: -7.673419835      1.622      2.554
REMARK  3 active torsions:
REMARK  status: ('A' for Active; 'I' for Inactive)
REMARK    1  A    between atoms: C3_3  and  O1_4 
REMARK    2  A    between atoms: O1_4  and  C4_5 
REMARK    3  A    between atoms: C12_13  and  O2_15 
ROOT
HETATM    1  C1  UNL     1      61.137 -31.830  39.163  1.00  0.00     0.014 C 
HETATM    2  C2  UNL     1      61.557 -31.814  38.026  1.00  0.00    -0.091 C 
HETATM    3  C3  UNL     1      62.057 -31.820  36.650  1.00  0.00     0.263 C 
ENDROOT
BRANCH   3   4
HETATM    4  O1  UNL     1      60.990 -31.554  35.795  1.00  0.00    -0.347 OA
BRANCH   4   5
HETATM    5  C4  UNL     1      60.428 -30.319  35.998  1.00  0.00     0.300 C 
HETATM    6  C5  UNL     1      58.950 -30.266  35.690  1.00  0.00     0.067 C 
HETATM    7  C6  UNL     1      58.612 -28.960  34.959  1.00  0.00     0.049 C 
HETATM    8  C7  UNL     1      59.052 -29.029  33.518  1.00  0.00     0.130 C 
HETATM    9  C8  UNL     1      59.714 -27.766  33.090  1.00  0.00     0.044 C 
HETATM   10  C12 UNL     1      57.941 -29.444  32.592  1.00  0.00     0.088 C 
HETATM   11  O3  UNL     1      60.022 -30.056  33.455  1.00  0.00    -0.196 OA
HETATM   12  C9  UNL     1      58.797 -26.698  32.613  1.00  0.00     0.003 C 
HETATM   13  C10 UNL     1      57.648 -27.166  31.790  1.00  0.00     0.003 C 
HETATM   14  C11 UNL     1      56.922 -28.335  32.432  1.00  0.00     0.041 C 
HETATM   15  C13 UNL     1      58.531 -29.703  31.225  1.00  0.00     0.049 C 
HETATM   16  O4  UNL     1      61.156 -29.670  33.976  1.00  0.00    -0.063 OA
HETATM   17  O5  UNL     1      61.057 -29.325  35.238  1.00  0.00    -0.178 OA
BRANCH  10  18
HETATM   18  O2  UNL     1      57.324 -30.590  33.026  1.00  0.00    -0.387 OA
ATOM     19  H2  UNL     1      56.588 -30.822  32.472  1.00  0.00     0.210 HD
ENDBRANCH  10  18
ENDBRANCH   4   5
ENDBRANCH   3   4
TORSDOF 3
ENDMDL
MODEL 4
REMARK VINA RESULT: -7.395954557      1.702      2.475
REMARK  3 active torsions:
REMARK  status: ('A' for Active; 'I' for Inactive)
REMARK    1  A    between atoms: C3_3  and  O1_4 
REMARK    2  A    between atoms: O1_4  and  C4_5 
REMARK    3  A    between atoms: C12_13  and  O2_15 
ROOT
HETATM    1  C1  UNL     1      63.411 -30.689  34.482  1.00  0.00     0.014 C 
HETATM    2  C2  UNL     1      62.570 -31.004  35.295  1.00  0.00    -0.091 C 
HETATM    3  C3  UNL     1      61.571 -31.380  36.297  1.00  0.00     0.263 C 
ENDROOT
BRANCH   3   4
HETATM    4  O1  UNL     1      60.937 -30.222  36.739  1.00  0.00    -0.347 OA
BRANCH   4   5
HETATM    5  C4  UNL     1      59.650 -30.099  36.280  1.00  0.00     0.300 C 
HETATM    6  C5  UNL     1      59.412 -30.778  34.952  1.00  0.00     0.067 C 
HETATM    7  C6  UNL     1      58.528 -29.895  34.061  1.00  0.00     0.049 C 
HETATM    8  C7  UNL     1      59.327 -28.750  33.490  1.00  0.00     0.130 C 
HETATM    9  C8  UNL     1      58.569 -27.471  33.559  1.00  0.00     0.044 C 
HETATM   10  C12 UNL     1      59.851 -29.041  32.110  1.00  0.00     0.088 C 
HETATM   11  O3  UNL     1      60.462 -28.614  34.322  1.00  0.00    -0.196 OA
HETATM   12  C9  UNL     1      57.649 -27.214  32.420  1.00  0.00     0.003 C 
HETATM   13  C10 UNL     1      58.166 -27.618  31.083  1.00  0.00     0.003 C 
HETATM   14  C11 UNL     1      58.732 -29.027  31.089  1.00  0.00     0.041 C 
HETATM   15  C13 UNL     1      60.815 -27.942  31.725  1.00  0.00     0.049 C 
HETATM   16  O4  UNL     1      60.148 -28.067  35.466  1.00  0.00    -0.063 OA
HETATM   17  O5  UNL     1      59.266 -28.759  36.148  1.00  0.00    -0.178 OA
BRANCH  10  18
HETATM   18  O2  UNL     1      60.514 -30.240  32.064  1.00  0.00    -0.387 OA
ATOM     19  H2  UNL     1      61.350 -30.195  32.511  1.00  0.00     0.210 HD
ENDBRANCH  10  18
ENDBRANCH   4   5
ENDBRANCH   3   4
TORSDOF 3
ENDMDL
MODEL 5
REMARK VINA RESULT: -7.317563836      1.489      5.796
REMARK  3 active torsions:
REMARK  status: ('A' for Active; 'I' for Inactive)
REMARK    1  A    between atoms: C3_3  and  O1_4 
REMARK    2  A    between atoms: O1_4  and  C4_5 
REMARK    3  A    between atoms: C12_13  and  O2_15 
ROOT
HETATM    1  C1  UNL     1      55.903 -29.945  30.632  1.00  0.00     0.014 C 
HETATM    2  C2  UNL     1      56.793 -29.188  30.952  1.00  0.00    -0.091 C 
HETATM    3  C3  UNL     1      57.856 -28.268  31.362  1.00  0.00     0.263 C 
ENDROOT
BRANCH   3   4
HETATM    4  O1  UNL     1      58.747 -28.963  32.177  1.00  0.00    -0.347 OA
BRANCH   4   5
HETATM    5  C4  UNL     1      58.839 -28.445  33.443  1.00  0.00     0.300 C 
HETATM    6  C5  UNL     1      60.253 -28.368  33.967  1.00  0.00     0.067 C 
HETATM    7  C6  UNL     1      60.292 -28.789  35.442  1.00  0.00     0.049 C 
HETATM    8  C7  UNL     1      60.178 -30.288  35.570  1.00  0.00     0.130 C 
HETATM    9  C8  UNL     1      59.243 -30.671  36.663  1.00  0.00     0.044 C 
HETATM   10  C12 UNL     1      61.518 -30.962  35.688  1.00  0.00     0.088 C 
HETATM   11  O3  UNL     1      59.614 -30.740  34.354  1.00  0.00    -0.196 OA
HETATM   12  C9  UNL     1      59.846 -30.741  38.020  1.00  0.00     0.003 C 
HETATM   13  C10 UNL     1      61.218 -31.317  38.076  1.00  0.00     0.003 C 
HETATM   14  C11 UNL     1      62.143 -30.698  37.042  1.00  0.00     0.041 C 
HETATM   15  C13 UNL     1      61.310 -32.456  35.580  1.00  0.00     0.049 C 
HETATM   16  O4  UNL     1      58.340 -30.463  34.290  1.00  0.00    -0.063 OA
HETATM   17  O5  UNL     1      58.082 -29.179  34.366  1.00  0.00    -0.178 OA
BRANCH  10  18
HETATM   18  O2  UNL     1      62.372 -30.567  34.691  1.00  0.00    -0.387 OA
ATOM     19  H2  UNL     1      62.613 -29.652  34.779  1.00  0.00     0.210 HD
ENDBRANCH  10  18
ENDBRANCH   4   5
ENDBRANCH   3   4
TORSDOF 3
ENDMDL
