MODEL 1
REMARK VINA RESULT: -7.877947784      0.000      0.000
REMARK  5 active torsions:
REMARK  status: ('A' for Active; 'I' for Inactive)
REMARK    1  A    between atoms: O1_2  and  C2_3 
REMARK    2  A    between atoms: C2_3  and  C3_5 
REMARK    3  A    between atoms: C3_5  and  N1_6 
REMARK       I    between atoms: N1_6  and  C4_8 
REMARK    4  A    between atoms: C4_8  and  O4_10 
REMARK    5  A    between atoms: O4_10  and  C5_11 
ROOT
HETATM    1  C3  UNL     1      57.140 -29.880  31.721  1.00  0.00     0.130 C 
HETATM    2  C9  UNL     1      56.870 -28.405  31.559  1.00  0.00     0.025 C 
HETATM    3  C10 UNL     1      58.232 -27.902  31.137  1.00  0.00     0.008 C 
HETATM    4  C11 UNL     1      58.557 -28.956  30.058  1.00  0.00     0.008 C 
HETATM    5  C12 UNL     1      57.329 -29.830  30.230  1.00  0.00     0.025 C 
HETATM    6  C13 UNL     1      56.268 -28.749  30.214  1.00  0.00     0.015 C 
ENDROOT
BRANCH   1   7
HETATM    7  C2  UNL     1      56.017 -30.692  32.179  1.00  0.00     0.287 C 
HETATM    8  O2  UNL     1      55.147 -30.112  32.935  1.00  0.00    -0.262 OA
BRANCH   7   9
HETATM    9  O1  UNL     1      55.754 -32.014  31.907  1.00  0.00    -0.324 OA
HETATM   10  C1  UNL     1      54.474 -32.588  32.150  1.00  0.00     0.213 C 
ENDBRANCH   7   9
ENDBRANCH   1   7
BRANCH   1  11
HETATM   11  N1  UNL     1      58.388 -30.153  32.446  1.00  0.00    -0.317 N 
HETATM   12  C4  UNL     1      58.499 -30.037  33.842  1.00  0.00     0.362 C 
HETATM   13  O3  UNL     1      57.515 -29.685  34.520  1.00  0.00    -0.238 OA
ATOM     14  H1  UNL     1      59.210 -30.440  31.913  1.00  0.00     0.166 HD
BRANCH  12  15
HETATM   15  O4  UNL     1      59.676 -30.301  34.512  1.00  0.00    -0.294 OA
BRANCH  15  16
HETATM   16  C5  UNL     1      60.875 -29.655  34.233  1.00  0.00     0.061 C 
HETATM   17  C6  UNL     1      60.666 -28.177  34.600  1.00  0.00     0.046 C 
HETATM   18  C7  UNL     1      61.278 -29.679  32.791  1.00  0.00     0.046 C 
HETATM   19  C8  UNL     1      62.043 -30.146  35.051  1.00  0.00     0.046 C 
ENDBRANCH  15  16
ENDBRANCH  12  15
ENDBRANCH   1  11
TORSDOF 5
ENDMDL
MODEL 2
REMARK VINA RESULT: -7.738037412      1.195      1.580
REMARK  5 active torsions:
REMARK  status: ('A' for Active; 'I' for Inactive)
REMARK    1  A    between atoms: O1_2  and  C2_3 
REMARK    2  A    between atoms: C2_3  and  C3_5 
REMARK    3  A    between atoms: C3_5  and  N1_6 
REMARK       I    between atoms: N1_6  and  C4_8 
REMARK    4  A    between atoms: C4_8  and  O4_10 
REMARK    5  A    between atoms: O4_10  and  C5_11 
ROOT
HETATM    1  C3  UNL     1      57.304 -29.744  31.239  1.00  0.00     0.130 C 
HETATM    2  C9  UNL     1      57.144 -28.245  31.205  1.00  0.00     0.025 C 
HETATM    3  C10 UNL     1      58.570 -27.793  31.425  1.00  0.00     0.008 C 
HETATM    4  C11 UNL     1      59.278 -28.720  30.415  1.00  0.00     0.008 C 
HETATM    5  C12 UNL     1      58.068 -29.516  29.964  1.00  0.00     0.025 C 
HETATM    6  C13 UNL     1      57.119 -28.366  29.696  1.00  0.00     0.015 C 
ENDROOT
BRANCH   1   7
HETATM    7  C2  UNL     1      56.077 -30.523  31.096  1.00  0.00     0.287 C 
HETATM    8  O2  UNL     1      56.175 -31.661  30.496  1.00  0.00    -0.262 OA
BRANCH   7   9
HETATM    9  O1  UNL     1      54.810 -30.204  31.523  1.00  0.00    -0.324 OA
HETATM   10  C1  UNL     1      54.076 -31.059  32.394  1.00  0.00     0.213 C 
ENDBRANCH   7   9
ENDBRANCH   1   7
BRANCH   1  11
HETATM   11  N1  UNL     1      58.158 -30.200  32.343  1.00  0.00    -0.317 N 
HETATM   12  C4  UNL     1      57.795 -30.061  33.694  1.00  0.00     0.362 C 
HETATM   13  O3  UNL     1      56.711 -29.528  33.998  1.00  0.00    -0.238 OA
ATOM     14  H1  UNL     1      59.052 -30.637  32.120  1.00  0.00     0.166 HD
BRANCH  12  15
HETATM   15  O4  UNL     1      58.605 -30.498  34.722  1.00  0.00    -0.294 OA
BRANCH  15  16
HETATM   16  C5  UNL     1      59.702 -29.782  35.188  1.00  0.00     0.061 C 
HETATM   17  C6  UNL     1      59.736 -29.985  36.711  1.00  0.00     0.046 C 
HETATM   18  C7  UNL     1      59.625 -28.303  34.961  1.00  0.00     0.046 C 
HETATM   19  C8  UNL     1      61.025 -30.268  34.653  1.00  0.00     0.046 C 
ENDBRANCH  15  16
ENDBRANCH  12  15
ENDBRANCH   1  11
TORSDOF 5
ENDMDL
MODEL 3
REMARK VINA RESULT: -7.729256223      1.787      5.179
REMARK  5 active torsions:
REMARK  status: ('A' for Active; 'I' for Inactive)
REMARK    1  A    between atoms: O1_2  and  C2_3 
REMARK    2  A    between atoms: C2_3  and  C3_5 
REMARK    3  A    between atoms: C3_5  and  N1_6 
REMARK       I    between atoms: N1_6  and  C4_8 
REMARK    4  A    between atoms: C4_8  and  O4_10 
REMARK    5  A    between atoms: O4_10  and  C5_11 
ROOT
HETATM    1  C3  UNL     1      59.318 -29.198  33.295  1.00  0.00     0.130 C 
HETATM    2  C9  UNL     1      59.359 -28.427  34.591  1.00  0.00     0.025 C 
HETATM    3  C10 UNL     1      59.290 -29.549  35.602  1.00  0.00     0.008 C 
HETATM    4  C11 UNL     1      60.352 -30.490  34.994  1.00  0.00     0.008 C 
HETATM    5  C12 UNL     1      60.667 -29.686  33.746  1.00  0.00     0.025 C 
HETATM    6  C13 UNL     1      60.856 -28.326  34.385  1.00  0.00     0.015 C 
ENDROOT
BRANCH   1   7
HETATM    7  C2  UNL     1      59.324 -28.399  32.072  1.00  0.00     0.287 C 
HETATM    8  O2  UNL     1      58.826 -27.212  32.149  1.00  0.00    -0.262 OA
BRANCH   7   9
HETATM    9  O1  UNL     1      59.798 -28.747  30.829  1.00  0.00    -0.324 OA
HETATM   10  C1  UNL     1      58.920 -29.125  29.773  1.00  0.00     0.213 C 
ENDBRANCH   7   9
ENDBRANCH   1   7
BRANCH   1  11
HETATM   11  N1  UNL     1      58.299 -30.255  33.294  1.00  0.00    -0.317 N 
HETATM   12  C4  UNL     1      56.942 -30.005  33.023  1.00  0.00     0.362 C 
HETATM   13  O3  UNL     1      56.558 -28.846  32.775  1.00  0.00    -0.238 OA
ATOM     14  H1  UNL     1      58.587 -31.212  33.498  1.00  0.00     0.166 HD
BRANCH  12  15
HETATM   15  O4  UNL     1      55.994 -31.007  33.021  1.00  0.00    -0.294 OA
BRANCH  15  16
HETATM   16  C5  UNL     1      55.205 -31.309  31.918  1.00  0.00     0.061 C 
HETATM   17  C6  UNL     1      54.777 -32.777  32.080  1.00  0.00     0.046 C 
HETATM   18  C7  UNL     1      55.911 -31.218  30.600  1.00  0.00     0.046 C 
HETATM   19  C8  UNL     1      53.939 -30.495  31.825  1.00  0.00     0.046 C 
ENDBRANCH  15  16
ENDBRANCH  12  15
ENDBRANCH   1  11
TORSDOF 5
ENDMDL
MODEL 4
REMARK VINA RESULT: -7.409106798      1.355      4.968
REMARK  5 active torsions:
REMARK  status: ('A' for Active; 'I' for Inactive)
REMARK    1  A    between atoms: O1_2  and  C2_3 
REMARK    2  A    between atoms: C2_3  and  C3_5 
REMARK    3  A    between atoms: C3_5  and  N1_6 
REMARK       I    between atoms: N1_6  and  C4_8 
REMARK    4  A    between atoms: C4_8  and  O4_10 
REMARK    5  A    between atoms: O4_10  and  C5_11 
ROOT
HETATM    1  C3  UNL     1      59.415 -29.406  33.144  1.00  0.00     0.130 C 
HETATM    2  C9  UNL     1      60.533 -29.440  32.132  1.00  0.00     0.025 C 
HETATM    3  C10 UNL     1      59.755 -29.416  30.835  1.00  0.00     0.008 C 
HETATM    4  C11 UNL     1      58.772 -28.272  31.162  1.00  0.00     0.008 C 
HETATM    5  C12 UNL     1      59.198 -28.022  32.597  1.00  0.00     0.025 C 
HETATM    6  C13 UNL     1      60.697 -27.958  32.388  1.00  0.00     0.015 C 
ENDROOT
BRANCH   1   7
HETATM    7  C2  UNL     1      59.817 -29.463  34.547  1.00  0.00     0.287 C 
HETATM    8  O2  UNL     1      59.561 -28.426  35.270  1.00  0.00    -0.262 OA
BRANCH   7   9
HETATM    9  O1  UNL     1      60.442 -30.491  35.213  1.00  0.00    -0.324 OA
HETATM   10  C1  UNL     1      61.856 -30.527  35.375  1.00  0.00     0.213 C 
ENDBRANCH   7   9
ENDBRANCH   1   7
BRANCH   1  11
HETATM   11  N1  UNL     1      58.321 -30.328  32.815  1.00  0.00    -0.317 N 
HETATM   12  C4  UNL     1      56.989 -30.099  33.200  1.00  0.00     0.362 C 
HETATM   13  O3  UNL     1      56.694 -29.080  33.854  1.00  0.00    -0.238 OA
ATOM     14  H1  UNL     1      58.537 -31.172  32.283  1.00  0.00     0.166 HD
BRANCH  12  15
HETATM   15  O4  UNL     1      55.969 -30.971  32.880  1.00  0.00    -0.294 OA
BRANCH  15  16
HETATM   16  C5  UNL     1      55.307 -30.958  31.658  1.00  0.00     0.061 C 
HETATM   17  C6  UNL     1      53.808 -30.856  31.978  1.00  0.00     0.046 C 
HETATM   18  C7  UNL     1      55.481 -32.201  30.840  1.00  0.00     0.046 C 
HETATM   19  C8  UNL     1      55.648 -29.775  30.787  1.00  0.00     0.046 C 
ENDBRANCH  15  16
ENDBRANCH  12  15
ENDBRANCH   1  11
TORSDOF 5
ENDMDL
MODEL 5
REMARK VINA RESULT: -7.289504372      1.425      1.674
REMARK  5 active torsions:
REMARK  status: ('A' for Active; 'I' for Inactive)
REMARK    1  A    between atoms: O1_2  and  C2_3 
REMARK    2  A    between atoms: C2_3  and  C3_5 
REMARK    3  A    between atoms: C3_5  and  N1_6 
REMARK       I    between atoms: N1_6  and  C4_8 
REMARK    4  A    between atoms: C4_8  and  O4_10 
REMARK    5  A    between atoms: O4_10  and  C5_11 
ROOT
HETATM    1  C3  UNL     1      57.776 -29.365  32.279  1.00  0.00     0.130 C 
HETATM    2  C9  UNL     1      57.917 -27.906  32.638  1.00  0.00     0.025 C 
HETATM    3  C10 UNL     1      59.421 -27.769  32.717  1.00  0.00     0.008 C 
HETATM    4  C11 UNL     1      59.801 -28.490  31.407  1.00  0.00     0.008 C 
HETATM    5  C12 UNL     1      58.410 -28.928  30.988  1.00  0.00     0.025 C 
HETATM    6  C13 UNL     1      57.685 -27.610  31.172  1.00  0.00     0.015 C 
ENDROOT
BRANCH   1   7
HETATM    7  C2  UNL     1      56.410 -29.867  32.162  1.00  0.00     0.287 C 
HETATM    8  O2  UNL     1      55.607 -29.609  33.138  1.00  0.00    -0.262 OA
BRANCH   7   9
HETATM    9  O1  UNL     1      55.853 -30.590  31.133  1.00  0.00    -0.324 OA
HETATM   10  C1  UNL     1      55.402 -31.928  31.318  1.00  0.00     0.213 C 
ENDBRANCH   7   9
ENDBRANCH   1   7
BRANCH   1  11
HETATM   11  N1  UNL     1      58.649 -30.234  33.079  1.00  0.00    -0.317 N 
HETATM   12  C4  UNL     1      58.555 -30.329  34.478  1.00  0.00     0.362 C 
HETATM   13  O3  UNL     1      57.708 -29.654  35.095  1.00  0.00    -0.238 OA
ATOM     14  H1  UNL     1      59.353 -30.794  32.598  1.00  0.00     0.166 HD
BRANCH  12  15
HETATM   15  O4  UNL     1      59.378 -31.153  35.218  1.00  0.00    -0.294 OA
BRANCH  15  16
HETATM   16  C5  UNL     1      60.539 -30.711  35.842  1.00  0.00     0.061 C 
HETATM   17  C6  UNL     1      60.102 -30.084  37.175  1.00  0.00     0.046 C 
HETATM   18  C7  UNL     1      61.283 -29.646  35.097  1.00  0.00     0.046 C 
HETATM   19  C8  UNL     1      61.514 -31.812  36.177  1.00  0.00     0.046 C 
ENDBRANCH  15  16
ENDBRANCH  12  15
ENDBRANCH   1  11
TORSDOF 5
ENDMDL
