MODEL 1
REMARK VINA RESULT: -8.773732423      0.000      0.000
REMARK  3 active torsions:
REMARK  status: ('A' for Active; 'I' for Inactive)
REMARK    1  A    between atoms: C2_2  and  C5_5 
REMARK    2  A    between atoms: C6_8  and  N2_9 
REMARK    3  A    between atoms: C7_13  and  C8_14 
ROOT
HETATM    1  C5  UNL     1      61.098 -30.256  35.080  1.00  0.00     0.032 A 
HETATM    2  N1  UNL     1      62.289 -30.764  35.263  1.00  0.00    -0.339 N 
ATOM      3  H1  UNL     1      62.510 -31.296  36.104  1.00  0.00     0.168 HD
HETATM    4  C6  UNL     1      63.220 -30.562  34.297  1.00  0.00     0.142 A 
HETATM    5  S1  UNL     1      62.361 -29.646  33.154  1.00  0.00    -0.057 SA
HETATM    6  C7  UNL     1      60.849 -29.550  33.931  1.00  0.00     0.013 A 
ENDROOT
BRANCH   6   7
HETATM    7  C8  UNL     1      59.602 -28.993  33.343  1.00  0.00     0.028 C 
HETATM    8  C9  UNL     1      59.359 -27.585  33.863  1.00  0.00     0.010 C 
HETATM    9  C10 UNL     1      58.881 -26.574  32.899  1.00  0.00     0.001 C 
HETATM   10  C11 UNL     1      57.636 -27.075  32.186  1.00  0.00     0.000 C 
HETATM   11  C12 UNL     1      58.119 -27.443  30.797  1.00  0.00     0.000 C 
HETATM   12  C13 UNL     1      58.752 -28.810  30.944  1.00  0.00     0.001 C 
HETATM   13  C14 UNL     1      59.948 -28.816  31.822  1.00  0.00     0.010 C 
ENDBRANCH   6   7
BRANCH   1  14
HETATM   14  C2  UNL     1      60.024 -30.369  36.165  1.00  0.00    -0.008 C 
HETATM   15  C1  UNL     1      60.591 -31.063  37.389  1.00  0.00     0.021 C 
HETATM   16  C3  UNL     1      59.692 -28.953  36.622  1.00  0.00     0.021 C 
HETATM   17  C4  UNL     1      58.842 -31.160  35.730  1.00  0.00     0.021 C 
ENDBRANCH   1  14
BRANCH   4  18
HETATM   18  N2  UNL     1      64.459 -30.997  34.300  1.00  0.00    -0.380 N 
ATOM     19  H22 UNL     1      64.993 -31.495  35.012  1.00  0.00     0.158 HD
ATOM     20  H21 UNL     1      65.139 -30.900  33.546  1.00  0.00     0.158 HD
ENDBRANCH   4  18
TORSDOF 3
ENDMDL
MODEL 2
REMARK VINA RESULT: -8.760159896      0.084      1.042
REMARK  3 active torsions:
REMARK  status: ('A' for Active; 'I' for Inactive)
REMARK    1  A    between atoms: C2_2  and  C5_5 
REMARK    2  A    between atoms: C6_8  and  N2_9 
REMARK    3  A    between atoms: C7_13  and  C8_14 
ROOT
HETATM    1  C5  UNL     1      61.147 -30.216  35.048  1.00  0.00     0.032 A 
HETATM    2  N1  UNL     1      62.337 -30.733  35.207  1.00  0.00    -0.339 N 
ATOM      3  H1  UNL     1      62.576 -31.254  36.050  1.00  0.00     0.168 HD
HETATM    4  C6  UNL     1      63.243 -30.557  34.212  1.00  0.00     0.142 A 
HETATM    5  S1  UNL     1      62.362 -29.651  33.078  1.00  0.00    -0.057 SA
HETATM    6  C7  UNL     1      60.873 -29.527  33.895  1.00  0.00     0.013 A 
ENDROOT
BRANCH   6   7
HETATM    7  C8  UNL     1      59.616 -28.967  33.332  1.00  0.00     0.028 C 
HETATM    8  C9  UNL     1      59.377 -27.565  33.868  1.00  0.00     0.010 C 
HETATM    9  C10 UNL     1      58.883 -26.546  32.922  1.00  0.00     0.001 C 
HETATM   10  C11 UNL     1      57.627 -27.043  32.224  1.00  0.00     0.000 C 
HETATM   11  C12 UNL     1      58.090 -27.397  30.824  1.00  0.00     0.000 C 
HETATM   12  C13 UNL     1      58.727 -28.764  30.948  1.00  0.00     0.001 C 
HETATM   13  C14 UNL     1      59.937 -28.775  31.807  1.00  0.00     0.010 C 
ENDBRANCH   6   7
BRANCH   1  14
HETATM   14  C2  UNL     1      60.102 -30.301  36.164  1.00  0.00    -0.008 C 
HETATM   15  C1  UNL     1      58.880 -31.055  35.677  1.00  0.00     0.021 C 
HETATM   16  C3  UNL     1      60.693 -31.164  37.272  1.00  0.00     0.021 C 
HETATM   17  C4  UNL     1      59.630 -28.966  36.620  1.00  0.00     0.021 C 
ENDBRANCH   1  14
BRANCH   4  18
HETATM   18  N2  UNL     1      64.477 -31.004  34.189  1.00  0.00    -0.380 N 
ATOM     19  H22 UNL     1      65.328 -30.647  34.624  1.00  0.00     0.158 HD
ATOM     20  H21 UNL     1      64.815 -31.832  33.699  1.00  0.00     0.158 HD
ENDBRANCH   4  18
TORSDOF 3
ENDMDL
MODEL 3
REMARK VINA RESULT: -7.577868405      3.319      6.080
REMARK  3 active torsions:
REMARK  status: ('A' for Active; 'I' for Inactive)
REMARK    1  A    between atoms: C2_2  and  C5_5 
REMARK    2  A    between atoms: C6_8  and  N2_9 
REMARK    3  A    between atoms: C7_13  and  C8_14 
ROOT
HETATM    1  C5  UNL     1      58.257 -27.610  31.302  1.00  0.00     0.032 A 
HETATM    2  N1  UNL     1      57.412 -26.612  31.335  1.00  0.00    -0.339 N 
ATOM      3  H1  UNL     1      56.778 -26.435  30.556  1.00  0.00     0.168 HD
HETATM    4  C6  UNL     1      57.405 -25.822  32.437  1.00  0.00     0.142 A 
HETATM    5  S1  UNL     1      58.613 -26.531  33.397  1.00  0.00    -0.057 SA
HETATM    6  C7  UNL     1      59.087 -27.808  32.376  1.00  0.00     0.013 A 
ENDROOT
BRANCH   6   7
HETATM    7  C8  UNL     1      60.025 -28.905  32.733  1.00  0.00     0.028 C 
HETATM    8  C9  UNL     1      61.423 -28.588  32.230  1.00  0.00     0.010 C 
HETATM    9  C10 UNL     1      62.558 -28.900  33.121  1.00  0.00     0.001 C 
HETATM   10  C11 UNL     1      62.495 -30.354  33.561  1.00  0.00     0.000 C 
HETATM   11  C12 UNL     1      62.028 -30.292  35.002  1.00  0.00     0.000 C 
HETATM   12  C13 UNL     1      60.528 -30.106  34.928  1.00  0.00     0.001 C 
HETATM   13  C14 UNL     1      60.122 -28.826  34.298  1.00  0.00     0.010 C 
ENDBRANCH   6   7
BRANCH   1  14
HETATM   14  C2  UNL     1      58.382 -28.490  30.057  1.00  0.00    -0.008 C 
HETATM   15  C1  UNL     1      57.240 -28.204  29.100  1.00  0.00     0.021 C 
HETATM   16  C3  UNL     1      59.643 -28.055  29.320  1.00  0.00     0.021 C 
HETATM   17  C4  UNL     1      58.329 -29.944  30.366  1.00  0.00     0.021 C 
ENDBRANCH   1  14
BRANCH   4  18
HETATM   18  N2  UNL     1      56.630 -24.784  32.652  1.00  0.00    -0.380 N 
ATOM     19  H22 UNL     1      56.660 -23.835  32.278  1.00  0.00     0.158 HD
ATOM     20  H21 UNL     1      55.819 -24.748  33.270  1.00  0.00     0.158 HD
ENDBRANCH   4  18
TORSDOF 3
ENDMDL
MODEL 4
REMARK VINA RESULT: -7.501264909      3.303      6.058
REMARK  3 active torsions:
REMARK  status: ('A' for Active; 'I' for Inactive)
REMARK    1  A    between atoms: C2_2  and  C5_5 
REMARK    2  A    between atoms: C6_8  and  N2_9 
REMARK    3  A    between atoms: C7_13  and  C8_14 
ROOT
HETATM    1  C5  UNL     1      58.295 -27.645  31.284  1.00  0.00     0.032 A 
HETATM    2  N1  UNL     1      57.440 -26.656  31.291  1.00  0.00    -0.339 N 
ATOM      3  H1  UNL     1      56.855 -26.461  30.478  1.00  0.00     0.168 HD
HETATM    4  C6  UNL     1      57.355 -25.898  32.413  1.00  0.00     0.142 A 
HETATM    5  S1  UNL     1      58.506 -26.626  33.427  1.00  0.00    -0.057 SA
HETATM    6  C7  UNL     1      59.056 -27.869  32.402  1.00  0.00     0.013 A 
ENDROOT
BRANCH   6   7
HETATM    7  C8  UNL     1      59.980 -28.969  32.787  1.00  0.00     0.028 C 
HETATM    8  C9  UNL     1      61.389 -28.666  32.306  1.00  0.00     0.010 C 
HETATM    9  C10 UNL     1      62.506 -28.977  33.220  1.00  0.00     0.001 C 
HETATM   10  C11 UNL     1      62.424 -30.426  33.674  1.00  0.00     0.000 C 
HETATM   11  C12 UNL     1      61.933 -30.346  35.105  1.00  0.00     0.000 C 
HETATM   12  C13 UNL     1      60.435 -30.151  35.003  1.00  0.00     0.001 C 
HETATM   13  C14 UNL     1      60.050 -28.874  34.352  1.00  0.00     0.010 C 
ENDBRANCH   6   7
BRANCH   1  14
HETATM   14  C2  UNL     1      58.507 -28.488  30.024  1.00  0.00    -0.008 C 
HETATM   15  C1  UNL     1      58.453 -29.964  30.369  1.00  0.00     0.021 C 
HETATM   16  C3  UNL     1      57.310 -28.245  29.111  1.00  0.00     0.021 C 
HETATM   17  C4  UNL     1      59.824 -28.244  29.378  1.00  0.00     0.021 C 
ENDBRANCH   1  14
BRANCH   4  18
HETATM   18  N2  UNL     1      56.558 -24.873  32.607  1.00  0.00    -0.380 N 
ATOM     19  H22 UNL     1      55.883 -24.421  31.990  1.00  0.00     0.158 HD
ATOM     20  H21 UNL     1      56.476 -24.320  33.460  1.00  0.00     0.158 HD
ENDBRANCH   4  18
TORSDOF 3
ENDMDL
MODEL 5
REMARK VINA RESULT: -7.383008232      3.342      6.075
REMARK  3 active torsions:
REMARK  status: ('A' for Active; 'I' for Inactive)
REMARK    1  A    between atoms: C2_2  and  C5_5 
REMARK    2  A    between atoms: C6_8  and  N2_9 
REMARK    3  A    between atoms: C7_13  and  C8_14 
ROOT
HETATM    1  C5  UNL     1      58.213 -27.544  31.305  1.00  0.00     0.032 A 
HETATM    2  N1  UNL     1      57.372 -26.544  31.350  1.00  0.00    -0.339 N 
ATOM      3  H1  UNL     1      56.733 -26.359  30.577  1.00  0.00     0.168 HD
HETATM    4  C6  UNL     1      57.377 -25.761  32.457  1.00  0.00     0.142 A 
HETATM    5  S1  UNL     1      58.589 -26.480  33.403  1.00  0.00    -0.057 SA
HETATM    6  C7  UNL     1      59.051 -27.752  32.370  1.00  0.00     0.013 A 
ENDROOT
BRANCH   6   7
HETATM    7  C8  UNL     1      59.987 -28.856  32.714  1.00  0.00     0.028 C 
HETATM    8  C9  UNL     1      61.387 -28.531  32.220  1.00  0.00     0.010 C 
HETATM    9  C10 UNL     1      62.519 -28.858  33.109  1.00  0.00     0.001 C 
HETATM   10  C11 UNL     1      62.454 -30.317  33.527  1.00  0.00     0.000 C 
HETATM   11  C12 UNL     1      61.983 -30.277  34.967  1.00  0.00     0.000 C 
HETATM   12  C13 UNL     1      60.483 -30.090  34.892  1.00  0.00     0.001 C 
HETATM   13  C14 UNL     1      60.080 -28.800  34.280  1.00  0.00     0.010 C 
ENDBRANCH   6   7
BRANCH   1  14
HETATM   14  C2  UNL     1      58.324 -28.418  30.053  1.00  0.00    -0.008 C 
HETATM   15  C1  UNL     1      59.632 -28.138  29.337  1.00  0.00     0.021 C 
HETATM   16  C3  UNL     1      58.423 -29.866  30.519  1.00  0.00     0.021 C 
HETATM   17  C4  UNL     1      57.234 -28.168  29.072  1.00  0.00     0.021 C 
ENDBRANCH   1  14
BRANCH   4  18
HETATM   18  N2  UNL     1      56.608 -24.721  32.685  1.00  0.00    -0.380 N 
ATOM     19  H22 UNL     1      56.819 -23.723  32.715  1.00  0.00     0.158 HD
ATOM     20  H21 UNL     1      55.607 -24.736  32.884  1.00  0.00     0.158 HD
ENDBRANCH   4  18
TORSDOF 3
ENDMDL
