MODEL 1
REMARK VINA RESULT: -8.733700026      0.000      0.000
REMARK  2 active torsions:
REMARK  status: ('A' for Active; 'I' for Inactive)
REMARK    1  A    between atoms: N2_10  and  C7_11 
REMARK    2  A    between atoms: C11_15  and  O1_16 
ROOT
HETATM    1  C1  UNL     1      58.473 -30.799  36.829  1.00  0.00     0.019 C 
HETATM    2  C2  UNL     1      59.556 -30.710  36.296  1.00  0.00    -0.057 C 
HETATM    3  C3  UNL     1      60.846 -30.621  35.686  1.00  0.00     0.113 A 
HETATM    4  C4  UNL     1      62.026 -31.167  36.151  1.00  0.00     0.043 A 
HETATM    5  C5  UNL     1      62.139 -31.956  37.402  1.00  0.00     0.071 C 
HETATM    6  N1  UNL     1      62.994 -30.839  35.260  1.00  0.00    -0.334 N 
ATOM      7  H1  UNL     1      63.977 -31.098  35.327  1.00  0.00     0.168 HD
HETATM    8  C6  UNL     1      62.441 -30.114  34.273  1.00  0.00     0.179 A 
HETATM    9  S1  UNL     1      63.261 -29.515  32.994  1.00  0.00    -0.040 SA
HETATM   10  N2  UNL     1      61.105 -29.985  34.548  1.00  0.00    -0.310 N 
ENDROOT
BRANCH  10  11
HETATM   11  C7  UNL     1      60.214 -29.273  33.701  1.00  0.00     0.093 C 
HETATM   12  C8  UNL     1      60.555 -29.245  32.259  1.00  0.00     0.026 C 
HETATM   13  C9  UNL     1      59.273 -29.393  31.459  1.00  0.00     0.004 C 
HETATM   14  C10 UNL     1      58.649 -28.019  31.226  1.00  0.00     0.032 C 
HETATM   15  C11 UNL     1      58.227 -27.492  32.576  1.00  0.00     0.118 C 
HETATM   16  C12 UNL     1      59.428 -26.916  33.292  1.00  0.00     0.034 C 
HETATM   17  C13 UNL     1      60.039 -27.862  34.279  1.00  0.00     0.028 C 
BRANCH  15  18
HETATM   18  O1  UNL     1      57.314 -26.470  32.348  1.00  0.00    -0.396 OA
ATOM     19  H1  UNL     1      57.788 -25.650  32.420  1.00  0.00     0.210 HD
ENDBRANCH  15  18
ENDBRANCH  10  11
TORSDOF 2
ENDMDL
MODEL 2
REMARK VINA RESULT: -6.992238988      0.751      1.626
REMARK  2 active torsions:
REMARK  status: ('A' for Active; 'I' for Inactive)
REMARK    1  A    between atoms: N2_10  and  C7_11 
REMARK    2  A    between atoms: C11_15  and  O1_16 
ROOT
HETATM    1  C1  UNL     1      58.545 -30.569  36.725  1.00  0.00     0.019 C 
HETATM    2  C2  UNL     1      59.631 -30.517  36.193  1.00  0.00    -0.057 C 
HETATM    3  C3  UNL     1      60.924 -30.475  35.583  1.00  0.00     0.113 A 
HETATM    4  C4  UNL     1      62.067 -31.117  36.011  1.00  0.00     0.043 A 
HETATM    5  C5  UNL     1      62.133 -31.979  37.216  1.00  0.00     0.071 C 
HETATM    6  N1  UNL     1      63.053 -30.800  35.135  1.00  0.00    -0.334 N 
ATOM      7  H1  UNL     1      64.018 -31.124  35.184  1.00  0.00     0.168 HD
HETATM    8  C6  UNL     1      62.545 -29.990  34.192  1.00  0.00     0.179 A 
HETATM    9  S1  UNL     1      63.399 -29.373  32.944  1.00  0.00    -0.040 SA
HETATM   10  N2  UNL     1      61.219 -29.794  34.480  1.00  0.00    -0.310 N 
ENDROOT
BRANCH  10  11
HETATM   11  C7  UNL     1      60.374 -28.982  33.678  1.00  0.00     0.093 C 
HETATM   12  C8  UNL     1      59.362 -28.172  34.396  1.00  0.00     0.026 C 
HETATM   13  C9  UNL     1      59.275 -26.810  33.730  1.00  0.00     0.004 C 
HETATM   14  C10 UNL     1      58.264 -26.859  32.586  1.00  0.00     0.032 C 
HETATM   15  C11 UNL     1      58.828 -27.789  31.539  1.00  0.00     0.118 C 
HETATM   16  C12 UNL     1      58.566 -29.223  31.942  1.00  0.00     0.034 C 
HETATM   17  C13 UNL     1      59.740 -29.876  32.604  1.00  0.00     0.028 C 
BRANCH  15  18
HETATM   18  O1  UNL     1      58.150 -27.528  30.355  1.00  0.00    -0.396 OA
ATOM     19  H1  UNL     1      57.235 -27.733  30.507  1.00  0.00     0.210 HD
ENDBRANCH  15  18
ENDBRANCH  10  11
TORSDOF 2
ENDMDL
MODEL 3
REMARK VINA RESULT: -6.876727708      1.833      2.707
REMARK  2 active torsions:
REMARK  status: ('A' for Active; 'I' for Inactive)
REMARK    1  A    between atoms: N2_10  and  C7_11 
REMARK    2  A    between atoms: C11_15  and  O1_16 
ROOT
HETATM    1  C1  UNL     1      63.415 -29.013  32.777  1.00  0.00     0.019 C 
HETATM    2  C2  UNL     1      62.575 -29.460  33.524  1.00  0.00    -0.057 C 
HETATM    3  C3  UNL     1      61.602 -29.999  34.424  1.00  0.00     0.113 A 
HETATM    4  C4  UNL     1      61.840 -30.788  35.531  1.00  0.00     0.043 A 
HETATM    5  C5  UNL     1      63.190 -31.215  35.971  1.00  0.00     0.071 C 
HETATM    6  N1  UNL     1      60.635 -31.065  36.087  1.00  0.00    -0.334 N 
ATOM      7  H1  UNL     1      60.480 -31.630  36.922  1.00  0.00     0.168 HD
HETATM    8  C6  UNL     1      59.677 -30.471  35.356  1.00  0.00     0.179 A 
HETATM    9  S1  UNL     1      58.079 -30.552  35.681  1.00  0.00    -0.040 SA
HETATM   10  N2  UNL     1      60.290 -29.810  34.324  1.00  0.00    -0.310 N 
ENDROOT
BRANCH  10  11
HETATM   11  C7  UNL     1      59.567 -29.069  33.352  1.00  0.00     0.093 C 
HETATM   12  C8  UNL     1      60.099 -29.097  31.969  1.00  0.00     0.026 C 
HETATM   13  C9  UNL     1      58.929 -29.192  31.006  1.00  0.00     0.004 C 
HETATM   14  C10 UNL     1      58.427 -27.790  30.666  1.00  0.00     0.032 C 
HETATM   15  C11 UNL     1      57.860 -27.205  31.937  1.00  0.00     0.118 C 
HETATM   16  C12 UNL     1      58.987 -26.682  32.799  1.00  0.00     0.034 C 
HETATM   17  C13 UNL     1      59.401 -27.636  33.877  1.00  0.00     0.028 C 
BRANCH  15  18
HETATM   18  O1  UNL     1      57.050 -26.138  31.570  1.00  0.00    -0.396 OA
ATOM     19  H1  UNL     1      56.243 -26.506  31.227  1.00  0.00     0.210 HD
ENDBRANCH  15  18
ENDBRANCH  10  11
TORSDOF 2
ENDMDL
MODEL 4
REMARK VINA RESULT: -6.080316362      2.808      5.269
REMARK  2 active torsions:
REMARK  status: ('A' for Active; 'I' for Inactive)
REMARK    1  A    between atoms: N2_10  and  C7_11 
REMARK    2  A    between atoms: C11_15  and  O1_16 
ROOT
HETATM    1  C1  UNL     1      57.391 -29.428  34.227  1.00  0.00     0.019 C 
HETATM    2  C2  UNL     1      58.535 -29.454  33.833  1.00  0.00    -0.057 C 
HETATM    3  C3  UNL     1      59.878 -29.470  33.344  1.00  0.00     0.113 A 
HETATM    4  C4  UNL     1      60.328 -28.991  32.130  1.00  0.00     0.043 A 
HETATM    5  C5  UNL     1      59.453 -28.366  31.109  1.00  0.00     0.071 C 
HETATM    6  N1  UNL     1      61.666 -29.209  32.088  1.00  0.00    -0.334 N 
ATOM      7  H1  UNL     1      62.285 -28.963  31.316  1.00  0.00     0.168 HD
HETATM    8  C6  UNL     1      62.040 -29.802  33.233  1.00  0.00     0.179 A 
HETATM    9  S1  UNL     1      63.573 -30.240  33.591  1.00  0.00    -0.040 SA
HETATM   10  N2  UNL     1      60.921 -29.960  34.008  1.00  0.00    -0.310 N 
ENDROOT
BRANCH  10  11
HETATM   11  C7  UNL     1      60.958 -30.557  35.295  1.00  0.00     0.093 C 
HETATM   12  C8  UNL     1      60.260 -29.829  36.382  1.00  0.00     0.026 C 
HETATM   13  C9  UNL     1      59.551 -30.843  37.262  1.00  0.00     0.004 C 
HETATM   14  C10 UNL     1      60.503 -31.334  38.351  1.00  0.00     0.032 C 
HETATM   15  C11 UNL     1      61.607 -32.097  37.661  1.00  0.00     0.118 C 
HETATM   16  C12 UNL     1      62.620 -31.124  37.100  1.00  0.00     0.034 C 
HETATM   17  C13 UNL     1      62.426 -30.842  35.642  1.00  0.00     0.028 C 
BRANCH  15  18
HETATM   18  O1  UNL     1      62.228 -32.878  38.627  1.00  0.00    -0.396 OA
ATOM     19  H1  UNL     1      63.010 -33.244  38.229  1.00  0.00     0.210 HD
ENDBRANCH  15  18
ENDBRANCH  10  11
TORSDOF 2
ENDMDL
MODEL 5
REMARK VINA RESULT: -6.012437470      3.288      5.904
REMARK  2 active torsions:
REMARK  status: ('A' for Active; 'I' for Inactive)
REMARK    1  A    between atoms: N2_10  and  C7_11 
REMARK    2  A    between atoms: C11_15  and  O1_16 
ROOT
HETATM    1  C1  UNL     1      57.547 -25.243  33.896  1.00  0.00     0.019 C 
HETATM    2  C2  UNL     1      57.615 -25.925  32.899  1.00  0.00    -0.057 C 
HETATM    3  C3  UNL     1      57.679 -26.714  31.707  1.00  0.00     0.113 A 
HETATM    4  C4  UNL     1      56.959 -26.525  30.545  1.00  0.00     0.043 A 
HETATM    5  C5  UNL     1      55.970 -25.436  30.349  1.00  0.00     0.071 C 
HETATM    6  N1  UNL     1      57.337 -27.498  29.681  1.00  0.00    -0.334 N 
ATOM      7  H1  UNL     1      56.980 -27.625  28.734  1.00  0.00     0.168 HD
HETATM    8  C6  UNL     1      58.260 -28.269  30.279  1.00  0.00     0.179 A 
HETATM    9  S1  UNL     1      58.980 -29.560  29.584  1.00  0.00    -0.040 SA
HETATM   10  N2  UNL     1      58.466 -27.771  31.539  1.00  0.00    -0.310 N 
ENDROOT
BRANCH  10  11
HETATM   11  C7  UNL     1      59.388 -28.352  32.450  1.00  0.00     0.093 C 
HETATM   12  C8  UNL     1      60.501 -29.130  31.856  1.00  0.00     0.026 C 
HETATM   13  C9  UNL     1      61.766 -28.836  32.644  1.00  0.00     0.004 C 
HETATM   14  C10 UNL     1      61.871 -29.797  33.826  1.00  0.00     0.032 C 
HETATM   15  C11 UNL     1      60.729 -29.475  34.759  1.00  0.00     0.118 C 
HETATM   16  C12 UNL     1      59.460 -30.117  34.244  1.00  0.00     0.034 C 
HETATM   17  C13 UNL     1      58.590 -29.174  33.471  1.00  0.00     0.028 C 
BRANCH  15  18
HETATM   18  O1  UNL     1      61.040 -30.031  35.993  1.00  0.00    -0.396 OA
ATOM     19  H1  UNL     1      60.254 -30.459  36.312  1.00  0.00     0.210 HD
ENDBRANCH  15  18
ENDBRANCH  10  11
TORSDOF 2
ENDMDL
