MODEL 1
REMARK VINA RESULT: -9.561673443      0.000      0.000
REMARK  3 active torsions:
REMARK  status: ('A' for Active; 'I' for Inactive)
REMARK    1  A    between atoms: C11_11  and  O1_12 
REMARK    2  A    between atoms: C11_11  and  O2_14 
REMARK    3  A    between atoms: O2_14  and  O3_15 
ROOT
HETATM    1  C1  UNL     1      58.887 -26.227  33.439  1.00  0.00     0.015 C 
HETATM    2  C2  UNL     1      58.813 -27.410  32.548  1.00  0.00    -0.044 C 
HETATM    3  C3  UNL     1      57.745 -27.194  31.509  1.00  0.00     0.015 C 
HETATM    4  C4  UNL     1      60.157 -27.559  31.744  1.00  0.00     0.013 C 
HETATM    5  C5  UNL     1      60.696 -28.573  32.595  1.00  0.00    -0.013 C 
HETATM    6  C6  UNL     1      61.784 -29.417  32.797  1.00  0.00     0.010 C 
HETATM    7  C7  UNL     1      61.341 -30.207  34.053  1.00  0.00    -0.005 C 
HETATM    8  C8  UNL     1      62.657 -30.339  34.857  1.00  0.00     0.005 C 
HETATM    9  C9  UNL     1      62.485 -31.318  35.980  1.00  0.00     0.006 C 
HETATM   10  C10 UNL     1      61.394 -30.778  36.882  1.00  0.00     0.072 C 
HETATM   11  C11 UNL     1      60.162 -30.601  36.070  1.00  0.00     0.199 C 
HETATM   12  C12 UNL     1      60.368 -29.559  34.942  1.00  0.00     0.055 C 
HETATM   13  C13 UNL     1      59.096 -28.962  34.615  1.00  0.00     0.016 C 
HETATM   14  C14 UNL     1      58.596 -28.722  33.248  1.00  0.00    -0.006 C 
HETATM   15  C15 UNL     1      59.526 -29.545  32.413  1.00  0.00     0.010 C 
ENDROOT
BRANCH  11  16
HETATM   16  O1  UNL     1      59.788 -31.769  35.458  1.00  0.00    -0.363 OA
ATOM     17  H1  UNL     1      60.007 -31.765  34.534  1.00  0.00     0.213 HD
ENDBRANCH  11  16
BRANCH  11  18
HETATM   18  O2  UNL     1      59.173 -30.062  36.890  1.00  0.00    -0.203 OA
BRANCH  18  19
HETATM   19  O3  UNL     1      58.433 -31.077  37.319  1.00  0.00    -0.247 OA
ATOM     20  H3  UNL     1      59.011 -31.658  37.799  1.00  0.00     0.253 HD
ENDBRANCH  18  19
ENDBRANCH  11  18
TORSDOF 3
ENDMDL
MODEL 2
REMARK VINA RESULT: -7.573412246      2.532      3.548
REMARK  3 active torsions:
REMARK  status: ('A' for Active; 'I' for Inactive)
REMARK    1  A    between atoms: C11_11  and  O1_12 
REMARK    2  A    between atoms: C11_11  and  O2_14 
REMARK    3  A    between atoms: O2_14  and  O3_15 
ROOT
HETATM    1  C1  UNL     1      58.526 -29.656  30.727  1.00  0.00     0.015 C 
HETATM    2  C2  UNL     1      58.791 -28.425  31.510  1.00  0.00    -0.044 C 
HETATM    3  C3  UNL     1      58.215 -27.235  30.789  1.00  0.00     0.015 C 
HETATM    4  C4  UNL     1      58.031 -28.491  32.886  1.00  0.00     0.013 C 
HETATM    5  C5  UNL     1      59.179 -28.891  33.638  1.00  0.00    -0.013 C 
HETATM    6  C6  UNL     1      59.641 -29.200  34.914  1.00  0.00     0.010 C 
HETATM    7  C7  UNL     1      61.141 -29.477  34.647  1.00  0.00    -0.005 C 
HETATM    8  C8  UNL     1      61.441 -30.672  35.585  1.00  0.00     0.005 C 
HETATM    9  C9  UNL     1      62.920 -30.906  35.672  1.00  0.00     0.006 C 
HETATM   10  C10 UNL     1      63.405 -31.228  34.273  1.00  0.00     0.072 C 
HETATM   11  C11 UNL     1      63.047 -30.094  33.382  1.00  0.00     0.199 C 
HETATM   12  C12 UNL     1      61.512 -29.903  33.292  1.00  0.00     0.055 C 
HETATM   13  C13 UNL     1      61.188 -29.290  32.027  1.00  0.00     0.016 C 
HETATM   14  C14 UNL     1      60.236 -28.179  31.840  1.00  0.00    -0.006 C 
HETATM   15  C15 UNL     1      60.036 -27.685  33.238  1.00  0.00     0.010 C 
ENDROOT
BRANCH  11  16
HETATM   16  O1  UNL     1      63.561 -28.909  33.841  1.00  0.00    -0.363 OA
ATOM     17  H1  UNL     1      64.296 -28.619  33.314  1.00  0.00     0.213 HD
ENDBRANCH  11  16
BRANCH  11  18
HETATM   18  O2  UNL     1      63.453 -30.411  32.088  1.00  0.00    -0.203 OA
BRANCH  18  19
HETATM   19  O3  UNL     1      64.547 -31.155  32.198  1.00  0.00    -0.247 OA
ATOM     20  H3  UNL     1      65.289 -30.563  32.167  1.00  0.00     0.253 HD
ENDBRANCH  18  19
ENDBRANCH  11  18
TORSDOF 3
ENDMDL
MODEL 3
REMARK VINA RESULT: -6.701984069      3.592      6.331
REMARK  3 active torsions:
REMARK  status: ('A' for Active; 'I' for Inactive)
REMARK    1  A    between atoms: C11_11  and  O1_12 
REMARK    2  A    between atoms: C11_11  and  O2_14 
REMARK    3  A    between atoms: O2_14  and  O3_15 
ROOT
HETATM    1  C1  UNL     1      58.693 -29.414  34.171  1.00  0.00     0.015 C 
HETATM    2  C2  UNL     1      59.641 -28.713  33.273  1.00  0.00    -0.044 C 
HETATM    3  C3  UNL     1      61.027 -28.771  33.858  1.00  0.00     0.015 C 
HETATM    4  C4  UNL     1      59.734 -29.469  31.897  1.00  0.00     0.013 C 
HETATM    5  C5  UNL     1      58.849 -28.580  31.210  1.00  0.00    -0.013 C 
HETATM    6  C6  UNL     1      58.259 -28.300  29.981  1.00  0.00     0.010 C 
HETATM    7  C7  UNL     1      57.455 -27.018  30.303  1.00  0.00    -0.005 C 
HETATM    8  C8  UNL     1      56.148 -27.221  29.497  1.00  0.00     0.005 C 
HETATM    9  C9  UNL     1      55.355 -25.948  29.463  1.00  0.00     0.006 C 
HETATM   10  C10 UNL     1      55.014 -25.594  30.896  1.00  0.00     0.072 C 
HETATM   11  C11 UNL     1      56.282 -25.469  31.660  1.00  0.00     0.199 C 
HETATM   12  C12 UNL     1      57.057 -26.810  31.701  1.00  0.00     0.055 C 
HETATM   13  C13 UNL     1      57.872 -26.846  32.892  1.00  0.00     0.016 C 
HETATM   14  C14 UNL     1      59.277 -27.292  32.947  1.00  0.00    -0.006 C 
HETATM   15  C15 UNL     1      59.666 -27.317  31.502  1.00  0.00     0.010 C 
ENDROOT
BRANCH  11  16
HETATM   16  O1  UNL     1      57.125 -24.549  31.093  1.00  0.00    -0.363 OA
ATOM     17  H1  UNL     1      57.086 -24.577  30.145  1.00  0.00     0.213 HD
ENDBRANCH  11  16
BRANCH  11  18
HETATM   18  O2  UNL     1      55.966 -25.188  32.988  1.00  0.00    -0.203 OA
BRANCH  18  19
HETATM   19  O3  UNL     1      55.173 -24.123  32.978  1.00  0.00    -0.247 OA
ATOM     20  H3  UNL     1      55.395 -23.607  33.744  1.00  0.00     0.253 HD
ENDBRANCH  18  19
ENDBRANCH  11  18
TORSDOF 3
ENDMDL
MODEL 4
REMARK VINA RESULT: -6.500326635      2.377      5.490
REMARK  3 active torsions:
REMARK  status: ('A' for Active; 'I' for Inactive)
REMARK    1  A    between atoms: C11_11  and  O1_12 
REMARK    2  A    between atoms: C11_11  and  O2_14 
REMARK    3  A    between atoms: O2_14  and  O3_15 
ROOT
HETATM    1  C1  UNL     1      62.631 -30.855  38.588  1.00  0.00     0.015 C 
HETATM    2  C2  UNL     1      61.597 -31.693  37.936  1.00  0.00    -0.044 C 
HETATM    3  C3  UNL     1      61.540 -33.039  38.608  1.00  0.00     0.015 C 
HETATM    4  C4  UNL     1      60.175 -31.054  38.153  1.00  0.00     0.013 C 
HETATM    5  C5  UNL     1      60.115 -30.450  36.858  1.00  0.00    -0.013 C 
HETATM    6  C6  UNL     1      59.323 -29.690  36.003  1.00  0.00     0.010 C 
HETATM    7  C7  UNL     1      60.210 -29.616  34.736  1.00  0.00    -0.005 C 
HETATM    8  C8  UNL     1      59.982 -28.166  34.242  1.00  0.00     0.005 C 
HETATM    9  C9  UNL     1      60.545 -27.992  32.863  1.00  0.00     0.006 C 
HETATM   10  C10 UNL     1      62.032 -28.269  32.949  1.00  0.00     0.072 C 
HETATM   11  C11 UNL     1      62.222 -29.641  33.485  1.00  0.00     0.199 C 
HETATM   12  C12 UNL     1      61.658 -29.774  34.922  1.00  0.00     0.055 C 
HETATM   13  C13 UNL     1      62.376 -30.816  35.615  1.00  0.00     0.016 C 
HETATM   14  C14 UNL     1      61.758 -31.863  36.451  1.00  0.00    -0.006 C 
HETATM   15  C15 UNL     1      60.310 -31.758  36.085  1.00  0.00     0.010 C 
ENDROOT
BRANCH  11  16
HETATM   16  O1  UNL     1      61.571 -30.576  32.723  1.00  0.00    -0.363 OA
ATOM     17  H1  UNL     1      61.422 -31.380  33.207  1.00  0.00     0.213 HD
ENDBRANCH  11  16
BRANCH  11  18
HETATM   18  O2  UNL     1      63.590 -29.878  33.606  1.00  0.00    -0.203 OA
BRANCH  18  19
HETATM   19  O3  UNL     1      63.953 -30.589  32.545  1.00  0.00    -0.247 OA
ATOM     20  H3  UNL     1      63.740 -30.069  31.778  1.00  0.00     0.253 HD
ENDBRANCH  18  19
ENDBRANCH  11  18
TORSDOF 3
ENDMDL
MODEL 5
REMARK VINA RESULT: -6.454151240      2.563      4.943
REMARK  3 active torsions:
REMARK  status: ('A' for Active; 'I' for Inactive)
REMARK    1  A    between atoms: C11_11  and  O1_12 
REMARK    2  A    between atoms: C11_11  and  O2_14 
REMARK    3  A    between atoms: O2_14  and  O3_15 
ROOT
HETATM    1  C1  UNL     1      58.737 -31.147  35.937  1.00  0.00     0.015 C 
HETATM    2  C2  UNL     1      59.878 -30.205  36.017  1.00  0.00    -0.044 C 
HETATM    3  C3  UNL     1      60.337 -30.087  37.446  1.00  0.00     0.015 C 
HETATM    4  C4  UNL     1      61.108 -30.786  35.227  1.00  0.00     0.013 C 
HETATM    5  C5  UNL     1      60.887 -29.993  34.058  1.00  0.00    -0.013 C 
HETATM    6  C6  UNL     1      61.374 -29.691  32.790  1.00  0.00     0.010 C 
HETATM    7  C7  UNL     1      60.376 -28.605  32.320  1.00  0.00    -0.005 C 
HETATM    8  C8  UNL     1      60.182 -28.942  30.821  1.00  0.00     0.005 C 
HETATM    9  C9  UNL     1      59.460 -27.826  30.127  1.00  0.00     0.006 C 
HETATM   10  C10 UNL     1      58.106 -27.687  30.791  1.00  0.00     0.072 C 
HETATM   11  C11 UNL     1      58.320 -27.429  32.239  1.00  0.00     0.199 C 
HETATM   12  C12 UNL     1      59.040 -28.615  32.929  1.00  0.00     0.055 C 
HETATM   13  C13 UNL     1      58.678 -28.636  34.325  1.00  0.00     0.016 C 
HETATM   14  C14 UNL     1      59.618 -28.840  35.444  1.00  0.00    -0.006 C 
HETATM   15  C15 UNL     1      60.950 -28.647  34.788  1.00  0.00     0.010 C 
ENDROOT
BRANCH  11  16
HETATM   16  O1  UNL     1      59.106 -26.324  32.444  1.00  0.00    -0.363 OA
ATOM     17  H1  UNL     1      59.074 -26.035  33.348  1.00  0.00     0.213 HD
ENDBRANCH  11  16
BRANCH  11  18
HETATM   18  O2  UNL     1      57.075 -27.346  32.857  1.00  0.00    -0.203 OA
BRANCH  18  19
HETATM   19  O3  UNL     1      56.647 -26.100  32.697  1.00  0.00    -0.247 OA
ATOM     20  H3  UNL     1      55.699 -26.122  32.762  1.00  0.00     0.253 HD
ENDBRANCH  18  19
ENDBRANCH  11  18
TORSDOF 3
ENDMDL
