MODEL 1
REMARK VINA RESULT: -9.337885770      0.000      0.000
REMARK  1 active torsions:
REMARK  status: ('A' for Active; 'I' for Inactive)
REMARK    1  A    between atoms: C4_4  and  C5_5 
ROOT
HETATM    1  C5  UNL     1      60.976 -28.939  33.937  1.00  0.00     0.028 C 
HETATM    2  C6  UNL     1      61.667 -29.693  32.798  1.00  0.00     0.011 C 
HETATM    3  C7  UNL     1      60.995 -29.265  31.532  1.00  0.00     0.014 C 
HETATM    4  C8  UNL     1      60.062 -28.188  31.913  1.00  0.00     0.066 C 
HETATM    5  C9  UNL     1      58.838 -28.093  31.123  1.00  0.00     0.085 C 
HETATM    6  S1  UNL     1      58.623 -29.082  29.827  1.00  0.00    -0.065 SA
HETATM    7  N1  UNL     1      57.858 -27.131  31.508  1.00  0.00    -0.331 N 
ATOM      8  H1  UNL     1      57.053 -26.984  30.900  1.00  0.00     0.168 HD
HETATM    9  C10 UNL     1      57.956 -26.366  32.705  1.00  0.00     0.139 C 
HETATM   10  N2  UNL     1      57.306 -25.279  32.804  1.00  0.00    -0.380 N 
ATOM     11  H21 UNL     1      57.376 -24.731  33.661  1.00  0.00     0.158 HD
ATOM     12  H22 UNL     1      56.711 -24.924  32.055  1.00  0.00     0.158 HD
HETATM   13  S2  UNL     1      59.012 -26.996  34.034  1.00  0.00    -0.083 SA
HETATM   14  C11 UNL     1      59.693 -28.528  33.337  1.00  0.00     0.029 C 
HETATM   15  C12 UNL     1      58.644 -29.595  33.433  1.00  0.00     0.029 C 
ENDROOT
BRANCH   1  16
HETATM   16  C4  UNL     1      60.797 -29.955  35.041  1.00  0.00    -0.019 C 
HETATM   17  C2  UNL     1      61.798 -30.724  35.431  1.00  0.00    -0.091 C 
HETATM   18  C1  UNL     1      63.119 -30.576  34.765  1.00  0.00     0.042 C 
HETATM   19  C3  UNL     1      61.578 -31.708  36.518  1.00  0.00     0.042 C 
ENDBRANCH   1  16
TORSDOF 1
ENDMDL
MODEL 2
REMARK VINA RESULT: -8.145579288      2.945      5.252
REMARK  1 active torsions:
REMARK  status: ('A' for Active; 'I' for Inactive)
REMARK    1  A    between atoms: C4_4  and  C5_5 
ROOT
HETATM    1  C5  UNL     1      58.606 -28.316  32.684  1.00  0.00     0.028 C 
HETATM    2  C6  UNL     1      59.418 -28.279  31.388  1.00  0.00     0.011 C 
HETATM    3  C7  UNL     1      60.668 -29.061  31.645  1.00  0.00     0.014 C 
HETATM    4  C8  UNL     1      60.504 -29.658  32.983  1.00  0.00     0.066 C 
HETATM    5  C9  UNL     1      61.728 -29.832  33.760  1.00  0.00     0.085 C 
HETATM    6  S1  UNL     1      63.183 -29.472  33.084  1.00  0.00    -0.065 SA
HETATM    7  N1  UNL     1      61.617 -30.317  35.096  1.00  0.00    -0.331 N 
ATOM      8  H1  UNL     1      62.470 -30.544  35.606  1.00  0.00     0.168 HD
HETATM    9  C10 UNL     1      60.365 -30.499  35.750  1.00  0.00     0.139 C 
HETATM   10  N2  UNL     1      60.291 -31.283  36.747  1.00  0.00    -0.380 N 
ATOM     11  H21 UNL     1      59.395 -31.413  37.216  1.00  0.00     0.158 HD
ATOM     12  H22 UNL     1      61.098 -31.796  37.104  1.00  0.00     0.158 HD
HETATM   13  S2  UNL     1      58.934 -29.589  35.116  1.00  0.00    -0.083 SA
HETATM   14  C11 UNL     1      59.612 -28.675  33.702  1.00  0.00     0.029 C 
HETATM   15  C12 UNL     1      60.354 -27.482  34.224  1.00  0.00     0.029 C 
ENDROOT
BRANCH   1  16
HETATM   16  C4  UNL     1      58.077 -26.912  32.868  1.00  0.00    -0.019 C 
HETATM   17  C2  UNL     1      57.370 -26.320  31.922  1.00  0.00    -0.091 C 
HETATM   18  C1  UNL     1      57.094 -27.058  30.662  1.00  0.00     0.042 C 
HETATM   19  C3  UNL     1      56.870 -24.941  32.144  1.00  0.00     0.042 C 
ENDBRANCH   1  16
TORSDOF 1
ENDMDL
MODEL 3
REMARK VINA RESULT: -7.099244905      1.293      2.896
REMARK  1 active torsions:
REMARK  status: ('A' for Active; 'I' for Inactive)
REMARK    1  A    between atoms: C4_4  and  C5_5 
ROOT
HETATM    1  C5  UNL     1      60.445 -29.707  33.647  1.00  0.00     0.028 C 
HETATM    2  C6  UNL     1      60.031 -29.018  34.949  1.00  0.00     0.011 C 
HETATM    3  C7  UNL     1      58.966 -28.030  34.589  1.00  0.00     0.014 C 
HETATM    4  C8  UNL     1      58.668 -28.257  33.162  1.00  0.00     0.066 C 
HETATM    5  C9  UNL     1      58.268 -27.080  32.397  1.00  0.00     0.085 C 
HETATM    6  S1  UNL     1      58.068 -25.638  33.162  1.00  0.00    -0.065 SA
HETATM    7  N1  UNL     1      58.060 -27.225  30.994  1.00  0.00    -0.331 N 
ATOM      8  H1  UNL     1      57.676 -26.436  30.474  1.00  0.00     0.168 HD
HETATM    9  C10 UNL     1      58.364 -28.423  30.288  1.00  0.00     0.139 C 
HETATM   10  N2  UNL     1      57.808 -28.643  29.167  1.00  0.00    -0.380 N 
ATOM     11  H21 UNL     1      58.027 -29.501  28.661  1.00  0.00     0.158 HD
ATOM     12  H22 UNL     1      57.145 -27.993  28.745  1.00  0.00     0.158 HD
HETATM   13  S2  UNL     1      59.542 -29.576  31.037  1.00  0.00    -0.083 SA
HETATM   14  C11 UNL     1      59.973 -28.773  32.607  1.00  0.00     0.029 C 
HETATM   15  C12 UNL     1      60.962 -27.683  32.321  1.00  0.00     0.029 C 
ENDROOT
BRANCH   1  16
HETATM   16  C4  UNL     1      61.952 -29.796  33.701  1.00  0.00    -0.019 C 
HETATM   17  C2  UNL     1      62.560 -30.573  34.580  1.00  0.00    -0.091 C 
HETATM   18  C1  UNL     1      61.734 -31.371  35.525  1.00  0.00     0.042 C 
HETATM   19  C3  UNL     1      64.042 -30.631  34.598  1.00  0.00     0.042 C 
ENDBRANCH   1  16
TORSDOF 1
ENDMDL
MODEL 4
REMARK VINA RESULT: -6.979382358      1.035      1.420
REMARK  1 active torsions:
REMARK  status: ('A' for Active; 'I' for Inactive)
REMARK    1  A    between atoms: C4_4  and  C5_5 
ROOT
HETATM    1  C5  UNL     1      60.571 -29.032  33.956  1.00  0.00     0.028 C 
HETATM    2  C6  UNL     1      61.481 -29.652  32.893  1.00  0.00     0.011 C 
HETATM    3  C7  UNL     1      61.016 -29.124  31.572  1.00  0.00     0.014 C 
HETATM    4  C8  UNL     1      59.983 -28.117  31.880  1.00  0.00     0.066 C 
HETATM    5  C9  UNL     1      58.909 -27.983  30.900  1.00  0.00     0.085 C 
HETATM    6  S1  UNL     1      58.965 -28.848  29.503  1.00  0.00    -0.065 SA
HETATM    7  N1  UNL     1      57.835 -27.092  31.193  1.00  0.00    -0.331 N 
ATOM      8  H1  UNL     1      57.140 -26.911  30.469  1.00  0.00     0.168 HD
HETATM    9  C10 UNL     1      57.691 -26.443  32.452  1.00  0.00     0.139 C 
HETATM   10  N2  UNL     1      56.985 -25.391  32.533  1.00  0.00    -0.380 N 
ATOM     11  H21 UNL     1      56.881 -24.927  33.435  1.00  0.00     0.158 HD
ATOM     12  H22 UNL     1      56.511 -24.983  31.727  1.00  0.00     0.158 HD
HETATM   13  S2  UNL     1      58.532 -27.168  33.882  1.00  0.00    -0.083 SA
HETATM   14  C11 UNL     1      59.391 -28.604  33.180  1.00  0.00     0.029 C 
HETATM   15  C12 UNL     1      58.392 -29.706  32.995  1.00  0.00     0.029 C 
ENDROOT
BRANCH   1  16
HETATM   16  C4  UNL     1      60.252 -30.155  34.916  1.00  0.00    -0.019 C 
HETATM   17  C2  UNL     1      59.793 -29.907  36.129  1.00  0.00    -0.091 C 
HETATM   18  C1  UNL     1      59.590 -28.494  36.545  1.00  0.00     0.042 C 
HETATM   19  C3  UNL     1      59.493 -31.039  37.040  1.00  0.00     0.042 C 
ENDBRANCH   1  16
TORSDOF 1
ENDMDL
MODEL 5
REMARK VINA RESULT: -6.652206811      2.907      5.572
REMARK  1 active torsions:
REMARK  status: ('A' for Active; 'I' for Inactive)
REMARK    1  A    between atoms: C4_4  and  C5_5 
ROOT
HETATM    1  C5  UNL     1      59.261 -27.196  32.820  1.00  0.00     0.028 C 
HETATM    2  C6  UNL     1      58.427 -27.100  34.099  1.00  0.00     0.011 C 
HETATM    3  C7  UNL     1      59.093 -27.978  35.111  1.00  0.00     0.014 C 
HETATM    4  C8  UNL     1      60.349 -28.434  34.486  1.00  0.00     0.066 C 
HETATM    5  C9  UNL     1      60.808 -29.766  34.871  1.00  0.00     0.085 C 
HETATM    6  S1  UNL     1      59.991 -30.610  36.022  1.00  0.00    -0.065 SA
HETATM    7  N1  UNL     1      61.965 -30.294  34.227  1.00  0.00    -0.331 N 
ATOM      8  H1  UNL     1      62.353 -31.174  34.566  1.00  0.00     0.168 HD
HETATM    9  C10 UNL     1      62.601 -29.647  33.131  1.00  0.00     0.139 C 
HETATM   10  N2  UNL     1      63.811 -29.924  32.861  1.00  0.00    -0.380 N 
ATOM     11  H21 UNL     1      64.267 -29.460  32.075  1.00  0.00     0.158 HD
ATOM     12  H22 UNL     1      64.355 -30.597  33.402  1.00  0.00     0.158 HD
HETATM   13  S2  UNL     1      61.637 -28.452  32.171  1.00  0.00    -0.083 SA
HETATM   14  C11 UNL     1      60.028 -28.442  33.012  1.00  0.00     0.029 C 
HETATM   15  C12 UNL     1      59.265 -29.659  32.583  1.00  0.00     0.029 C 
ENDROOT
BRANCH   1  16
HETATM   16  C4  UNL     1      58.259 -27.304  31.694  1.00  0.00    -0.019 C 
HETATM   17  C2  UNL     1      57.310 -26.399  31.535  1.00  0.00    -0.091 C 
HETATM   18  C1  UNL     1      57.239 -25.258  32.486  1.00  0.00     0.042 C 
HETATM   19  C3  UNL     1      56.347 -26.543  30.416  1.00  0.00     0.042 C 
ENDBRANCH   1  16
TORSDOF 1
ENDMDL
