MODEL 1
REMARK VINA RESULT: -7.983775920      0.000      0.000
REMARK  1 active torsions:
REMARK  status: ('A' for Active; 'I' for Inactive)
REMARK       I    between atoms: C2_2  and  N1_4 
REMARK    1  A    between atoms: N1_4  and  N2_6 
ROOT
HETATM    1  N2  UNL     1      58.004 -27.676  33.457  1.00  0.00    -0.306 N 
ATOM      2  H2  UNL     1      57.150 -27.868  33.981  1.00  0.00     0.186 HD
HETATM    3  C3  UNL     1      58.872 -28.615  33.294  1.00  0.00     0.004 C 
HETATM    4  C4  UNL     1      60.123 -28.411  32.552  1.00  0.00     0.054 C 
HETATM    5  C5  UNL     1      61.376 -28.633  33.396  1.00  0.00     0.006 C 
HETATM    6  C6  UNL     1      62.291 -29.509  32.623  1.00  0.00     0.000 C 
HETATM    7  C7  UNL     1      63.395 -30.173  33.347  1.00  0.00     0.000 C 
HETATM    8  C8  UNL     1      63.214 -30.391  34.812  1.00  0.00     0.000 C 
HETATM    9  C9  UNL     1      62.204 -31.480  35.118  1.00  0.00     0.006 C 
HETATM   10  C10 UNL     1      61.743 -31.490  36.533  1.00  0.00     0.052 C 
HETATM   11  C11 UNL     1      60.452 -30.851  36.801  1.00  0.00    -0.020 C 
HETATM   12  N3  UNL     1      60.339 -30.036  37.777  1.00  0.00    -0.406 N 
ATOM     13  H31 UNL     1      59.441 -29.592  37.964  1.00  0.00     0.155 HD
ATOM     14  H32 UNL     1      61.162 -29.850  38.349  1.00  0.00     0.155 HD
HETATM   15  C12 UNL     1      59.267 -31.120  35.975  1.00  0.00     0.052 C 
HETATM   16  C13 UNL     1      58.612 -29.895  35.428  1.00  0.00     0.011 C 
HETATM   17  C14 UNL     1      58.489 -29.923  33.914  1.00  0.00     0.054 C 
ENDROOT
BRANCH   1  18
HETATM   18  N1  UNL     1      58.208 -26.417  32.937  1.00  0.00    -0.271 N 
HETATM   19  C2  UNL     1      57.153 -25.509  32.627  1.00  0.00     0.232 C 
HETATM   20  C1  UNL     1      57.440 -24.165  32.069  1.00  0.00     0.119 C 
HETATM   21  O1  UNL     1      55.958 -25.829  32.819  1.00  0.00    -0.272 OA
ATOM     22  H1  UNL     1      59.168 -26.117  32.765  1.00  0.00     0.190 HD
ENDBRANCH   1  18
TORSDOF 1
ENDMDL
MODEL 2
REMARK VINA RESULT: -6.336316230      7.322     10.135
REMARK  1 active torsions:
REMARK  status: ('A' for Active; 'I' for Inactive)
REMARK       I    between atoms: C2_2  and  N1_4 
REMARK    1  A    between atoms: N1_4  and  N2_6 
ROOT
HETATM    1  N2  UNL     1      63.249 -33.186  39.612  1.00  0.00    -0.306 N 
ATOM      2  H2  UNL     1      63.374 -34.060  39.101  1.00  0.00     0.186 HD
HETATM    3  C3  UNL     1      64.188 -32.767  40.390  1.00  0.00     0.004 C 
HETATM    4  C4  UNL     1      64.078 -31.519  41.156  1.00  0.00     0.054 C 
HETATM    5  C5  UNL     1      64.149 -31.723  42.668  1.00  0.00     0.006 C 
HETATM    6  C6  UNL     1      65.118 -30.737  43.209  1.00  0.00     0.000 C 
HETATM    7  C7  UNL     1      65.646 -30.959  44.572  1.00  0.00     0.000 C 
HETATM    8  C8  UNL     1      65.643 -32.360  45.083  1.00  0.00     0.000 C 
HETATM    9  C9  UNL     1      66.690 -33.228  44.411  1.00  0.00     0.006 C 
HETATM   10  C10 UNL     1      66.493 -34.686  44.633  1.00  0.00     0.052 C 
HETATM   11  C11 UNL     1      65.842 -35.427  43.550  1.00  0.00    -0.020 C 
HETATM   12  N3  UNL     1      64.891 -36.235  43.818  1.00  0.00    -0.406 N 
ATOM     13  H31 UNL     1      64.438 -36.752  43.064  1.00  0.00     0.155 HD
ATOM     14  H32 UNL     1      64.607 -36.342  44.792  1.00  0.00     0.155 HD
HETATM   15  C12 UNL     1      66.252 -35.272  42.147  1.00  0.00     0.052 C 
HETATM   16  C13 UNL     1      65.135 -34.931  41.219  1.00  0.00     0.011 C 
HETATM   17  C14 UNL     1      65.394 -33.655  40.434  1.00  0.00     0.054 C 
ENDROOT
BRANCH   1  18
HETATM   18  N1  UNL     1      62.080 -32.474  39.457  1.00  0.00    -0.271 N 
HETATM   19  C2  UNL     1      61.751 -31.741  38.278  1.00  0.00     0.232 C 
HETATM   20  C1  UNL     1      60.473 -30.995  38.174  1.00  0.00     0.119 C 
HETATM   21  O1  UNL     1      62.536 -31.712  37.304  1.00  0.00    -0.272 OA
ATOM     22  H1  UNL     1      61.412 -32.472  40.228  1.00  0.00     0.190 HD
ENDBRANCH   1  18
TORSDOF 1
ENDMDL
MODEL 3
REMARK VINA RESULT: -5.749133987      7.418     10.117
REMARK  1 active torsions:
REMARK  status: ('A' for Active; 'I' for Inactive)
REMARK       I    between atoms: C2_2  and  N1_4 
REMARK    1  A    between atoms: N1_4  and  N2_6 
ROOT
HETATM    1  N2  UNL     1      62.833 -32.794  40.518  1.00  0.00    -0.306 N 
ATOM      2  H2  UNL     1      62.095 -32.465  41.141  1.00  0.00     0.186 HD
HETATM    3  C3  UNL     1      63.738 -33.592  40.975  1.00  0.00     0.004 C 
HETATM    4  C4  UNL     1      64.829 -34.106  40.137  1.00  0.00     0.054 C 
HETATM    5  C5  UNL     1      66.217 -33.703  40.630  1.00  0.00     0.006 C 
HETATM    6  C6  UNL     1      67.062 -34.923  40.642  1.00  0.00     0.000 C 
HETATM    7  C7  UNL     1      68.321 -34.888  41.416  1.00  0.00     0.000 C 
HETATM    8  C8  UNL     1      68.400 -33.915  42.543  1.00  0.00     0.000 C 
HETATM    9  C9  UNL     1      67.547 -34.324  43.728  1.00  0.00     0.006 C 
HETATM   10  C10 UNL     1      67.326 -33.232  44.714  1.00  0.00     0.052 C 
HETATM   11  C11 UNL     1      66.048 -32.522  44.623  1.00  0.00    -0.020 C 
HETATM   12  N3  UNL     1      66.029 -31.246  44.650  1.00  0.00    -0.406 N 
ATOM     13  H31 UNL     1      65.140 -30.751  44.587  1.00  0.00     0.155 HD
ATOM     14  H32 UNL     1      66.917 -30.751  44.736  1.00  0.00     0.155 HD
HETATM   15  C12 UNL     1      64.770 -33.237  44.500  1.00  0.00     0.052 C 
HETATM   16  C13 UNL     1      63.936 -32.802  43.341  1.00  0.00     0.011 C 
HETATM   17  C14 UNL     1      63.570 -33.953  42.418  1.00  0.00     0.054 C 
ENDROOT
BRANCH   1  18
HETATM   18  N1  UNL     1      62.845 -32.378  39.206  1.00  0.00    -0.271 N 
HETATM   19  C2  UNL     1      61.703 -31.850  38.533  1.00  0.00     0.232 C 
HETATM   20  C1  UNL     1      61.782 -31.417  37.117  1.00  0.00     0.119 C 
HETATM   21  O1  UNL     1      60.606 -31.741  39.127  1.00  0.00    -0.272 OA
ATOM     22  H1  UNL     1      63.719 -32.450  38.686  1.00  0.00     0.190 HD
ENDBRANCH   1  18
TORSDOF 1
ENDMDL
MODEL 4
REMARK VINA RESULT: -5.485594306      7.959     11.045
REMARK  1 active torsions:
REMARK  status: ('A' for Active; 'I' for Inactive)
REMARK       I    between atoms: C2_2  and  N1_4 
REMARK    1  A    between atoms: N1_4  and  N2_6 
ROOT
HETATM    1  N2  UNL     1      64.749 -31.251  40.852  1.00  0.00    -0.306 N 
ATOM      2  H2  UNL     1      65.589 -30.820  40.465  1.00  0.00     0.186 HD
HETATM    3  C3  UNL     1      64.844 -31.990  41.905  1.00  0.00     0.004 C 
HETATM    4  C4  UNL     1      63.680 -32.643  42.516  1.00  0.00     0.054 C 
HETATM    5  C5  UNL     1      63.776 -34.166  42.538  1.00  0.00     0.006 C 
HETATM    6  C6  UNL     1      63.428 -34.620  43.908  1.00  0.00     0.000 C 
HETATM    7  C7  UNL     1      63.797 -35.997  44.299  1.00  0.00     0.000 C 
HETATM    8  C8  UNL     1      64.934 -36.629  43.571  1.00  0.00     0.000 C 
HETATM    9  C9  UNL     1      66.275 -36.036  43.957  1.00  0.00     0.006 C 
HETATM   10  C10 UNL     1      67.378 -36.386  43.022  1.00  0.00     0.052 C 
HETATM   11  C11 UNL     1      67.732 -35.372  42.025  1.00  0.00    -0.020 C 
HETATM   12  N3  UNL     1      67.880 -35.710  40.803  1.00  0.00    -0.406 N 
ATOM     13  H31 UNL     1      68.127 -35.005  40.109  1.00  0.00     0.155 HD
ATOM     14  H32 UNL     1      67.745 -36.690  40.552  1.00  0.00     0.155 HD
HETATM   15  C12 UNL     1      67.926 -33.962  42.388  1.00  0.00     0.052 C 
HETATM   16  C13 UNL     1      67.109 -33.006  41.584  1.00  0.00     0.011 C 
HETATM   17  C14 UNL     1      66.234 -32.112  42.449  1.00  0.00     0.054 C 
ENDROOT
BRANCH   1  18
HETATM   18  N1  UNL     1      63.535 -31.034  40.239  1.00  0.00    -0.271 N 
HETATM   19  C2  UNL     1      62.902 -31.981  39.380  1.00  0.00     0.232 C 
HETATM   20  C1  UNL     1      61.592 -31.686  38.751  1.00  0.00     0.119 C 
HETATM   21  O1  UNL     1      63.442 -33.085  39.139  1.00  0.00    -0.272 OA
ATOM     22  H1  UNL     1      63.062 -30.147  40.410  1.00  0.00     0.190 HD
ENDBRANCH   1  18
TORSDOF 1
ENDMDL
MODEL 5
REMARK VINA RESULT: -5.468644315      3.481      6.491
REMARK  1 active torsions:
REMARK  status: ('A' for Active; 'I' for Inactive)
REMARK       I    between atoms: C2_2  and  N1_4 
REMARK    1  A    between atoms: N1_4  and  N2_6 
ROOT
HETATM    1  N2  UNL     1      60.839 -31.472  38.297  1.00  0.00    -0.306 N 
ATOM      2  H2  UNL     1      59.960 -31.232  38.756  1.00  0.00     0.186 HD
HETATM    3  C3  UNL     1      61.318 -30.684  37.396  1.00  0.00     0.004 C 
HETATM    4  C4  UNL     1      62.577 -30.963  36.694  1.00  0.00     0.054 C 
HETATM    5  C5  UNL     1      62.412 -31.121  35.185  1.00  0.00     0.006 C 
HETATM    6  C6  UNL     1      63.453 -30.291  34.529  1.00  0.00     0.000 C 
HETATM    7  C7  UNL     1      63.287 -29.972  33.095  1.00  0.00     0.000 C 
HETATM    8  C8  UNL     1      61.900 -29.997  32.549  1.00  0.00     0.000 C 
HETATM    9  C9  UNL     1      61.065 -28.823  33.025  1.00  0.00     0.006 C 
HETATM   10  C10 UNL     1      59.606 -28.991  32.792  1.00  0.00     0.052 C 
HETATM   11  C11 UNL     1      58.810 -29.434  33.940  1.00  0.00    -0.020 C 
HETATM   12  N3  UNL     1      57.966 -30.381  33.798  1.00  0.00    -0.406 N 
ATOM     13  H31 UNL     1      57.412 -30.689  34.597  1.00  0.00     0.155 HD
ATOM     14  H32 UNL     1      57.868 -30.809  32.878  1.00  0.00     0.155 HD
HETATM   15  C12 UNL     1      58.952 -28.817  35.266  1.00  0.00     0.052 C 
HETATM   16  C13 UNL     1      59.220 -29.789  36.367  1.00  0.00     0.011 C 
HETATM   17  C14 UNL     1      60.488 -29.464  37.139  1.00  0.00     0.054 C 
ENDROOT
BRANCH   1  18
HETATM   18  N1  UNL     1      61.492 -32.631  38.653  1.00  0.00    -0.271 N 
HETATM   19  C2  UNL     1      62.579 -32.674  39.576  1.00  0.00     0.232 C 
HETATM   20  C1  UNL     1      63.241 -33.957  39.918  1.00  0.00     0.119 C 
HETATM   21  O1  UNL     1      62.998 -31.627  40.119  1.00  0.00    -0.272 OA
ATOM     22  H1  UNL     1      61.182 -33.507  38.232  1.00  0.00     0.190 HD
ENDBRANCH   1  18
TORSDOF 1
ENDMDL
