MODEL 1
REMARK VINA RESULT: -7.650185485      0.000      0.000
REMARK  12 active torsions:
REMARK  status: ('A' for Active; 'I' for Inactive)
REMARK    1  A    between atoms: C3_3  and  O1_5 
REMARK    2  A    between atoms: C6_9  and  C7_10 
REMARK    3  A    between atoms: C7_10  and  O4_12 
REMARK    4  A    between atoms: C9_14  and  O5_15 
REMARK    5  A    between atoms: C9_14  and  C10_17 
REMARK    6  A    between atoms: C10_17  and  O6_18 
REMARK    7  A    between atoms: C10_17  and  C11_20 
REMARK    8  A    between atoms: C11_20  and  O7_21 
REMARK    9  A    between atoms: C11_20  and  N1_23 
REMARK   10  A    between atoms: N1_23  and  S1_25 
REMARK   11  A    between atoms: S1_25  and  O9_27 
REMARK   12  A    between atoms: S1_25  and  O10_29 
ROOT
HETATM    1  C1  UNL     1      16.819  39.805 201.873  1.00  0.00     0.023 C 
HETATM    2  C2  UNL     1      15.617  39.988 201.478  1.00  0.00     0.013 C 
HETATM    3  C3  UNL     1      14.603  40.671 202.368  1.00  0.00     0.190 C 
HETATM    4  C4  UNL     1      14.512  42.136 202.129  1.00  0.00     0.085 C 
HETATM    5  O2  UNL     1      13.320  40.028 202.084  1.00  0.00    -0.322 OA
HETATM    6  C5  UNL     1      13.337  38.736 201.546  1.00  0.00     0.155 C 
HETATM    7  C6  UNL     1      14.210  38.385 200.566  1.00  0.00     0.080 C 
HETATM    8  C9  UNL     1      15.076  39.526 200.187  1.00  0.00     0.150 C 
ENDROOT
BRANCH   8   9
HETATM    9  O5  UNL     1      14.089  40.504 199.766  1.00  0.00    -0.377 OA
ATOM     10  H5  UNL     1      13.338  40.019 199.443  1.00  0.00     0.211 HD
ENDBRANCH   8   9
BRANCH   8  11
HETATM   11  C10 UNL     1      15.991  39.401 199.065  1.00  0.00     0.211 C 
BRANCH  11  12
HETATM   12  O6  UNL     1      16.259  40.631 198.414  1.00  0.00    -0.387 OA
ATOM     13  H6  UNL     1      17.183  40.782 198.252  1.00  0.00     0.210 HD
ENDBRANCH  11  12
BRANCH  11  14
HETATM   14  C11 UNL     1      17.391  38.935 199.455  1.00  0.00     0.261 C 
BRANCH  14  15
HETATM   15  O7  UNL     1      17.537  37.589 199.660  1.00  0.00    -0.373 OA
ATOM     16  H7  UNL     1      17.710  37.067 198.885  1.00  0.00     0.212 HD
ENDBRANCH  14  15
BRANCH  14  17
HETATM   17  N1  UNL     1      18.345  39.383 198.503  1.00  0.00    -0.279 N 
ATOM     18  H1  UNL     1      18.821  40.277 198.623  1.00  0.00     0.176 HD
BRANCH  17  19
HETATM   19  S1  UNL     1      18.707  38.309 197.042  1.00  0.00     0.274 S 
HETATM   20  O8  UNL     1      17.502  38.763 195.524  1.00  0.00    -0.191 OA
BRANCH  19  21
HETATM   21  O9  UNL     1      20.134  37.490 196.686  1.00  0.00    -0.276 OA
HETATM   22  C12 UNL     1      20.916  37.738 195.589  1.00  0.00     0.226 C 
ENDBRANCH  19  21
BRANCH  19  23
HETATM   23  O10 UNL     1      19.533  39.824 196.270  1.00  0.00    -0.276 OA
HETATM   24  C13 UNL     1      19.710  40.837 197.175  1.00  0.00     0.226 C 
ENDBRANCH  19  23
ENDBRANCH  17  19
ENDBRANCH  14  17
ENDBRANCH  11  14
ENDBRANCH   8  11
BRANCH   7  25
HETATM   25  C7  UNL     1      14.142  37.055 200.100  1.00  0.00     0.294 C 
HETATM   26  O3  UNL     1      14.870  36.091 200.446  1.00  0.00    -0.259 OA
BRANCH  25  27
HETATM   27  O4  UNL     1      13.170  36.685 199.130  1.00  0.00    -0.323 OA
HETATM   28  C8  UNL     1      12.975  37.420 197.958  1.00  0.00     0.213 C 
ENDBRANCH  25  27
ENDBRANCH   7  25
BRANCH   3  29
HETATM   29  O1  UNL     1      14.835  40.438 203.713  1.00  0.00    -0.362 OA
ATOM     30  H1  UNL     1      14.096  40.024 204.144  1.00  0.00     0.213 HD
ENDBRANCH   3  29
TORSDOF 12
ENDMDL
MODEL 2
REMARK VINA RESULT: -7.482977628      1.176      3.501
REMARK  12 active torsions:
REMARK  status: ('A' for Active; 'I' for Inactive)
REMARK    1  A    between atoms: C3_3  and  O1_5 
REMARK    2  A    between atoms: C6_9  and  C7_10 
REMARK    3  A    between atoms: C7_10  and  O4_12 
REMARK    4  A    between atoms: C9_14  and  O5_15 
REMARK    5  A    between atoms: C9_14  and  C10_17 
REMARK    6  A    between atoms: C10_17  and  O6_18 
REMARK    7  A    between atoms: C10_17  and  C11_20 
REMARK    8  A    between atoms: C11_20  and  O7_21 
REMARK    9  A    between atoms: C11_20  and  N1_23 
REMARK   10  A    between atoms: N1_23  and  S1_25 
REMARK   11  A    between atoms: S1_25  and  O9_27 
REMARK   12  A    between atoms: S1_25  and  O10_29 
ROOT
HETATM    1  C1  UNL     1      13.315  38.168 197.842  1.00  0.00     0.023 C 
HETATM    2  C2  UNL     1      13.735  37.914 199.023  1.00  0.00     0.013 C 
HETATM    3  C3  UNL     1      12.920  37.062 199.969  1.00  0.00     0.190 C 
HETATM    4  C4  UNL     1      13.293  35.624 199.928  1.00  0.00     0.085 C 
HETATM    5  O2  UNL     1      13.153  37.611 201.306  1.00  0.00    -0.322 OA
HETATM    6  C5  UNL     1      13.569  38.943 201.406  1.00  0.00     0.155 C 
HETATM    7  C6  UNL     1      14.507  39.461 200.570  1.00  0.00     0.080 C 
HETATM    8  C9  UNL     1      14.982  38.443 199.604  1.00  0.00     0.150 C 
ENDROOT
BRANCH   8   9
HETATM    9  O5  UNL     1      15.499  37.422 200.499  1.00  0.00    -0.377 OA
ATOM     10  H5  UNL     1      16.418  37.619 200.642  1.00  0.00     0.211 HD
ENDBRANCH   8   9
BRANCH   8  11
HETATM   11  C10 UNL     1      16.081  38.753 198.705  1.00  0.00     0.211 C 
BRANCH  11  12
HETATM   12  O6  UNL     1      15.989  40.040 198.121  1.00  0.00    -0.387 OA
ATOM     13  H6  UNL     1      16.742  40.272 197.590  1.00  0.00     0.210 HD
ENDBRANCH  11  12
BRANCH  11  14
HETATM   14  C11 UNL     1      17.444  38.809 199.389  1.00  0.00     0.261 C 
BRANCH  14  15
HETATM   15  O7  UNL     1      17.862  37.650 199.986  1.00  0.00    -0.373 OA
ATOM     16  H7  UNL     1      18.774  37.420 199.852  1.00  0.00     0.212 HD
ENDBRANCH  14  15
BRANCH  14  17
HETATM   17  N1  UNL     1      18.436  39.267 198.480  1.00  0.00    -0.279 N 
ATOM     18  H1  UNL     1      18.946  40.131 198.658  1.00  0.00     0.176 HD
BRANCH  17  19
HETATM   19  S1  UNL     1      18.781  38.260 196.969  1.00  0.00     0.274 S 
HETATM   20  O8  UNL     1      17.537  38.757 195.497  1.00  0.00    -0.191 OA
BRANCH  19  21
HETATM   21  O9  UNL     1      20.212  37.477 196.550  1.00  0.00    -0.276 OA
HETATM   22  C12 UNL     1      21.020  37.848 195.508  1.00  0.00     0.226 C 
ENDBRANCH  19  21
BRANCH  19  23
HETATM   23  O10 UNL     1      19.568  39.817 196.243  1.00  0.00    -0.276 OA
HETATM   24  C13 UNL     1      19.662  40.828 197.162  1.00  0.00     0.226 C 
ENDBRANCH  19  23
ENDBRANCH  17  19
ENDBRANCH  14  17
ENDBRANCH  11  14
ENDBRANCH   8  11
BRANCH   7  25
HETATM   25  C7  UNL     1      14.849  40.816 200.758  1.00  0.00     0.294 C 
HETATM   26  O3  UNL     1      14.597  41.777 199.989  1.00  0.00    -0.259 OA
BRANCH  25  27
HETATM   27  O4  UNL     1      15.558  41.220 201.922  1.00  0.00    -0.323 OA
HETATM   28  C8  UNL     1      14.963  41.988 202.925  1.00  0.00     0.213 C 
ENDBRANCH  25  27
ENDBRANCH   7  25
BRANCH   3  29
HETATM   29  O1  UNL     1      11.556  37.191 199.758  1.00  0.00    -0.362 OA
ATOM     30  H1  UNL     1      11.050  37.035 200.546  1.00  0.00     0.213 HD
ENDBRANCH   3  29
TORSDOF 12
ENDMDL
MODEL 3
REMARK VINA RESULT: -7.478883524      1.025      2.001
REMARK  12 active torsions:
REMARK  status: ('A' for Active; 'I' for Inactive)
REMARK    1  A    between atoms: C3_3  and  O1_5 
REMARK    2  A    between atoms: C6_9  and  C7_10 
REMARK    3  A    between atoms: C7_10  and  O4_12 
REMARK    4  A    between atoms: C9_14  and  O5_15 
REMARK    5  A    between atoms: C9_14  and  C10_17 
REMARK    6  A    between atoms: C10_17  and  O6_18 
REMARK    7  A    between atoms: C10_17  and  C11_20 
REMARK    8  A    between atoms: C11_20  and  O7_21 
REMARK    9  A    between atoms: C11_20  and  N1_23 
REMARK   10  A    between atoms: N1_23  and  S1_25 
REMARK   11  A    between atoms: S1_25  and  O9_27 
REMARK   12  A    between atoms: S1_25  and  O10_29 
ROOT
HETATM    1  C1  UNL     1      15.843  39.337 202.939  1.00  0.00     0.023 C 
HETATM    2  C2  UNL     1      14.894  39.634 202.135  1.00  0.00     0.013 C 
HETATM    3  C3  UNL     1      13.651  40.338 202.630  1.00  0.00     0.190 C 
HETATM    4  C4  UNL     1      13.727  41.818 202.498  1.00  0.00     0.085 C 
HETATM    5  O2  UNL     1      12.545  39.811 201.829  1.00  0.00    -0.322 OA
HETATM    6  C5  UNL     1      12.705  38.556 201.232  1.00  0.00     0.155 C 
HETATM    7  C6  UNL     1      13.869  38.199 200.628  1.00  0.00     0.080 C 
HETATM    8  C9  UNL     1      14.867  39.292 200.702  1.00  0.00     0.150 C 
ENDROOT
BRANCH   8   9
HETATM    9  O5  UNL     1      14.164  40.365 200.022  1.00  0.00    -0.377 OA
ATOM     10  H5  UNL     1      14.469  40.370 199.122  1.00  0.00     0.211 HD
ENDBRANCH   8   9
BRANCH   8  11
HETATM   11  C10 UNL     1      16.135  39.165 200.003  1.00  0.00     0.211 C 
BRANCH  11  12
HETATM   12  O6  UNL     1      16.626  37.836 199.957  1.00  0.00    -0.387 OA
ATOM     13  H6  UNL     1      17.350  37.678 200.552  1.00  0.00     0.210 HD
ENDBRANCH  11  12
BRANCH  11  14
HETATM   14  C11 UNL     1      16.066  39.531 198.523  1.00  0.00     0.261 C 
BRANCH  14  15
HETATM   15  O7  UNL     1      16.167  40.865 198.232  1.00  0.00    -0.373 OA
ATOM     16  H7  UNL     1      17.050  41.206 198.149  1.00  0.00     0.212 HD
ENDBRANCH  14  15
BRANCH  14  17
HETATM   17  N1  UNL     1      17.039  38.803 197.787  1.00  0.00    -0.279 N 
ATOM     18  H1  UNL     1      16.769  37.999 197.221  1.00  0.00     0.176 HD
BRANCH  17  19
HETATM   19  S1  UNL     1      18.804  39.347 197.877  1.00  0.00     0.274 S 
HETATM   20  O8  UNL     1      19.795  38.283 199.236  1.00  0.00    -0.191 OA
BRANCH  19  21
HETATM   21  O9  UNL     1      19.706  40.138 196.696  1.00  0.00    -0.276 OA
HETATM   22  C12 UNL     1      20.162  41.425 196.804  1.00  0.00     0.226 C 
ENDBRANCH  19  21
BRANCH  19  23
HETATM   23  O10 UNL     1      19.228  37.753 196.955  1.00  0.00    -0.276 OA
HETATM   24  C13 UNL     1      20.268  37.920 196.079  1.00  0.00     0.226 C 
ENDBRANCH  19  23
ENDBRANCH  17  19
ENDBRANCH  14  17
ENDBRANCH  11  14
ENDBRANCH   8  11
BRANCH   7  25
HETATM   25  C7  UNL     1      13.922  36.909 200.062  1.00  0.00     0.294 C 
HETATM   26  O3  UNL     1      14.630  35.941 200.439  1.00  0.00    -0.259 OA
BRANCH  25  27
HETATM   27  O4  UNL     1      13.116  36.588 198.935  1.00  0.00    -0.323 OA
HETATM   28  C8  UNL     1      13.074  37.397 197.798  1.00  0.00     0.213 C 
ENDBRANCH  25  27
ENDBRANCH   7  25
BRANCH   3  29
HETATM   29  O1  UNL     1      13.339  40.008 203.939  1.00  0.00    -0.362 OA
ATOM     30  H1  UNL     1      12.995  40.746 204.428  1.00  0.00     0.213 HD
ENDBRANCH   3  29
TORSDOF 12
ENDMDL
MODEL 4
REMARK VINA RESULT: -6.795382934      3.093      5.849
REMARK  12 active torsions:
REMARK  status: ('A' for Active; 'I' for Inactive)
REMARK    1  A    between atoms: C3_3  and  O1_5 
REMARK    2  A    between atoms: C6_9  and  C7_10 
REMARK    3  A    between atoms: C7_10  and  O4_12 
REMARK    4  A    between atoms: C9_14  and  O5_15 
REMARK    5  A    between atoms: C9_14  and  C10_17 
REMARK    6  A    between atoms: C10_17  and  O6_18 
REMARK    7  A    between atoms: C10_17  and  C11_20 
REMARK    8  A    between atoms: C11_20  and  O7_21 
REMARK    9  A    between atoms: C11_20  and  N1_23 
REMARK   10  A    between atoms: N1_23  and  S1_25 
REMARK   11  A    between atoms: S1_25  and  O9_27 
REMARK   12  A    between atoms: S1_25  and  O10_29 
ROOT
HETATM    1  C1  UNL     1      14.481  41.803 200.593  1.00  0.00     0.023 C 
HETATM    2  C2  UNL     1      14.716  40.698 201.193  1.00  0.00     0.013 C 
HETATM    3  C3  UNL     1      14.931  40.660 202.689  1.00  0.00     0.190 C 
HETATM    4  C4  UNL     1      13.684  40.380 203.450  1.00  0.00     0.085 C 
HETATM    5  O2  UNL     1      15.920  39.607 202.926  1.00  0.00    -0.322 OA
HETATM    6  C5  UNL     1      16.772  39.257 201.873  1.00  0.00     0.155 C 
HETATM    7  C6  UNL     1      16.314  39.125 200.601  1.00  0.00     0.080 C 
HETATM    8  C9  UNL     1      14.859  39.392 200.526  1.00  0.00     0.150 C 
ENDROOT
BRANCH   8   9
HETATM    9  O5  UNL     1      14.338  38.390 201.440  1.00  0.00    -0.377 OA
ATOM     10  H5  UNL     1      14.361  38.770 202.311  1.00  0.00     0.211 HD
ENDBRANCH   8   9
BRANCH   8  11
HETATM   11  C10 UNL     1      14.144  39.177 199.279  1.00  0.00     0.211 C 
BRANCH  11  12
HETATM   12  O6  UNL     1      14.879  38.425 198.328  1.00  0.00    -0.387 OA
ATOM     13  H6  UNL     1      14.416  37.660 198.009  1.00  0.00     0.210 HD
ENDBRANCH  11  12
BRANCH  11  14
HETATM   14  C11 UNL     1      12.873  38.346 199.429  1.00  0.00     0.261 C 
BRANCH  14  15
HETATM   15  O7  UNL     1      11.896  38.885 200.223  1.00  0.00    -0.373 OA
ATOM     16  H7  UNL     1      11.296  38.266 200.621  1.00  0.00     0.212 HD
ENDBRANCH  14  15
BRANCH  14  17
HETATM   17  N1  UNL     1      12.334  38.030 198.152  1.00  0.00    -0.279 N 
ATOM     18  H1  UNL     1      12.823  37.392 197.525  1.00  0.00     0.176 HD
BRANCH  17  19
HETATM   19  S1  UNL     1      10.730  38.802 197.654  1.00  0.00     0.274 S 
HETATM   20  O8  UNL     1      10.691  39.133 195.692  1.00  0.00    -0.191 OA
BRANCH  19  21
HETATM   21  O9  UNL     1       9.255  38.741 198.464  1.00  0.00    -0.276 OA
HETATM   22  C12 UNL     1       8.596  39.837 198.954  1.00  0.00     0.226 C 
ENDBRANCH  19  21
BRANCH  19  23
HETATM   23  O10 UNL     1      10.265  37.116 196.940  1.00  0.00    -0.276 OA
HETATM   24  C13 UNL     1       9.965  36.203 197.915  1.00  0.00     0.226 C 
ENDBRANCH  19  23
ENDBRANCH  17  19
ENDBRANCH  14  17
ENDBRANCH  11  14
ENDBRANCH   8  11
BRANCH   7  25
HETATM   25  C7  UNL     1      17.261  38.772 199.617  1.00  0.00     0.294 C 
HETATM   26  O3  UNL     1      18.027  37.776 199.622  1.00  0.00    -0.259 OA
BRANCH  25  27
HETATM   27  O4  UNL     1      17.428  39.583 198.460  1.00  0.00    -0.323 OA
HETATM   28  C8  UNL     1      18.434  39.340 197.523  1.00  0.00     0.213 C 
ENDBRANCH  25  27
ENDBRANCH   7  25
BRANCH   3  29
HETATM   29  O1  UNL     1      15.514  41.820 203.172  1.00  0.00    -0.362 OA
ATOM     30  H1  UNL     1      15.014  42.597 202.952  1.00  0.00     0.213 HD
ENDBRANCH   3  29
TORSDOF 12
ENDMDL
MODEL 5
REMARK VINA RESULT: -6.716215807      2.893      5.502
REMARK  12 active torsions:
REMARK  status: ('A' for Active; 'I' for Inactive)
REMARK    1  A    between atoms: C3_3  and  O1_5 
REMARK    2  A    between atoms: C6_9  and  C7_10 
REMARK    3  A    between atoms: C7_10  and  O4_12 
REMARK    4  A    between atoms: C9_14  and  O5_15 
REMARK    5  A    between atoms: C9_14  and  C10_17 
REMARK    6  A    between atoms: C10_17  and  O6_18 
REMARK    7  A    between atoms: C10_17  and  C11_20 
REMARK    8  A    between atoms: C11_20  and  O7_21 
REMARK    9  A    between atoms: C11_20  and  N1_23 
REMARK   10  A    between atoms: N1_23  and  S1_25 
REMARK   11  A    between atoms: S1_25  and  O9_27 
REMARK   12  A    between atoms: S1_25  and  O10_29 
ROOT
HETATM    1  C1  UNL     1      14.488  41.798 200.624  1.00  0.00     0.023 C 
HETATM    2  C2  UNL     1      14.725  40.692 201.223  1.00  0.00     0.013 C 
HETATM    3  C3  UNL     1      14.945  40.652 202.718  1.00  0.00     0.190 C 
HETATM    4  C4  UNL     1      13.700  40.371 203.482  1.00  0.00     0.085 C 
HETATM    5  O2  UNL     1      15.935  39.600 202.951  1.00  0.00    -0.322 OA
HETATM    6  C5  UNL     1      16.785  39.251 201.895  1.00  0.00     0.155 C 
HETATM    7  C6  UNL     1      16.323  39.120 200.624  1.00  0.00     0.080 C 
HETATM    8  C9  UNL     1      14.867  39.387 200.554  1.00  0.00     0.150 C 
ENDROOT
BRANCH   8   9
HETATM    9  O5  UNL     1      14.350  38.384 201.467  1.00  0.00    -0.377 OA
ATOM     10  H5  UNL     1      15.035  37.735 201.583  1.00  0.00     0.211 HD
ENDBRANCH   8   9
BRANCH   8  11
HETATM   11  C10 UNL     1      14.149  39.173 199.308  1.00  0.00     0.211 C 
BRANCH  11  12
HETATM   12  O6  UNL     1      14.877  38.411 198.360  1.00  0.00    -0.387 OA
ATOM     13  H6  UNL     1      14.344  37.779 197.892  1.00  0.00     0.210 HD
ENDBRANCH  11  12
BRANCH  11  14
HETATM   14  C11 UNL     1      12.871  38.354 199.463  1.00  0.00     0.261 C 
BRANCH  14  15
HETATM   15  O7  UNL     1      11.916  38.885 200.288  1.00  0.00    -0.373 OA
ATOM     16  H7  UNL     1      11.379  38.258 200.759  1.00  0.00     0.212 HD
ENDBRANCH  14  15
BRANCH  14  17
HETATM   17  N1  UNL     1      12.305  38.075 198.190  1.00  0.00    -0.279 N 
ATOM     18  H1  UNL     1      12.649  38.545 197.353  1.00  0.00     0.176 HD
BRANCH  17  19
HETATM   19  S1  UNL     1      10.930  36.844 198.084  1.00  0.00     0.274 S 
HETATM   20  O8  UNL     1       9.456  37.331 199.330  1.00  0.00    -0.191 OA
BRANCH  19  21
HETATM   21  O9  UNL     1      10.563  35.808 196.809  1.00  0.00    -0.276 OA
HETATM   22  C12 UNL     1      11.494  35.099 196.096  1.00  0.00     0.226 C 
ENDBRANCH  19  21
BRANCH  19  23
HETATM   23  O10 UNL     1       9.970  38.159 197.126  1.00  0.00    -0.276 OA
HETATM   24  C13 UNL     1      10.784  38.922 196.332  1.00  0.00     0.226 C 
ENDBRANCH  19  23
ENDBRANCH  17  19
ENDBRANCH  14  17
ENDBRANCH  11  14
ENDBRANCH   8  11
BRANCH   7  25
HETATM   25  C7  UNL     1      17.267  38.769 199.637  1.00  0.00     0.294 C 
HETATM   26  O3  UNL     1      18.037  37.776 199.641  1.00  0.00    -0.259 OA
BRANCH  25  27
HETATM   27  O4  UNL     1      17.426  39.578 198.478  1.00  0.00    -0.323 OA
HETATM   28  C8  UNL     1      18.330  39.253 197.465  1.00  0.00     0.213 C 
ENDBRANCH  25  27
ENDBRANCH   7  25
BRANCH   3  29
HETATM   29  O1  UNL     1      15.529  41.812 203.201  1.00  0.00    -0.362 OA
ATOM     30  H1  UNL     1      15.856  41.713 204.087  1.00  0.00     0.213 HD
ENDBRANCH   3  29
TORSDOF 12
ENDMDL
