MODEL 1
REMARK VINA RESULT: -8.536362024      0.000      0.000
REMARK  8 active torsions:
REMARK  status: ('A' for Active; 'I' for Inactive)
REMARK    1  A    between atoms: N1_1  and  C1_4 
REMARK    2  A    between atoms: C2_7  and  N3_8 
REMARK    3  A    between atoms: C3_11  and  N4_12 
REMARK    4  A    between atoms: C4_15  and  C5_16 
REMARK    5  A    between atoms: C6_17  and  C7_18 
REMARK       I    between atoms: C7_18  and  N5_20 
REMARK    6  A    between atoms: N5_20  and  C8_22 
REMARK    7  A    between atoms: C8_22  and  C9_23 
REMARK    8  A    between atoms: C9_23  and  N6_24 
ROOT
HETATM    1  C1  UNL     1      10.944  38.541 196.651  1.00  0.00     0.678 A 
HETATM    2  N2  UNL     1      10.726  37.230 196.456  1.00  0.00    -0.168 N 
ATOM      3  H2  UNL     1      10.368  36.889 195.564  1.00  0.00     0.186 HD
HETATM    4  C2  UNL     1      10.990  36.377 197.463  1.00  0.00     0.223 A 
HETATM    5  C3  UNL     1      11.473  36.869 198.656  1.00  0.00     0.180 A 
HETATM    6  C4  UNL     1      11.703  38.235 198.866  1.00  0.00     0.086 A 
HETATM    7  N8  UNL     1      11.420  39.026 197.828  1.00  0.00    -0.190 N 
ATOM      8  H8  UNL     1      11.566  40.031 197.922  1.00  0.00     0.184 HD
ENDROOT
BRANCH   6   9
HETATM    9  C5  UNL     1      12.213  38.687 200.151  1.00  0.00     0.038 C 
HETATM   10  C6  UNL     1      13.325  39.358 200.258  1.00  0.00     0.076 C 
BRANCH  10  11
HETATM   11  C7  UNL     1      13.791  39.786 201.570  1.00  0.00     0.241 C 
HETATM   12  O5  UNL     1      14.436  39.008 202.331  1.00  0.00    -0.269 OA
HETATM   13  N5  UNL     1      13.533  41.093 202.031  1.00  0.00    -0.356 N 
ATOM     14  H5  UNL     1      13.016  41.744 201.440  1.00  0.00     0.162 HD
BRANCH  13  15
HETATM   15  C8  UNL     1      13.990  41.514 203.320  1.00  0.00     0.143 C 
BRANCH  15  16
HETATM   16  C9  UNL     1      14.997  42.648 203.223  1.00  0.00     0.153 C 
BRANCH  16  17
HETATM   17  N6  UNL     1      14.485  43.879 203.788  1.00  0.00    -0.308 N 
HETATM   18  C10 UNL     1      13.159  44.131 203.748  1.00  0.00     0.101 A 
HETATM   19  C11 UNL     1      12.652  45.306 204.286  1.00  0.00     0.092 A 
HETATM   20  C12 UNL     1      13.496  46.228 204.868  1.00  0.00     0.250 A 
HETATM   21  O6  UNL     1      13.060  47.310 205.369  1.00  0.00    -0.268 OA
HETATM   22  N7  UNL     1      14.804  45.930 204.884  1.00  0.00    -0.275 N 
HETATM   23  C13 UNL     1      15.307  44.794 204.365  1.00  0.00     0.329 A 
ATOM     24  H7  UNL     1      15.448  46.597 205.309  1.00  0.00     0.173 HD
HETATM   25  O7  UNL     1      16.540  44.555 204.402  1.00  0.00    -0.246 OA
ENDBRANCH  16  17
ENDBRANCH  15  16
ENDBRANCH  13  15
ENDBRANCH  10  11
ENDBRANCH   6   9
BRANCH   5  26
HETATM   26  N4  UNL     1      11.766  35.995 199.743  1.00  0.00    -0.109 N 
HETATM   27  O3  UNL     1      10.892  35.684 200.574  1.00  0.00    -0.532 OA
HETATM   28  O4  UNL     1      13.018  35.460 199.911  1.00  0.00    -0.532 OA
ENDBRANCH   5  26
BRANCH   4  29
HETATM   29  N3  UNL     1      10.786  34.974 197.339  1.00  0.00    -0.095 N 
HETATM   30  O1  UNL     1       9.623  34.543 197.445  1.00  0.00    -0.530 OA
HETATM   31  O2  UNL     1      11.799  34.086 197.107  1.00  0.00    -0.530 OA
ENDBRANCH   4  29
BRANCH   1  32
HETATM   32  N1  UNL     1      10.704  39.386 195.718  1.00  0.00    -0.234 N 
ATOM     33  H12 UNL     1      11.162  39.235 194.818  1.00  0.00     0.174 HD
ATOM     34  H11 UNL     1      10.079  40.175 195.882  1.00  0.00     0.174 HD
ENDBRANCH   1  32
TORSDOF 8
ENDMDL
MODEL 2
REMARK VINA RESULT: -8.310750175      5.933      7.942
REMARK  8 active torsions:
REMARK  status: ('A' for Active; 'I' for Inactive)
REMARK    1  A    between atoms: N1_1  and  C1_4 
REMARK    2  A    between atoms: C2_7  and  N3_8 
REMARK    3  A    between atoms: C3_11  and  N4_12 
REMARK    4  A    between atoms: C4_15  and  C5_16 
REMARK    5  A    between atoms: C6_17  and  C7_18 
REMARK       I    between atoms: C7_18  and  N5_20 
REMARK    6  A    between atoms: N5_20  and  C8_22 
REMARK    7  A    between atoms: C8_22  and  C9_23 
REMARK    8  A    between atoms: C9_23  and  N6_24 
ROOT
HETATM    1  C1  UNL     1      10.680  38.726 197.479  1.00  0.00     0.678 A 
HETATM    2  N2  UNL     1       9.900  38.639 198.568  1.00  0.00    -0.168 N 
ATOM      3  H2  UNL     1       8.891  38.776 198.499  1.00  0.00     0.186 HD
HETATM    4  C2  UNL     1      10.477  38.365 199.753  1.00  0.00     0.223 A 
HETATM    5  C3  UNL     1      11.841  38.185 199.813  1.00  0.00     0.180 A 
HETATM    6  C4  UNL     1      12.662  38.274 198.680  1.00  0.00     0.086 A 
HETATM    7  N8  UNL     1      12.026  38.548 197.538  1.00  0.00    -0.190 N 
ATOM      8  H8  UNL     1      12.570  38.627 196.679  1.00  0.00     0.184 HD
ENDROOT
BRANCH   6   9
HETATM    9  C5  UNL     1      14.096  38.073 198.815  1.00  0.00     0.038 C 
HETATM   10  C6  UNL     1      14.935  39.069 198.851  1.00  0.00     0.076 C 
BRANCH  10  11
HETATM   11  C7  UNL     1      16.362  38.811 198.987  1.00  0.00     0.241 C 
HETATM   12  O5  UNL     1      16.809  37.997 199.847  1.00  0.00    -0.269 OA
HETATM   13  N5  UNL     1      17.292  39.466 198.156  1.00  0.00    -0.356 N 
ATOM     14  H5  UNL     1      16.962  40.127 197.453  1.00  0.00     0.162 HD
BRANCH  13  15
HETATM   15  C8  UNL     1      18.694  39.214 198.289  1.00  0.00     0.143 C 
BRANCH  15  16
HETATM   16  C9  UNL     1      19.527  40.187 197.471  1.00  0.00     0.153 C 
BRANCH  16  17
HETATM   17  N6  UNL     1      20.491  39.504 196.633  1.00  0.00    -0.308 N 
HETATM   18  C10 UNL     1      20.209  38.271 196.158  1.00  0.00     0.101 A 
HETATM   19  C11 UNL     1      21.121  37.604 195.353  1.00  0.00     0.092 A 
HETATM   20  C12 UNL     1      22.325  38.192 195.029  1.00  0.00     0.250 A 
HETATM   21  O6  UNL     1      23.178  37.605 194.293  1.00  0.00    -0.268 OA
HETATM   22  N7  UNL     1      22.557  39.416 195.524  1.00  0.00    -0.275 N 
HETATM   23  C13 UNL     1      21.680  40.073 196.305  1.00  0.00     0.329 A 
ATOM     24  H7  UNL     1      23.442  39.872 195.297  1.00  0.00     0.173 HD
HETATM   25  O7  UNL     1      21.939  41.220 196.748  1.00  0.00    -0.246 OA
ENDBRANCH  16  17
ENDBRANCH  15  16
ENDBRANCH  13  15
ENDBRANCH  10  11
ENDBRANCH   6   9
BRANCH   5  26
HETATM   26  N4  UNL     1      12.488  37.891 201.050  1.00  0.00    -0.109 N 
HETATM   27  O3  UNL     1      12.661  36.715 201.423  1.00  0.00    -0.532 OA
HETATM   28  O4  UNL     1      12.948  38.890 201.869  1.00  0.00    -0.532 OA
ENDBRANCH   5  26
BRANCH   4  29
HETATM   29  N3  UNL     1       9.723  38.257 200.955  1.00  0.00    -0.095 N 
HETATM   30  O1  UNL     1       9.241  37.146 201.241  1.00  0.00    -0.530 OA
HETATM   31  O2  UNL     1       9.511  39.307 201.804  1.00  0.00    -0.530 OA
ENDBRANCH   4  29
BRANCH   1  32
HETATM   32  N1  UNL     1      10.169  38.986 196.332  1.00  0.00    -0.234 N 
ATOM     33  H12 UNL     1       9.672  39.871 196.228  1.00  0.00     0.174 HD
ATOM     34  H11 UNL     1      10.262  38.323 195.562  1.00  0.00     0.174 HD
ENDBRANCH   1  32
TORSDOF 8
ENDMDL
MODEL 3
REMARK VINA RESULT: -8.233331944      4.070      6.709
REMARK  8 active torsions:
REMARK  status: ('A' for Active; 'I' for Inactive)
REMARK    1  A    between atoms: N1_1  and  C1_4 
REMARK    2  A    between atoms: C2_7  and  N3_8 
REMARK    3  A    between atoms: C3_11  and  N4_12 
REMARK    4  A    between atoms: C4_15  and  C5_16 
REMARK    5  A    between atoms: C6_17  and  C7_18 
REMARK       I    between atoms: C7_18  and  N5_20 
REMARK    6  A    between atoms: N5_20  and  C8_22 
REMARK    7  A    between atoms: C8_22  and  C9_23 
REMARK    8  A    between atoms: C9_23  and  N6_24 
ROOT
HETATM    1  C1  UNL     1      14.480  41.360 200.668  1.00  0.00     0.678 A 
HETATM    2  N2  UNL     1      14.001  40.112 200.787  1.00  0.00    -0.168 N 
ATOM      3  H2  UNL     1      14.263  39.387 200.118  1.00  0.00     0.186 HD
HETATM    4  C2  UNL     1      13.168  39.837 201.807  1.00  0.00     0.223 A 
HETATM    5  C3  UNL     1      12.833  40.837 202.694  1.00  0.00     0.180 A 
HETATM    6  C4  UNL     1      13.330  42.142 202.576  1.00  0.00     0.086 A 
HETATM    7  N8  UNL     1      14.150  42.347 201.542  1.00  0.00    -0.190 N 
ATOM      8  H8  UNL     1      14.544  43.278 201.403  1.00  0.00     0.184 HD
ENDROOT
BRANCH   6   9
HETATM    9  C5  UNL     1      12.935  43.150 203.547  1.00  0.00     0.038 C 
HETATM   10  C6  UNL     1      13.325  44.391 203.455  1.00  0.00     0.076 C 
BRANCH  10  11
HETATM   11  C7  UNL     1      12.900  45.360 204.456  1.00  0.00     0.241 C 
HETATM   12  O5  UNL     1      13.736  45.978 205.178  1.00  0.00    -0.269 OA
HETATM   13  N5  UNL     1      11.532  45.640 204.647  1.00  0.00    -0.356 N 
ATOM     14  H5  UNL     1      10.835  45.159 204.080  1.00  0.00     0.162 HD
BRANCH  13  15
HETATM   15  C8  UNL     1      11.113  46.592 205.631  1.00  0.00     0.143 C 
BRANCH  15  16
HETATM   16  C9  UNL     1       9.733  47.151 205.327  1.00  0.00     0.153 C 
BRANCH  16  17
HETATM   17  N6  UNL     1       8.724  46.615 206.216  1.00  0.00    -0.308 N 
HETATM   18  C10 UNL     1       9.072  45.706 207.152  1.00  0.00     0.101 A 
HETATM   19  C11 UNL     1       8.117  45.183 208.013  1.00  0.00     0.092 A 
HETATM   20  C12 UNL     1       6.802  45.586 207.922  1.00  0.00     0.250 A 
HETATM   21  O6  UNL     1       5.908  45.125 208.697  1.00  0.00    -0.268 OA
HETATM   22  N7  UNL     1       6.506  46.491 206.977  1.00  0.00    -0.275 N 
HETATM   23  C13 UNL     1       7.424  47.005 206.138  1.00  0.00     0.329 A 
ATOM     24  H7  UNL     1       5.540  46.805 206.891  1.00  0.00     0.173 HD
HETATM   25  O7  UNL     1       7.104  47.851 205.266  1.00  0.00    -0.246 OA
ENDBRANCH  16  17
ENDBRANCH  15  16
ENDBRANCH  13  15
ENDBRANCH  10  11
ENDBRANCH   6   9
BRANCH   5  26
HETATM   26  N4  UNL     1      11.956  40.583 203.788  1.00  0.00    -0.109 N 
HETATM   27  O3  UNL     1      12.367  40.039 204.831  1.00  0.00    -0.532 OA
HETATM   28  O4  UNL     1      10.631  40.934 203.737  1.00  0.00    -0.532 OA
ENDBRANCH   5  26
BRANCH   4  29
HETATM   29  N3  UNL     1      12.615  38.541 202.005  1.00  0.00    -0.095 N 
HETATM   30  O1  UNL     1      11.509  38.295 201.489  1.00  0.00    -0.530 OA
HETATM   31  O2  UNL     1      13.239  37.561 202.725  1.00  0.00    -0.530 OA
ENDBRANCH   4  29
BRANCH   1  32
HETATM   32  N1  UNL     1      15.276  41.663 199.709  1.00  0.00    -0.234 N 
ATOM     33  H12 UNL     1      16.146  41.135 199.636  1.00  0.00     0.174 HD
ATOM     34  H11 UNL     1      15.037  42.406 199.053  1.00  0.00     0.174 HD
ENDBRANCH   1  32
TORSDOF 8
ENDMDL
MODEL 4
REMARK VINA RESULT: -8.221573593      6.392      9.275
REMARK  8 active torsions:
REMARK  status: ('A' for Active; 'I' for Inactive)
REMARK    1  A    between atoms: N1_1  and  C1_4 
REMARK    2  A    between atoms: C2_7  and  N3_8 
REMARK    3  A    between atoms: C3_11  and  N4_12 
REMARK    4  A    between atoms: C4_15  and  C5_16 
REMARK    5  A    between atoms: C6_17  and  C7_18 
REMARK       I    between atoms: C7_18  and  N5_20 
REMARK    6  A    between atoms: N5_20  and  C8_22 
REMARK    7  A    between atoms: C8_22  and  C9_23 
REMARK    8  A    between atoms: C9_23  and  N6_24 
ROOT
HETATM    1  C1  UNL     1      19.693  42.337 196.919  1.00  0.00     0.678 A 
HETATM    2  N2  UNL     1      20.838  41.863 196.403  1.00  0.00    -0.168 N 
ATOM      3  H2  UNL     1      21.575  42.500 196.098  1.00  0.00     0.186 HD
HETATM    4  C2  UNL     1      20.993  40.530 196.298  1.00  0.00     0.223 A 
HETATM    5  C3  UNL     1      19.980  39.698 196.718  1.00  0.00     0.180 A 
HETATM    6  C4  UNL     1      18.782  40.185 197.257  1.00  0.00     0.086 A 
HETATM    7  N8  UNL     1      18.693  41.516 197.333  1.00  0.00    -0.190 N 
ATOM      8  H8  UNL     1      17.843  41.930 197.717  1.00  0.00     0.184 HD
ENDROOT
BRANCH   6   9
HETATM    9  C5  UNL     1      17.753  39.249 197.681  1.00  0.00     0.038 C 
HETATM   10  C6  UNL     1      16.819  39.582 198.528  1.00  0.00     0.076 C 
BRANCH  10  11
HETATM   11  C7  UNL     1      15.813  38.605 198.918  1.00  0.00     0.241 C 
HETATM   12  O5  UNL     1      15.975  37.849 199.920  1.00  0.00    -0.269 OA
HETATM   13  N5  UNL     1      14.617  38.475 198.184  1.00  0.00    -0.356 N 
ATOM     14  H5  UNL     1      14.457  39.070 197.372  1.00  0.00     0.162 HD
BRANCH  13  15
HETATM   15  C8  UNL     1      13.627  37.514 198.566  1.00  0.00     0.143 C 
BRANCH  15  16
HETATM   16  C9  UNL     1      12.510  37.413 197.541  1.00  0.00     0.153 C 
BRANCH  16  17
HETATM   17  N6  UNL     1      11.308  38.091 197.981  1.00  0.00    -0.308 N 
HETATM   18  C10 UNL     1      10.894  37.955 199.260  1.00  0.00     0.101 A 
HETATM   19  C11 UNL     1       9.745  38.599 199.697  1.00  0.00     0.092 A 
HETATM   20  C12 UNL     1       9.014  39.385 198.832  1.00  0.00     0.250 A 
HETATM   21  O6  UNL     1       7.960  39.986 199.206  1.00  0.00    -0.268 OA
HETATM   22  N7  UNL     1       9.466  39.489 197.574  1.00  0.00    -0.275 N 
HETATM   23  C13 UNL     1      10.579  38.870 197.139  1.00  0.00     0.329 A 
ATOM     24  H7  UNL     1       8.942  40.066 196.916  1.00  0.00     0.173 HD
HETATM   25  O7  UNL     1      10.968  38.995 195.950  1.00  0.00    -0.246 OA
ENDBRANCH  16  17
ENDBRANCH  15  16
ENDBRANCH  13  15
ENDBRANCH  10  11
ENDBRANCH   6   9
BRANCH   5  26
HETATM   26  N4  UNL     1      20.109  38.281 196.624  1.00  0.00    -0.109 N 
HETATM   27  O3  UNL     1      20.148  37.568 197.645  1.00  0.00    -0.532 OA
HETATM   28  O4  UNL     1      20.188  37.651 195.409  1.00  0.00    -0.532 OA
ENDBRANCH   5  26
BRANCH   4  29
HETATM   29  N3  UNL     1      22.175  39.946 195.762  1.00  0.00    -0.095 N 
HETATM   30  O1  UNL     1      23.133  39.757 196.533  1.00  0.00    -0.530 OA
HETATM   31  O2  UNL     1      22.303  39.583 194.450  1.00  0.00    -0.530 OA
ENDBRANCH   4  29
BRANCH   1  32
HETATM   32  N1  UNL     1      19.506  43.600 197.035  1.00  0.00    -0.234 N 
ATOM     33  H12 UNL     1      19.377  43.971 197.977  1.00  0.00     0.174 HD
ATOM     34  H11 UNL     1      19.487  44.199 196.210  1.00  0.00     0.174 HD
ENDBRANCH   1  32
TORSDOF 8
ENDMDL
MODEL 5
REMARK VINA RESULT: -8.111644912      5.983      8.830
REMARK  8 active torsions:
REMARK  status: ('A' for Active; 'I' for Inactive)
REMARK    1  A    between atoms: N1_1  and  C1_4 
REMARK    2  A    between atoms: C2_7  and  N3_8 
REMARK    3  A    between atoms: C3_11  and  N4_12 
REMARK    4  A    between atoms: C4_15  and  C5_16 
REMARK    5  A    between atoms: C6_17  and  C7_18 
REMARK       I    between atoms: C7_18  and  N5_20 
REMARK    6  A    between atoms: N5_20  and  C8_22 
REMARK    7  A    between atoms: C8_22  and  C9_23 
REMARK    8  A    between atoms: C9_23  and  N6_24 
ROOT
HETATM    1  C1  UNL     1      13.398  42.378 203.001  1.00  0.00     0.678 A 
HETATM    2  N2  UNL     1      12.334  41.661 203.395  1.00  0.00    -0.168 N 
ATOM      3  H2  UNL     1      11.677  42.036 204.080  1.00  0.00     0.186 HD
HETATM    4  C2  UNL     1      12.152  40.436 202.868  1.00  0.00     0.223 A 
HETATM    5  C3  UNL     1      13.056  39.957 201.946  1.00  0.00     0.180 A 
HETATM    6  C4  UNL     1      14.169  40.700 201.529  1.00  0.00     0.086 A 
HETATM    7  N8  UNL     1      14.291  41.905 202.091  1.00  0.00    -0.190 N 
ATOM      8  H8  UNL     1      15.082  42.493 201.829  1.00  0.00     0.184 HD
ENDROOT
BRANCH   6   9
HETATM    9  C5  UNL     1      15.085  40.134 200.552  1.00  0.00     0.038 C 
HETATM   10  C6  UNL     1      16.169  39.500 200.904  1.00  0.00     0.076 C 
BRANCH  10  11
HETATM   11  C7  UNL     1      17.052  38.952 199.883  1.00  0.00     0.241 C 
HETATM   12  O5  UNL     1      17.559  37.798 199.995  1.00  0.00    -0.269 OA
HETATM   13  N5  UNL     1      17.367  39.700 198.731  1.00  0.00    -0.356 N 
ATOM     14  H5  UNL     1      16.973  40.633 198.612  1.00  0.00     0.162 HD
BRANCH  13  15
HETATM   15  C8  UNL     1      18.235  39.163 197.728  1.00  0.00     0.143 C 
BRANCH  15  16
HETATM   16  C9  UNL     1      19.445  40.051 197.490  1.00  0.00     0.153 C 
BRANCH  16  17
HETATM   17  N6  UNL     1      20.427  39.411 196.639  1.00  0.00    -0.308 N 
HETATM   18  C10 UNL     1      20.181  38.179 196.143  1.00  0.00     0.101 A 
HETATM   19  C11 UNL     1      21.112  37.554 195.325  1.00  0.00     0.092 A 
HETATM   20  C12 UNL     1      22.297  38.182 195.010  1.00  0.00     0.250 A 
HETATM   21  O6  UNL     1      23.166  37.633 194.264  1.00  0.00    -0.268 OA
HETATM   22  N7  UNL     1      22.494  39.404 195.526  1.00  0.00    -0.275 N 
HETATM   23  C13 UNL     1      21.599  40.021 196.320  1.00  0.00     0.329 A 
ATOM     24  H7  UNL     1      23.364  39.889 195.307  1.00  0.00     0.173 HD
HETATM   25  O7  UNL     1      21.824  41.167 196.783  1.00  0.00    -0.246 OA
ENDBRANCH  16  17
ENDBRANCH  15  16
ENDBRANCH  13  15
ENDBRANCH  10  11
ENDBRANCH   6   9
BRANCH   5  26
HETATM   26  N4  UNL     1      12.895  38.665 201.363  1.00  0.00    -0.109 N 
HETATM   27  O3  UNL     1      12.274  38.514 200.294  1.00  0.00    -0.532 OA
HETATM   28  O4  UNL     1      13.423  37.546 201.953  1.00  0.00    -0.532 OA
ENDBRANCH   5  26
BRANCH   4  29
HETATM   29  N3  UNL     1      11.052  39.611 203.232  1.00  0.00    -0.095 N 
HETATM   30  O1  UNL     1      11.191  38.850 204.207  1.00  0.00    -0.530 OA
HETATM   31  O2  UNL     1       9.856  39.618 202.568  1.00  0.00    -0.530 OA
ENDBRANCH   4  29
BRANCH   1  32
HETATM   32  N1  UNL     1      13.607  43.548 203.481  1.00  0.00    -0.234 N 
ATOM     33  H12 UNL     1      13.310  43.723 204.441  1.00  0.00     0.174 HD
ATOM     34  H11 UNL     1      14.053  44.268 202.912  1.00  0.00     0.174 HD
ENDBRANCH   1  32
TORSDOF 8
ENDMDL
