MODEL 1
REMARK VINA RESULT: -8.410912852      0.000      0.000
REMARK  9 active torsions:
REMARK  status: ('A' for Active; 'I' for Inactive)
REMARK    1  A    between atoms: C2_2  and  C3_3 
REMARK    2  A    between atoms: C3_3  and  O1_4 
REMARK    3  A    between atoms: C3_3  and  C4_6 
REMARK    4  A    between atoms: C3_3  and  C6_8 
REMARK       I    between atoms: N1_10  and  C8_11 
REMARK    5  A    between atoms: C8_11  and  C9_13 
REMARK    6  A    between atoms: C9_13  and  C10_14 
REMARK    7  A    between atoms: C9_13  and  N2_23 
REMARK    8  A    between atoms: C10_14  and  C11_15 
REMARK       I    between atoms: N3_33  and  C24_34 
REMARK       I    between atoms: C24_34  and  N4_36 
REMARK    9  A    between atoms: N4_36  and  C25_38 
ROOT
HETATM    1  C6  UNL     1      12.071 -14.395  13.580  1.00  0.00     0.048 C 
HETATM    2  C7  UNL     1      12.563 -15.639  12.786  1.00  0.00     0.134 C 
HETATM    3  N1  UNL     1      13.965 -15.924  13.144  1.00  0.00    -0.350 N 
HETATM    4  C8  UNL     1      14.792 -16.499  12.193  1.00  0.00     0.251 C 
HETATM    5  O2  UNL     1      14.325 -16.783  11.045  1.00  0.00    -0.271 OA
HETATM    6  C18 UNL     1      14.286 -15.562  14.506  1.00  0.00     0.126 C 
HETATM    7  C19 UNL     1      12.991 -15.795  15.279  1.00  0.00     0.031 C 
HETATM    8  C20 UNL     1      11.997 -14.644  15.002  1.00  0.00    -0.015 C 
HETATM    9  C21 UNL     1      12.512 -13.429  15.781  1.00  0.00     0.013 C 
HETATM   10  C22 UNL     1      12.985 -13.761  17.149  1.00  0.00     0.021 C 
HETATM   11  C23 UNL     1      11.855 -14.354  17.916  1.00  0.00     0.127 C 
HETATM   12  N3  UNL     1      10.908 -15.107  17.167  1.00  0.00    -0.333 N 
HETATM   13  C24 UNL     1      10.038 -15.976  17.878  1.00  0.00     0.318 C 
HETATM   14  O3  UNL     1      10.158 -16.038  19.126  1.00  0.00    -0.247 OA
HETATM   15  N4  UNL     1       9.037 -16.782  17.274  1.00  0.00    -0.335 N 
ATOM     16  H4  UNL     1       8.909 -16.756  16.262  1.00  0.00     0.165 HD
HETATM   17  C29 UNL     1      10.764 -15.043  15.701  1.00  0.00     0.137 C 
ENDROOT
BRANCH   4  18
HETATM   18  C9  UNL     1      16.211 -16.807  12.443  1.00  0.00     0.280 C 
BRANCH  18  19
HETATM   19  C10 UNL     1      16.947 -15.570  12.955  1.00  0.00     0.081 C 
BRANCH  19  20
HETATM   20  C11 UNL     1      17.955 -16.086  13.928  1.00  0.00    -0.051 A 
HETATM   21  C12 UNL     1      18.151 -17.424  14.162  1.00  0.00     0.049 A 
HETATM   22  C13 UNL     1      19.089 -17.861  15.068  1.00  0.00     0.118 A 
HETATM   23  F1  UNL     1      19.270 -19.177  15.287  1.00  0.00    -0.206 F 
HETATM   24  C14 UNL     1      19.853 -16.938  15.761  1.00  0.00     0.061 A 
HETATM   25  C15 UNL     1      19.666 -15.603  15.534  1.00  0.00     0.014 A 
HETATM   26 BR1  UNL     1      20.698 -14.308  16.468  1.00  0.00    -0.051 Br
HETATM   27  C16 UNL     1      18.712 -15.176  14.613  1.00  0.00     0.026 A 
ENDBRANCH  19  20
ENDBRANCH  18  19
BRANCH  18  28
HETATM   28  N2  UNL     1      16.873 -17.229  11.194  1.00  0.00    -0.066 N 
HETATM   29  C17 UNL     1      17.869 -16.258  10.802  1.00  0.00     0.267 C 
ATOM     30  H22 UNL     1      17.266 -18.168  11.270  1.00  0.00     0.277 HD
ATOM     31  H21 UNL     1      16.201 -17.407  10.449  1.00  0.00     0.277 HD
ENDBRANCH  18  28
ENDBRANCH   4  18
BRANCH   1  32
HETATM   32  C3  UNL     1      11.060 -13.802  12.716  1.00  0.00     0.063 C 
BRANCH  32  33
HETATM   33  C2  UNL     1      10.438 -12.509  13.115  1.00  0.00     0.034 C 
HETATM   34  C1  UNL     1       9.786 -11.799  11.914  1.00  0.00     0.008 C 
ENDBRANCH  32  33
BRANCH  32  35
HETATM   35  O1  UNL     1      11.785 -13.429  11.522  1.00  0.00    -0.389 OA
ATOM     36  H1  UNL     1      11.588 -14.152  10.939  1.00  0.00     0.210 HD
ENDBRANCH  32  35
BRANCH  32  37
HETATM   37  C4  UNL     1      10.061 -14.734  12.085  1.00  0.00     0.034 C 
HETATM   38  C5  UNL     1       8.807 -15.008  12.813  1.00  0.00     0.008 C 
ENDBRANCH  32  37
ENDBRANCH   1  32
BRANCH  15  39
HETATM   39  C25 UNL     1       8.195 -17.640  18.082  1.00  0.00     0.023 C 
HETATM   40  C26 UNL     1       7.239 -16.836  18.920  1.00  0.00     0.037 C 
HETATM   41  C27 UNL     1       7.379 -18.561  17.200  1.00  0.00     0.037 C 
HETATM   42  C28 UNL     1       9.012 -18.514  19.008  1.00  0.00     0.037 C 
ENDBRANCH  15  39
TORSDOF 9
ENDMDL
MODEL 2
REMARK VINA RESULT: -8.392424156      1.812      2.359
REMARK  9 active torsions:
REMARK  status: ('A' for Active; 'I' for Inactive)
REMARK    1  A    between atoms: C2_2  and  C3_3 
REMARK    2  A    between atoms: C3_3  and  O1_4 
REMARK    3  A    between atoms: C3_3  and  C4_6 
REMARK    4  A    between atoms: C3_3  and  C6_8 
REMARK       I    between atoms: N1_10  and  C8_11 
REMARK    5  A    between atoms: C8_11  and  C9_13 
REMARK    6  A    between atoms: C9_13  and  C10_14 
REMARK    7  A    between atoms: C9_13  and  N2_23 
REMARK    8  A    between atoms: C10_14  and  C11_15 
REMARK       I    between atoms: N3_33  and  C24_34 
REMARK       I    between atoms: C24_34  and  N4_36 
REMARK    9  A    between atoms: N4_36  and  C25_38 
ROOT
HETATM    1  C6  UNL     1      11.792 -14.551  14.173  1.00  0.00     0.048 C 
HETATM    2  C7  UNL     1      12.229 -15.487  13.010  1.00  0.00     0.134 C 
HETATM    3  N1  UNL     1      13.409 -16.266  13.427  1.00  0.00    -0.350 N 
HETATM    4  C8  UNL     1      14.330 -16.646  12.465  1.00  0.00     0.251 C 
HETATM    5  O2  UNL     1      14.132 -16.333  11.249  1.00  0.00    -0.271 OA
HETATM    6  C18 UNL     1      13.428 -16.550  14.844  1.00  0.00     0.126 C 
HETATM    7  C19 UNL     1      11.956 -16.684  15.227  1.00  0.00     0.031 C 
HETATM    8  C20 UNL     1      11.305 -15.285  15.318  1.00  0.00    -0.015 C 
HETATM    9  C21 UNL     1      11.821 -14.651  16.614  1.00  0.00     0.013 C 
HETATM   10  C22 UNL     1      11.850 -15.593  17.762  1.00  0.00     0.021 C 
HETATM   11  C23 UNL     1      10.469 -16.089  18.011  1.00  0.00     0.127 C 
HETATM   12  N3  UNL     1       9.624 -16.206  16.872  1.00  0.00    -0.333 N 
HETATM   13  C24 UNL     1       8.451 -16.998  16.993  1.00  0.00     0.318 C 
HETATM   14  O3  UNL     1       8.228 -17.557  18.095  1.00  0.00    -0.247 OA
HETATM   15  N4  UNL     1       7.507 -17.201  15.951  1.00  0.00    -0.335 N 
ATOM     16  H4  UNL     1       7.654 -16.761  15.043  1.00  0.00     0.165 HD
HETATM   17  C29 UNL     1       9.881 -15.557  15.573  1.00  0.00     0.137 C 
ENDROOT
BRANCH   4  18
HETATM   18  C9  UNL     1      15.551 -17.410  12.778  1.00  0.00     0.280 C 
BRANCH  18  19
HETATM   19  C10 UNL     1      16.796 -16.618  12.383  1.00  0.00     0.081 C 
BRANCH  19  20
HETATM   20  C11 UNL     1      17.914 -17.227  13.162  1.00  0.00    -0.051 A 
HETATM   21  C12 UNL     1      17.949 -17.241  14.534  1.00  0.00     0.049 A 
HETATM   22  C13 UNL     1      18.997 -17.810  15.217  1.00  0.00     0.118 A 
HETATM   23  F1  UNL     1      19.017 -17.817  16.563  1.00  0.00    -0.206 F 
HETATM   24  C14 UNL     1      20.043 -18.382  14.512  1.00  0.00     0.061 A 
HETATM   25  C15 UNL     1      20.017 -18.374  13.146  1.00  0.00     0.014 A 
HETATM   26 BR1  UNL     1      21.437 -19.150  12.146  1.00  0.00    -0.051 Br
HETATM   27  C16 UNL     1      18.948 -17.793  12.467  1.00  0.00     0.026 A 
ENDBRANCH  19  20
ENDBRANCH  18  19
BRANCH  18  28
HETATM   28  N2  UNL     1      15.574 -18.676  12.022  1.00  0.00    -0.066 N 
HETATM   29  C17 UNL     1      14.623 -19.611  12.580  1.00  0.00     0.267 C 
ATOM     30  H22 UNL     1      15.420 -18.526  11.025  1.00  0.00     0.277 HD
ATOM     31  H21 UNL     1      16.512 -19.072  11.972  1.00  0.00     0.277 HD
ENDBRANCH  18  28
ENDBRANCH   4  18
BRANCH   1  32
HETATM   32  C3  UNL     1      11.171 -13.418  13.500  1.00  0.00     0.063 C 
BRANCH  32  33
HETATM   33  C2  UNL     1      10.848 -12.198  14.290  1.00  0.00     0.034 C 
HETATM   34  C1  UNL     1       9.355 -12.144  14.664  1.00  0.00     0.008 C 
ENDBRANCH  32  33
BRANCH  32  35
HETATM   35  O1  UNL     1      12.194 -12.931  12.602  1.00  0.00    -0.389 OA
ATOM     36  H1  UNL     1      12.248 -13.634  11.965  1.00  0.00     0.210 HD
ENDBRANCH  32  35
BRANCH  32  37
HETATM   37  C4  UNL     1      10.108 -13.722  12.479  1.00  0.00     0.034 C 
HETATM   38  C5  UNL     1      10.041 -12.880  11.269  1.00  0.00     0.008 C 
ENDBRANCH  32  37
ENDBRANCH   1  32
BRANCH  15  39
HETATM   39  C25 UNL     1       6.337 -18.028  16.168  1.00  0.00     0.023 C 
HETATM   40  C26 UNL     1       5.284 -17.768  15.126  1.00  0.00     0.037 C 
HETATM   41  C27 UNL     1       6.708 -19.494  16.101  1.00  0.00     0.037 C 
HETATM   42  C28 UNL     1       5.724 -17.782  17.529  1.00  0.00     0.037 C 
ENDBRANCH  15  39
TORSDOF 9
ENDMDL
MODEL 3
REMARK VINA RESULT: -8.284141591      1.729      2.285
REMARK  9 active torsions:
REMARK  status: ('A' for Active; 'I' for Inactive)
REMARK    1  A    between atoms: C2_2  and  C3_3 
REMARK    2  A    between atoms: C3_3  and  O1_4 
REMARK    3  A    between atoms: C3_3  and  C4_6 
REMARK    4  A    between atoms: C3_3  and  C6_8 
REMARK       I    between atoms: N1_10  and  C8_11 
REMARK    5  A    between atoms: C8_11  and  C9_13 
REMARK    6  A    between atoms: C9_13  and  C10_14 
REMARK    7  A    between atoms: C9_13  and  N2_23 
REMARK    8  A    between atoms: C10_14  and  C11_15 
REMARK       I    between atoms: N3_33  and  C24_34 
REMARK       I    between atoms: C24_34  and  N4_36 
REMARK    9  A    between atoms: N4_36  and  C25_38 
ROOT
HETATM    1  C6  UNL     1      11.797 -14.790  14.293  1.00  0.00     0.048 C 
HETATM    2  C7  UNL     1      12.134 -15.680  13.063  1.00  0.00     0.134 C 
HETATM    3  N1  UNL     1      13.247 -16.585  13.404  1.00  0.00    -0.350 N 
HETATM    4  C8  UNL     1      14.119 -16.978  12.402  1.00  0.00     0.251 C 
HETATM    5  O2  UNL     1      13.932 -16.567  11.213  1.00  0.00    -0.271 OA
HETATM    6  C18 UNL     1      13.261 -16.964  14.799  1.00  0.00     0.126 C 
HETATM    7  C19 UNL     1      11.788 -16.996  15.201  1.00  0.00     0.031 C 
HETATM    8  C20 UNL     1      11.263 -15.555  15.397  1.00  0.00    -0.015 C 
HETATM    9  C21 UNL     1      11.851 -15.057  16.722  1.00  0.00     0.013 C 
HETATM   10  C22 UNL     1      11.813 -16.073  17.804  1.00  0.00     0.021 C 
HETATM   11  C23 UNL     1      10.397 -16.463  18.047  1.00  0.00     0.127 C 
HETATM   12  N3  UNL     1       9.529 -16.430  16.919  1.00  0.00    -0.333 N 
HETATM   13  C24 UNL     1       8.294 -17.123  17.010  1.00  0.00     0.318 C 
HETATM   14  O3  UNL     1       8.037 -17.734  18.077  1.00  0.00    -0.247 OA
HETATM   15  N4  UNL     1       7.321 -17.173  15.976  1.00  0.00    -0.335 N 
ATOM     16  H4  UNL     1       7.494 -16.688  15.096  1.00  0.00     0.165 HD
HETATM   17  C29 UNL     1       9.825 -15.719  15.661  1.00  0.00     0.137 C 
ENDROOT
BRANCH   4  18
HETATM   18  C9  UNL     1      15.271 -17.864  12.640  1.00  0.00     0.280 C 
BRANCH  18  19
HETATM   19  C10 UNL     1      16.571 -17.178  12.221  1.00  0.00     0.081 C 
BRANCH  19  20
HETATM   20  C11 UNL     1      17.252 -16.810  13.497  1.00  0.00    -0.051 A 
HETATM   21  C12 UNL     1      18.344 -17.484  13.983  1.00  0.00     0.049 A 
HETATM   22  C13 UNL     1      18.943 -17.115  15.165  1.00  0.00     0.118 A 
HETATM   23  F1  UNL     1      20.014 -17.786  15.629  1.00  0.00    -0.206 F 
HETATM   24  C14 UNL     1      18.440 -16.044  15.883  1.00  0.00     0.061 A 
HETATM   25  C15 UNL     1      17.352 -15.366  15.406  1.00  0.00     0.014 A 
HETATM   26 BR1  UNL     1      16.634 -13.891  16.367  1.00  0.00    -0.051 Br
HETATM   27  C16 UNL     1      16.756 -15.751  14.207  1.00  0.00     0.026 A 
ENDBRANCH  19  20
ENDBRANCH  18  19
BRANCH  18  28
HETATM   28  N2  UNL     1      15.146 -19.098  11.842  1.00  0.00    -0.066 N 
HETATM   29  C17 UNL     1      14.491 -20.129  12.614  1.00  0.00     0.267 C 
ATOM     30  H22 UNL     1      14.674 -18.930  10.953  1.00  0.00     0.277 HD
ATOM     31  H21 UNL     1      16.046 -19.409  11.479  1.00  0.00     0.277 HD
ENDBRANCH  18  28
ENDBRANCH   4  18
BRANCH   1  32
HETATM   32  C3  UNL     1      11.269 -13.565  13.709  1.00  0.00     0.063 C 
BRANCH  32  33
HETATM   33  C2  UNL     1      11.061 -12.379  14.585  1.00  0.00     0.034 C 
HETATM   34  C1  UNL     1       9.585 -12.233  14.999  1.00  0.00     0.008 C 
ENDBRANCH  32  33
BRANCH  32  35
HETATM   35  O1  UNL     1      12.321 -13.106  12.829  1.00  0.00    -0.389 OA
ATOM     36  H1  UNL     1      12.620 -13.920  12.441  1.00  0.00     0.210 HD
ENDBRANCH  32  35
BRANCH  32  37
HETATM   37  C4  UNL     1      10.173 -13.707  12.688  1.00  0.00     0.034 C 
HETATM   38  C5  UNL     1      10.248 -12.885  11.465  1.00  0.00     0.008 C 
ENDBRANCH  32  37
ENDBRANCH   1  32
BRANCH  15  39
HETATM   39  C25 UNL     1       6.087 -17.908  16.160  1.00  0.00     0.023 C 
HETATM   40  C26 UNL     1       5.042 -17.482  15.165  1.00  0.00     0.037 C 
HETATM   41  C27 UNL     1       6.324 -19.393  15.980  1.00  0.00     0.037 C 
HETATM   42  C28 UNL     1       5.520 -17.710  17.550  1.00  0.00     0.037 C 
ENDBRANCH  15  39
TORSDOF 9
ENDMDL
MODEL 4
REMARK VINA RESULT: -8.243906124      1.532      1.874
REMARK  9 active torsions:
REMARK  status: ('A' for Active; 'I' for Inactive)
REMARK    1  A    between atoms: C2_2  and  C3_3 
REMARK    2  A    between atoms: C3_3  and  O1_4 
REMARK    3  A    between atoms: C3_3  and  C4_6 
REMARK    4  A    between atoms: C3_3  and  C6_8 
REMARK       I    between atoms: N1_10  and  C8_11 
REMARK    5  A    between atoms: C8_11  and  C9_13 
REMARK    6  A    between atoms: C9_13  and  C10_14 
REMARK    7  A    between atoms: C9_13  and  N2_23 
REMARK    8  A    between atoms: C10_14  and  C11_15 
REMARK       I    between atoms: N3_33  and  C24_34 
REMARK       I    between atoms: C24_34  and  N4_36 
REMARK    9  A    between atoms: N4_36  and  C25_38 
ROOT
HETATM    1  C6  UNL     1      11.834 -14.411  13.648  1.00  0.00     0.048 C 
HETATM    2  C7  UNL     1      12.407 -15.510  12.709  1.00  0.00     0.134 C 
HETATM    3  N1  UNL     1      13.685 -16.002  13.255  1.00  0.00    -0.350 N 
HETATM    4  C8  UNL     1      14.656 -16.453  12.376  1.00  0.00     0.251 C 
HETATM    5  O2  UNL     1      14.421 -16.449  11.127  1.00  0.00    -0.271 OA
HETATM    6  C18 UNL     1      13.738 -15.959  14.699  1.00  0.00     0.126 C 
HETATM    7  C19 UNL     1      12.299 -16.212  15.142  1.00  0.00     0.031 C 
HETATM    8  C20 UNL     1      11.452 -14.934  14.941  1.00  0.00    -0.015 C 
HETATM    9  C21 UNL     1      11.865 -13.961  16.050  1.00  0.00     0.013 C 
HETATM   10  C22 UNL     1      12.024 -14.611  17.376  1.00  0.00     0.021 C 
HETATM   11  C23 UNL     1      10.728 -15.229  17.766  1.00  0.00     0.127 C 
HETATM   12  N3  UNL     1       9.914 -15.715  16.704  1.00  0.00    -0.333 N 
HETATM   13  C24 UNL     1       8.867 -16.618  17.028  1.00  0.00     0.318 C 
HETATM   14  O3  UNL     1       8.721 -16.944  18.232  1.00  0.00    -0.247 OA
HETATM   15  N4  UNL     1       7.967 -17.179  16.083  1.00  0.00    -0.335 N 
ATOM     16  H4  UNL     1       8.054 -16.935  15.097  1.00  0.00     0.165 HD
HETATM   17  C29 UNL     1      10.081 -15.341  15.288  1.00  0.00     0.137 C 
ENDROOT
BRANCH   4  18
HETATM   18  C9  UNL     1      15.972 -16.947  12.817  1.00  0.00     0.280 C 
BRANCH  18  19
HETATM   19  C10 UNL     1      17.073 -15.957  12.437  1.00  0.00     0.081 C 
BRANCH  19  20
HETATM   20  C11 UNL     1      17.633 -15.474  13.734  1.00  0.00    -0.051 A 
HETATM   21  C12 UNL     1      16.847 -15.051  14.776  1.00  0.00     0.049 A 
HETATM   22  C13 UNL     1      17.400 -14.611  15.955  1.00  0.00     0.118 A 
HETATM   23  F1  UNL     1      16.616 -14.199  16.969  1.00  0.00    -0.206 F 
HETATM   24  C14 UNL     1      18.777 -14.591  16.100  1.00  0.00     0.061 A 
HETATM   25  C15 UNL     1      19.568 -15.012  15.068  1.00  0.00     0.014 A 
HETATM   26 BR1  UNL     1      21.463 -14.998  15.232  1.00  0.00    -0.051 Br
HETATM   27  C16 UNL     1      18.993 -15.455  13.879  1.00  0.00     0.026 A 
ENDBRANCH  19  20
ENDBRANCH  18  19
BRANCH  18  28
HETATM   28  N2  UNL     1      16.287 -18.229  12.160  1.00  0.00    -0.066 N 
HETATM   29  C17 UNL     1      15.125 -19.090  12.157  1.00  0.00     0.267 C 
ATOM     30  H22 UNL     1      16.662 -18.094  11.221  1.00  0.00     0.277 HD
ATOM     31  H21 UNL     1      17.096 -18.684  12.581  1.00  0.00     0.277 HD
ENDBRANCH  18  28
ENDBRANCH   4  18
BRANCH   1  32
HETATM   32  C3  UNL     1      11.060 -13.555  12.759  1.00  0.00     0.063 C 
BRANCH  32  33
HETATM   33  C2  UNL     1      10.540 -12.260  13.277  1.00  0.00     0.034 C 
HETATM   34  C1  UNL     1       9.746 -11.497  12.200  1.00  0.00     0.008 C 
ENDBRANCH  32  33
BRANCH  32  35
HETATM   35  O1  UNL     1      12.013 -13.118  11.764  1.00  0.00    -0.389 OA
ATOM     36  H1  UNL     1      12.813 -13.535  12.062  1.00  0.00     0.210 HD
ENDBRANCH  32  35
BRANCH  32  37
HETATM   37  C4  UNL     1      10.075 -14.228  11.842  1.00  0.00     0.034 C 
HETATM   38  C5  UNL     1       8.876 -14.846  12.438  1.00  0.00     0.008 C 
ENDBRANCH  32  37
ENDBRANCH   1  32
BRANCH  15  39
HETATM   39  C25 UNL     1       6.928 -18.094  16.509  1.00  0.00     0.023 C 
HETATM   40  C26 UNL     1       5.648 -17.856  15.754  1.00  0.00     0.037 C 
HETATM   41  C27 UNL     1       7.353 -19.526  16.265  1.00  0.00     0.037 C 
HETATM   42  C28 UNL     1       6.634 -17.958  17.987  1.00  0.00     0.037 C 
ENDBRANCH  15  39
TORSDOF 9
ENDMDL
MODEL 5
REMARK VINA RESULT: -8.145507020      1.276      1.785
REMARK  9 active torsions:
REMARK  status: ('A' for Active; 'I' for Inactive)
REMARK    1  A    between atoms: C2_2  and  C3_3 
REMARK    2  A    between atoms: C3_3  and  O1_4 
REMARK    3  A    between atoms: C3_3  and  C4_6 
REMARK    4  A    between atoms: C3_3  and  C6_8 
REMARK       I    between atoms: N1_10  and  C8_11 
REMARK    5  A    between atoms: C8_11  and  C9_13 
REMARK    6  A    between atoms: C9_13  and  C10_14 
REMARK    7  A    between atoms: C9_13  and  N2_23 
REMARK    8  A    between atoms: C10_14  and  C11_15 
REMARK       I    between atoms: N3_33  and  C24_34 
REMARK       I    between atoms: C24_34  and  N4_36 
REMARK    9  A    between atoms: N4_36  and  C25_38 
ROOT
HETATM    1  C6  UNL     1      11.822 -14.419  14.245  1.00  0.00     0.048 C 
HETATM    2  C7  UNL     1      12.278 -15.340  13.078  1.00  0.00     0.134 C 
HETATM    3  N1  UNL     1      13.490 -16.076  13.482  1.00  0.00    -0.350 N 
HETATM    4  C8  UNL     1      14.413 -16.424  12.509  1.00  0.00     0.251 C 
HETATM    5  O2  UNL     1      14.190 -16.120  11.295  1.00  0.00    -0.271 OA
HETATM    6  C18 UNL     1      13.536 -16.357  14.899  1.00  0.00     0.126 C 
HETATM    7  C19 UNL     1      12.075 -16.544  15.299  1.00  0.00     0.031 C 
HETATM    8  C20 UNL     1      11.375 -15.169  15.397  1.00  0.00    -0.015 C 
HETATM    9  C21 UNL     1      11.883 -14.515  16.686  1.00  0.00     0.013 C 
HETATM   10  C22 UNL     1      11.960 -15.453  17.834  1.00  0.00     0.021 C 
HETATM   11  C23 UNL     1      10.600 -15.998  18.100  1.00  0.00     0.127 C 
HETATM   12  N3  UNL     1       9.746 -16.147  16.971  1.00  0.00    -0.333 N 
HETATM   13  C24 UNL     1       8.604 -16.981  17.107  1.00  0.00     0.318 C 
HETATM   14  O3  UNL     1       8.414 -17.546  18.212  1.00  0.00    -0.247 OA
HETATM   15  N4  UNL     1       7.656 -17.219  16.077  1.00  0.00    -0.335 N 
ATOM     16  H4  UNL     1       7.776 -16.775  15.166  1.00  0.00     0.165 HD
HETATM   17  C29 UNL     1       9.964 -15.491  15.669  1.00  0.00     0.137 C 
ENDROOT
BRANCH   4  18
HETATM   18  C9  UNL     1      15.663 -17.143  12.809  1.00  0.00     0.280 C 
BRANCH  18  19
HETATM   19  C10 UNL     1      16.876 -16.272  12.481  1.00  0.00     0.081 C 
BRANCH  19  20
HETATM   20  C11 UNL     1      17.907 -16.634  13.498  1.00  0.00    -0.051 A 
HETATM   21  C12 UNL     1      18.279 -17.930  13.758  1.00  0.00     0.049 A 
HETATM   22  C13 UNL     1      19.232 -18.223  14.704  1.00  0.00     0.118 A 
HETATM   23  F1  UNL     1      19.586 -19.499  14.947  1.00  0.00    -0.206 F 
HETATM   24  C14 UNL     1      19.833 -17.197  15.412  1.00  0.00     0.061 A 
HETATM   25  C15 UNL     1      19.470 -15.903  15.159  1.00  0.00     0.014 A 
HETATM   26 BR1  UNL     1      20.275 -14.468  16.114  1.00  0.00    -0.051 Br
HETATM   27  C16 UNL     1      18.502 -15.621  14.198  1.00  0.00     0.026 A 
ENDBRANCH  19  20
ENDBRANCH  18  19
BRANCH  18  28
HETATM   28  N2  UNL     1      15.764 -18.365  11.989  1.00  0.00    -0.066 N 
HETATM   29  C17 UNL     1      14.723 -19.300  12.353  1.00  0.00     0.267 C 
ATOM     30  H22 UNL     1      15.755 -18.155  10.991  1.00  0.00     0.277 HD
ATOM     31  H21 UNL     1      16.690 -18.787  12.046  1.00  0.00     0.277 HD
ENDBRANCH  18  28
ENDBRANCH   4  18
BRANCH   1  32
HETATM   32  C3  UNL     1      11.152 -13.310  13.578  1.00  0.00     0.063 C 
BRANCH  32  33
HETATM   33  C2  UNL     1      10.722 -12.136  14.387  1.00  0.00     0.034 C 
HETATM   34  C1  UNL     1       9.193 -12.100  14.564  1.00  0.00     0.008 C 
ENDBRANCH  32  33
BRANCH  32  35
HETATM   35  O1  UNL     1      12.173 -12.733  12.733  1.00  0.00    -0.389 OA
ATOM     36  H1  UNL     1      12.969 -13.061  13.134  1.00  0.00     0.210 HD
ENDBRANCH  32  35
BRANCH  32  37
HETATM   37  C4  UNL     1      10.149 -13.653  12.511  1.00  0.00     0.034 C 
HETATM   38  C5  UNL     1      10.205 -12.912  11.236  1.00  0.00     0.008 C 
ENDBRANCH  32  37
ENDBRANCH   1  32
BRANCH  15  39
HETATM   39  C25 UNL     1       6.519 -18.087  16.308  1.00  0.00     0.023 C 
HETATM   40  C26 UNL     1       5.393 -17.776  15.360  1.00  0.00     0.037 C 
HETATM   41  C27 UNL     1       6.911 -19.535  16.107  1.00  0.00     0.037 C 
HETATM   42  C28 UNL     1       5.994 -17.956  17.721  1.00  0.00     0.037 C 
ENDBRANCH  15  39
TORSDOF 9
ENDMDL
