MODEL 1
REMARK VINA RESULT: -9.107937559      0.000      0.000
REMARK  8 active torsions:
REMARK  status: ('A' for Active; 'I' for Inactive)
REMARK    1  A    between atoms: C5_5  and  S1_6 
REMARK    2  A    between atoms: S1_6  and  N1_9 
REMARK       I    between atoms: N1_9  and  C6_11 
REMARK    3  A    between atoms: C6_11  and  C7_13 
REMARK    4  A    between atoms: C7_13  and  C8_14 
REMARK    5  A    between atoms: C8_14  and  C9_15 
REMARK    6  A    between atoms: N3_19  and  C11_20 
REMARK    7  A    between atoms: C12_21  and  C13_22 
REMARK    8  A    between atoms: C17_29  and  C18_30 
ROOT
HETATM    1  C9  UNL     1      13.370 -14.771  12.721  1.00  0.00     0.056 A 
HETATM    2  N2  UNL     1      13.935 -13.566  12.347  1.00  0.00    -0.350 N 
ATOM      3  H2  UNL     1      13.456 -12.804  11.868  1.00  0.00     0.166 HD
HETATM    4  C10 UNL     1      15.196 -13.574  12.716  1.00  0.00     0.189 A 
HETATM    5  N3  UNL     1      15.557 -14.677  13.312  1.00  0.00    -0.308 N 
HETATM    6  C22 UNL     1      14.404 -15.430  13.317  1.00  0.00     0.041 A 
HETATM    7  C23 UNL     1      14.245 -16.804  13.940  1.00  0.00     0.071 C 
ENDROOT
BRANCH   1   8
HETATM    8  C8  UNL     1      11.991 -15.088  12.467  1.00  0.00     0.037 C 
BRANCH   8   9
HETATM    9  C7  UNL     1      10.963 -14.681  13.149  1.00  0.00     0.077 C 
BRANCH   9  10
HETATM   10  C6  UNL     1      10.991 -14.833  14.650  1.00  0.00     0.254 C 
HETATM   11  N1  UNL     1      11.335 -16.069  15.223  1.00  0.00    -0.247 N 
ATOM     12  H1  UNL     1      11.561 -16.859  14.620  1.00  0.00     0.182 HD
HETATM   13  O3  UNL     1      10.705 -13.847  15.364  1.00  0.00    -0.268 OA
BRANCH  11  14
HETATM   14  S1  UNL     1      11.376 -16.258  16.923  1.00  0.00     0.265 S 
HETATM   15  O1  UNL     1      12.398 -17.293  17.343  1.00  0.00    -0.200 OA
HETATM   16  O2  UNL     1      11.779 -14.958  17.582  1.00  0.00    -0.200 OA
BRANCH  14  17
HETATM   17  C5  UNL     1       9.848 -16.727  17.602  1.00  0.00     0.081 A 
HETATM   18  C4  UNL     1       9.578 -16.624  18.961  1.00  0.00     0.026 A 
HETATM   19  C3  UNL     1       8.352 -17.009  19.477  1.00  0.00     0.010 A 
HETATM   20  C2  UNL     1       7.387 -17.501  18.636  1.00  0.00    -0.040 A 
HETATM   21  C1  UNL     1       6.074 -17.910  19.198  1.00  0.00     0.050 C 
HETATM   22  C25 UNL     1       7.634 -17.611  17.290  1.00  0.00     0.041 A 
HETATM   23  C24 UNL     1       8.865 -17.223  16.788  1.00  0.00     0.049 A 
HETATM   24 CL1  UNL     1       6.378 -18.246  16.246  1.00  0.00    -0.084 Cl
ENDBRANCH  14  17
ENDBRANCH  11  14
ENDBRANCH   9  10
ENDBRANCH   8   9
ENDBRANCH   1   8
BRANCH   5  25
HETATM   25  C11 UNL     1      16.729 -15.211  13.866  1.00  0.00     0.064 A 
HETATM   26  C12 UNL     1      16.935 -15.002  15.241  1.00  0.00     0.069 A 
HETATM   27  C14 UNL     1      18.051 -15.548  15.911  1.00  0.00     0.040 A 
HETATM   28  C15 UNL     1      18.933 -16.285  15.201  1.00  0.00     0.012 A 
HETATM   29 BR1  UNL     1      20.450 -17.041  16.053  1.00  0.00    -0.051 Br
HETATM   30  C16 UNL     1      18.720 -16.474  13.875  1.00  0.00     0.029 A 
HETATM   31  C17 UNL     1      17.607 -15.942  13.154  1.00  0.00    -0.021 A 
BRANCH  26  32
HETATM   32  C13 UNL     1      16.041 -14.159  16.026  1.00  0.00     0.211 C 
HETATM   33  O4  UNL     1      16.532 -13.034  16.445  1.00  0.00    -0.644 OA
HETATM   34  O5  UNL     1      14.758 -14.356  16.394  1.00  0.00    -0.644 OA
ENDBRANCH  26  32
BRANCH  31  35
HETATM   35  C18 UNL     1      17.520 -16.186  11.741  1.00  0.00    -0.022 C 
HETATM   36  C19 UNL     1      16.510 -17.339  11.422  1.00  0.00     0.019 C 
HETATM   37  C20 UNL     1      17.394 -15.144  10.709  1.00  0.00     0.019 C 
HETATM   38  C21 UNL     1      18.817 -16.911  11.380  1.00  0.00     0.019 C 
ENDBRANCH  31  35
ENDBRANCH   5  25
TORSDOF 8
ENDMDL
MODEL 2
REMARK VINA RESULT: -9.040958300      1.638      2.176
REMARK  8 active torsions:
REMARK  status: ('A' for Active; 'I' for Inactive)
REMARK    1  A    between atoms: C5_5  and  S1_6 
REMARK    2  A    between atoms: S1_6  and  N1_9 
REMARK       I    between atoms: N1_9  and  C6_11 
REMARK    3  A    between atoms: C6_11  and  C7_13 
REMARK    4  A    between atoms: C7_13  and  C8_14 
REMARK    5  A    between atoms: C8_14  and  C9_15 
REMARK    6  A    between atoms: N3_19  and  C11_20 
REMARK    7  A    between atoms: C12_21  and  C13_22 
REMARK    8  A    between atoms: C17_29  and  C18_30 
ROOT
HETATM    1  C9  UNL     1      13.961 -15.196  12.636  1.00  0.00     0.056 A 
HETATM    2  N2  UNL     1      13.873 -16.496  13.101  1.00  0.00    -0.350 N 
ATOM      3  H2  UNL     1      13.074 -17.120  12.985  1.00  0.00     0.166 HD
HETATM    4  C10 UNL     1      14.997 -16.787  13.716  1.00  0.00     0.189 A 
HETATM    5  N3  UNL     1      15.856 -15.805  13.721  1.00  0.00    -0.308 N 
HETATM    6  C22 UNL     1      15.203 -14.804  13.038  1.00  0.00     0.041 A 
HETATM    7  C23 UNL     1      15.774 -13.438  12.707  1.00  0.00     0.071 C 
ENDROOT
BRANCH   1   8
HETATM    8  C8  UNL     1      12.893 -14.564  11.910  1.00  0.00     0.037 C 
BRANCH   8   9
HETATM    9  C7  UNL     1      12.236 -13.502  12.267  1.00  0.00     0.077 C 
BRANCH   9  10
HETATM   10  C6  UNL     1      11.470 -13.533  13.566  1.00  0.00     0.254 C 
HETATM   11  N1  UNL     1      12.119 -13.912  14.753  1.00  0.00    -0.247 N 
ATOM     12  H1  UNL     1      13.106 -14.168  14.730  1.00  0.00     0.182 HD
HETATM   13  O3  UNL     1      10.260 -13.217  13.564  1.00  0.00    -0.268 OA
BRANCH  11  14
HETATM   14  S1  UNL     1      11.267 -13.948  16.236  1.00  0.00     0.265 S 
HETATM   15  O1  UNL     1      12.211 -13.961  17.420  1.00  0.00    -0.200 OA
HETATM   16  O2  UNL     1      10.412 -12.709  16.377  1.00  0.00    -0.200 OA
BRANCH  14  17
HETATM   17  C5  UNL     1      10.213 -15.320  16.393  1.00  0.00     0.081 A 
HETATM   18  C4  UNL     1       9.707 -15.996  15.291  1.00  0.00     0.026 A 
HETATM   19  C3  UNL     1       8.865 -17.085  15.443  1.00  0.00     0.010 A 
HETATM   20  C2  UNL     1       8.523 -17.505  16.704  1.00  0.00    -0.040 A 
HETATM   21  C1  UNL     1       7.621 -18.675  16.859  1.00  0.00     0.050 C 
HETATM   22  C25 UNL     1       9.012 -16.849  17.807  1.00  0.00     0.041 A 
HETATM   23  C24 UNL     1       9.852 -15.762  17.638  1.00  0.00     0.049 A 
HETATM   24 CL1  UNL     1       8.551 -17.412  19.401  1.00  0.00    -0.084 Cl
ENDBRANCH  14  17
ENDBRANCH  11  14
ENDBRANCH   9  10
ENDBRANCH   8   9
ENDBRANCH   1   8
BRANCH   5  25
HETATM   25  C11 UNL     1      17.142 -15.566  14.227  1.00  0.00     0.064 A 
HETATM   26  C12 UNL     1      17.225 -14.887  15.455  1.00  0.00     0.069 A 
HETATM   27  C14 UNL     1      18.467 -14.649  16.083  1.00  0.00     0.040 A 
HETATM   28  C15 UNL     1      19.592 -15.088  15.477  1.00  0.00     0.012 A 
HETATM   29 BR1  UNL     1      21.286 -14.793  16.279  1.00  0.00    -0.051 Br
HETATM   30  C16 UNL     1      19.492 -15.737  14.291  1.00  0.00     0.029 A 
HETATM   31  C17 UNL     1      18.260 -16.002  13.618  1.00  0.00    -0.021 A 
BRANCH  26  32
HETATM   32  C13 UNL     1      16.041 -14.342  16.107  1.00  0.00     0.211 C 
HETATM   33  O4  UNL     1      16.146 -13.138  16.578  1.00  0.00    -0.644 OA
HETATM   34  O5  UNL     1      14.824 -14.891  16.303  1.00  0.00    -0.644 OA
ENDBRANCH  26  32
BRANCH  31  35
HETATM   35  C18 UNL     1      18.298 -16.668  12.345  1.00  0.00    -0.022 C 
HETATM   36  C19 UNL     1      17.830 -18.157  12.467  1.00  0.00     0.019 C 
HETATM   37  C20 UNL     1      17.786 -16.110  11.083  1.00  0.00     0.019 C 
HETATM   38  C21 UNL     1      19.781 -16.915  12.068  1.00  0.00     0.019 C 
ENDBRANCH  31  35
ENDBRANCH   5  25
TORSDOF 8
ENDMDL
MODEL 3
REMARK VINA RESULT: -9.008762787      4.988      9.658
REMARK  8 active torsions:
REMARK  status: ('A' for Active; 'I' for Inactive)
REMARK    1  A    between atoms: C5_5  and  S1_6 
REMARK    2  A    between atoms: S1_6  and  N1_9 
REMARK       I    between atoms: N1_9  and  C6_11 
REMARK    3  A    between atoms: C6_11  and  C7_13 
REMARK    4  A    between atoms: C7_13  and  C8_14 
REMARK    5  A    between atoms: C8_14  and  C9_15 
REMARK    6  A    between atoms: N3_19  and  C11_20 
REMARK    7  A    between atoms: C12_21  and  C13_22 
REMARK    8  A    between atoms: C17_29  and  C18_30 
ROOT
HETATM    1  C9  UNL     1      15.576 -16.304  15.125  1.00  0.00     0.056 A 
HETATM    2  N2  UNL     1      15.026 -17.188  14.215  1.00  0.00    -0.350 N 
ATOM      3  H2  UNL     1      15.476 -18.026  13.847  1.00  0.00     0.166 HD
HETATM    4  C10 UNL     1      13.822 -16.761  13.906  1.00  0.00     0.189 A 
HETATM    5  N3  UNL     1      13.488 -15.659  14.519  1.00  0.00    -0.308 N 
HETATM    6  C22 UNL     1      14.594 -15.373  15.290  1.00  0.00     0.041 A 
HETATM    7  C23 UNL     1      14.726 -14.209  16.252  1.00  0.00     0.071 C 
ENDROOT
BRANCH   1   8
HETATM    8  C8  UNL     1      16.893 -16.483  15.673  1.00  0.00     0.037 C 
BRANCH   8   9
HETATM    9  C7  UNL     1      17.935 -15.743  15.442  1.00  0.00     0.077 C 
BRANCH   9  10
HETATM   10  C6  UNL     1      18.666 -15.918  14.134  1.00  0.00     0.254 C 
HETATM   11  N1  UNL     1      18.064 -16.634  13.086  1.00  0.00    -0.247 N 
ATOM     12  H1  UNL     1      17.135 -17.035  13.216  1.00  0.00     0.182 HD
HETATM   13  O3  UNL     1      19.805 -15.418  14.005  1.00  0.00    -0.268 OA
BRANCH  11  14
HETATM   14  S1  UNL     1      18.876 -16.839  11.594  1.00  0.00     0.265 S 
HETATM   15  O1  UNL     1      17.910 -17.170  10.476  1.00  0.00    -0.200 OA
HETATM   16  O2  UNL     1      19.573 -15.556  11.200  1.00  0.00    -0.200 OA
BRANCH  14  17
HETATM   17  C5  UNL     1      20.081 -18.089  11.630  1.00  0.00     0.081 A 
HETATM   18  C4  UNL     1      20.408 -18.769  12.796  1.00  0.00     0.026 A 
HETATM   19  C3  UNL     1      21.376 -19.759  12.799  1.00  0.00     0.010 A 
HETATM   20  C2  UNL     1      22.025 -20.076  11.632  1.00  0.00    -0.040 A 
HETATM   21  C1  UNL     1      23.060 -21.141  11.643  1.00  0.00     0.050 C 
HETATM   22  C25 UNL     1      21.716 -19.415  10.469  1.00  0.00     0.041 A 
HETATM   23  C24 UNL     1      20.746 -18.427  10.482  1.00  0.00     0.049 A 
HETATM   24 CL1  UNL     1      22.566 -19.844   8.998  1.00  0.00    -0.084 Cl
ENDBRANCH  14  17
ENDBRANCH  11  14
ENDBRANCH   9  10
ENDBRANCH   8   9
ENDBRANCH   1   8
BRANCH   5  25
HETATM   25  C11 UNL     1      12.387 -14.791  14.549  1.00  0.00     0.064 A 
HETATM   26  C12 UNL     1      12.420 -13.692  13.672  1.00  0.00     0.069 A 
HETATM   27  C14 UNL     1      11.337 -12.792  13.577  1.00  0.00     0.040 A 
HETATM   28  C15 UNL     1      10.252 -13.003  14.356  1.00  0.00     0.012 A 
HETATM   29 BR1  UNL     1       8.770 -11.821  14.268  1.00  0.00    -0.051 Br
HETATM   30  C16 UNL     1      10.241 -14.065  15.198  1.00  0.00     0.029 A 
HETATM   31  C17 UNL     1      11.311 -15.002  15.328  1.00  0.00    -0.021 A 
BRANCH  26  32
HETATM   32  C13 UNL     1      13.597 -13.396  12.865  1.00  0.00     0.211 C 
HETATM   33  O4  UNL     1      13.593 -13.858  11.653  1.00  0.00    -0.644 OA
HETATM   34  O5  UNL     1      14.713 -12.704  13.173  1.00  0.00    -0.644 OA
ENDBRANCH  26  32
BRANCH  31  35
HETATM   35  C18 UNL     1      11.185 -16.064  16.289  1.00  0.00    -0.022 C 
HETATM   36  C19 UNL     1      10.058 -17.071  15.880  1.00  0.00     0.019 C 
HETATM   37  C20 UNL     1      12.308 -16.816  16.870  1.00  0.00     0.019 C 
HETATM   38  C21 UNL     1      10.497 -15.430  17.498  1.00  0.00     0.019 C 
ENDBRANCH  31  35
ENDBRANCH   5  25
TORSDOF 8
ENDMDL
MODEL 4
REMARK VINA RESULT: -8.944695237      2.508      3.782
REMARK  8 active torsions:
REMARK  status: ('A' for Active; 'I' for Inactive)
REMARK    1  A    between atoms: C5_5  and  S1_6 
REMARK    2  A    between atoms: S1_6  and  N1_9 
REMARK       I    between atoms: N1_9  and  C6_11 
REMARK    3  A    between atoms: C6_11  and  C7_13 
REMARK    4  A    between atoms: C7_13  and  C8_14 
REMARK    5  A    between atoms: C8_14  and  C9_15 
REMARK    6  A    between atoms: N3_19  and  C11_20 
REMARK    7  A    between atoms: C12_21  and  C13_22 
REMARK    8  A    between atoms: C17_29  and  C18_30 
ROOT
HETATM    1  C9  UNL     1      15.375 -14.349  13.744  1.00  0.00     0.056 A 
HETATM    2  N2  UNL     1      15.166 -14.878  15.004  1.00  0.00    -0.350 N 
ATOM      3  H2  UNL     1      14.417 -14.617  15.645  1.00  0.00     0.166 HD
HETATM    4  C10 UNL     1      16.100 -15.774  15.232  1.00  0.00     0.189 A 
HETATM    5  N3  UNL     1      16.940 -15.913  14.243  1.00  0.00    -0.308 N 
HETATM    6  C22 UNL     1      16.480 -15.016  13.304  1.00  0.00     0.041 A 
HETATM    7  C23 UNL     1      17.067 -14.801  11.923  1.00  0.00     0.071 C 
ENDROOT
BRANCH   1   8
HETATM    8  C8  UNL     1      14.522 -13.339  13.180  1.00  0.00     0.037 C 
BRANCH   8   9
HETATM    9  C7  UNL     1      13.665 -13.497  12.217  1.00  0.00     0.077 C 
BRANCH   9  10
HETATM   10  C6  UNL     1      12.203 -13.622  12.569  1.00  0.00     0.254 C 
HETATM   11  N1  UNL     1      11.821 -14.277  13.751  1.00  0.00    -0.247 N 
ATOM     12  H1  UNL     1      12.535 -14.668  14.365  1.00  0.00     0.182 HD
HETATM   13  O3  UNL     1      11.350 -13.136  11.794  1.00  0.00    -0.268 OA
BRANCH  11  14
HETATM   14  S1  UNL     1      10.168 -14.425  14.168  1.00  0.00     0.265 S 
HETATM   15  O1  UNL     1       9.528 -13.071  14.394  1.00  0.00    -0.200 OA
HETATM   16  O2  UNL     1       9.404 -15.084  13.042  1.00  0.00    -0.200 OA
BRANCH  14  17
HETATM   17  C5  UNL     1       9.900 -15.374  15.597  1.00  0.00     0.081 A 
HETATM   18  C4  UNL     1      10.497 -15.068  16.813  1.00  0.00     0.026 A 
HETATM   19  C3  UNL     1      10.269 -15.844  17.938  1.00  0.00     0.010 A 
HETATM   20  C2  UNL     1       9.441 -16.935  17.852  1.00  0.00    -0.040 A 
HETATM   21  C1  UNL     1       9.200 -17.761  19.062  1.00  0.00     0.050 C 
HETATM   22  C25 UNL     1       8.842 -17.255  16.659  1.00  0.00     0.041 A 
HETATM   23  C24 UNL     1       9.079 -16.470  15.543  1.00  0.00     0.049 A 
HETATM   24 CL1  UNL     1       7.791 -18.655  16.586  1.00  0.00    -0.084 Cl
ENDBRANCH  14  17
ENDBRANCH  11  14
ENDBRANCH   9  10
ENDBRANCH   8   9
ENDBRANCH   1   8
BRANCH   5  25
HETATM   25  C11 UNL     1      18.085 -16.672  13.966  1.00  0.00     0.064 A 
HETATM   26  C12 UNL     1      17.939 -17.737  13.060  1.00  0.00     0.069 A 
HETATM   27  C14 UNL     1      19.040 -18.526  12.665  1.00  0.00     0.040 A 
HETATM   28  C15 UNL     1      20.257 -18.240  13.179  1.00  0.00     0.012 A 
HETATM   29 BR1  UNL     1      21.770 -19.270  12.681  1.00  0.00    -0.051 Br
HETATM   30  C16 UNL     1      20.378 -17.212  14.054  1.00  0.00     0.029 A 
HETATM   31  C17 UNL     1      19.294 -16.386  14.483  1.00  0.00    -0.021 A 
BRANCH  26  32
HETATM   32  C13 UNL     1      16.633 -18.116  12.535  1.00  0.00     0.211 C 
HETATM   33  O4  UNL     1      16.470 -17.990  11.254  1.00  0.00    -0.644 OA
HETATM   34  O5  UNL     1      15.541 -18.589  13.171  1.00  0.00    -0.644 OA
ENDBRANCH  26  32
BRANCH  31  35
HETATM   35  C18 UNL     1      19.554 -15.351  15.446  1.00  0.00    -0.022 C 
HETATM   36  C19 UNL     1      20.678 -14.380  14.950  1.00  0.00     0.019 C 
HETATM   37  C20 UNL     1      18.523 -14.568  16.145  1.00  0.00     0.019 C 
HETATM   38  C21 UNL     1      20.326 -16.038  16.573  1.00  0.00     0.019 C 
ENDBRANCH  31  35
ENDBRANCH   5  25
TORSDOF 8
ENDMDL
MODEL 5
REMARK VINA RESULT: -8.880886079      4.894      9.743
REMARK  8 active torsions:
REMARK  status: ('A' for Active; 'I' for Inactive)
REMARK    1  A    between atoms: C5_5  and  S1_6 
REMARK    2  A    between atoms: S1_6  and  N1_9 
REMARK       I    between atoms: N1_9  and  C6_11 
REMARK    3  A    between atoms: C6_11  and  C7_13 
REMARK    4  A    between atoms: C7_13  and  C8_14 
REMARK    5  A    between atoms: C8_14  and  C9_15 
REMARK    6  A    between atoms: N3_19  and  C11_20 
REMARK    7  A    between atoms: C12_21  and  C13_22 
REMARK    8  A    between atoms: C17_29  and  C18_30 
ROOT
HETATM    1  C9  UNL     1      14.033 -14.895  15.835  1.00  0.00     0.056 A 
HETATM    2  N2  UNL     1      13.543 -13.911  16.675  1.00  0.00    -0.350 N 
ATOM      3  H2  UNL     1      14.088 -13.159  17.096  1.00  0.00     0.166 HD
HETATM    4  C10 UNL     1      12.255 -14.114  16.835  1.00  0.00     0.189 A 
HETATM    5  N3  UNL     1      11.807 -15.152  16.183  1.00  0.00    -0.308 N 
HETATM    6  C22 UNL     1      12.928 -15.641  15.551  1.00  0.00     0.041 A 
HETATM    7  C23 UNL     1      12.967 -16.829  14.608  1.00  0.00     0.071 C 
ENDROOT
BRANCH   1   8
HETATM    8  C8  UNL     1      15.416 -14.961  15.450  1.00  0.00     0.037 C 
BRANCH   8   9
HETATM    9  C7  UNL     1      16.070 -16.023  15.088  1.00  0.00     0.077 C 
BRANCH   9  10
HETATM   10  C6  UNL     1      16.854 -15.981  13.800  1.00  0.00     0.254 C 
HETATM   11  N1  UNL     1      17.823 -16.963  13.537  1.00  0.00    -0.247 N 
ATOM     12  H1  UNL     1      17.994 -17.700  14.221  1.00  0.00     0.182 HD
HETATM   13  O3  UNL     1      16.625 -15.064  12.981  1.00  0.00    -0.268 OA
BRANCH  11  14
HETATM   14  S1  UNL     1      18.718 -16.934  12.079  1.00  0.00     0.265 S 
HETATM   15  O1  UNL     1      17.822 -17.118  10.872  1.00  0.00    -0.200 OA
HETATM   16  O2  UNL     1      19.400 -15.595  11.913  1.00  0.00    -0.200 OA
BRANCH  14  17
HETATM   17  C5  UNL     1      19.953 -18.153  12.004  1.00  0.00     0.081 A 
HETATM   18  C4  UNL     1      20.366 -18.860  13.125  1.00  0.00     0.026 A 
HETATM   19  C3  UNL     1      21.356 -19.824  13.039  1.00  0.00     0.010 A 
HETATM   20  C2  UNL     1      21.941 -20.088  11.826  1.00  0.00    -0.040 A 
HETATM   21  C1  UNL     1      23.001 -21.125  11.741  1.00  0.00     0.050 C 
HETATM   22  C25 UNL     1      21.548 -19.399  10.705  1.00  0.00     0.041 A 
HETATM   23  C24 UNL     1      20.557 -18.438  10.807  1.00  0.00     0.049 A 
HETATM   24 CL1  UNL     1      22.318 -19.760   9.174  1.00  0.00    -0.084 Cl
ENDBRANCH  14  17
ENDBRANCH  11  14
ENDBRANCH   9  10
ENDBRANCH   8   9
ENDBRANCH   1   8
BRANCH   5  25
HETATM   25  C11 UNL     1      10.582 -15.813  16.019  1.00  0.00     0.064 A 
HETATM   26  C12 UNL     1      10.229 -16.753  17.003  1.00  0.00     0.069 A 
HETATM   27  C14 UNL     1       8.991 -17.430  16.966  1.00  0.00     0.040 A 
HETATM   28  C15 UNL     1       8.137 -17.160  15.955  1.00  0.00     0.012 A 
HETATM   29 BR1  UNL     1       6.460 -18.043  15.859  1.00  0.00    -0.051 Br
HETATM   30  C16 UNL     1       8.495 -16.253  15.013  1.00  0.00     0.029 A 
HETATM   31  C17 UNL     1       9.735 -15.543  15.008  1.00  0.00    -0.021 A 
BRANCH  26  32
HETATM   32  C13 UNL     1      11.150 -17.119  18.072  1.00  0.00     0.211 C 
HETATM   33  O4  UNL     1      10.689 -17.036  19.281  1.00  0.00    -0.644 OA
HETATM   34  O5  UNL     1      12.430 -17.541  18.013  1.00  0.00    -0.644 OA
ENDBRANCH  26  32
BRANCH  31  35
HETATM   35  C18 UNL     1      10.006 -14.636  13.927  1.00  0.00    -0.022 C 
HETATM   36  C19 UNL     1       9.875 -13.145  14.388  1.00  0.00     0.019 C 
HETATM   37  C20 UNL     1      11.138 -14.747  12.993  1.00  0.00     0.019 C 
HETATM   38  C21 UNL     1       8.773 -14.706  13.027  1.00  0.00     0.019 C 
ENDBRANCH  31  35
ENDBRANCH   5  25
TORSDOF 8
ENDMDL
