MODEL 1
REMARK VINA RESULT: -8.743686781      0.000      0.000
REMARK  7 active torsions:
REMARK  status: ('A' for Active; 'I' for Inactive)
REMARK    1  A    between atoms: O1_2  and  C2_3 
REMARK    2  A    between atoms: C7_10  and  C8_11 
REMARK    3  A    between atoms: C8_11  and  N1_12 
REMARK    4  A    between atoms: N1_12  and  C9_14 
REMARK       I    between atoms: N2_17  and  C12_18 
REMARK       I    between atoms: C12_18  and  N3_20 
REMARK    5  A    between atoms: N3_20  and  C13_22 
REMARK    6  A    between atoms: C18_27  and  C19_28 
REMARK       I    between atoms: C19_28  and  N4_30 
REMARK    7  A    between atoms: N4_30  and  C20_32 
ROOT
HETATM    1  C9  UNL     1      14.110 -14.218  16.342  1.00  0.00     0.087 C 
HETATM    2  C10 UNL     1      15.446 -13.732  16.872  1.00  0.00     0.045 C 
HETATM    3  C11 UNL     1      16.437 -14.036  15.831  1.00  0.00     0.135 C 
HETATM    4  N2  UNL     1      16.451 -15.442  15.459  1.00  0.00    -0.314 N 
HETATM    5  C12 UNL     1      17.800 -16.014  15.503  1.00  0.00     0.322 C 
HETATM    6  O2  UNL     1      18.455 -15.670  16.487  1.00  0.00    -0.247 OA
HETATM    7  N3  UNL     1      18.116 -16.820  14.408  1.00  0.00    -0.337 N 
ATOM      8  H3  UNL     1      17.400 -16.996  13.703  1.00  0.00     0.164 HD
HETATM    9  C24 UNL     1      15.277 -16.173  15.221  1.00  0.00     0.070 C 
HETATM   10  C25 UNL     1      14.152 -15.739  16.094  1.00  0.00     0.070 C 
ENDROOT
BRANCH   7  11
HETATM   11  C13 UNL     1      19.431 -17.417  14.240  1.00  0.00     0.099 C 
HETATM   12  C14 UNL     1      20.283 -16.420  13.354  1.00  0.00     0.026 C 
HETATM   13  C15 UNL     1      19.605 -16.132  12.098  1.00  0.00     0.002 C 
HETATM   14  C16 UNL     1      18.681 -17.151  11.540  1.00  0.00     0.001 C 
HETATM   15  C17 UNL     1      18.419 -18.381  12.299  1.00  0.00     0.016 C 
HETATM   16  C18 UNL     1      19.365 -18.662  13.462  1.00  0.00     0.100 C 
BRANCH  16  17
HETATM   17  C19 UNL     1      20.736 -18.954  12.968  1.00  0.00     0.224 C 
HETATM   18  O3  UNL     1      21.737 -18.656  13.611  1.00  0.00    -0.273 OA
HETATM   19  N4  UNL     1      20.880 -19.597  11.723  1.00  0.00    -0.353 N 
ATOM     20  H4  UNL     1      20.017 -19.822  11.228  1.00  0.00     0.163 HD
BRANCH  19  21
HETATM   21  C20 UNL     1      22.078 -19.964  11.083  1.00  0.00     0.022 C 
HETATM   22  C21 UNL     1      23.199 -18.966  11.132  1.00  0.00     0.037 C 
HETATM   23  C22 UNL     1      21.789 -20.286   9.570  1.00  0.00     0.037 C 
HETATM   24  C23 UNL     1      22.577 -21.261  11.652  1.00  0.00     0.037 C 
ENDBRANCH  19  21
ENDBRANCH  16  17
ENDBRANCH   7  11
BRANCH   1  25
HETATM   25  N1  UNL     1      13.057 -13.990  17.166  1.00  0.00    -0.393 N 
ATOM     26  H1  UNL     1      13.188 -14.276  18.137  1.00  0.00     0.159 HD
BRANCH  25  27
HETATM   27  C8  UNL     1      11.828 -13.423  16.872  1.00  0.00     0.097 C 
BRANCH  27  28
HETATM   28  C7  UNL     1      11.132 -14.282  15.911  1.00  0.00     0.015 A 
HETATM   29  C2  UNL     1      10.421 -15.379  16.357  1.00  0.00     0.097 A 
HETATM   30  C3  UNL     1       9.586 -16.015  15.507  1.00  0.00     0.046 A 
HETATM   31 BR1  UNL     1       8.673 -17.581  16.165  1.00  0.00    -0.048 Br
HETATM   32  C4  UNL     1       9.417 -15.615  14.214  1.00  0.00     0.041 A 
HETATM   33  C5  UNL     1      10.091 -14.548  13.711  1.00  0.00     0.013 A 
HETATM   34 BR2  UNL     1       9.882 -13.895  11.973  1.00  0.00    -0.051 Br
HETATM   35  C6  UNL     1      10.959 -13.877  14.567  1.00  0.00     0.034 A 
BRANCH  29  36
HETATM   36  O1  UNL     1      10.566 -15.824  17.645  1.00  0.00    -0.354 OA
HETATM   37  C1  UNL     1       9.725 -15.931  18.680  1.00  0.00     0.210 C 
ENDBRANCH  29  36
ENDBRANCH  27  28
ENDBRANCH  25  27
ENDBRANCH   1  25
TORSDOF 7
ENDMDL
MODEL 2
REMARK VINA RESULT: -8.732158092      4.617      7.441
REMARK  7 active torsions:
REMARK  status: ('A' for Active; 'I' for Inactive)
REMARK    1  A    between atoms: O1_2  and  C2_3 
REMARK    2  A    between atoms: C7_10  and  C8_11 
REMARK    3  A    between atoms: C8_11  and  N1_12 
REMARK    4  A    between atoms: N1_12  and  C9_14 
REMARK       I    between atoms: N2_17  and  C12_18 
REMARK       I    between atoms: C12_18  and  N3_20 
REMARK    5  A    between atoms: N3_20  and  C13_22 
REMARK    6  A    between atoms: C18_27  and  C19_28 
REMARK       I    between atoms: C19_28  and  N4_30 
REMARK    7  A    between atoms: N4_30  and  C20_32 
ROOT
HETATM    1  C9  UNL     1       7.582 -17.221  17.389  1.00  0.00     0.087 C 
HETATM    2  C10 UNL     1       8.633 -17.413  18.466  1.00  0.00     0.045 C 
HETATM    3  C11 UNL     1       9.726 -16.484  18.145  1.00  0.00     0.135 C 
HETATM    4  N2  UNL     1      10.249 -16.672  16.801  1.00  0.00    -0.314 N 
HETATM    5  C12 UNL     1      11.708 -16.816  16.789  1.00  0.00     0.322 C 
HETATM    6  O2  UNL     1      12.145 -17.537  17.685  1.00  0.00    -0.247 OA
HETATM    7  N3  UNL     1      12.346 -16.085  15.785  1.00  0.00    -0.337 N 
ATOM      8  H3  UNL     1      11.778 -15.562  15.119  1.00  0.00     0.164 HD
HETATM    9  C24 UNL     1       9.418 -16.829  15.681  1.00  0.00     0.070 C 
HETATM   10  C25 UNL     1       8.164 -17.564  16.004  1.00  0.00     0.070 C 
ENDROOT
BRANCH   7  11
HETATM   11  C13 UNL     1      13.794 -16.045  15.659  1.00  0.00     0.099 C 
HETATM   12  C14 UNL     1      14.209 -14.520  15.563  1.00  0.00     0.026 C 
HETATM   13  C15 UNL     1      13.507 -13.858  14.473  1.00  0.00     0.002 C 
HETATM   14  C16 UNL     1      13.073 -14.671  13.310  1.00  0.00     0.001 C 
HETATM   15  C17 UNL     1      13.295 -16.123  13.321  1.00  0.00     0.016 C 
HETATM   16  C18 UNL     1      14.243 -16.646  14.395  1.00  0.00     0.100 C 
BRANCH  16  17
HETATM   17  C19 UNL     1      15.632 -16.177  14.146  1.00  0.00     0.224 C 
HETATM   18  O3  UNL     1      15.937 -15.554  13.135  1.00  0.00    -0.273 OA
HETATM   19  N4  UNL     1      16.620 -16.459  15.110  1.00  0.00    -0.353 N 
ATOM     20  H4  UNL     1      16.314 -16.980  15.931  1.00  0.00     0.163 HD
BRANCH  19  21
HETATM   21  C20 UNL     1      17.981 -16.102  15.069  1.00  0.00     0.022 C 
HETATM   22  C21 UNL     1      18.582 -15.901  13.708  1.00  0.00     0.037 C 
HETATM   23  C22 UNL     1      18.833 -17.197  15.812  1.00  0.00     0.037 C 
HETATM   24  C23 UNL     1      18.200 -14.852  15.870  1.00  0.00     0.037 C 
ENDBRANCH  19  21
ENDBRANCH  16  17
ENDBRANCH   7  11
BRANCH   1  25
HETATM   25  N1  UNL     1       6.470 -17.983  17.540  1.00  0.00    -0.393 N 
ATOM     26  H1  UNL     1       6.573 -18.796  18.149  1.00  0.00     0.159 HD
BRANCH  25  27
HETATM   27  C8  UNL     1       5.213 -17.811  16.983  1.00  0.00     0.097 C 
BRANCH  27  28
HETATM   28  C7  UNL     1       4.277 -18.724  17.644  1.00  0.00     0.015 A 
HETATM   29  C2  UNL     1       3.728 -18.383  18.864  1.00  0.00     0.097 A 
HETATM   30  C3  UNL     1       2.689 -19.100  19.343  1.00  0.00     0.046 A 
HETATM   31 BR1  UNL     1       2.008 -18.620  21.084  1.00  0.00    -0.048 Br
HETATM   32  C4  UNL     1       2.158 -20.159  18.667  1.00  0.00     0.041 A 
HETATM   33  C5  UNL     1       2.656 -20.550  17.465  1.00  0.00     0.013 A 
HETATM   34 BR2  UNL     1       1.960 -21.950  16.442  1.00  0.00    -0.051 Br
HETATM   35  C6  UNL     1       3.728 -19.828  16.950  1.00  0.00     0.034 A 
BRANCH  29  36
HETATM   36  O1  UNL     1       4.234 -17.333  19.585  1.00  0.00    -0.354 OA
HETATM   37  C1  UNL     1       5.308 -17.191  20.371  1.00  0.00     0.210 C 
ENDBRANCH  29  36
ENDBRANCH  27  28
ENDBRANCH  25  27
ENDBRANCH   1  25
TORSDOF 7
ENDMDL
MODEL 3
REMARK VINA RESULT: -8.696079249      0.932      2.147
REMARK  7 active torsions:
REMARK  status: ('A' for Active; 'I' for Inactive)
REMARK    1  A    between atoms: O1_2  and  C2_3 
REMARK    2  A    between atoms: C7_10  and  C8_11 
REMARK    3  A    between atoms: C8_11  and  N1_12 
REMARK    4  A    between atoms: N1_12  and  C9_14 
REMARK       I    between atoms: N2_17  and  C12_18 
REMARK       I    between atoms: C12_18  and  N3_20 
REMARK    5  A    between atoms: N3_20  and  C13_22 
REMARK    6  A    between atoms: C18_27  and  C19_28 
REMARK       I    between atoms: C19_28  and  N4_30 
REMARK    7  A    between atoms: N4_30  and  C20_32 
ROOT
HETATM    1  C9  UNL     1      14.008 -14.292  16.253  1.00  0.00     0.087 C 
HETATM    2  C10 UNL     1      15.332 -13.823  16.826  1.00  0.00     0.045 C 
HETATM    3  C11 UNL     1      16.350 -14.123  15.809  1.00  0.00     0.135 C 
HETATM    4  N2  UNL     1      16.362 -15.525  15.420  1.00  0.00    -0.314 N 
HETATM    5  C12 UNL     1      17.705 -16.108  15.495  1.00  0.00     0.322 C 
HETATM    6  O2  UNL     1      18.335 -15.782  16.501  1.00  0.00    -0.247 OA
HETATM    7  N3  UNL     1      18.044 -16.904  14.400  1.00  0.00    -0.337 N 
ATOM      8  H3  UNL     1      17.347 -17.065  13.673  1.00  0.00     0.164 HD
HETATM    9  C24 UNL     1      15.189 -16.243  15.141  1.00  0.00     0.070 C 
HETATM   10  C25 UNL     1      14.044 -15.809  15.988  1.00  0.00     0.070 C 
ENDROOT
BRANCH   7  11
HETATM   11  C13 UNL     1      19.359 -17.510  14.261  1.00  0.00     0.099 C 
HETATM   12  C14 UNL     1      20.262 -16.481  13.467  1.00  0.00     0.026 C 
HETATM   13  C15 UNL     1      19.647 -16.119  12.199  1.00  0.00     0.002 C 
HETATM   14  C16 UNL     1      18.738 -17.094  11.547  1.00  0.00     0.001 C 
HETATM   15  C17 UNL     1      18.426 -18.358  12.228  1.00  0.00     0.016 C 
HETATM   16  C18 UNL     1      19.314 -18.713  13.417  1.00  0.00     0.100 C 
BRANCH  16  17
HETATM   17  C19 UNL     1      20.703 -18.998  12.971  1.00  0.00     0.224 C 
HETATM   18  O3  UNL     1      21.678 -18.711  13.656  1.00  0.00    -0.273 OA
HETATM   19  N4  UNL     1      20.894 -19.622  11.722  1.00  0.00    -0.353 N 
ATOM     20  H4  UNL     1      20.050 -19.838  11.192  1.00  0.00     0.163 HD
BRANCH  19  21
HETATM   21  C20 UNL     1      22.116 -19.980  11.123  1.00  0.00     0.022 C 
HETATM   22  C21 UNL     1      23.237 -18.988  11.239  1.00  0.00     0.037 C 
HETATM   23  C22 UNL     1      21.887 -20.268   9.593  1.00  0.00     0.037 C 
HETATM   24  C23 UNL     1      22.587 -21.291  11.683  1.00  0.00     0.037 C 
ENDBRANCH  19  21
ENDBRANCH  16  17
ENDBRANCH   7  11
BRANCH   1  25
HETATM   25  N1  UNL     1      12.934 -14.065  17.051  1.00  0.00    -0.393 N 
ATOM     26  H1  UNL     1      12.951 -14.535  17.956  1.00  0.00     0.159 HD
BRANCH  25  27
HETATM   27  C8  UNL     1      11.817 -13.281  16.806  1.00  0.00     0.097 C 
BRANCH  27  28
HETATM   28  C7  UNL     1      10.815 -14.097  16.114  1.00  0.00     0.015 A 
HETATM   29  C2  UNL     1      10.668 -13.991  14.745  1.00  0.00     0.097 A 
HETATM   30  C3  UNL     1       9.930 -14.913  14.088  1.00  0.00     0.046 A 
HETATM   31 BR1  UNL     1       9.703 -14.675  12.187  1.00  0.00    -0.048 Br
HETATM   32  C4  UNL     1       9.317 -15.949  14.728  1.00  0.00     0.041 A 
HETATM   33  C5  UNL     1       9.417 -16.106  16.074  1.00  0.00     0.013 A 
HETATM   34 BR2  UNL     1       8.659 -17.522  17.028  1.00  0.00    -0.051 Br
HETATM   35  C6  UNL     1      10.170 -15.169  16.774  1.00  0.00     0.034 A 
BRANCH  29  36
HETATM   36  O1  UNL     1      11.258 -12.961  14.060  1.00  0.00    -0.354 OA
HETATM   37  C1  UNL     1      12.361 -12.870  13.309  1.00  0.00     0.210 C 
ENDBRANCH  29  36
ENDBRANCH  27  28
ENDBRANCH  25  27
ENDBRANCH   1  25
TORSDOF 7
ENDMDL
MODEL 4
REMARK VINA RESULT: -8.299597437      3.970     10.680
REMARK  7 active torsions:
REMARK  status: ('A' for Active; 'I' for Inactive)
REMARK    1  A    between atoms: O1_2  and  C2_3 
REMARK    2  A    between atoms: C7_10  and  C8_11 
REMARK    3  A    between atoms: C8_11  and  N1_12 
REMARK    4  A    between atoms: N1_12  and  C9_14 
REMARK       I    between atoms: N2_17  and  C12_18 
REMARK       I    between atoms: C12_18  and  N3_20 
REMARK    5  A    between atoms: N3_20  and  C13_22 
REMARK    6  A    between atoms: C18_27  and  C19_28 
REMARK       I    between atoms: C19_28  and  N4_30 
REMARK    7  A    between atoms: N4_30  and  C20_32 
ROOT
HETATM    1  C9  UNL     1      16.998 -15.652  11.635  1.00  0.00     0.087 C 
HETATM    2  C10 UNL     1      16.398 -17.045  11.597  1.00  0.00     0.045 C 
HETATM    3  C11 UNL     1      14.941 -16.868  11.686  1.00  0.00     0.135 C 
HETATM    4  N2  UNL     1      14.536 -16.106  12.857  1.00  0.00    -0.314 N 
HETATM    5  C12 UNL     1      13.494 -16.789  13.629  1.00  0.00     0.322 C 
HETATM    6  O2  UNL     1      13.686 -17.998  13.763  1.00  0.00    -0.247 OA
HETATM    7  N3  UNL     1      12.455 -15.958  14.048  1.00  0.00    -0.337 N 
ATOM      8  H3  UNL     1      12.510 -14.960  13.845  1.00  0.00     0.164 HD
HETATM    9  C24 UNL     1      15.181 -14.923  13.250  1.00  0.00     0.070 C 
HETATM   10  C25 UNL     1      16.641 -14.949  12.959  1.00  0.00     0.070 C 
ENDROOT
BRANCH   7  11
HETATM   11  C13 UNL     1      11.296 -16.467  14.764  1.00  0.00     0.099 C 
HETATM   12  C14 UNL     1      10.055 -15.590  14.322  1.00  0.00     0.026 C 
HETATM   13  C15 UNL     1      10.311 -14.175  14.552  1.00  0.00     0.002 C 
HETATM   14  C16 UNL     1      11.252 -13.790  15.632  1.00  0.00     0.001 C 
HETATM   15  C17 UNL     1      11.954 -14.837  16.386  1.00  0.00     0.016 C 
HETATM   16  C18 UNL     1      11.420 -16.256  16.213  1.00  0.00     0.100 C 
BRANCH  16  17
HETATM   17  C19 UNL     1      10.061 -16.383  16.801  1.00  0.00     0.224 C 
HETATM   18  O3  UNL     1       9.636 -15.593  17.637  1.00  0.00    -0.273 OA
HETATM   19  N4  UNL     1       9.241 -17.447  16.376  1.00  0.00    -0.353 N 
ATOM     20  H4  UNL     1       9.642 -18.076  15.680  1.00  0.00     0.163 HD
BRANCH  19  21
HETATM   21  C20 UNL     1       7.932 -17.740  16.800  1.00  0.00     0.022 C 
HETATM   22  C21 UNL     1       7.657 -17.609  18.270  1.00  0.00     0.037 C 
HETATM   23  C22 UNL     1       7.557 -19.208  16.372  1.00  0.00     0.037 C 
HETATM   24  C23 UNL     1       6.955 -16.874  16.060  1.00  0.00     0.037 C 
ENDBRANCH  19  21
ENDBRANCH  16  17
ENDBRANCH   7  11
BRANCH   1  25
HETATM   25  N1  UNL     1      18.350 -15.615  11.531  1.00  0.00    -0.393 N 
ATOM     26  H1  UNL     1      18.795 -14.763  11.873  1.00  0.00     0.159 HD
BRANCH  25  27
HETATM   27  C8  UNL     1      19.211 -16.576  11.024  1.00  0.00     0.097 C 
BRANCH  27  28
HETATM   28  C7  UNL     1      19.746 -17.361  12.139  1.00  0.00     0.015 A 
HETATM   29  C2  UNL     1      20.524 -18.474  11.888  1.00  0.00     0.097 A 
HETATM   30  C3  UNL     1      21.214 -19.040  12.902  1.00  0.00     0.046 A 
HETATM   31 BR1  UNL     1      22.229 -20.632  12.504  1.00  0.00    -0.048 Br
HETATM   32  C4  UNL     1      21.169 -18.556  14.176  1.00  0.00     0.041 A 
HETATM   33  C5  UNL     1      20.417 -17.468  14.492  1.00  0.00     0.013 A 
HETATM   34 BR2  UNL     1      20.338 -16.702  16.194  1.00  0.00    -0.051 Br
HETATM   35  C6  UNL     1      19.696 -16.868  13.465  1.00  0.00     0.034 A 
BRANCH  29  36
HETATM   36  O1  UNL     1      20.593 -19.002  10.625  1.00  0.00    -0.354 OA
HETATM   37  C1  UNL     1      21.407 -18.793   9.584  1.00  0.00     0.210 C 
ENDBRANCH  29  36
ENDBRANCH  27  28
ENDBRANCH  25  27
ENDBRANCH   1  25
TORSDOF 7
ENDMDL
MODEL 5
REMARK VINA RESULT: -8.216510959      4.971      8.366
REMARK  7 active torsions:
REMARK  status: ('A' for Active; 'I' for Inactive)
REMARK    1  A    between atoms: O1_2  and  C2_3 
REMARK    2  A    between atoms: C7_10  and  C8_11 
REMARK    3  A    between atoms: C8_11  and  N1_12 
REMARK    4  A    between atoms: N1_12  and  C9_14 
REMARK       I    between atoms: N2_17  and  C12_18 
REMARK       I    between atoms: C12_18  and  N3_20 
REMARK    5  A    between atoms: N3_20  and  C13_22 
REMARK    6  A    between atoms: C18_27  and  C19_28 
REMARK       I    between atoms: C19_28  and  N4_30 
REMARK    7  A    between atoms: N4_30  and  C20_32 
ROOT
HETATM    1  C9  UNL     1       6.839 -17.304  18.164  1.00  0.00     0.087 C 
HETATM    2  C10 UNL     1       7.965 -17.236  19.178  1.00  0.00     0.045 C 
HETATM    3  C11 UNL     1       8.984 -16.347  18.602  1.00  0.00     0.135 C 
HETATM    4  N2  UNL     1       9.429 -16.778  17.286  1.00  0.00    -0.314 N 
HETATM    5  C12 UNL     1      10.890 -16.863  17.196  1.00  0.00     0.322 C 
HETATM    6  O2  UNL     1      11.421 -17.374  18.182  1.00  0.00    -0.247 OA
HETATM    7  N3  UNL     1      11.422 -16.322  16.025  1.00  0.00    -0.337 N 
ATOM      8  H3  UNL     1      10.786 -15.966  15.312  1.00  0.00     0.164 HD
HETATM    9  C24 UNL     1       8.538 -17.188  16.283  1.00  0.00     0.070 C 
HETATM   10  C25 UNL     1       7.348 -17.893  16.835  1.00  0.00     0.070 C 
ENDROOT
BRANCH   7  11
HETATM   11  C13 UNL     1      12.855 -16.251  15.787  1.00  0.00     0.099 C 
HETATM   12  C14 UNL     1      13.351 -14.860  16.357  1.00  0.00     0.026 C 
HETATM   13  C15 UNL     1      12.604 -13.760  15.766  1.00  0.00     0.002 C 
HETATM   14  C16 UNL     1      12.029 -13.939  14.410  1.00  0.00     0.001 C 
HETATM   15  C17 UNL     1      12.164 -15.236  13.734  1.00  0.00     0.016 C 
HETATM   16  C18 UNL     1      13.164 -16.210  14.350  1.00  0.00     0.100 C 
BRANCH  16  17
HETATM   17  C19 UNL     1      14.553 -15.700  14.206  1.00  0.00     0.224 C 
HETATM   18  O3  UNL     1      14.834 -14.783  13.442  1.00  0.00    -0.273 OA
HETATM   19  N4  UNL     1      15.571 -16.293  14.979  1.00  0.00    -0.353 N 
ATOM     20  H4  UNL     1      15.284 -17.052  15.597  1.00  0.00     0.163 HD
BRANCH  19  21
HETATM   21  C20 UNL     1      16.937 -15.958  14.996  1.00  0.00     0.022 C 
HETATM   22  C21 UNL     1      17.573 -15.663  13.667  1.00  0.00     0.037 C 
HETATM   23  C22 UNL     1      17.755 -17.121  15.671  1.00  0.00     0.037 C 
HETATM   24  C23 UNL     1      17.157 -14.776  15.895  1.00  0.00     0.037 C 
ENDBRANCH  19  21
ENDBRANCH  16  17
ENDBRANCH   7  11
BRANCH   1  25
HETATM   25  N1  UNL     1       5.781 -18.065  18.544  1.00  0.00    -0.393 N 
ATOM     26  H1  UNL     1       5.938 -19.073  18.534  1.00  0.00     0.159 HD
BRANCH  25  27
HETATM   27  C8  UNL     1       4.517 -17.662  18.943  1.00  0.00     0.097 C 
BRANCH  27  28
HETATM   28  C7  UNL     1       3.624 -18.824  18.918  1.00  0.00     0.015 A 
HETATM   29  C2  UNL     1       3.306 -19.422  17.716  1.00  0.00     0.097 A 
HETATM   30  C3  UNL     1       2.695 -20.627  17.720  1.00  0.00     0.046 A 
HETATM   31 BR1  UNL     1       2.212 -21.383  16.011  1.00  0.00    -0.048 Br
HETATM   32  C4  UNL     1       2.375 -21.280  18.874  1.00  0.00     0.041 A 
HETATM   33  C5  UNL     1       2.655 -20.743  20.090  1.00  0.00     0.013 A 
HETATM   34 BR2  UNL     1       2.305 -21.587  21.719  1.00  0.00    -0.051 Br
HETATM   35  C6  UNL     1       3.283 -19.501  20.112  1.00  0.00     0.034 A 
BRANCH  29  36
HETATM   36  O1  UNL     1       3.599 -18.800  16.530  1.00  0.00    -0.354 OA
HETATM   37  C1  UNL     1       4.485 -19.045  15.558  1.00  0.00     0.210 C 
ENDBRANCH  29  36
ENDBRANCH  27  28
ENDBRANCH  25  27
ENDBRANCH   1  25
TORSDOF 7
ENDMDL
