MODEL 1
REMARK VINA RESULT: -4.975645866      0.000      0.000
REMARK  1 active torsions:
REMARK  status: ('A' for Active; 'I' for Inactive)
REMARK    1  A    between atoms: N1_2  and  C2_5 
ROOT
HETATM    1  C2  UNL     1      18.535  -6.792  99.746  1.00  0.00     0.418 C 
HETATM    2  C3  UNL     1      19.397  -7.445  98.670  1.00  0.00     0.071 C 
HETATM    3  C4  UNL     1      18.801  -8.839  98.654  1.00  0.00     0.013 C 
HETATM    4  C5  UNL     1      19.754  -9.875  98.123  1.00  0.00     0.012 C 
HETATM    5  C6  UNL     1      18.628  -9.091 100.125  1.00  0.00     0.279 C 
HETATM    6  N2  UNL     1      18.363  -7.820 100.726  1.00  0.00     0.115 N 
HETATM    7  C7  UNL     1      17.117  -7.802 101.425  1.00  0.00     0.312 C 
ENDROOT
BRANCH   1   8
HETATM    8  N1  UNL     1      19.340  -5.743 100.360  1.00  0.00    -0.047 N 
HETATM    9  C1  UNL     1      18.680  -4.467 100.370  1.00  0.00     0.269 C 
ATOM     10  H12 UNL     1      20.255  -5.677  99.914  1.00  0.00     0.279 HD
ATOM     11  H11 UNL     1      19.633  -6.011 101.299  1.00  0.00     0.279 HD
ENDBRANCH   1   8
TORSDOF 1
ENDMDL
MODEL 2
REMARK VINA RESULT: -4.956257389      1.292      2.789
REMARK  1 active torsions:
REMARK  status: ('A' for Active; 'I' for Inactive)
REMARK    1  A    between atoms: N1_2  and  C2_5 
ROOT
HETATM    1  C2  UNL     1      18.526  -8.310 100.427  1.00  0.00     0.418 C 
HETATM    2  C3  UNL     1      18.585  -9.588  99.595  1.00  0.00     0.071 C 
HETATM    3  C4  UNL     1      19.554  -9.161  98.511  1.00  0.00     0.013 C 
HETATM    4  C5  UNL     1      19.408  -9.966  97.248  1.00  0.00     0.012 C 
HETATM    5  C6  UNL     1      19.064  -7.769  98.224  1.00  0.00     0.279 C 
HETATM    6  N2  UNL     1      18.543  -7.260  99.455  1.00  0.00     0.115 N 
HETATM    7  C7  UNL     1      19.197  -6.056  99.862  1.00  0.00     0.312 C 
ENDROOT
BRANCH   1   8
HETATM    8  N1  UNL     1      17.217  -8.279 101.069  1.00  0.00    -0.047 N 
HETATM    9  C1  UNL     1      16.542  -9.546 101.023  1.00  0.00     0.269 C 
ATOM     10  H12 UNL     1      16.634  -7.540 100.676  1.00  0.00     0.279 HD
ATOM     11  H11 UNL     1      17.290  -7.939 102.028  1.00  0.00     0.279 HD
ENDBRANCH   1   8
TORSDOF 1
ENDMDL
MODEL 3
REMARK VINA RESULT: -4.922127779      1.457      2.400
REMARK  1 active torsions:
REMARK  status: ('A' for Active; 'I' for Inactive)
REMARK    1  A    between atoms: N1_2  and  C2_5 
ROOT
HETATM    1  C2  UNL     1      18.936  -7.516  99.600  1.00  0.00     0.418 C 
HETATM    2  C3  UNL     1      18.274  -8.735 100.236  1.00  0.00     0.071 C 
HETATM    3  C4  UNL     1      18.675  -9.809  99.244  1.00  0.00     0.013 C 
HETATM    4  C5  UNL     1      17.749 -10.994  99.263  1.00  0.00     0.012 C 
HETATM    5  C6  UNL     1      18.464  -9.086  97.943  1.00  0.00     0.279 C 
HETATM    6  N2  UNL     1      18.740  -7.705  98.196  1.00  0.00     0.115 N 
HETATM    7  C7  UNL     1      19.780  -7.200  97.356  1.00  0.00     0.312 C 
ENDROOT
BRANCH   1   8
HETATM    8  N1  UNL     1      18.150  -6.352  99.990  1.00  0.00    -0.047 N 
HETATM    9  C1  UNL     1      18.955  -5.181 100.205  1.00  0.00     0.269 C 
ATOM     10  H12 UNL     1      17.577  -6.555 100.809  1.00  0.00     0.279 HD
ATOM     11  H11 UNL     1      17.411  -6.167  99.313  1.00  0.00     0.279 HD
ENDBRANCH   1   8
TORSDOF 1
ENDMDL
MODEL 4
REMARK VINA RESULT: -4.789763801      1.496      2.582
REMARK  1 active torsions:
REMARK  status: ('A' for Active; 'I' for Inactive)
REMARK    1  A    between atoms: N1_2  and  C2_5 
ROOT
HETATM    1  C2  UNL     1      18.933  -7.830  99.960  1.00  0.00     0.418 C 
HETATM    2  C3  UNL     1      18.270  -9.118 100.440  1.00  0.00     0.071 C 
HETATM    3  C4  UNL     1      18.622 -10.046  99.295  1.00  0.00     0.013 C 
HETATM    4  C5  UNL     1      17.677 -11.211  99.177  1.00  0.00     0.012 C 
HETATM    5  C6  UNL     1      18.384  -9.146  98.115  1.00  0.00     0.279 C 
HETATM    6  N2  UNL     1      18.691  -7.817  98.550  1.00  0.00     0.115 N 
HETATM    7  C7  UNL     1      19.714  -7.212  97.756  1.00  0.00     0.312 C 
ENDROOT
BRANCH   1   8
HETATM    8  N1  UNL     1      18.178  -6.722 100.535  1.00  0.00    -0.047 N 
HETATM    9  C1  UNL     1      17.255  -7.143 101.551  1.00  0.00     0.269 C 
ATOM     10  H12 UNL     1      17.702  -6.188  99.807  1.00  0.00     0.279 HD
ATOM     11  H11 UNL     1      18.805  -5.999 100.887  1.00  0.00     0.279 HD
ENDBRANCH   1   8
TORSDOF 1
ENDMDL
MODEL 5
REMARK VINA RESULT: -4.766100766      1.384      3.526
REMARK  1 active torsions:
REMARK  status: ('A' for Active; 'I' for Inactive)
REMARK    1  A    between atoms: N1_2  and  C2_5 
ROOT
HETATM    1  C2  UNL     1      19.023  -8.190  98.760  1.00  0.00     0.418 C 
HETATM    2  C3  UNL     1      19.182  -6.686  98.555  1.00  0.00     0.071 C 
HETATM    3  C4  UNL     1      19.138  -6.210  99.994  1.00  0.00     0.013 C 
HETATM    4  C5  UNL     1      18.716  -4.772 100.120  1.00  0.00     0.012 C 
HETATM    5  C6  UNL     1      18.027  -7.061 100.541  1.00  0.00     0.279 C 
HETATM    6  N2  UNL     1      18.072  -8.298  99.823  1.00  0.00     0.115 N 
HETATM    7  C7  UNL     1      18.244  -9.420 100.691  1.00  0.00     0.312 C 
ENDROOT
BRANCH   1   8
HETATM    8  N1  UNL     1      18.388  -8.720  97.559  1.00  0.00    -0.047 N 
HETATM    9  C1  UNL     1      19.102  -9.831  96.995  1.00  0.00     0.269 C 
ATOM     10  H12 UNL     1      18.249  -7.985  96.866  1.00  0.00     0.279 HD
ATOM     11  H11 UNL     1      17.415  -8.964  97.740  1.00  0.00     0.279 HD
ENDBRANCH   1   8
TORSDOF 1
ENDMDL
