MODEL 1
REMARK VINA RESULT: -5.771945185      0.000      0.000
REMARK  2 active torsions:
REMARK  status: ('A' for Active; 'I' for Inactive)
REMARK    1  A    between atoms: C2_2  and  C3_3 
REMARK    2  A    between atoms: C6_6  and  N1_7 
ROOT
HETATM    1  C3  UNL     1      19.198  -9.160  98.012  1.00  0.00     0.024 C 
HETATM    2  C4  UNL     1      18.832  -7.767  97.624  1.00  0.00     0.012 C 
HETATM    3  C5  UNL     1      19.427  -6.707  98.507  1.00  0.00     0.039 C 
HETATM    4  C6  UNL     1      18.706  -6.604  99.828  1.00  0.00     0.221 C 
HETATM    5  C7  UNL     1      18.832  -7.891 100.620  1.00  0.00     0.092 C 
HETATM    6  N2  UNL     1      17.956  -8.850 100.115  1.00  0.00    -0.380 N 
ATOM      7  H2  UNL     1      17.000  -8.907 100.466  1.00  0.00     0.164 HD
HETATM    8  C8  UNL     1      18.394  -9.733  99.127  1.00  0.00     0.064 C 
ENDROOT
BRANCH   4   9
HETATM    9  N1  UNL     1      19.245  -5.469 100.550  1.00  0.00    -0.070 N 
ATOM     10  H13 UNL     1      20.249  -5.352 100.407  1.00  0.00     0.275 HD
ATOM     11  H12 UNL     1      18.946  -4.575 100.159  1.00  0.00     0.275 HD
ATOM     12  H11 UNL     1      18.997  -5.571 101.533  1.00  0.00     0.275 HD
ENDBRANCH   4   9
BRANCH   1  13
HETATM   13  C2  UNL     1      18.992 -10.042  96.780  1.00  0.00     0.005 C 
HETATM   14  C1  UNL     1      17.577 -10.051  96.315  1.00  0.00     0.006 C 
ENDBRANCH   1  13
TORSDOF 2
ENDMDL
MODEL 2
REMARK VINA RESULT: -5.562412832      1.504      1.790
REMARK  2 active torsions:
REMARK  status: ('A' for Active; 'I' for Inactive)
REMARK    1  A    between atoms: C2_2  and  C3_3 
REMARK    2  A    between atoms: C6_6  and  N1_7 
ROOT
HETATM    1  C3  UNL     1      19.128  -9.566  99.169  1.00  0.00     0.024 C 
HETATM    2  C4  UNL     1      18.804  -8.115  99.055  1.00  0.00     0.012 C 
HETATM    3  C5  UNL     1      18.704  -7.401 100.373  1.00  0.00     0.039 C 
HETATM    4  C6  UNL     1      17.408  -7.707 101.082  1.00  0.00     0.221 C 
HETATM    5  C7  UNL     1      17.309  -9.182 101.424  1.00  0.00     0.092 C 
HETATM    6  N2  UNL     1      16.964  -9.913 100.289  1.00  0.00    -0.380 N 
ATOM      7  H2  UNL     1      15.982 -10.058 100.051  1.00  0.00     0.164 HD
HETATM    8  C8  UNL     1      17.968 -10.446  99.480  1.00  0.00     0.064 C 
ENDROOT
BRANCH   4   9
HETATM    9  N1  UNL     1      17.331  -6.871 102.263  1.00  0.00    -0.070 N 
ATOM     10  H13 UNL     1      16.499  -7.057 102.824  1.00  0.00     0.275 HD
ATOM     11  H12 UNL     1      18.028  -7.116 102.965  1.00  0.00     0.275 HD
ATOM     12  H11 UNL     1      17.397  -5.897 101.967  1.00  0.00     0.275 HD
ENDBRANCH   4   9
BRANCH   1  13
HETATM   13  C2  UNL     1      19.709 -10.008  97.825  1.00  0.00     0.005 C 
HETATM   14  C1  UNL     1      18.765  -9.785  96.695  1.00  0.00     0.006 C 
ENDBRANCH   1  13
TORSDOF 2
ENDMDL
MODEL 3
REMARK VINA RESULT: -5.542923786      1.544      2.316
REMARK  2 active torsions:
REMARK  status: ('A' for Active; 'I' for Inactive)
REMARK    1  A    between atoms: C2_2  and  C3_3 
REMARK    2  A    between atoms: C6_6  and  N1_7 
ROOT
HETATM    1  C3  UNL     1      18.393  -9.129  98.774  1.00  0.00     0.024 C 
HETATM    2  C4  UNL     1      18.709  -8.788 100.191  1.00  0.00     0.012 C 
HETATM    3  C5  UNL     1      18.207  -7.441 100.626  1.00  0.00     0.039 C 
HETATM    4  C6  UNL     1      19.064  -6.320 100.091  1.00  0.00     0.221 C 
HETATM    5  C7  UNL     1      19.028  -6.282  98.575  1.00  0.00     0.092 C 
HETATM    6  N2  UNL     1      19.850  -7.280  98.053  1.00  0.00    -0.380 N 
ATOM      7  H2  UNL     1      20.838  -7.093  97.882  1.00  0.00     0.164 HD
HETATM    8  C8  UNL     1      19.313  -8.535  97.765  1.00  0.00     0.064 C 
ENDROOT
BRANCH   4   9
HETATM    9  N1  UNL     1      18.599  -5.078 100.675  1.00  0.00    -0.070 N 
ATOM     10  H13 UNL     1      17.939  -4.583 100.074  1.00  0.00     0.275 HD
ATOM     11  H12 UNL     1      17.976  -5.225 101.470  1.00  0.00     0.275 HD
ATOM     12  H11 UNL     1      19.414  -4.514 100.913  1.00  0.00     0.275 HD
ENDBRANCH   4   9
BRANCH   1  13
HETATM   13  C2  UNL     1      18.472 -10.651  98.646  1.00  0.00     0.005 C 
HETATM   14  C1  UNL     1      17.498 -11.349  99.531  1.00  0.00     0.006 C 
ENDBRANCH   1  13
TORSDOF 2
ENDMDL
MODEL 4
REMARK VINA RESULT: -5.426812671      1.183      2.207
REMARK  2 active torsions:
REMARK  status: ('A' for Active; 'I' for Inactive)
REMARK    1  A    between atoms: C2_2  and  C3_3 
REMARK    2  A    between atoms: C6_6  and  N1_7 
ROOT
HETATM    1  C3  UNL     1      18.375  -8.859  97.967  1.00  0.00     0.024 C 
HETATM    2  C4  UNL     1      18.964  -9.678  99.066  1.00  0.00     0.012 C 
HETATM    3  C5  UNL     1      18.361  -9.419 100.416  1.00  0.00     0.039 C 
HETATM    4  C6  UNL     1      18.858  -8.127 101.017  1.00  0.00     0.221 C 
HETATM    5  C7  UNL     1      18.448  -6.938 100.169  1.00  0.00     0.092 C 
HETATM    6  N2  UNL     1      19.276  -6.841  99.051  1.00  0.00    -0.380 N 
ATOM      7  H2  UNL     1      20.146  -6.311  99.102  1.00  0.00     0.164 HD
HETATM    8  C8  UNL     1      18.907  -7.472  97.863  1.00  0.00     0.064 C 
ENDROOT
BRANCH   4   9
HETATM    9  N1  UNL     1      18.345  -8.031 102.369  1.00  0.00    -0.070 N 
ATOM     10  H13 UNL     1      19.043  -7.695 103.033  1.00  0.00     0.275 HD
ATOM     11  H12 UNL     1      17.673  -7.271 102.482  1.00  0.00     0.275 HD
ATOM     12  H11 UNL     1      17.959  -8.939 102.628  1.00  0.00     0.275 HD
ENDBRANCH   4   9
BRANCH   1  13
HETATM   13  C2  UNL     1      18.678  -9.580  96.652  1.00  0.00     0.005 C 
HETATM   14  C1  UNL     1      17.450 -10.108  95.995  1.00  0.00     0.006 C 
ENDBRANCH   1  13
TORSDOF 2
ENDMDL
MODEL 5
REMARK VINA RESULT: -5.398576527      1.564      3.966
REMARK  2 active torsions:
REMARK  status: ('A' for Active; 'I' for Inactive)
REMARK    1  A    between atoms: C2_2  and  C3_3 
REMARK    2  A    between atoms: C6_6  and  N1_7 
ROOT
HETATM    1  C3  UNL     1      18.833  -6.724  99.358  1.00  0.00     0.024 C 
HETATM    2  C4  UNL     1      19.551  -7.019  98.084  1.00  0.00     0.012 C 
HETATM    3  C5  UNL     1      18.757  -7.838  97.107  1.00  0.00     0.039 C 
HETATM    4  C6  UNL     1      18.709  -9.294  97.500  1.00  0.00     0.221 C 
HETATM    5  C7  UNL     1      18.003  -9.477  98.830  1.00  0.00     0.092 C 
HETATM    6  N2  UNL     1      18.858  -9.131  99.875  1.00  0.00    -0.380 N 
ATOM      7  H2  UNL     1      19.480  -9.830 100.282  1.00  0.00     0.164 HD
HETATM    8  C8  UNL     1      18.859  -7.823 100.362  1.00  0.00     0.064 C 
ENDROOT
BRANCH   4   9
HETATM    9  N1  UNL     1      18.055 -10.028  96.435  1.00  0.00    -0.070 N 
ATOM     10  H13 UNL     1      17.478 -10.795  96.781  1.00  0.00     0.275 HD
ATOM     11  H12 UNL     1      17.313  -9.491  95.985  1.00  0.00     0.275 HD
ATOM     12  H11 UNL     1      18.770 -10.338  95.777  1.00  0.00     0.275 HD
ENDBRANCH   4   9
BRANCH   1  13
HETATM   13  C2  UNL     1      19.504  -5.500  99.983  1.00  0.00     0.005 C 
HETATM   14  C1  UNL     1      18.523  -4.446 100.367  1.00  0.00     0.006 C 
ENDBRANCH   1  13
TORSDOF 2
ENDMDL
