MODEL 1
REMARK VINA RESULT: -5.432892177      0.000      0.000
REMARK  3 active torsions:
REMARK  status: ('A' for Active; 'I' for Inactive)
REMARK    1  A    between atoms: N1_1  and  C1_5 
REMARK    2  A    between atoms: C1_5  and  C2_6 
REMARK    3  A    between atoms: C2_6  and  N2_7 
ROOT
HETATM    1  C2  UNL     1      18.286  -8.600 100.733  1.00  0.00     0.147 C 
HETATM    2  C3  UNL     1      17.939 -10.007 101.135  1.00  0.00     0.051 C 
HETATM    3  C4  UNL     1      17.471 -10.917  99.951  1.00  0.00     0.082 C 
HETATM    4  C5  UNL     1      17.889 -10.267  98.779  1.00  0.00    -0.183 C 
HETATM    5  C6  UNL     1      18.233  -9.525  97.639  1.00  0.00     0.080 C 
HETATM    6  C7  UNL     1      18.817  -8.173  98.185  1.00  0.00     0.014 C 
HETATM    7  C8  UNL     1      19.142  -8.242  99.646  1.00  0.00     0.041 C 
ENDROOT
BRANCH   1   8
HETATM    8  C1  UNL     1      17.143  -7.618 101.045  1.00  0.00     0.268 C 
BRANCH   8   9
HETATM    9  N1  UNL     1      17.703  -6.275 101.276  1.00  0.00    -0.077 N 
ATOM     10  H13 UNL     1      17.807  -5.745 100.411  1.00  0.00     0.274 HD
ATOM     11  H12 UNL     1      17.041  -5.656 101.746  1.00  0.00     0.274 HD
ATOM     12  H11 UNL     1      18.582  -6.359 101.786  1.00  0.00     0.274 HD
ENDBRANCH   8   9
ENDBRANCH   1   8
BRANCH   1  13
HETATM   13  N2  UNL     1      19.149  -8.249 101.933  1.00  0.00    -0.069 N 
ATOM     14  H23 UNL     1      19.952  -8.849 102.121  1.00  0.00     0.275 HD
ATOM     15  H22 UNL     1      19.722  -7.408 101.866  1.00  0.00     0.275 HD
ATOM     16  H21 UNL     1      18.396  -8.248 102.620  1.00  0.00     0.275 HD
ENDBRANCH   1  13
TORSDOF 3
ENDMDL
MODEL 2
REMARK VINA RESULT: -5.270941299      1.132      2.500
REMARK  3 active torsions:
REMARK  status: ('A' for Active; 'I' for Inactive)
REMARK    1  A    between atoms: N1_1  and  C1_5 
REMARK    2  A    between atoms: C1_5  and  C2_6 
REMARK    3  A    between atoms: C2_6  and  N2_7 
ROOT
HETATM    1  C2  UNL     1      17.828  -8.377 100.809  1.00  0.00     0.147 C 
HETATM    2  C3  UNL     1      18.466  -7.393  99.869  1.00  0.00     0.051 C 
HETATM    3  C4  UNL     1      19.250  -8.051  98.684  1.00  0.00     0.082 C 
HETATM    4  C5  UNL     1      18.799  -9.378  98.616  1.00  0.00    -0.183 C 
HETATM    5  C6  UNL     1      18.394 -10.721  98.661  1.00  0.00     0.080 C 
HETATM    6  C7  UNL     1      17.451 -10.829  99.912  1.00  0.00     0.014 C 
HETATM    7  C8  UNL     1      17.017  -9.486 100.415  1.00  0.00     0.041 C 
ENDROOT
BRANCH   1   8
HETATM    8  C1  UNL     1      18.665  -8.573 102.086  1.00  0.00     0.268 C 
BRANCH   8   9
HETATM    9  N1  UNL     1      17.918  -8.050 103.244  1.00  0.00    -0.077 N 
ATOM     10  H13 UNL     1      18.455  -7.362 103.771  1.00  0.00     0.274 HD
ATOM     11  H12 UNL     1      17.144  -7.448 102.965  1.00  0.00     0.274 HD
ATOM     12  H11 UNL     1      17.611  -8.829 103.827  1.00  0.00     0.274 HD
ENDBRANCH   8   9
ENDBRANCH   1   8
BRANCH   1  13
HETATM   13  N2  UNL     1      16.798  -7.443 101.418  1.00  0.00    -0.069 N 
ATOM     14  H23 UNL     1      16.896  -6.448 101.219  1.00  0.00     0.275 HD
ATOM     15  H22 UNL     1      15.851  -7.482 101.041  1.00  0.00     0.275 HD
ATOM     16  H21 UNL     1      16.928  -7.740 102.385  1.00  0.00     0.275 HD
ENDBRANCH   1  13
TORSDOF 3
ENDMDL
MODEL 3
REMARK VINA RESULT: -5.162935494      1.542      2.786
REMARK  3 active torsions:
REMARK  status: ('A' for Active; 'I' for Inactive)
REMARK    1  A    between atoms: N1_1  and  C1_5 
REMARK    2  A    between atoms: C1_5  and  C2_6 
REMARK    3  A    between atoms: C2_6  and  N2_7 
ROOT
HETATM    1  C2  UNL     1      17.353  -8.727 101.774  1.00  0.00     0.147 C 
HETATM    2  C3  UNL     1      17.717  -7.355 101.278  1.00  0.00     0.051 C 
HETATM    3  C4  UNL     1      18.616  -7.352  99.996  1.00  0.00     0.082 C 
HETATM    4  C5  UNL     1      18.499  -8.636  99.443  1.00  0.00    -0.183 C 
HETATM    5  C6  UNL     1      18.432  -9.964  98.993  1.00  0.00     0.080 C 
HETATM    6  C7  UNL     1      17.566 -10.721 100.062  1.00  0.00     0.014 C 
HETATM    7  C8  UNL     1      16.828  -9.782 100.966  1.00  0.00     0.041 C 
ENDROOT
BRANCH   1   8
HETATM    8  C1  UNL     1      18.235  -9.158 102.960  1.00  0.00     0.268 C 
BRANCH   8   9
HETATM    9  N1  UNL     1      18.160  -8.138 104.021  1.00  0.00    -0.077 N 
ATOM     10  H13 UNL     1      18.750  -8.368 104.820  1.00  0.00     0.274 HD
ATOM     11  H12 UNL     1      18.614  -7.265 103.751  1.00  0.00     0.274 HD
ATOM     12  H11 UNL     1      17.185  -8.000 104.287  1.00  0.00     0.274 HD
ENDBRANCH   8   9
ENDBRANCH   1   8
BRANCH   1  13
HETATM   13  N2  UNL     1      16.138  -8.334 102.595  1.00  0.00    -0.069 N 
ATOM     14  H23 UNL     1      15.569  -7.562 102.247  1.00  0.00     0.275 HD
ATOM     15  H22 UNL     1      15.350  -8.982 102.605  1.00  0.00     0.275 HD
ATOM     16  H21 UNL     1      16.633  -8.189 103.475  1.00  0.00     0.275 HD
ENDBRANCH   1  13
TORSDOF 3
ENDMDL
MODEL 4
REMARK VINA RESULT: -5.157462131      3.155      4.822
REMARK  3 active torsions:
REMARK  status: ('A' for Active; 'I' for Inactive)
REMARK    1  A    between atoms: N1_1  and  C1_5 
REMARK    2  A    between atoms: C1_5  and  C2_6 
REMARK    3  A    between atoms: C2_6  and  N2_7 
ROOT
HETATM    1  C2  UNL     1      16.015  -7.364 102.601  1.00  0.00     0.147 C 
HETATM    2  C3  UNL     1      16.118  -8.444 101.560  1.00  0.00     0.051 C 
HETATM    3  C4  UNL     1      14.881  -9.402 101.502  1.00  0.00     0.082 C 
HETATM    4  C5  UNL     1      13.848  -8.735 102.178  1.00  0.00    -0.183 C 
HETATM    5  C6  UNL     1      12.884  -8.073 102.954  1.00  0.00     0.080 C 
HETATM    6  C7  UNL     1      13.605  -6.791 103.506  1.00  0.00     0.014 C 
HETATM    7  C8  UNL     1      14.888  -6.505 102.788  1.00  0.00     0.041 C 
ENDROOT
BRANCH   1   8
HETATM    8  C1  UNL     1      16.816  -7.713 103.868  1.00  0.00     0.268 C 
BRANCH   8   9
HETATM    9  N1  UNL     1      17.131  -6.476 104.603  1.00  0.00    -0.077 N 
ATOM     10  H13 UNL     1      17.977  -6.025 104.255  1.00  0.00     0.274 HD
ATOM     11  H12 UNL     1      16.472  -5.725 104.396  1.00  0.00     0.274 HD
ATOM     12  H11 UNL     1      17.184  -6.679 105.601  1.00  0.00     0.274 HD
ENDBRANCH   8   9
ENDBRANCH   1   8
BRANCH   1  13
HETATM   13  N2  UNL     1      17.036  -6.408 102.009  1.00  0.00    -0.069 N 
ATOM     14  H23 UNL     1      17.969  -6.777 101.827  1.00  0.00     0.275 HD
ATOM     15  H22 UNL     1      16.900  -6.122 101.039  1.00  0.00     0.275 HD
ATOM     16  H21 UNL     1      16.949  -5.687 102.725  1.00  0.00     0.275 HD
ENDBRANCH   1  13
TORSDOF 3
ENDMDL
MODEL 5
REMARK VINA RESULT: -5.099429785      2.518      4.032
REMARK  3 active torsions:
REMARK  status: ('A' for Active; 'I' for Inactive)
REMARK    1  A    between atoms: N1_1  and  C1_5 
REMARK    2  A    between atoms: C1_5  and  C2_6 
REMARK    3  A    between atoms: C2_6  and  N2_7 
ROOT
HETATM    1  C2  UNL     1      16.962  -7.838 102.353  1.00  0.00     0.147 C 
HETATM    2  C3  UNL     1      16.293  -6.727 103.113  1.00  0.00     0.051 C 
HETATM    3  C4  UNL     1      14.762  -6.578 102.819  1.00  0.00     0.082 C 
HETATM    4  C5  UNL     1      14.367  -7.784 102.222  1.00  0.00    -0.183 C 
HETATM    5  C6  UNL     1      14.049  -8.965 101.533  1.00  0.00     0.080 C 
HETATM    6  C7  UNL     1      15.410  -9.732 101.375  1.00  0.00     0.014 C 
HETATM    7  C8  UNL     1      16.482  -9.181 102.264  1.00  0.00     0.041 C 
ENDROOT
BRANCH   1   8
HETATM    8  C1  UNL     1      17.725  -7.311 101.124  1.00  0.00     0.268 C 
BRANCH   8   9
HETATM    9  N1  UNL     1      17.746  -5.837 101.158  1.00  0.00    -0.077 N 
ATOM     10  H13 UNL     1      17.929  -5.433 100.240  1.00  0.00     0.274 HD
ATOM     11  H12 UNL     1      16.818  -5.441 101.308  1.00  0.00     0.274 HD
ATOM     12  H11 UNL     1      18.418  -5.525 101.858  1.00  0.00     0.274 HD
ENDBRANCH   8   9
ENDBRANCH   1   8
BRANCH   1  13
HETATM   13  N2  UNL     1      18.174  -8.003 103.253  1.00  0.00    -0.069 N 
ATOM     14  H23 UNL     1      18.945  -7.348 103.121  1.00  0.00     0.275 HD
ATOM     15  H22 UNL     1      18.062  -7.759 104.237  1.00  0.00     0.275 HD
ATOM     16  H21 UNL     1      18.351  -8.982 103.032  1.00  0.00     0.275 HD
ENDBRANCH   1  13
TORSDOF 3
ENDMDL
