MODEL 1
REMARK VINA RESULT: -4.652790438      0.000      0.000
REMARK  1 active torsions:
REMARK  status: ('A' for Active; 'I' for Inactive)
REMARK    1  A    between atoms: C2_2  and  C3_3 
ROOT
HETATM    1  C3  UNL     1      18.490  -6.987 100.186  1.00  0.00     0.187 C 
HETATM    2  C4  UNL     1      18.893  -8.064  99.196  1.00  0.00     0.036 C 
HETATM    3  C5  UNL     1      18.344  -9.299  99.870  1.00  0.00     0.047 C 
HETATM    4  C6  UNL     1      18.210  -8.895 101.330  1.00  0.00     0.258 C 
HETATM    5  S1  UNL     1      16.438  -8.645 101.694  1.00  0.00    -0.062 SA
HETATM    6  N1  UNL     1      18.919  -7.611 101.428  1.00  0.00    -0.057 N 
ATOM      7  H11 UNL     1      18.748  -7.073 102.278  1.00  0.00     0.279 HD
ATOM      8  H12 UNL     1      19.927  -7.669 101.571  1.00  0.00     0.279 HD
ENDROOT
BRANCH   1   9
HETATM    9  C2  UNL     1      19.219  -5.727  99.873  1.00  0.00     0.028 C 
HETATM   10  C1  UNL     1      18.571  -4.479 100.342  1.00  0.00     0.007 C 
ENDBRANCH   1   9
TORSDOF 1
ENDMDL
MODEL 2
REMARK VINA RESULT: -4.630574995      2.278      2.658
REMARK  1 active torsions:
REMARK  status: ('A' for Active; 'I' for Inactive)
REMARK    1  A    between atoms: C2_2  and  C3_3 
ROOT
HETATM    1  C3  UNL     1      18.775  -8.131  98.297  1.00  0.00     0.187 C 
HETATM    2  C4  UNL     1      18.765  -8.606  96.856  1.00  0.00     0.036 C 
HETATM    3  C5  UNL     1      18.619 -10.098  97.043  1.00  0.00     0.047 C 
HETATM    4  C6  UNL     1      19.105 -10.343  98.463  1.00  0.00     0.258 C 
HETATM    5  S1  UNL     1      17.651 -10.677  99.516  1.00  0.00    -0.062 SA
HETATM    6  N1  UNL     1      19.725  -9.072  98.869  1.00  0.00    -0.057 N 
ATOM      7  H11 UNL     1      19.909  -8.967  99.867  1.00  0.00     0.279 HD
ATOM      8  H12 UNL     1      20.698  -8.945  98.592  1.00  0.00     0.279 HD
ENDROOT
BRANCH   1   9
HETATM    9  C2  UNL     1      19.238  -6.716  98.350  1.00  0.00     0.028 C 
HETATM   10  C1  UNL     1      18.938  -5.992  99.607  1.00  0.00     0.007 C 
ENDBRANCH   1   9
TORSDOF 1
ENDMDL
MODEL 3
REMARK VINA RESULT: -4.576391060      2.665      3.784
REMARK  1 active torsions:
REMARK  status: ('A' for Active; 'I' for Inactive)
REMARK    1  A    between atoms: C2_2  and  C3_3 
ROOT
HETATM    1  C3  UNL     1      18.337  -9.343  98.138  1.00  0.00     0.187 C 
HETATM    2  C4  UNL     1      17.732 -10.515  98.887  1.00  0.00     0.036 C 
HETATM    3  C5  UNL     1      17.900 -10.063 100.318  1.00  0.00     0.047 C 
HETATM    4  C6  UNL     1      19.015  -9.030 100.253  1.00  0.00     0.258 C 
HETATM    5  S1  UNL     1      18.273  -7.374 100.452  1.00  0.00    -0.062 SA
HETATM    6  N1  UNL     1      19.566  -9.164  98.896  1.00  0.00    -0.057 N 
ATOM      7  H11 UNL     1      20.173  -8.404  98.587  1.00  0.00     0.279 HD
ATOM      8  H12 UNL     1      20.273  -9.888  98.772  1.00  0.00     0.279 HD
ENDROOT
BRANCH   1   9
HETATM    9  C2  UNL     1      18.568  -9.726  96.718  1.00  0.00     0.028 C 
HETATM   10  C1  UNL     1      17.357 -10.107  95.953  1.00  0.00     0.007 C 
ENDBRANCH   1   9
TORSDOF 1
ENDMDL
MODEL 4
REMARK VINA RESULT: -4.512167425      2.397      2.710
REMARK  1 active torsions:
REMARK  status: ('A' for Active; 'I' for Inactive)
REMARK    1  A    between atoms: C2_2  and  C3_3 
ROOT
HETATM    1  C3  UNL     1      18.360  -8.952  98.389  1.00  0.00     0.187 C 
HETATM    2  C4  UNL     1      17.909 -10.392  98.233  1.00  0.00     0.036 C 
HETATM    3  C5  UNL     1      17.528 -10.734  99.654  1.00  0.00     0.047 C 
HETATM    4  C6  UNL     1      18.288  -9.719 100.495  1.00  0.00     0.258 C 
HETATM    5  S1  UNL     1      17.097  -8.481 101.112  1.00  0.00    -0.062 SA
HETATM    6  N1  UNL     1      19.221  -9.080  99.555  1.00  0.00    -0.057 N 
ATOM      7  H11 UNL     1      19.658  -8.218  99.881  1.00  0.00     0.279 HD
ATOM      8  H12 UNL     1      20.103  -9.567  99.403  1.00  0.00     0.279 HD
ENDROOT
BRANCH   1   9
HETATM    9  C2  UNL     1      19.085  -8.522  97.161  1.00  0.00     0.028 C 
HETATM   10  C1  UNL     1      19.208  -7.058  96.971  1.00  0.00     0.007 C 
ENDBRANCH   1   9
TORSDOF 1
ENDMDL
MODEL 5
REMARK VINA RESULT: -4.458510333      1.234      1.610
REMARK  1 active torsions:
REMARK  status: ('A' for Active; 'I' for Inactive)
REMARK    1  A    between atoms: C2_2  and  C3_3 
ROOT
HETATM    1  C3  UNL     1      18.449  -7.507  99.745  1.00  0.00     0.187 C 
HETATM    2  C4  UNL     1      18.675  -8.972  99.420  1.00  0.00     0.036 C 
HETATM    3  C5  UNL     1      18.082  -9.635 100.641  1.00  0.00     0.047 C 
HETATM    4  C6  UNL     1      18.105  -8.546 101.702  1.00  0.00     0.258 C 
HETATM    5  S1  UNL     1      16.398  -7.945 101.944  1.00  0.00    -0.062 SA
HETATM    6  N1  UNL     1      18.926  -7.474 101.118  1.00  0.00    -0.057 N 
ATOM      7  H11 UNL     1      18.873  -6.569 101.586  1.00  0.00     0.279 HD
ATOM      8  H12 UNL     1      19.934  -7.570 101.240  1.00  0.00     0.279 HD
ENDROOT
BRANCH   1   9
HETATM    9  C2  UNL     1      19.252  -6.663  98.817  1.00  0.00     0.028 C 
HETATM   10  C1  UNL     1      19.173  -7.033  97.385  1.00  0.00     0.007 C 
ENDBRANCH   1   9
TORSDOF 1
ENDMDL
