MODEL 1
REMARK VINA RESULT: -4.522854092      0.000      0.000
REMARK  2 active torsions:
REMARK  status: ('A' for Active; 'I' for Inactive)
REMARK    1  A    between atoms: N1_1  and  C1_5 
REMARK    2  A    between atoms: C1_5  and  C2_6 
ROOT
HETATM    1  C1  UNL     1      19.355  -7.964  98.059  1.00  0.00     0.133 C 
HETATM    2  C3  UNL     1      19.802  -9.341  98.494  1.00  0.00     0.039 C 
HETATM    3  C4  UNL     1      19.588 -10.146  97.231  1.00  0.00     0.002 C 
HETATM    4  C5  UNL     1      18.324  -9.612  96.610  1.00  0.00     0.002 C 
HETATM    5  C6  UNL     1      18.406  -8.136  96.932  1.00  0.00     0.039 C 
ENDROOT
BRANCH   1   6
HETATM    6  N1  UNL     1      20.506  -7.218  97.580  1.00  0.00    -0.070 N 
ATOM      7  H13 UNL     1      20.377  -6.211  97.671  1.00  0.00     0.275 HD
ATOM      8  H12 UNL     1      21.314  -7.319  98.195  1.00  0.00     0.275 HD
ATOM      9  H11 UNL     1      20.716  -7.494  96.620  1.00  0.00     0.275 HD
ENDBRANCH   1   6
BRANCH   1  10
HETATM   10  C2  UNL     1      18.767  -7.267  99.258  1.00  0.00     0.124 C 
HETATM   11  S1  UNL     1      18.087  -8.368 100.478  1.00  0.00    -0.095 SA
ENDBRANCH   1  10
TORSDOF 2
ENDMDL
MODEL 2
REMARK VINA RESULT: -4.492725086      2.425      3.000
REMARK  2 active torsions:
REMARK  status: ('A' for Active; 'I' for Inactive)
REMARK    1  A    between atoms: N1_1  and  C1_5 
REMARK    2  A    between atoms: C1_5  and  C2_6 
ROOT
HETATM    1  C1  UNL     1      18.845  -9.474  98.431  1.00  0.00     0.133 C 
HETATM    2  C3  UNL     1      18.531  -8.566  99.598  1.00  0.00     0.039 C 
HETATM    3  C4  UNL     1      18.150  -9.563 100.670  1.00  0.00     0.002 C 
HETATM    4  C5  UNL     1      17.383 -10.652  99.966  1.00  0.00     0.002 C 
HETATM    5  C6  UNL     1      18.096 -10.739  98.634  1.00  0.00     0.039 C 
ENDROOT
BRANCH   1   6
HETATM    6  N1  UNL     1      20.265  -9.777  98.430  1.00  0.00    -0.070 N 
ATOM      7  H13 UNL     1      20.675  -9.697  97.500  1.00  0.00     0.275 HD
ATOM      8  H12 UNL     1      20.814  -9.053  98.895  1.00  0.00     0.275 HD
ATOM      9  H11 UNL     1      20.418 -10.698  98.840  1.00  0.00     0.275 HD
ENDBRANCH   1   6
BRANCH   1  10
HETATM   10  C2  UNL     1      18.485  -8.743  97.165  1.00  0.00     0.124 C 
HETATM   11  S1  UNL     1      19.204  -7.121  97.031  1.00  0.00    -0.095 SA
ENDBRANCH   1  10
TORSDOF 2
ENDMDL
MODEL 3
REMARK VINA RESULT: -4.341172167      1.649      2.589
REMARK  2 active torsions:
REMARK  status: ('A' for Active; 'I' for Inactive)
REMARK    1  A    between atoms: N1_1  and  C1_5 
REMARK    2  A    between atoms: C1_5  and  C2_6 
ROOT
HETATM    1  C1  UNL     1      19.032  -9.319  98.143  1.00  0.00     0.133 C 
HETATM    2  C3  UNL     1      18.821  -8.734  96.766  1.00  0.00     0.039 C 
HETATM    3  C4  UNL     1      19.406  -7.348  96.927  1.00  0.00     0.002 C 
HETATM    4  C5  UNL     1      19.027  -6.900  98.315  1.00  0.00     0.002 C 
HETATM    5  C6  UNL     1      19.108  -8.189  99.103  1.00  0.00     0.039 C 
ENDROOT
BRANCH   1   6
HETATM    6  N1  UNL     1      20.299 -10.029  98.171  1.00  0.00    -0.070 N 
ATOM      7  H13 UNL     1      20.431 -10.546  99.041  1.00  0.00     0.275 HD
ATOM      8  H12 UNL     1      20.310 -10.821  97.528  1.00  0.00     0.275 HD
ATOM      9  H11 UNL     1      21.061  -9.376  97.992  1.00  0.00     0.275 HD
ENDBRANCH   1   6
BRANCH   1  10
HETATM   10  C2  UNL     1      17.908 -10.282  98.415  1.00  0.00     0.124 C 
HETATM   11  S1  UNL     1      17.427 -10.376 100.125  1.00  0.00    -0.095 SA
ENDBRANCH   1  10
TORSDOF 2
ENDMDL
MODEL 4
REMARK VINA RESULT: -4.302944652      2.569      3.192
REMARK  2 active torsions:
REMARK  status: ('A' for Active; 'I' for Inactive)
REMARK    1  A    between atoms: N1_1  and  C1_5 
REMARK    2  A    between atoms: C1_5  and  C2_6 
ROOT
HETATM    1  C1  UNL     1      18.913  -9.543  98.381  1.00  0.00     0.133 C 
HETATM    2  C3  UNL     1      18.598  -8.473  99.401  1.00  0.00     0.039 C 
HETATM    3  C4  UNL     1      18.236  -9.301 100.614  1.00  0.00     0.002 C 
HETATM    4  C5  UNL     1      17.476 -10.492 100.089  1.00  0.00     0.002 C 
HETATM    5  C6  UNL     1      18.180 -10.771  98.779  1.00  0.00     0.039 C 
ENDROOT
BRANCH   1   6
HETATM    6  N1  UNL     1      20.336  -9.829  98.413  1.00  0.00    -0.070 N 
ATOM      7  H13 UNL     1      20.701  -9.865  99.365  1.00  0.00     0.275 HD
ATOM      8  H12 UNL     1      20.543 -10.791  98.142  1.00  0.00     0.275 HD
ATOM      9  H11 UNL     1      20.834  -9.152  97.835  1.00  0.00     0.275 HD
ENDBRANCH   1   6
BRANCH   1  10
HETATM   10  C2  UNL     1      18.535  -9.015  97.023  1.00  0.00     0.124 C 
HETATM   11  S1  UNL     1      17.366 -10.029  96.146  1.00  0.00    -0.095 SA
ENDBRANCH   1  10
TORSDOF 2
ENDMDL
MODEL 5
REMARK VINA RESULT: -4.278544609      2.931      3.526
REMARK  2 active torsions:
REMARK  status: ('A' for Active; 'I' for Inactive)
REMARK    1  A    between atoms: N1_1  and  C1_5 
REMARK    2  A    between atoms: C1_5  and  C2_6 
ROOT
HETATM    1  C1  UNL     1      18.402  -8.122 100.783  1.00  0.00     0.133 C 
HETATM    2  C3  UNL     1      16.961  -8.290 101.205  1.00  0.00     0.039 C 
HETATM    3  C4  UNL     1      16.770  -9.784 101.061  1.00  0.00     0.002 C 
HETATM    4  C5  UNL     1      17.547 -10.182  99.833  1.00  0.00     0.002 C 
HETATM    5  C6  UNL     1      18.745  -9.262  99.897  1.00  0.00     0.039 C 
ENDROOT
BRANCH   1   6
HETATM    6  N1  UNL     1      19.253  -8.182 101.958  1.00  0.00    -0.070 N 
ATOM      7  H13 UNL     1      19.088  -7.403 102.594  1.00  0.00     0.275 HD
ATOM      8  H12 UNL     1      18.990  -8.942 102.586  1.00  0.00     0.275 HD
ATOM      9  H11 UNL     1      20.230  -8.243 101.670  1.00  0.00     0.275 HD
ENDBRANCH   1   6
BRANCH   1  10
HETATM   10  C2  UNL     1      18.539  -6.772 100.130  1.00  0.00     0.124 C 
HETATM   11  S1  UNL     1      19.179  -6.828  98.471  1.00  0.00    -0.095 SA
ENDBRANCH   1  10
TORSDOF 2
ENDMDL
