MODEL 1
REMARK VINA RESULT: -4.653309699      0.000      0.000
REMARK  1 active torsions:
REMARK  status: ('A' for Active; 'I' for Inactive)
REMARK    1  A    between atoms: C1_2  and  C2_3 
ROOT
HETATM    1  C2  UNL     1      19.075  -8.082  99.332  1.00  0.00     0.196 C 
HETATM    2  C3  UNL     1      18.643  -9.518  99.294  1.00  0.00     0.034 C 
HETATM    3  C4  UNL     1      19.582 -10.205  98.293  1.00  0.00     0.004 C 
HETATM    4  C5  UNL     1      19.220  -9.696  96.936  1.00  0.00     0.027 C 
HETATM    5  C6  UNL     1      18.452  -8.374  97.023  1.00  0.00     0.232 C 
HETATM    6  N1  UNL     1      19.027  -7.495  98.008  1.00  0.00    -0.070 N 
ATOM      7  H11 UNL     1      19.951  -7.178  97.716  1.00  0.00     0.277 HD
ATOM      8  H12 UNL     1      18.540  -6.599  98.024  1.00  0.00     0.277 HD
ENDROOT
BRANCH   1   9
HETATM    9  C1  UNL     1      18.265  -7.228 100.249  1.00  0.00     0.119 C 
HETATM   10  S1  UNL     1      18.818  -5.496  99.997  1.00  0.00    -0.096 SA
ENDBRANCH   1   9
TORSDOF 1
ENDMDL
MODEL 2
REMARK VINA RESULT: -4.643353659      1.107      1.107
REMARK  1 active torsions:
REMARK  status: ('A' for Active; 'I' for Inactive)
REMARK    1  A    between atoms: C1_2  and  C2_3 
ROOT
HETATM    1  C2  UNL     1      19.461  -7.708  98.463  1.00  0.00     0.196 C 
HETATM    2  C3  UNL     1      19.313  -9.072  99.067  1.00  0.00     0.034 C 
HETATM    3  C4  UNL     1      20.036 -10.028  98.108  1.00  0.00     0.004 C 
HETATM    4  C5  UNL     1      19.211 -10.105  96.866  1.00  0.00     0.027 C 
HETATM    5  C6  UNL     1      18.267  -8.906  96.748  1.00  0.00     0.232 C 
HETATM    6  N1  UNL     1      18.925  -7.680  97.117  1.00  0.00    -0.070 N 
ATOM      7  H11 UNL     1      19.650  -7.439  96.442  1.00  0.00     0.277 HD
ATOM      8  H12 UNL     1      18.304  -6.880  96.989  1.00  0.00     0.277 HD
ENDROOT
BRANCH   1   9
HETATM    9  C1  UNL     1      18.803  -6.621  99.249  1.00  0.00     0.119 C 
HETATM   10  S1  UNL     1      18.085  -7.403 100.747  1.00  0.00    -0.096 SA
ENDBRANCH   1   9
TORSDOF 1
ENDMDL
MODEL 3
REMARK VINA RESULT: -4.520497728      1.924      2.166
REMARK  1 active torsions:
REMARK  status: ('A' for Active; 'I' for Inactive)
REMARK    1  A    between atoms: C1_2  and  C2_3 
ROOT
HETATM    1  C2  UNL     1      18.212  -9.622 100.056  1.00  0.00     0.196 C 
HETATM    2  C3  UNL     1      18.325 -10.343  98.747  1.00  0.00     0.034 C 
HETATM    3  C4  UNL     1      19.763 -10.104  98.267  1.00  0.00     0.004 C 
HETATM    4  C5  UNL     1      19.859  -8.664  97.882  1.00  0.00     0.027 C 
HETATM    5  C6  UNL     1      18.744  -7.839  98.528  1.00  0.00     0.232 C 
HETATM    6  N1  UNL     1      18.535  -8.219  99.901  1.00  0.00    -0.070 N 
ATOM      7  H11 UNL     1      19.339  -7.964 100.475  1.00  0.00     0.277 HD
ATOM      8  H12 UNL     1      17.825  -7.630 100.338  1.00  0.00     0.277 HD
ENDROOT
BRANCH   1   9
HETATM    9  C1  UNL     1      16.863  -9.721 100.690  1.00  0.00     0.119 C 
HETATM   10  S1  UNL     1      16.634  -8.207 101.701  1.00  0.00    -0.096 SA
ENDBRANCH   1   9
TORSDOF 1
ENDMDL
MODEL 4
REMARK VINA RESULT: -4.469164734      1.058      1.764
REMARK  1 active torsions:
REMARK  status: ('A' for Active; 'I' for Inactive)
REMARK    1  A    between atoms: C1_2  and  C2_3 
ROOT
HETATM    1  C2  UNL     1      18.509  -8.001  99.110  1.00  0.00     0.196 C 
HETATM    2  C3  UNL     1      19.323  -7.593  97.919  1.00  0.00     0.034 C 
HETATM    3  C4  UNL     1      18.829  -8.472  96.762  1.00  0.00     0.004 C 
HETATM    4  C5  UNL     1      19.296  -9.863  97.042  1.00  0.00     0.027 C 
HETATM    5  C6  UNL     1      19.631 -10.050  98.524  1.00  0.00     0.232 C 
HETATM    6  N1  UNL     1      18.652  -9.420  99.369  1.00  0.00    -0.070 N 
ATOM      7  H11 UNL     1      17.752  -9.895  99.300  1.00  0.00     0.277 HD
ATOM      8  H12 UNL     1      18.856  -9.591 100.354  1.00  0.00     0.277 HD
ENDROOT
BRANCH   1   9
HETATM    9  C1  UNL     1      18.851  -7.263 100.362  1.00  0.00     0.119 C 
HETATM   10  S1  UNL     1      18.858  -5.475  99.944  1.00  0.00    -0.096 SA
ENDBRANCH   1   9
TORSDOF 1
ENDMDL
MODEL 5
REMARK VINA RESULT: -4.465192763      1.418      1.985
REMARK  1 active torsions:
REMARK  status: ('A' for Active; 'I' for Inactive)
REMARK    1  A    between atoms: C1_2  and  C2_3 
ROOT
HETATM    1  C2  UNL     1      18.461  -8.180  98.862  1.00  0.00     0.196 C 
HETATM    2  C3  UNL     1      18.855  -7.813  97.462  1.00  0.00     0.034 C 
HETATM    3  C4  UNL     1      18.477  -9.022  96.597  1.00  0.00     0.004 C 
HETATM    4  C5  UNL     1      19.423 -10.122  96.948  1.00  0.00     0.027 C 
HETATM    5  C6  UNL     1      20.072  -9.884  98.315  1.00  0.00     0.232 C 
HETATM    6  N1  UNL     1      19.114  -9.405  99.276  1.00  0.00    -0.070 N 
ATOM      7  H11 UNL     1      18.428 -10.127  99.496  1.00  0.00     0.277 HD
ATOM      8  H12 UNL     1      19.543  -9.296 100.195  1.00  0.00     0.277 HD
ENDROOT
BRANCH   1   9
HETATM    9  C1  UNL     1      18.764  -7.125  99.875  1.00  0.00     0.119 C 
HETATM   10  S1  UNL     1      17.602  -7.376 101.273  1.00  0.00    -0.096 SA
ENDBRANCH   1   9
TORSDOF 1
ENDMDL
