MODEL 1
REMARK VINA RESULT: -5.530256209      0.000      0.000
REMARK  0 active torsions:
REMARK  status: ('A' for Active; 'I' for Inactive)
ROOT
HETATM    1  C1  UNL     1      17.127  -9.168 102.141  1.00  0.00     0.042 C 
HETATM    2  C2  UNL     1      17.974  -9.576 100.970  1.00  0.00     0.212 C 
HETATM    3  N1  UNL     1      17.105 -10.237 100.005  1.00  0.00    -0.067 N 
ATOM      4  H11 UNL     1      16.416  -9.613  99.585  1.00  0.00     0.277 HD
ATOM      5  H12 UNL     1      16.443 -10.886 100.430  1.00  0.00     0.277 HD
HETATM    6  C3  UNL     1      17.990 -10.866  99.030  1.00  0.00     0.270 C 
HETATM    7  C4  UNL     1      18.673  -9.771  98.268  1.00  0.00     0.142 C 
HETATM    8  C5  UNL     1      20.160 -10.068  98.099  1.00  0.00     0.047 C 
HETATM    9  C6  UNL     1      18.112  -9.688  96.842  1.00  0.00     0.047 C 
HETATM   10  N2  UNL     1      18.534  -8.472  98.843  1.00  0.00    -0.059 N 
ATOM     11  H21 UNL     1      17.657  -8.044  98.545  1.00  0.00     0.278 HD
ATOM     12  H22 UNL     1      19.199  -7.825  98.421  1.00  0.00     0.278 HD
HETATM   13  C7  UNL     1      18.644  -8.439 100.275  1.00  0.00     0.212 C 
HETATM   14  C8  UNL     1      18.079  -7.080 100.707  1.00  0.00     0.042 C 
ENDROOT
TORSDOF 0
ENDMDL
MODEL 2
REMARK VINA RESULT: -5.451722625      1.938      3.753
REMARK  0 active torsions:
REMARK  status: ('A' for Active; 'I' for Inactive)
ROOT
HETATM    1  C1  UNL     1      19.751  -7.140  97.864  1.00  0.00     0.042 C 
HETATM    2  C2  UNL     1      18.741  -7.596  98.877  1.00  0.00     0.212 C 
HETATM    3  N1  UNL     1      19.233  -8.837  99.464  1.00  0.00    -0.067 N 
ATOM      4  H11 UNL     1      20.079  -8.716 100.019  1.00  0.00     0.277 HD
ATOM      5  H12 UNL     1      19.625  -9.483  98.779  1.00  0.00     0.277 HD
HETATM    6  C3  UNL     1      18.115  -9.396 100.218  1.00  0.00     0.270 C 
HETATM    7  C4  UNL     1      17.853  -8.483 101.377  1.00  0.00     0.142 C 
HETATM    8  C5  UNL     1      16.356  -8.241 101.552  1.00  0.00     0.047 C 
HETATM    9  C6  UNL     1      18.312  -9.141 102.685  1.00  0.00     0.047 C 
HETATM   10  N2  UNL     1      18.509  -7.218 101.297  1.00  0.00    -0.059 N 
ATOM     11  H21 UNL     1      19.462  -7.290 101.655  1.00  0.00     0.278 HD
ATOM     12  H22 UNL     1      18.114  -6.571 101.978  1.00  0.00     0.278 HD
HETATM   13  C7  UNL     1      18.510  -6.628  99.988  1.00  0.00     0.212 C 
HETATM   14  C8  UNL     1      19.573  -5.524 100.027  1.00  0.00     0.042 C 
ENDROOT
TORSDOF 0
ENDMDL
MODEL 3
REMARK VINA RESULT: -5.252590379      1.121      3.915
REMARK  0 active torsions:
REMARK  status: ('A' for Active; 'I' for Inactive)
ROOT
HETATM    1  C1  UNL     1      19.513  -9.355  97.805  1.00  0.00     0.042 C 
HETATM    2  C2  UNL     1      19.221  -9.072  99.251  1.00  0.00     0.212 C 
HETATM    3  N1  UNL     1      18.549  -7.781  99.322  1.00  0.00    -0.067 N 
ATOM      4  H11 UNL     1      17.623  -7.781  98.895  1.00  0.00     0.277 HD
ATOM      5  H12 UNL     1      18.965  -7.072  98.718  1.00  0.00     0.277 HD
HETATM    6  C3  UNL     1      18.540  -7.409 100.734  1.00  0.00     0.270 C 
HETATM    7  C4  UNL     1      17.636  -8.368 101.446  1.00  0.00     0.142 C 
HETATM    8  C5  UNL     1      18.263  -8.838 102.756  1.00  0.00     0.047 C 
HETATM    9  C6  UNL     1      16.331  -7.669 101.850  1.00  0.00     0.047 C 
HETATM   10  N2  UNL     1      17.271  -9.518 100.683  1.00  0.00    -0.059 N 
ATOM     11  H21 UNL     1      16.469  -9.308 100.088  1.00  0.00     0.278 HD
ATOM     12  H22 UNL     1      16.859 -10.229 101.288  1.00  0.00     0.278 HD
HETATM   13  C7  UNL     1      18.338 -10.082  99.904  1.00  0.00     0.212 C 
HETATM   14  C8  UNL     1      17.667 -11.012  98.887  1.00  0.00     0.042 C 
ENDROOT
TORSDOF 0
ENDMDL
MODEL 4
REMARK VINA RESULT: -5.207304951      1.473      2.820
REMARK  0 active torsions:
REMARK  status: ('A' for Active; 'I' for Inactive)
ROOT
HETATM    1  C1  UNL     1      19.024  -5.654  99.972  1.00  0.00     0.042 C 
HETATM    2  C2  UNL     1      18.663  -6.855  99.148  1.00  0.00     0.212 C 
HETATM    3  N1  UNL     1      19.765  -7.109  98.228  1.00  0.00    -0.067 N 
ATOM      4  H11 UNL     1      20.625  -7.397  98.694  1.00  0.00     0.277 HD
ATOM      5  H12 UNL     1      20.137  -6.263  97.796  1.00  0.00     0.277 HD
HETATM    6  C3  UNL     1      19.269  -8.085  97.264  1.00  0.00     0.270 C 
HETATM    7  C4  UNL     1      19.057  -9.375  97.996  1.00  0.00     0.142 C 
HETATM    8  C5  UNL     1      17.732 -10.017  97.599  1.00  0.00     0.047 C 
HETATM    9  C6  UNL     1      20.135 -10.393  97.601  1.00  0.00     0.047 C 
HETATM   10  N2  UNL     1      19.096  -9.263  99.419  1.00  0.00    -0.059 N 
ATOM     11  H21 UNL     1      20.060  -9.308  99.752  1.00  0.00     0.278 HD
ATOM     12  H22 UNL     1      18.721 -10.107  99.851  1.00  0.00     0.278 HD
HETATM   13  C7  UNL     1      18.441  -8.098  99.944  1.00  0.00     0.212 C 
HETATM   14  C8  UNL     1      18.931  -7.957 101.390  1.00  0.00     0.042 C 
ENDROOT
TORSDOF 0
ENDMDL
MODEL 5
REMARK VINA RESULT: -5.097144221      2.183      3.854
REMARK  0 active torsions:
REMARK  status: ('A' for Active; 'I' for Inactive)
ROOT
HETATM    1  C1  UNL     1      18.968  -5.007 100.002  1.00  0.00     0.042 C 
HETATM    2  C2  UNL     1      18.671  -6.264 100.767  1.00  0.00     0.212 C 
HETATM    3  N1  UNL     1      17.295  -6.179 101.242  1.00  0.00    -0.067 N 
ATOM      4  H11 UNL     1      16.605  -6.197 100.491  1.00  0.00     0.277 HD
ATOM      5  H12 UNL     1      17.049  -5.263 101.615  1.00  0.00     0.277 HD
HETATM    6  C3  UNL     1      17.134  -7.263 102.206  1.00  0.00     0.270 C 
HETATM    7  C4  UNL     1      17.216  -8.554 101.452  1.00  0.00     0.142 C 
HETATM    8  C5  UNL     1      18.088  -9.565 102.192  1.00  0.00     0.047 C 
HETATM    9  C6  UNL     1      15.830  -9.205 101.361  1.00  0.00     0.047 C 
HETATM   10  N2  UNL     1      17.704  -8.431 100.116  1.00  0.00    -0.059 N 
ATOM     11  H21 UNL     1      16.943  -8.185  99.482  1.00  0.00     0.278 HD
ATOM     12  H22 UNL     1      17.953  -9.347  99.744  1.00  0.00     0.278 HD
HETATM   13  C7  UNL     1      18.798  -7.513  99.961  1.00  0.00     0.212 C 
HETATM   14  C8  UNL     1      18.896  -7.228  98.458  1.00  0.00     0.042 C 
ENDROOT
TORSDOF 0
ENDMDL
