MODEL 1
REMARK VINA RESULT: -10.212819440      0.000      0.000
REMARK  4 active torsions:
REMARK  status: ('A' for Active; 'I' for Inactive)
REMARK    1  A    between atoms: C2_2  and  O1_3 
REMARK    2  A    between atoms: O1_3  and  C3_4 
REMARK    3  A    between atoms: C3_4  and  C4_6 
REMARK    4  A    between atoms: C6_9  and  N1_10 
ROOT
HETATM    1  N1  UNL     1     -20.601  16.960 -18.020  1.00  0.00    -0.229 N 
HETATM    2  N2  UNL     1     -19.620  16.112 -18.180  1.00  0.00    -0.295 N 
ATOM      3  H2  UNL     1     -19.483  15.286 -17.599  1.00  0.00     0.187 HD
HETATM    4  C7  UNL     1     -18.809  16.453 -19.201  1.00  0.00     0.033 A 
HETATM    5  C8  UNL     1     -17.618  15.700 -19.633  1.00  0.00     0.070 C 
HETATM    6  C9  UNL     1     -19.318  17.635 -19.747  1.00  0.00     0.021 A 
HETATM    7  C10 UNL     1     -20.418  17.894 -18.983  1.00  0.00     0.137 A 
HETATM    8  N3  UNL     1     -21.274  19.000 -19.297  1.00  0.00    -0.347 N 
ATOM      9  H3  UNL     1     -22.084  19.179 -18.702  1.00  0.00     0.167 HD
HETATM   10  C11 UNL     1     -21.064  19.762 -20.281  1.00  0.00    -0.007 C 
HETATM   11  C12 UNL     1     -21.936  20.940 -20.638  1.00  0.00     0.053 C 
HETATM   12  C13 UNL     1     -22.543  20.581 -21.983  1.00  0.00     0.006 C 
HETATM   13  C14 UNL     1     -22.144  19.176 -22.386  1.00  0.00     0.001 C 
HETATM   14  C15 UNL     1     -20.673  18.971 -22.506  1.00  0.00     0.011 C 
HETATM   15  C16 UNL     1     -19.982  19.483 -21.234  1.00  0.00     0.044 C 
HETATM   16  C17 UNL     1     -18.897  18.551 -20.784  1.00  0.00     0.001 C 
HETATM   17  C18 UNL     1     -18.278  17.939 -22.008  1.00  0.00     0.015 C 
HETATM   18  C19 UNL     1     -16.785  18.160 -21.930  1.00  0.00     0.001 C 
HETATM   19  C20 UNL     1     -16.496  18.974 -20.717  1.00  0.00     0.001 C 
HETATM   20  C21 UNL     1     -17.797  19.442 -20.179  1.00  0.00     0.015 C 
ENDROOT
BRANCH   1  21
HETATM   21  C6  UNL     1     -21.657  16.925 -17.037  1.00  0.00     0.138 A 
HETATM   22  S1  UNL     1     -21.587  17.344 -15.385  1.00  0.00    -0.078 SA
HETATM   23  C5  UNL     1     -23.203  17.028 -14.955  1.00  0.00     0.072 A 
HETATM   24  C4  UNL     1     -23.760  16.598 -16.133  1.00  0.00     0.087 A 
HETATM   25  C22 UNL     1     -22.960  16.546 -17.203  1.00  0.00     0.168 A 
HETATM   26  F1  UNL     1     -23.376  16.133 -18.459  1.00  0.00    -0.202 F 
BRANCH  24  27
HETATM   27  C3  UNL     1     -25.202  16.219 -16.152  1.00  0.00     0.297 C 
HETATM   28  O2  UNL     1     -25.645  15.270 -15.461  1.00  0.00    -0.259 OA
BRANCH  27  29
HETATM   29  O1  UNL     1     -26.111  16.915 -16.948  1.00  0.00    -0.318 OA
BRANCH  29  30
HETATM   30  C2  UNL     1     -26.627  18.144 -16.471  1.00  0.00     0.174 C 
HETATM   31  C1  UNL     1     -25.994  19.313 -17.212  1.00  0.00     0.034 C 
ENDBRANCH  29  30
ENDBRANCH  27  29
ENDBRANCH  24  27
ENDBRANCH   1  21
TORSDOF 4
ENDMDL
MODEL 2
REMARK VINA RESULT: -10.108495820      1.907      2.496
REMARK  4 active torsions:
REMARK  status: ('A' for Active; 'I' for Inactive)
REMARK    1  A    between atoms: C2_2  and  O1_3 
REMARK    2  A    between atoms: O1_3  and  C3_4 
REMARK    3  A    between atoms: C3_4  and  C4_6 
REMARK    4  A    between atoms: C6_9  and  N1_10 
ROOT
HETATM    1  N1  UNL     1     -20.850  17.156 -17.970  1.00  0.00    -0.229 N 
HETATM    2  N2  UNL     1     -19.896  16.267 -18.063  1.00  0.00    -0.295 N 
ATOM      3  H2  UNL     1     -19.807  15.464 -17.441  1.00  0.00     0.187 HD
HETATM    4  C7  UNL     1     -19.045  16.533 -19.073  1.00  0.00     0.033 A 
HETATM    5  C8  UNL     1     -17.871  15.720 -19.434  1.00  0.00     0.070 C 
HETATM    6  C9  UNL     1     -19.495  17.705 -19.686  1.00  0.00     0.021 A 
HETATM    7  C10 UNL     1     -20.606  18.038 -18.967  1.00  0.00     0.137 A 
HETATM    8  N3  UNL     1     -21.413  19.158 -19.356  1.00  0.00    -0.347 N 
ATOM      9  H3  UNL     1     -22.232  19.392 -18.794  1.00  0.00     0.167 HD
HETATM   10  C11 UNL     1     -21.147  19.866 -20.367  1.00  0.00    -0.007 C 
HETATM   11  C12 UNL     1     -21.965  21.056 -20.802  1.00  0.00     0.053 C 
HETATM   12  C13 UNL     1     -22.546  20.658 -22.148  1.00  0.00     0.006 C 
HETATM   13  C14 UNL     1     -22.188  19.222 -22.475  1.00  0.00     0.001 C 
HETATM   14  C15 UNL     1     -20.722  18.961 -22.541  1.00  0.00     0.011 C 
HETATM   15  C16 UNL     1     -20.049  19.506 -21.273  1.00  0.00     0.044 C 
HETATM   16  C17 UNL     1     -19.012  18.558 -20.750  1.00  0.00     0.001 C 
HETATM   17  C18 UNL     1     -18.381  17.869 -21.926  1.00  0.00     0.015 C 
HETATM   18  C19 UNL     1     -16.883  18.041 -21.814  1.00  0.00     0.001 C 
HETATM   19  C20 UNL     1     -16.600  18.899 -20.629  1.00  0.00     0.001 C 
HETATM   20  C21 UNL     1     -17.898  19.436 -20.153  1.00  0.00     0.015 C 
ENDROOT
BRANCH   1  21
HETATM   21  C6  UNL     1     -21.934  17.202 -17.018  1.00  0.00     0.138 A 
HETATM   22  S1  UNL     1     -23.613  17.201 -17.316  1.00  0.00    -0.078 SA
HETATM   23  C5  UNL     1     -24.175  17.272 -15.712  1.00  0.00     0.072 A 
HETATM   24  C4  UNL     1     -23.017  17.295 -14.977  1.00  0.00     0.087 A 
HETATM   25  C22 UNL     1     -21.864  17.259 -15.653  1.00  0.00     0.168 A 
HETATM   26  F1  UNL     1     -20.615  17.276 -15.053  1.00  0.00    -0.202 F 
BRANCH  24  27
HETATM   27  C3  UNL     1     -23.107  17.357 -13.490  1.00  0.00     0.297 C 
HETATM   28  O2  UNL     1     -22.130  17.700 -12.783  1.00  0.00    -0.259 OA
BRANCH  27  29
HETATM   29  O1  UNL     1     -24.294  17.032 -12.834  1.00  0.00    -0.318 OA
BRANCH  29  30
HETATM   30  C2  UNL     1     -24.303  15.921 -11.958  1.00  0.00     0.174 C 
HETATM   31  C1  UNL     1     -24.826  16.325 -10.587  1.00  0.00     0.034 C 
ENDBRANCH  29  30
ENDBRANCH  27  29
ENDBRANCH  24  27
ENDBRANCH   1  21
TORSDOF 4
ENDMDL
MODEL 3
REMARK VINA RESULT: -9.762215528      0.816      1.528
REMARK  4 active torsions:
REMARK  status: ('A' for Active; 'I' for Inactive)
REMARK    1  A    between atoms: C2_2  and  O1_3 
REMARK    2  A    between atoms: O1_3  and  C3_4 
REMARK    3  A    between atoms: C3_4  and  C4_6 
REMARK    4  A    between atoms: C6_9  and  N1_10 
ROOT
HETATM    1  N1  UNL     1     -20.669  17.025 -17.954  1.00  0.00    -0.229 N 
HETATM    2  N2  UNL     1     -19.704  16.157 -18.106  1.00  0.00    -0.295 N 
ATOM      3  H2  UNL     1     -19.577  15.340 -17.510  1.00  0.00     0.187 HD
HETATM    4  C7  UNL     1     -18.897  16.465 -19.140  1.00  0.00     0.033 A 
HETATM    5  C8  UNL     1     -17.723  15.683 -19.568  1.00  0.00     0.070 C 
HETATM    6  C9  UNL     1     -19.390  17.644 -19.705  1.00  0.00     0.021 A 
HETATM    7  C10 UNL     1     -20.479  17.937 -18.936  1.00  0.00     0.137 A 
HETATM    8  N3  UNL     1     -21.319  19.052 -19.264  1.00  0.00    -0.347 N 
ATOM      9  H3  UNL     1     -22.120  19.256 -18.665  1.00  0.00     0.167 HD
HETATM   10  C11 UNL     1     -21.105  19.791 -20.265  1.00  0.00    -0.007 C 
HETATM   11  C12 UNL     1     -21.959  20.977 -20.636  1.00  0.00     0.053 C 
HETATM   12  C13 UNL     1     -22.585  20.603 -21.969  1.00  0.00     0.006 C 
HETATM   13  C14 UNL     1     -22.214  19.183 -22.348  1.00  0.00     0.001 C 
HETATM   14  C15 UNL     1     -20.748  18.951 -22.477  1.00  0.00     0.011 C 
HETATM   15  C16 UNL     1     -20.036  19.475 -21.221  1.00  0.00     0.044 C 
HETATM   16  C17 UNL     1     -18.964  18.534 -20.763  1.00  0.00     0.001 C 
HETATM   17  C18 UNL     1     -18.366  17.887 -21.979  1.00  0.00     0.015 C 
HETATM   18  C19 UNL     1     -16.868  18.083 -21.919  1.00  0.00     0.001 C 
HETATM   19  C20 UNL     1     -16.555  18.915 -20.724  1.00  0.00     0.001 C 
HETATM   20  C21 UNL     1     -17.843  19.416 -20.185  1.00  0.00     0.015 C 
ENDROOT
BRANCH   1  21
HETATM   21  C6  UNL     1     -21.717  17.027 -16.961  1.00  0.00     0.138 A 
HETATM   22  S1  UNL     1     -21.647  17.559 -15.342  1.00  0.00    -0.078 SA
HETATM   23  C5  UNL     1     -23.250  17.228 -14.877  1.00  0.00     0.072 A 
HETATM   24  C4  UNL     1     -23.803  16.703 -16.018  1.00  0.00     0.087 A 
HETATM   25  C22 UNL     1     -23.010  16.601 -17.090  1.00  0.00     0.168 A 
HETATM   26  F1  UNL     1     -23.423  16.093 -18.311  1.00  0.00    -0.202 F 
BRANCH  24  27
HETATM   27  C3  UNL     1     -25.234  16.283 -15.999  1.00  0.00     0.297 C 
HETATM   28  O2  UNL     1     -26.138  16.998 -16.494  1.00  0.00    -0.259 OA
BRANCH  27  29
HETATM   29  O1  UNL     1     -25.613  15.071 -15.424  1.00  0.00    -0.318 OA
BRANCH  29  30
HETATM   30  C2  UNL     1     -26.078  15.070 -14.087  1.00  0.00     0.174 C 
HETATM   31  C1  UNL     1     -25.087  14.359 -13.176  1.00  0.00     0.034 C 
ENDBRANCH  29  30
ENDBRANCH  27  29
ENDBRANCH  24  27
ENDBRANCH   1  21
TORSDOF 4
ENDMDL
MODEL 4
REMARK VINA RESULT: -9.507860582      2.945      5.158
REMARK  4 active torsions:
REMARK  status: ('A' for Active; 'I' for Inactive)
REMARK    1  A    between atoms: C2_2  and  O1_3 
REMARK    2  A    between atoms: O1_3  and  C3_4 
REMARK    3  A    between atoms: C3_4  and  C4_6 
REMARK    4  A    between atoms: C6_9  and  N1_10 
ROOT
HETATM    1  N1  UNL     1     -21.388  18.119 -18.299  1.00  0.00    -0.229 N 
HETATM    2  N2  UNL     1     -22.236  19.112 -18.352  1.00  0.00    -0.295 N 
ATOM      3  H2  UNL     1     -22.948  19.288 -17.644  1.00  0.00     0.187 HD
HETATM    4  C7  UNL     1     -22.061  19.877 -19.447  1.00  0.00     0.033 A 
HETATM    5  C8  UNL     1     -22.857  21.069 -19.791  1.00  0.00     0.070 C 
HETATM    6  C9  UNL     1     -21.001  19.320 -20.167  1.00  0.00     0.021 A 
HETATM    7  C10 UNL     1     -20.628  18.247 -19.411  1.00  0.00     0.137 A 
HETATM    8  N3  UNL     1     -19.491  17.457 -19.784  1.00  0.00    -0.347 N 
ATOM      9  H3  UNL     1     -19.241  16.653 -19.208  1.00  0.00     0.167 HD
HETATM   10  C11 UNL     1     -18.787  17.720 -20.799  1.00  0.00    -0.007 C 
HETATM   11  C12 UNL     1     -17.590  16.908 -21.229  1.00  0.00     0.053 C 
HETATM   12  C13 UNL     1     -16.408  17.849 -21.076  1.00  0.00     0.006 C 
HETATM   13  C14 UNL     1     -16.851  19.162 -20.463  1.00  0.00     0.001 C 
HETATM   14  C15 UNL     1     -17.883  19.887 -21.257  1.00  0.00     0.011 C 
HETATM   15  C16 UNL     1     -19.033  18.928 -21.596  1.00  0.00     0.044 C 
HETATM   16  C17 UNL     1     -20.368  19.592 -21.439  1.00  0.00     0.001 C 
HETATM   17  C18 UNL     1     -20.210  21.038 -21.812  1.00  0.00     0.015 C 
HETATM   18  C19 UNL     1     -21.257  21.364 -22.853  1.00  0.00     0.001 C 
HETATM   19  C20 UNL     1     -21.994  20.112 -23.181  1.00  0.00     0.001 C 
HETATM   20  C21 UNL     1     -21.271  18.992 -22.530  1.00  0.00     0.015 C 
ENDROOT
BRANCH   1  21
HETATM   21  C6  UNL     1     -21.274  17.099 -17.284  1.00  0.00     0.138 A 
HETATM   22  S1  UNL     1     -22.516  16.213 -16.521  1.00  0.00    -0.078 SA
HETATM   23  C5  UNL     1     -21.568  15.250 -15.487  1.00  0.00     0.072 A 
HETATM   24  C4  UNL     1     -20.288  15.654 -15.772  1.00  0.00     0.087 A 
HETATM   25  C22 UNL     1     -20.140  16.607 -16.698  1.00  0.00     0.168 A 
HETATM   26  F1  UNL     1     -18.914  17.117 -17.093  1.00  0.00    -0.202 F 
BRANCH  24  27
HETATM   27  C3  UNL     1     -19.152  15.017 -15.045  1.00  0.00     0.297 C 
HETATM   28  O2  UNL     1     -18.493  15.639 -14.176  1.00  0.00    -0.259 OA
BRANCH  27  29
HETATM   29  O1  UNL     1     -18.785  13.699 -15.310  1.00  0.00    -0.318 OA
BRANCH  29  30
HETATM   30  C2  UNL     1     -17.450  13.431 -15.696  1.00  0.00     0.174 C 
HETATM   31  C1  UNL     1     -17.091  14.209 -16.955  1.00  0.00     0.034 C 
ENDBRANCH  29  30
ENDBRANCH  27  29
ENDBRANCH  24  27
ENDBRANCH   1  21
TORSDOF 4
ENDMDL
MODEL 5
REMARK VINA RESULT: -9.463921316      1.559      1.686
REMARK  4 active torsions:
REMARK  status: ('A' for Active; 'I' for Inactive)
REMARK    1  A    between atoms: C2_2  and  O1_3 
REMARK    2  A    between atoms: O1_3  and  C3_4 
REMARK    3  A    between atoms: C3_4  and  C4_6 
REMARK    4  A    between atoms: C6_9  and  N1_10 
ROOT
HETATM    1  N1  UNL     1     -21.217  17.014 -18.340  1.00  0.00    -0.229 N 
HETATM    2  N2  UNL     1     -20.260  16.123 -18.343  1.00  0.00    -0.295 N 
ATOM      3  H2  UNL     1     -20.267  15.281 -17.768  1.00  0.00     0.187 HD
HETATM    4  C7  UNL     1     -19.265  16.443 -19.193  1.00  0.00     0.033 A 
HETATM    5  C8  UNL     1     -18.050  15.642 -19.424  1.00  0.00     0.070 C 
HETATM    6  C9  UNL     1     -19.615  17.656 -19.791  1.00  0.00     0.021 A 
HETATM    7  C10 UNL     1     -20.823  17.954 -19.230  1.00  0.00     0.137 A 
HETATM    8  N3  UNL     1     -21.560  19.105 -19.664  1.00  0.00    -0.347 N 
ATOM      9  H3  UNL     1     -22.455  19.312 -19.219  1.00  0.00     0.167 HD
HETATM   10  C11 UNL     1     -21.143  19.873 -20.575  1.00  0.00    -0.007 C 
HETATM   11  C12 UNL     1     -21.884  21.097 -21.052  1.00  0.00     0.053 C 
HETATM   12  C13 UNL     1     -22.254  20.790 -22.493  1.00  0.00     0.006 C 
HETATM   13  C14 UNL     1     -21.851  19.374 -22.854  1.00  0.00     0.001 C 
HETATM   14  C15 UNL     1     -20.393  19.103 -22.713  1.00  0.00     0.011 C 
HETATM   15  C16 UNL     1     -19.920  19.559 -21.325  1.00  0.00     0.044 C 
HETATM   16  C17 UNL     1     -18.976  18.569 -20.713  1.00  0.00     0.001 C 
HETATM   17  C18 UNL     1     -18.174  17.950 -21.821  1.00  0.00     0.015 C 
HETATM   18  C19 UNL     1     -16.711  18.098 -21.472  1.00  0.00     0.001 C 
HETATM   19  C20 UNL     1     -16.610  18.876 -20.206  1.00  0.00     0.001 C 
HETATM   20  C21 UNL     1     -17.965  19.396 -19.899  1.00  0.00     0.015 C 
ENDROOT
BRANCH   1  21
HETATM   21  C6  UNL     1     -22.433  17.012 -17.562  1.00  0.00     0.138 A 
HETATM   22  S1  UNL     1     -23.936  16.301 -17.940  1.00  0.00    -0.078 SA
HETATM   23  C5  UNL     1     -24.805  16.744 -16.545  1.00  0.00     0.072 A 
HETATM   24  C4  UNL     1     -23.881  17.444 -15.812  1.00  0.00     0.087 A 
HETATM   25  C22 UNL     1     -22.660  17.581 -16.339  1.00  0.00     0.168 A 
HETATM   26  F1  UNL     1     -21.623  18.260 -15.720  1.00  0.00    -0.202 F 
BRANCH  24  27
HETATM   27  C3  UNL     1     -24.284  18.005 -14.491  1.00  0.00     0.297 C 
HETATM   28  O2  UNL     1     -23.809  17.569 -13.415  1.00  0.00    -0.259 OA
BRANCH  27  29
HETATM   29  O1  UNL     1     -25.212  19.044 -14.411  1.00  0.00    -0.318 OA
BRANCH  29  30
HETATM   30  C2  UNL     1     -25.033  20.179 -15.237  1.00  0.00     0.174 C 
HETATM   31  C1  UNL     1     -26.190  20.315 -16.217  1.00  0.00     0.034 C 
ENDBRANCH  29  30
ENDBRANCH  27  29
ENDBRANCH  24  27
ENDBRANCH   1  21
TORSDOF 4
ENDMDL
