MODEL 1
REMARK VINA RESULT: -7.995298604      0.000      0.000
REMARK  4 active torsions:
REMARK  status: ('A' for Active; 'I' for Inactive)
REMARK    1  A    between atoms: O1_2  and  C2_3 
REMARK    2  A    between atoms: C4_6  and  O2_7 
REMARK    3  A    between atoms: C6_9  and  N1_10 
REMARK    4  A    between atoms: C10_17  and  C12_19 
ROOT
HETATM    1  C2  UNL     1     -23.865  20.219 -19.353  1.00  0.00     0.108 A 
HETATM    2  C3  UNL     1     -24.745  19.913 -18.304  1.00  0.00     0.081 A 
HETATM    3 BR1  UNL     1     -26.417  20.797 -18.093  1.00  0.00    -0.045 Br
HETATM    4  C4  UNL     1     -24.319  18.939 -17.447  1.00  0.00     0.124 A 
HETATM    5  C6  UNL     1     -23.127  18.285 -17.571  1.00  0.00     0.172 A 
HETATM    6  C7  UNL     1     -22.262  18.607 -18.628  1.00  0.00     0.132 A 
HETATM    7  C8  UNL     1     -22.676  19.576 -19.487  1.00  0.00     0.078 A 
HETATM    8  S1  UNL     1     -21.366  19.724 -20.675  1.00  0.00    -0.059 SA
HETATM    9  C9  UNL     1     -20.328  18.466 -19.942  1.00  0.00     0.120 A 
HETATM   10  C10 UNL     1     -19.137  18.015 -20.310  1.00  0.00    -0.035 C 
HETATM   11  C11 UNL     1     -18.479  16.923 -19.489  1.00  0.00     0.048 C 
HETATM   12  O5  UNL     1     -21.066  18.039 -18.856  1.00  0.00    -0.299 OA
ENDROOT
BRANCH  10  13
HETATM   13  C12 UNL     1     -18.384  18.480 -21.456  1.00  0.00    -0.025 C 
HETATM   14  C13 UNL     1     -16.919  18.061 -21.185  1.00  0.00     0.019 C 
HETATM   15  C14 UNL     1     -18.875  17.685 -22.666  1.00  0.00     0.019 C 
HETATM   16  C15 UNL     1     -18.341  19.936 -21.741  1.00  0.00     0.019 C 
ENDBRANCH  10  13
BRANCH   1  17
HETATM   17  O1  UNL     1     -24.237  21.203 -20.265  1.00  0.00    -0.353 OA
HETATM   18  C1  UNL     1     -24.831  20.772 -21.475  1.00  0.00     0.210 C 
ENDBRANCH   1  17
BRANCH   5  19
HETATM   19  N1  UNL     1     -22.812  17.292 -16.607  1.00  0.00    -0.110 N 
HETATM   20  O3  UNL     1     -23.046  16.109 -16.917  1.00  0.00    -0.532 OA
HETATM   21  O4  UNL     1     -22.276  17.540 -15.379  1.00  0.00    -0.532 OA
ENDBRANCH   5  19
BRANCH   4  22
HETATM   22  O2  UNL     1     -25.202  18.625 -16.386  1.00  0.00    -0.352 OA
HETATM   23  C5  UNL     1     -26.183  17.645 -16.653  1.00  0.00     0.210 C 
ENDBRANCH   4  22
TORSDOF 4
ENDMDL
MODEL 2
REMARK VINA RESULT: -7.979229392      3.213      7.047
REMARK  4 active torsions:
REMARK  status: ('A' for Active; 'I' for Inactive)
REMARK    1  A    between atoms: O1_2  and  C2_3 
REMARK    2  A    between atoms: C4_6  and  O2_7 
REMARK    3  A    between atoms: C6_9  and  N1_10 
REMARK    4  A    between atoms: C10_17  and  C12_19 
ROOT
HETATM    1  C2  UNL     1     -20.224  17.508 -18.755  1.00  0.00     0.108 A 
HETATM    2  C3  UNL     1     -19.336  17.650 -19.832  1.00  0.00     0.081 A 
HETATM    3 BR1  UNL     1     -17.714  16.660 -19.945  1.00  0.00    -0.045 Br
HETATM    4  C4  UNL     1     -19.715  18.544 -20.791  1.00  0.00     0.124 A 
HETATM    5  C6  UNL     1     -20.871  19.268 -20.741  1.00  0.00     0.172 A 
HETATM    6  C7  UNL     1     -21.745  19.111 -19.654  1.00  0.00     0.132 A 
HETATM    7  C8  UNL     1     -21.378  18.223 -18.693  1.00  0.00     0.078 A 
HETATM    8  S1  UNL     1     -22.686  18.276 -17.496  1.00  0.00    -0.059 SA
HETATM    9  C9  UNL     1     -23.660  19.500 -18.362  1.00  0.00     0.120 A 
HETATM   10  C10 UNL     1     -24.824  20.050 -18.046  1.00  0.00    -0.035 C 
HETATM   11  C11 UNL     1     -25.429  21.078 -18.982  1.00  0.00     0.048 C 
HETATM   12  O5  UNL     1     -22.909  19.764 -19.489  1.00  0.00    -0.299 OA
ENDROOT
BRANCH  10  13
HETATM   13  C12 UNL     1     -25.594  19.754 -16.856  1.00  0.00    -0.025 C 
HETATM   14  C13 UNL     1     -26.844  20.662 -16.937  1.00  0.00     0.019 C 
HETATM   15  C14 UNL     1     -26.067  18.306 -16.978  1.00  0.00     0.019 C 
HETATM   16  C15 UNL     1     -24.988  20.020 -15.527  1.00  0.00     0.019 C 
ENDBRANCH  10  13
BRANCH   1  17
HETATM   17  O1  UNL     1     -19.899  16.611 -17.741  1.00  0.00    -0.353 OA
HETATM   18  C1  UNL     1     -20.511  15.336 -17.786  1.00  0.00     0.210 C 
ENDBRANCH   1  17
BRANCH   5  19
HETATM   19  N1  UNL     1     -21.141  20.163 -21.809  1.00  0.00    -0.110 N 
HETATM   20  O3  UNL     1     -21.736  19.698 -22.800  1.00  0.00    -0.532 OA
HETATM   21  O4  UNL     1     -20.798  21.482 -21.827  1.00  0.00    -0.532 OA
ENDBRANCH   5  19
BRANCH   4  22
HETATM   22  O2  UNL     1     -18.824  18.692 -21.881  1.00  0.00    -0.352 OA
HETATM   23  C5  UNL     1     -17.807  19.659 -21.735  1.00  0.00     0.210 C 
ENDBRANCH   4  22
TORSDOF 4
ENDMDL
MODEL 3
REMARK VINA RESULT: -7.888713901      2.548      3.309
REMARK  4 active torsions:
REMARK  status: ('A' for Active; 'I' for Inactive)
REMARK    1  A    between atoms: O1_2  and  C2_3 
REMARK    2  A    between atoms: C4_6  and  O2_7 
REMARK    3  A    between atoms: C6_9  and  N1_10 
REMARK    4  A    between atoms: C10_17  and  C12_19 
ROOT
HETATM    1  C2  UNL     1     -23.220  18.472 -16.432  1.00  0.00     0.108 A 
HETATM    2  C3  UNL     1     -23.123  17.740 -15.238  1.00  0.00     0.081 A 
HETATM    3 BR1  UNL     1     -24.520  17.721 -13.946  1.00  0.00    -0.045 Br
HETATM    4  C4  UNL     1     -21.961  17.044 -15.069  1.00  0.00     0.124 A 
HETATM    5  C6  UNL     1     -20.941  17.037 -15.977  1.00  0.00     0.172 A 
HETATM    6  C7  UNL     1     -21.059  17.776 -17.164  1.00  0.00     0.132 A 
HETATM    7  C8  UNL     1     -22.212  18.472 -17.342  1.00  0.00     0.078 A 
HETATM    8  S1  UNL     1     -22.024  19.274 -18.914  1.00  0.00    -0.059 SA
HETATM    9  C9  UNL     1     -20.393  18.623 -19.244  1.00  0.00     0.120 A 
HETATM   10  C10 UNL     1     -19.591  18.803 -20.284  1.00  0.00    -0.035 C 
HETATM   11  C11 UNL     1     -18.239  18.115 -20.299  1.00  0.00     0.048 C 
HETATM   12  O5  UNL     1     -20.129  17.850 -18.131  1.00  0.00    -0.299 OA
ENDROOT
BRANCH  10  13
HETATM   13  C12 UNL     1     -19.892  19.619 -21.441  1.00  0.00    -0.025 C 
HETATM   14  C13 UNL     1     -18.529  20.164 -21.930  1.00  0.00     0.019 C 
HETATM   15  C14 UNL     1     -20.429  18.681 -22.522  1.00  0.00     0.019 C 
HETATM   16  C15 UNL     1     -20.763  20.809 -21.271  1.00  0.00     0.019 C 
ENDBRANCH  10  13
BRANCH   1  17
HETATM   17  O1  UNL     1     -24.381  19.204 -16.668  1.00  0.00    -0.353 OA
HETATM   18  C1  UNL     1     -25.430  18.547 -17.353  1.00  0.00     0.210 C 
ENDBRANCH   1  17
BRANCH   5  19
HETATM   19  N1  UNL     1     -19.788  16.268 -15.672  1.00  0.00    -0.110 N 
HETATM   20  O3  UNL     1     -19.638  15.201 -16.298  1.00  0.00    -0.532 OA
HETATM   21  O4  UNL     1     -18.842  16.611 -14.753  1.00  0.00    -0.532 OA
ENDBRANCH   5  19
BRANCH   4  22
HETATM   22  O2  UNL     1     -21.857  16.304 -13.868  1.00  0.00    -0.352 OA
HETATM   23  C5  UNL     1     -22.322  14.972 -13.907  1.00  0.00     0.210 C 
ENDBRANCH   4  22
TORSDOF 4
ENDMDL
MODEL 4
REMARK VINA RESULT: -7.809775745      0.919      1.148
REMARK  4 active torsions:
REMARK  status: ('A' for Active; 'I' for Inactive)
REMARK    1  A    between atoms: O1_2  and  C2_3 
REMARK    2  A    between atoms: C4_6  and  O2_7 
REMARK    3  A    between atoms: C6_9  and  N1_10 
REMARK    4  A    between atoms: C10_17  and  C12_19 
ROOT
HETATM    1  C2  UNL     1     -23.406  19.932 -18.497  1.00  0.00     0.108 A 
HETATM    2  C3  UNL     1     -24.109  19.542 -17.347  1.00  0.00     0.081 A 
HETATM    3 BR1  UNL     1     -25.748  20.363 -16.836  1.00  0.00    -0.045 Br
HETATM    4  C4  UNL     1     -23.538  18.536 -16.624  1.00  0.00     0.124 A 
HETATM    5  C6  UNL     1     -22.365  17.927 -16.964  1.00  0.00     0.172 A 
HETATM    6  C7  UNL     1     -21.678  18.333 -18.118  1.00  0.00     0.132 A 
HETATM    7  C8  UNL     1     -22.237  19.334 -18.846  1.00  0.00     0.078 A 
HETATM    8  S1  UNL     1     -21.127  19.587 -20.207  1.00  0.00    -0.059 SA
HETATM    9  C9  UNL     1     -19.963  18.323 -19.715  1.00  0.00     0.120 A 
HETATM   10  C10 UNL     1     -18.833  17.928 -20.284  1.00  0.00    -0.035 C 
HETATM   11  C11 UNL     1     -18.034  16.813 -19.638  1.00  0.00     0.048 C 
HETATM   12  O5  UNL     1     -20.518  17.814 -18.558  1.00  0.00    -0.299 OA
ENDROOT
BRANCH  10  13
HETATM   13  C12 UNL     1     -18.273  18.478 -21.501  1.00  0.00    -0.025 C 
HETATM   14  C13 UNL     1     -16.760  18.158 -21.441  1.00  0.00     0.019 C 
HETATM   15  C14 UNL     1     -18.866  17.685 -22.665  1.00  0.00     0.019 C 
HETATM   16  C15 UNL     1     -18.366  19.941 -21.735  1.00  0.00     0.019 C 
ENDBRANCH  10  13
BRANCH   1  17
HETATM   17  O1  UNL     1     -23.934  20.954 -19.283  1.00  0.00    -0.353 OA
HETATM   18  C1  UNL     1     -24.552  20.579 -20.500  1.00  0.00     0.210 C 
ENDBRANCH   1  17
BRANCH   5  19
HETATM   19  N1  UNL     1     -21.885  16.892 -16.118  1.00  0.00    -0.110 N 
HETATM   20  O3  UNL     1     -21.180  17.236 -15.150  1.00  0.00    -0.532 OA
HETATM   21  O4  UNL     1     -22.140  15.565 -16.289  1.00  0.00    -0.532 OA
ENDBRANCH   5  19
BRANCH   4  22
HETATM   22  O2  UNL     1     -24.242  18.138 -15.463  1.00  0.00    -0.352 OA
HETATM   23  C5  UNL     1     -25.201  17.115 -15.628  1.00  0.00     0.210 C 
ENDBRANCH   4  22
TORSDOF 4
ENDMDL
MODEL 5
REMARK VINA RESULT: -7.768612427      3.476      5.609
REMARK  4 active torsions:
REMARK  status: ('A' for Active; 'I' for Inactive)
REMARK    1  A    between atoms: O1_2  and  C2_3 
REMARK    2  A    between atoms: C4_6  and  O2_7 
REMARK    3  A    between atoms: C6_9  and  N1_10 
REMARK    4  A    between atoms: C10_17  and  C12_19 
ROOT
HETATM    1  C2  UNL     1     -18.194  16.095 -18.934  1.00  0.00     0.108 A 
HETATM    2  C3  UNL     1     -18.263  15.394 -17.720  1.00  0.00     0.081 A 
HETATM    3 BR1  UNL     1     -16.975  14.080 -17.235  1.00  0.00    -0.045 Br
HETATM    4  C4  UNL     1     -19.316  15.720 -16.915  1.00  0.00     0.124 A 
HETATM    5  C6  UNL     1     -20.255  16.657 -17.233  1.00  0.00     0.172 A 
HETATM    6  C7  UNL     1     -20.167  17.346 -18.452  1.00  0.00     0.132 A 
HETATM    7  C8  UNL     1     -19.123  17.030 -19.263  1.00  0.00     0.078 A 
HETATM    8  S1  UNL     1     -19.317  18.070 -20.687  1.00  0.00    -0.059 SA
HETATM    9  C9  UNL     1     -20.804  18.876 -20.108  1.00  0.00     0.120 A 
HETATM   10  C10 UNL     1     -21.548  19.815 -20.676  1.00  0.00    -0.035 C 
HETATM   11  C11 UNL     1     -22.775  20.324 -19.944  1.00  0.00     0.048 C 
HETATM   12  O5  UNL     1     -21.026  18.288 -18.879  1.00  0.00    -0.299 OA
ENDROOT
BRANCH  10  13
HETATM   13  C12 UNL     1     -21.292  20.418 -21.967  1.00  0.00    -0.025 C 
HETATM   14  C13 UNL     1     -21.261  19.243 -22.973  1.00  0.00     0.019 C 
HETATM   15  C14 UNL     1     -22.505  21.284 -22.305  1.00  0.00     0.019 C 
HETATM   16  C15 UNL     1     -20.021  21.158 -22.172  1.00  0.00     0.019 C 
ENDBRANCH  10  13
BRANCH   1  17
HETATM   17  O1  UNL     1     -17.144  15.812 -19.804  1.00  0.00    -0.353 OA
HETATM   18  C1  UNL     1     -16.124  16.786 -19.923  1.00  0.00     0.210 C 
ENDBRANCH   1  17
BRANCH   5  19
HETATM   19  N1  UNL     1     -21.298  16.895 -16.299  1.00  0.00    -0.110 N 
HETATM   20  O3  UNL     1     -22.350  16.245 -16.450  1.00  0.00    -0.532 OA
HETATM   21  O4  UNL     1     -21.228  17.774 -15.261  1.00  0.00    -0.532 OA
ENDBRANCH   5  19
BRANCH   4  22
HETATM   22  O2  UNL     1     -19.392  15.016 -15.689  1.00  0.00    -0.352 OA
HETATM   23  C5  UNL     1     -18.622  15.527 -14.622  1.00  0.00     0.210 C 
ENDBRANCH   4  22
TORSDOF 4
ENDMDL
