MODEL 1
REMARK VINA RESULT: -8.771307752      0.000      0.000
REMARK  3 active torsions:
REMARK  status: ('A' for Active; 'I' for Inactive)
REMARK    1  A    between atoms: C2_2  and  C3_3 
REMARK    2  A    between atoms: C8_10  and  C9_11 
REMARK    3  A    between atoms: C20_26  and  C21_27 
ROOT
HETATM    1  C3  UNL     1     -20.423  17.139 -13.900  1.00  0.00     0.066 C 
HETATM    2  C4  UNL     1     -19.914  16.725 -15.038  1.00  0.00     0.215 C 
HETATM    3  O1  UNL     1     -20.730  16.722 -16.151  1.00  0.00    -0.169 OA
HETATM    4  O2  UNL     1     -20.316  16.918 -17.407  1.00  0.00    -0.190 OA
HETATM    5  C5  UNL     1     -21.424  17.091 -18.229  1.00  0.00     0.230 C 
HETATM    6  C6  UNL     1     -22.338  15.892 -18.233  1.00  0.00     0.075 C 
HETATM    7  C7  UNL     1     -23.447  15.960 -17.227  1.00  0.00     0.012 C 
HETATM    8  C8  UNL     1     -24.263  17.203 -17.312  1.00  0.00     0.015 C 
HETATM    9  C10 UNL     1     -23.666  18.136 -18.341  1.00  0.00     0.012 C 
HETATM   10  C11 UNL     1     -22.214  18.338 -17.929  1.00  0.00     0.075 C 
HETATM   11  O3  UNL     1     -20.917  17.172 -19.546  1.00  0.00    -0.189 OA
HETATM   12  O4  UNL     1     -20.697  18.434 -19.914  1.00  0.00    -0.156 OA
HETATM   13  C12 UNL     1     -19.449  18.767 -20.418  1.00  0.00     0.289 C 
HETATM   14  O5  UNL     1     -18.808  19.807 -20.117  1.00  0.00    -0.263 OA
HETATM   15  C13 UNL     1     -18.825  17.823 -21.382  1.00  0.00     0.114 C 
HETATM   16  C14 UNL     1     -17.365  18.150 -21.586  1.00  0.00     0.010 C 
HETATM   17  C15 UNL     1     -16.509  17.621 -20.466  1.00  0.00     0.000 C 
HETATM   18  C16 UNL     1     -17.160  16.387 -19.931  1.00  0.00     0.000 C 
HETATM   19  C17 UNL     1     -16.321  15.675 -18.876  1.00  0.00     0.000 C 
HETATM   20  C18 UNL     1     -17.216  14.831 -17.971  1.00  0.00     0.002 C 
HETATM   21  C19 UNL     1     -16.918  15.236 -16.561  1.00  0.00     0.032 C 
HETATM   22  C20 UNL     1     -18.084  15.089 -15.612  1.00  0.00     0.131 C 
HETATM   23  O6  UNL     1     -18.641  16.299 -15.186  1.00  0.00    -0.323 OA
ENDROOT
BRANCH   8  24
HETATM   24  C9  UNL     1     -25.726  16.938 -17.572  1.00  0.00     0.226 C 
HETATM   25  F1  UNL     1     -26.414  18.080 -17.205  1.00  0.00    -0.255 F 
ENDBRANCH   8  24
BRANCH   1  26
HETATM   26  C2  UNL     1     -21.809  17.576 -13.844  1.00  0.00    -0.005 C 
HETATM   27  C1  UNL     1     -22.543  17.257 -12.803  1.00  0.00     0.011 C 
ENDBRANCH   1  26
BRANCH  22  28
HETATM   28  C21 UNL     1     -19.039  14.028 -16.028  1.00  0.00     0.028 C 
HETATM   29  C22 UNL     1     -18.701  12.769 -15.217  1.00  0.00     0.007 C 
ENDBRANCH  22  28
TORSDOF 3
ENDMDL
MODEL 2
REMARK VINA RESULT: -7.778958615      2.929      6.577
REMARK  3 active torsions:
REMARK  status: ('A' for Active; 'I' for Inactive)
REMARK    1  A    between atoms: C2_2  and  C3_3 
REMARK    2  A    between atoms: C8_10  and  C9_11 
REMARK    3  A    between atoms: C20_26  and  C21_27 
ROOT
HETATM    1  C3  UNL     1     -20.693  14.848 -17.484  1.00  0.00     0.066 C 
HETATM    2  C4  UNL     1     -21.385  15.632 -16.689  1.00  0.00     0.215 C 
HETATM    3  O1  UNL     1     -21.738  16.882 -17.155  1.00  0.00    -0.169 OA
HETATM    4  O2  UNL     1     -22.848  17.544 -16.813  1.00  0.00    -0.190 OA
HETATM    5  C5  UNL     1     -22.997  18.645 -17.649  1.00  0.00     0.230 C 
HETATM    6  C6  UNL     1     -21.843  19.610 -17.552  1.00  0.00     0.075 C 
HETATM    7  C7  UNL     1     -20.755  19.372 -18.555  1.00  0.00     0.012 C 
HETATM    8  C8  UNL     1     -21.235  19.315 -19.964  1.00  0.00     0.015 C 
HETATM    9  C10 UNL     1     -22.744  19.402 -19.993  1.00  0.00     0.012 C 
HETATM   10  C11 UNL     1     -23.245  18.282 -19.090  1.00  0.00     0.075 C 
HETATM   11  O3  UNL     1     -24.115  19.355 -17.154  1.00  0.00    -0.189 OA
HETATM   12  O4  UNL     1     -25.242  18.990 -17.764  1.00  0.00    -0.156 OA
HETATM   13  C12 UNL     1     -26.322  18.609 -16.983  1.00  0.00     0.289 C 
HETATM   14  O5  UNL     1     -27.066  17.622 -17.218  1.00  0.00    -0.263 OA
HETATM   15  C13 UNL     1     -26.619  19.428 -15.778  1.00  0.00     0.114 C 
HETATM   16  C14 UNL     1     -27.596  18.717 -14.873  1.00  0.00     0.010 C 
HETATM   17  C15 UNL     1     -26.921  17.668 -14.030  1.00  0.00     0.000 C 
HETATM   18  C16 UNL     1     -25.515  18.110 -13.782  1.00  0.00     0.000 C 
HETATM   19  C17 UNL     1     -24.759  17.194 -12.826  1.00  0.00     0.000 C 
HETATM   20  C18 UNL     1     -23.254  17.313 -13.062  1.00  0.00     0.002 C 
HETATM   21  C19 UNL     1     -22.737  15.925 -13.284  1.00  0.00     0.032 C 
HETATM   22  C20 UNL     1     -21.524  15.849 -14.181  1.00  0.00     0.131 C 
HETATM   23  O6  UNL     1     -21.770  15.291 -15.440  1.00  0.00    -0.323 OA
ENDROOT
BRANCH   8  24
HETATM   24  C9  UNL     1     -20.593  20.352 -20.853  1.00  0.00     0.226 C 
HETATM   25  F1  UNL     1     -21.575  21.271 -21.174  1.00  0.00    -0.255 F 
ENDBRANCH   8  24
BRANCH   1  26
HETATM   26  C2  UNL     1     -20.325  15.311 -18.813  1.00  0.00    -0.005 C 
HETATM   27  C1  UNL     1     -19.186  15.942 -18.982  1.00  0.00     0.011 C 
ENDBRANCH   1  26
BRANCH  22  28
HETATM   28  C21 UNL     1     -20.704  17.089 -14.151  1.00  0.00     0.028 C 
HETATM   29  C22 UNL     1     -19.281  16.702 -14.580  1.00  0.00     0.007 C 
ENDBRANCH  22  28
TORSDOF 3
ENDMDL
MODEL 3
REMARK VINA RESULT: -7.734636060      2.302      3.452
REMARK  3 active torsions:
REMARK  status: ('A' for Active; 'I' for Inactive)
REMARK    1  A    between atoms: C2_2  and  C3_3 
REMARK    2  A    between atoms: C8_10  and  C9_11 
REMARK    3  A    between atoms: C20_26  and  C21_27 
ROOT
HETATM    1  C3  UNL     1     -22.589  19.265 -16.025  1.00  0.00     0.066 C 
HETATM    2  C4  UNL     1     -21.873  18.538 -16.853  1.00  0.00     0.215 C 
HETATM    3  O1  UNL     1     -22.001  18.778 -18.205  1.00  0.00    -0.169 OA
HETATM    4  O2  UNL     1     -21.028  18.619 -19.109  1.00  0.00    -0.190 OA
HETATM    5  C5  UNL     1     -21.432  19.180 -20.315  1.00  0.00     0.230 C 
HETATM    6  C6  UNL     1     -22.677  18.535 -20.869  1.00  0.00     0.075 C 
HETATM    7  C7  UNL     1     -23.952  19.214 -20.469  1.00  0.00     0.012 C 
HETATM    8  C8  UNL     1     -23.978  20.674 -20.766  1.00  0.00     0.015 C 
HETATM    9  C10 UNL     1     -22.631  21.109 -21.301  1.00  0.00     0.012 C 
HETATM   10  C11 UNL     1     -21.608  20.675 -20.260  1.00  0.00     0.075 C 
HETATM   11  O3  UNL     1     -20.412  18.871 -21.244  1.00  0.00    -0.189 OA
HETATM   12  O4  UNL     1     -19.505  19.843 -21.325  1.00  0.00    -0.156 OA
HETATM   13  C12 UNL     1     -18.168  19.514 -21.170  1.00  0.00     0.289 C 
HETATM   14  O5  UNL     1     -17.338  20.175 -20.495  1.00  0.00    -0.263 OA
HETATM   15  C13 UNL     1     -17.681  18.286 -21.853  1.00  0.00     0.114 C 
HETATM   16  C14 UNL     1     -16.318  17.888 -21.339  1.00  0.00     0.010 C 
HETATM   17  C15 UNL     1     -16.404  17.160 -20.024  1.00  0.00     0.000 C 
HETATM   18  C16 UNL     1     -17.706  16.426 -19.986  1.00  0.00     0.000 C 
HETATM   19  C17 UNL     1     -17.858  15.538 -18.757  1.00  0.00     0.000 C 
HETATM   20  C18 UNL     1     -19.337  15.302 -18.457  1.00  0.00     0.002 C 
HETATM   21  C19 UNL     1     -19.559  15.687 -17.027  1.00  0.00     0.032 C 
HETATM   22  C20 UNL     1     -20.950  16.196 -16.727  1.00  0.00     0.131 C 
HETATM   23  O6  UNL     1     -21.020  17.567 -16.460  1.00  0.00    -0.323 OA
ENDROOT
BRANCH   8  24
HETATM   24  C9  UNL     1     -25.106  21.074 -21.686  1.00  0.00     0.226 C 
HETATM   25  F1  UNL     1     -26.161  21.463 -20.882  1.00  0.00    -0.255 F 
ENDBRANCH   8  24
BRANCH   1  26
HETATM   26  C2  UNL     1     -23.481  20.287 -16.548  1.00  0.00    -0.005 C 
HETATM   27  C1  UNL     1     -24.747  19.997 -16.744  1.00  0.00     0.011 C 
ENDBRANCH   1  26
BRANCH  22  28
HETATM   28  C21 UNL     1     -21.978  15.643 -17.649  1.00  0.00     0.028 C 
HETATM   29  C22 UNL     1     -23.338  15.792 -16.953  1.00  0.00     0.007 C 
ENDBRANCH  22  28
TORSDOF 3
ENDMDL
MODEL 4
REMARK VINA RESULT: -7.707582729      2.916      6.937
REMARK  3 active torsions:
REMARK  status: ('A' for Active; 'I' for Inactive)
REMARK    1  A    between atoms: C2_2  and  C3_3 
REMARK    2  A    between atoms: C8_10  and  C9_11 
REMARK    3  A    between atoms: C20_26  and  C21_27 
ROOT
HETATM    1  C3  UNL     1     -17.562  19.357 -20.447  1.00  0.00     0.066 C 
HETATM    2  C4  UNL     1     -18.869  19.233 -20.497  1.00  0.00     0.215 C 
HETATM    3  O1  UNL     1     -19.466  18.301 -19.674  1.00  0.00    -0.169 OA
HETATM    4  O2  UNL     1     -20.690  18.413 -19.148  1.00  0.00    -0.190 OA
HETATM    5  C5  UNL     1     -20.864  17.423 -18.186  1.00  0.00     0.230 C 
HETATM    6  C6  UNL     1     -20.738  16.032 -18.754  1.00  0.00     0.075 C 
HETATM    7  C7  UNL     1     -19.357  15.455 -18.668  1.00  0.00     0.012 C 
HETATM    8  C8  UNL     1     -18.775  15.484 -17.297  1.00  0.00     0.015 C 
HETATM    9  C10 UNL     1     -19.713  16.210 -16.360  1.00  0.00     0.012 C 
HETATM   10  C11 UNL     1     -19.961  17.574 -16.990  1.00  0.00     0.075 C 
HETATM   11  O3  UNL     1     -22.209  17.529 -17.765  1.00  0.00    -0.189 OA
HETATM   12  O4  UNL     1     -22.331  18.312 -16.693  1.00  0.00    -0.156 OA
HETATM   13  C12 UNL     1     -23.246  19.352 -16.736  1.00  0.00     0.289 C 
HETATM   14  O5  UNL     1     -23.031  20.515 -16.309  1.00  0.00    -0.263 OA
HETATM   15  C13 UNL     1     -24.578  19.069 -17.332  1.00  0.00     0.114 C 
HETATM   16  C14 UNL     1     -25.331  20.351 -17.600  1.00  0.00     0.010 C 
HETATM   17  C15 UNL     1     -24.870  21.019 -18.868  1.00  0.00     0.000 C 
HETATM   18  C16 UNL     1     -24.405  19.954 -19.808  1.00  0.00     0.000 C 
HETATM   19  C17 UNL     1     -24.035  20.491 -21.186  1.00  0.00     0.000 C 
HETATM   20  C18 UNL     1     -23.050  19.547 -21.873  1.00  0.00     0.002 C 
HETATM   21  C19 UNL     1     -21.871  20.372 -22.286  1.00  0.00     0.032 C 
HETATM   22  C20 UNL     1     -20.564  19.615 -22.324  1.00  0.00     0.131 C 
HETATM   23  O6  UNL     1     -19.665  19.962 -21.310  1.00  0.00    -0.323 OA
ENDROOT
BRANCH   8  24
HETATM   24  C9  UNL     1     -18.407  14.115 -16.778  1.00  0.00     0.226 C 
HETATM   25  F1  UNL     1     -17.052  13.952 -16.997  1.00  0.00    -0.255 F 
ENDBRANCH   8  24
BRANCH   1  26
HETATM   26  C2  UNL     1     -16.792  18.522 -19.539  1.00  0.00    -0.005 C 
HETATM   27  C1  UNL     1     -16.210  17.438 -19.998  1.00  0.00     0.011 C 
ENDBRANCH   1  26
BRANCH  22  28
HETATM   28  C21 UNL     1     -20.744  18.163 -22.586  1.00  0.00     0.028 C 
HETATM   29  C22 UNL     1     -19.376  17.602 -22.999  1.00  0.00     0.007 C 
ENDBRANCH  22  28
TORSDOF 3
ENDMDL
MODEL 5
REMARK VINA RESULT: -7.635966627      2.167      5.633
REMARK  3 active torsions:
REMARK  status: ('A' for Active; 'I' for Inactive)
REMARK    1  A    between atoms: C2_2  and  C3_3 
REMARK    2  A    between atoms: C8_10  and  C9_11 
REMARK    3  A    between atoms: C20_26  and  C21_27 
ROOT
HETATM    1  C3  UNL     1     -22.375  19.057 -22.530  1.00  0.00     0.066 C 
HETATM    2  C4  UNL     1     -21.296  18.898 -21.798  1.00  0.00     0.215 C 
HETATM    3  O1  UNL     1     -21.433  18.922 -20.425  1.00  0.00    -0.169 OA
HETATM    4  O2  UNL     1     -20.672  18.236 -19.566  1.00  0.00    -0.190 OA
HETATM    5  C5  UNL     1     -21.242  18.305 -18.299  1.00  0.00     0.230 C 
HETATM    6  C6  UNL     1     -21.348  19.719 -17.785  1.00  0.00     0.075 C 
HETATM    7  C7  UNL     1     -22.657  20.385 -18.084  1.00  0.00     0.012 C 
HETATM    8  C8  UNL     1     -23.846  19.607 -17.639  1.00  0.00     0.015 C 
HETATM    9  C10 UNL     1     -23.404  18.267 -17.094  1.00  0.00     0.012 C 
HETATM   10  C11 UNL     1     -22.579  17.619 -18.198  1.00  0.00     0.075 C 
HETATM   11  O3  UNL     1     -20.328  17.665 -17.432  1.00  0.00    -0.189 OA
HETATM   12  O4  UNL     1     -20.617  16.374 -17.273  1.00  0.00    -0.156 OA
HETATM   13  C12 UNL     1     -19.617  15.441 -17.491  1.00  0.00     0.289 C 
HETATM   14  O5  UNL     1     -19.767  14.358 -18.115  1.00  0.00    -0.263 OA
HETATM   15  C13 UNL     1     -18.266  15.745 -16.949  1.00  0.00     0.114 C 
HETATM   16  C14 UNL     1     -17.230  14.814 -17.533  1.00  0.00     0.010 C 
HETATM   17  C15 UNL     1     -16.806  15.241 -18.913  1.00  0.00     0.000 C 
HETATM   18  C16 UNL     1     -16.928  16.728 -18.995  1.00  0.00     0.000 C 
HETATM   19  C17 UNL     1     -16.400  17.302 -20.305  1.00  0.00     0.000 C 
HETATM   20  C18 UNL     1     -17.058  18.650 -20.593  1.00  0.00     0.002 C 
HETATM   21  C19 UNL     1     -17.639  18.566 -21.971  1.00  0.00     0.032 C 
HETATM   22  C20 UNL     1     -18.862  19.428 -22.184  1.00  0.00     0.131 C 
HETATM   23  O6  UNL     1     -20.058  18.715 -22.308  1.00  0.00    -0.323 OA
ENDROOT
BRANCH   8  24
HETATM   24  C9  UNL     1     -24.714  20.356 -16.657  1.00  0.00     0.226 C 
HETATM   25  F1  UNL     1     -24.124  20.222 -15.414  1.00  0.00    -0.255 F 
ENDBRANCH   8  24
BRANCH   1  26
HETATM   26  C2  UNL     1     -23.664  19.251 -21.884  1.00  0.00    -0.005 C 
HETATM   27  C1  UNL     1     -24.073  20.469 -21.618  1.00  0.00     0.011 C 
ENDBRANCH   1  26
BRANCH  22  28
HETATM   28  C21 UNL     1     -18.888  20.623 -21.300  1.00  0.00     0.028 C 
HETATM   29  C22 UNL     1     -19.409  21.798 -22.140  1.00  0.00     0.007 C 
ENDBRANCH  22  28
TORSDOF 3
ENDMDL
