MODEL 1
REMARK VINA RESULT: -8.282060793      0.000      0.000
REMARK  13 active torsions:
REMARK  status: ('A' for Active; 'I' for Inactive)
REMARK    1  A    between atoms: N1_1  and  C1_5 
REMARK    2  A    between atoms: C1_5  and  C2_6 
REMARK    3  A    between atoms: C2_6  and  C3_7 
REMARK    4  A    between atoms: C6_10  and  O1_11 
REMARK    5  A    between atoms: C8_14  and  O2_15 
REMARK    6  A    between atoms: O2_15  and  C9_16 
REMARK    7  A    between atoms: C10_17  and  O3_18 
REMARK    8  A    between atoms: O3_18  and  C11_19 
REMARK    9  A    between atoms: C14_24  and  O4_25 
REMARK   10  A    between atoms: O4_25  and  C15_26 
REMARK   11  A    between atoms: C19_31  and  O6_32 
REMARK   12  A    between atoms: C20_34  and  O7_35 
REMARK   13  A    between atoms: C21_37  and  O8_38 
ROOT
HETATM    1  C9  UNL     1     143.988  13.789 -80.964  1.00  0.00     0.202 C 
HETATM    2  C10 UNL     1     142.974  13.841 -79.845  1.00  0.00     0.254 C 
HETATM    3  N2  UNL     1     142.895  15.126 -79.195  1.00  0.00    -0.343 N 
ATOM      4  H2  UNL     1     142.636  15.095 -78.210  1.00  0.00     0.164 HD
HETATM    5  C14 UNL     1     143.099  16.305 -79.666  1.00  0.00     0.150 C 
HETATM    6  C19 UNL     1     143.484  16.641 -81.056  1.00  0.00     0.223 C 
HETATM    7  C20 UNL     1     144.833  16.091 -81.429  1.00  0.00     0.186 C 
HETATM    8  C21 UNL     1     145.128  14.757 -80.787  1.00  0.00     0.183 C 
ENDROOT
BRANCH   1   9
HETATM    9  O2  UNL     1     144.344  12.506 -81.163  1.00  0.00    -0.373 OA
BRANCH   9  10
HETATM   10  C8  UNL     1     144.244  11.953 -82.380  1.00  0.00     0.130 C 
HETATM   11  C7  UNL     1     145.444  11.042 -82.758  1.00  0.00     0.057 A 
HETATM   12  C6  UNL     1     146.677  11.523 -83.285  1.00  0.00     0.069 A 
HETATM   13  C23 UNL     1     145.419  11.178 -84.117  1.00  0.00     0.038 A 
HETATM   14  C5  UNL     1     147.322  11.896 -84.587  1.00  0.00     0.039 C 
HETATM   15  C4  UNL     1     146.404  13.071 -84.976  1.00  0.00     0.013 C 
HETATM   16  C3  UNL     1     145.048  12.551 -84.610  1.00  0.00    -0.029 C 
HETATM   17  C22 UNL     1     144.373  13.094 -83.418  1.00  0.00     0.042 C 
BRANCH  12  18
HETATM   18  O1  UNL     1     146.829  12.734 -82.561  1.00  0.00    -0.389 OA
ATOM     19  H1  UNL     1     147.240  12.413 -81.767  1.00  0.00     0.210 HD
ENDBRANCH  12  18
BRANCH  16  20
HETATM   20  C2  UNL     1     144.146  12.354 -85.795  1.00  0.00     0.037 C 
BRANCH  20  21
HETATM   21  C1  UNL     1     143.050  13.347 -85.946  1.00  0.00     0.230 C 
BRANCH  21  22
HETATM   22  N1  UNL     1     143.453  14.701 -86.175  1.00  0.00    -0.079 N 
ATOM     23  H13 UNL     1     144.426  14.824 -85.895  1.00  0.00     0.274 HD
ATOM     24  H12 UNL     1     143.527  14.874 -87.178  1.00  0.00     0.274 HD
ATOM     25  H11 UNL     1     142.875  15.421 -85.742  1.00  0.00     0.274 HD
ENDBRANCH  21  22
ENDBRANCH  20  21
ENDBRANCH  16  20
ENDBRANCH   9  10
ENDBRANCH   1   9
BRANCH   2  26
HETATM   26  O3  UNL     1     143.230  12.887 -78.848  1.00  0.00    -0.359 OA
BRANCH  26  27
HETATM   27  C11 UNL     1     142.137  12.065 -78.599  1.00  0.00     0.124 A 
HETATM   28  C12 UNL     1     141.352  11.483 -79.691  1.00  0.00     0.034 A 
HETATM   29  C13 UNL     1     142.246  10.593 -78.866  1.00  0.00     0.034 A 
ENDBRANCH  26  27
ENDBRANCH   2  26
BRANCH   8  30
HETATM   30  O8  UNL     1     145.476  14.973 -79.474  1.00  0.00    -0.390 OA
ATOM     31  H8  UNL     1     146.133  15.650 -79.357  1.00  0.00     0.210 HD
ENDBRANCH   8  30
BRANCH   7  32
HETATM   32  O7  UNL     1     145.791  16.990 -80.957  1.00  0.00    -0.390 OA
ATOM     33  H7  UNL     1     145.941  16.787 -80.041  1.00  0.00     0.210 HD
ENDBRANCH   7  32
BRANCH   5  34
HETATM   34  O4  UNL     1     142.940  17.367 -78.768  1.00  0.00    -0.306 OA
BRANCH  34  35
HETATM   35  C15 UNL     1     143.996  17.540 -77.815  1.00  0.00     0.267 C 
HETATM   36  C16 UNL     1     143.582  18.684 -76.920  1.00  0.00     0.063 C 
HETATM   37  C17 UNL     1     144.888  19.437 -76.778  1.00  0.00     0.031 C 
HETATM   38  C18 UNL     1     145.545  19.135 -78.100  1.00  0.00     0.171 C 
HETATM   39  O5  UNL     1     145.114  17.898 -78.511  1.00  0.00    -0.361 OA
ENDBRANCH  34  35
ENDBRANCH   5  34
BRANCH   6  40
HETATM   40  O6  UNL     1     143.394  18.004 -81.237  1.00  0.00    -0.385 OA
ATOM     41  H6  UNL     1     144.203  18.324 -81.620  1.00  0.00     0.210 HD
ENDBRANCH   6  40
TORSDOF 13
ENDMDL
MODEL 2
REMARK VINA RESULT: -8.183677313      2.036      2.993
REMARK  13 active torsions:
REMARK  status: ('A' for Active; 'I' for Inactive)
REMARK    1  A    between atoms: N1_1  and  C1_5 
REMARK    2  A    between atoms: C1_5  and  C2_6 
REMARK    3  A    between atoms: C2_6  and  C3_7 
REMARK    4  A    between atoms: C6_10  and  O1_11 
REMARK    5  A    between atoms: C8_14  and  O2_15 
REMARK    6  A    between atoms: O2_15  and  C9_16 
REMARK    7  A    between atoms: C10_17  and  O3_18 
REMARK    8  A    between atoms: O3_18  and  C11_19 
REMARK    9  A    between atoms: C14_24  and  O4_25 
REMARK   10  A    between atoms: O4_25  and  C15_26 
REMARK   11  A    between atoms: C19_31  and  O6_32 
REMARK   12  A    between atoms: C20_34  and  O7_35 
REMARK   13  A    between atoms: C21_37  and  O8_38 
ROOT
HETATM    1  C9  UNL     1     144.744  16.303 -79.516  1.00  0.00     0.202 C 
HETATM    2  C10 UNL     1     143.593  16.135 -78.551  1.00  0.00     0.254 C 
HETATM    3  N2  UNL     1     143.538  17.156 -77.534  1.00  0.00    -0.343 N 
ATOM      4  H2  UNL     1     143.143  16.855 -76.643  1.00  0.00     0.164 HD
HETATM    5  C14 UNL     1     143.908  18.387 -77.576  1.00  0.00     0.150 C 
HETATM    6  C19 UNL     1     144.509  19.084 -78.736  1.00  0.00     0.223 C 
HETATM    7  C20 UNL     1     145.843  18.509 -79.125  1.00  0.00     0.186 C 
HETATM    8  C21 UNL     1     145.929  17.016 -78.920  1.00  0.00     0.183 C 
ENDROOT
BRANCH   1   9
HETATM    9  O2  UNL     1     145.011  15.110 -80.080  1.00  0.00    -0.373 OA
BRANCH   9  10
HETATM   10  C8  UNL     1     144.405  14.746 -81.220  1.00  0.00     0.130 C 
HETATM   11  C7  UNL     1     144.273  13.208 -81.397  1.00  0.00     0.057 A 
HETATM   12  C6  UNL     1     145.309  12.370 -81.901  1.00  0.00     0.069 A 
HETATM   13  C23 UNL     1     144.274  13.132 -82.761  1.00  0.00     0.038 A 
HETATM   14  C5  UNL     1     145.878  11.869 -83.195  1.00  0.00     0.039 C 
HETATM   15  C4  UNL     1     146.328  13.216 -83.791  1.00  0.00     0.013 C 
HETATM   16  C3  UNL     1     145.181  14.116 -83.450  1.00  0.00    -0.029 C 
HETATM   17  C22 UNL     1     145.352  15.119 -82.385  1.00  0.00     0.042 C 
BRANCH  12  18
HETATM   18  O1  UNL     1     146.455  12.982 -81.330  1.00  0.00    -0.389 OA
ATOM     19  H1  UNL     1     146.308  13.889 -81.570  1.00  0.00     0.210 HD
ENDBRANCH  12  18
BRANCH  16  20
HETATM   20  C2  UNL     1     144.438  14.615 -84.656  1.00  0.00     0.037 C 
BRANCH  20  21
HETATM   21  C1  UNL     1     144.262  13.635 -85.760  1.00  0.00     0.230 C 
BRANCH  21  22
HETATM   22  N1  UNL     1     142.912  13.282 -86.080  1.00  0.00    -0.079 N 
ATOM     23  H13 UNL     1     142.532  13.948 -86.753  1.00  0.00     0.274 HD
ATOM     24  H12 UNL     1     142.902  12.429 -86.640  1.00  0.00     0.274 HD
ATOM     25  H11 UNL     1     142.273  13.186 -85.290  1.00  0.00     0.274 HD
ENDBRANCH  21  22
ENDBRANCH  20  21
ENDBRANCH  16  20
ENDBRANCH   9  10
ENDBRANCH   1   9
BRANCH   2  26
HETATM   26  O3  UNL     1     143.625  14.896 -77.895  1.00  0.00    -0.359 OA
BRANCH  26  27
HETATM   27  C11 UNL     1     142.420  14.209 -77.987  1.00  0.00     0.124 A 
HETATM   28  C12 UNL     1     142.366  12.746 -77.924  1.00  0.00     0.034 A 
HETATM   29  C13 UNL     1     141.847  13.557 -76.763  1.00  0.00     0.034 A 
ENDBRANCH  26  27
ENDBRANCH   2  26
BRANCH   8  30
HETATM   30  O8  UNL     1     146.110  16.771 -77.579  1.00  0.00    -0.390 OA
ATOM     31  H8  UNL     1     146.254  15.855 -77.372  1.00  0.00     0.210 HD
ENDBRANCH   8  30
BRANCH   7  32
HETATM   32  O7  UNL     1     146.801  19.090 -78.292  1.00  0.00    -0.390 OA
ATOM     33  H7  UNL     1     147.593  18.571 -78.369  1.00  0.00     0.210 HD
ENDBRANCH   7  32
BRANCH   5  34
HETATM   34  O4  UNL     1     143.719  19.131 -76.406  1.00  0.00    -0.306 OA
BRANCH  34  35
HETATM   35  C15 UNL     1     142.371  19.204 -75.926  1.00  0.00     0.267 C 
HETATM   36  C16 UNL     1     141.848  20.564 -76.326  1.00  0.00     0.063 C 
HETATM   37  C17 UNL     1     141.094  20.970 -75.077  1.00  0.00     0.031 C 
HETATM   38  C18 UNL     1     141.894  20.267 -74.010  1.00  0.00     0.171 C 
HETATM   39  O5  UNL     1     142.421  19.128 -74.564  1.00  0.00    -0.361 OA
ENDBRANCH  34  35
ENDBRANCH   5  34
BRANCH   6  40
HETATM   40  O6  UNL     1     144.564  20.436 -78.476  1.00  0.00    -0.385 OA
ATOM     41  H6  UNL     1     145.365  20.632 -78.003  1.00  0.00     0.210 HD
ENDBRANCH   6  40
TORSDOF 13
ENDMDL
MODEL 3
REMARK VINA RESULT: -8.169372515      1.136      1.191
REMARK  13 active torsions:
REMARK  status: ('A' for Active; 'I' for Inactive)
REMARK    1  A    between atoms: N1_1  and  C1_5 
REMARK    2  A    between atoms: C1_5  and  C2_6 
REMARK    3  A    between atoms: C2_6  and  C3_7 
REMARK    4  A    between atoms: C6_10  and  O1_11 
REMARK    5  A    between atoms: C8_14  and  O2_15 
REMARK    6  A    between atoms: O2_15  and  C9_16 
REMARK    7  A    between atoms: C10_17  and  O3_18 
REMARK    8  A    between atoms: O3_18  and  C11_19 
REMARK    9  A    between atoms: C14_24  and  O4_25 
REMARK   10  A    between atoms: O4_25  and  C15_26 
REMARK   11  A    between atoms: C19_31  and  O6_32 
REMARK   12  A    between atoms: C20_34  and  O7_35 
REMARK   13  A    between atoms: C21_37  and  O8_38 
ROOT
HETATM    1  C9  UNL     1     143.626  14.206 -81.192  1.00  0.00     0.202 C 
HETATM    2  C10 UNL     1     142.566  14.495 -80.153  1.00  0.00     0.254 C 
HETATM    3  N2  UNL     1     142.691  15.799 -79.548  1.00  0.00    -0.343 N 
ATOM      4  H2  UNL     1     142.365  15.859 -78.584  1.00  0.00     0.164 HD
HETATM    5  C14 UNL     1     143.148  16.897 -80.035  1.00  0.00     0.150 C 
HETATM    6  C19 UNL     1     143.683  17.095 -81.402  1.00  0.00     0.223 C 
HETATM    7  C20 UNL     1     144.925  16.285 -81.658  1.00  0.00     0.186 C 
HETATM    8  C21 UNL     1     144.915  14.948 -80.958  1.00  0.00     0.183 C 
ENDROOT
BRANCH   1   9
HETATM    9  O2  UNL     1     143.742  12.872 -81.327  1.00  0.00    -0.373 OA
BRANCH   9  10
HETATM   10  C8  UNL     1     143.621  12.297 -82.532  1.00  0.00     0.130 C 
HETATM   11  C7  UNL     1     144.390  10.954 -82.668  1.00  0.00     0.057 A 
HETATM   12  C6  UNL     1     145.779  10.855 -82.970  1.00  0.00     0.069 A 
HETATM   13  C23 UNL     1     144.640  10.965 -84.011  1.00  0.00     0.038 A 
HETATM   14  C5  UNL     1     146.718  10.822 -84.138  1.00  0.00     0.039 C 
HETATM   15  C4  UNL     1     146.434  12.224 -84.708  1.00  0.00     0.013 C 
HETATM   16  C3  UNL     1     144.944  12.322 -84.587  1.00  0.00    -0.029 C 
HETATM   17  C22 UNL     1     144.368  13.194 -83.549  1.00  0.00     0.042 C 
BRANCH  12  18
HETATM   18  O1  UNL     1     146.292  11.965 -82.251  1.00  0.00    -0.389 OA
ATOM     19  H1  UNL     1     145.686  12.645 -82.520  1.00  0.00     0.210 HD
ENDBRANCH  12  18
BRANCH  16  20
HETATM   20  C2  UNL     1     144.243  12.394 -85.913  1.00  0.00     0.037 C 
BRANCH  20  21
HETATM   21  C1  UNL     1     143.138  13.384 -86.009  1.00  0.00     0.230 C 
BRANCH  21  22
HETATM   22  N1  UNL     1     143.530  14.752 -86.165  1.00  0.00    -0.079 N 
ATOM     23  H13 UNL     1     144.526  14.851 -85.970  1.00  0.00     0.274 HD
ATOM     24  H12 UNL     1     143.510  15.007 -87.153  1.00  0.00     0.274 HD
ATOM     25  H11 UNL     1     143.003  15.435 -85.620  1.00  0.00     0.274 HD
ENDBRANCH  21  22
ENDBRANCH  20  21
ENDBRANCH  16  20
ENDBRANCH   9  10
ENDBRANCH   1   9
BRANCH   2  26
HETATM   26  O3  UNL     1     142.567  13.553 -79.113  1.00  0.00    -0.359 OA
BRANCH  26  27
HETATM   27  C11 UNL     1     142.525  14.142 -77.856  1.00  0.00     0.124 A 
HETATM   28  C12 UNL     1     141.664  13.617 -76.793  1.00  0.00     0.034 A 
HETATM   29  C13 UNL     1     143.158  13.440 -76.691  1.00  0.00     0.034 A 
ENDBRANCH  26  27
ENDBRANCH   2  26
BRANCH   8  30
HETATM   30  O8  UNL     1     145.208  15.150 -79.630  1.00  0.00    -0.390 OA
ATOM     31  H8  UNL     1     145.833  15.849 -79.476  1.00  0.00     0.210 HD
ENDBRANCH   8  30
BRANCH   7  32
HETATM   32  O7  UNL     1     146.002  17.007 -81.142  1.00  0.00    -0.390 OA
ATOM     33  H7  UNL     1     146.642  17.093 -81.839  1.00  0.00     0.210 HD
ENDBRANCH   7  32
BRANCH   5  34
HETATM   34  O4  UNL     1     143.134  18.007 -79.183  1.00  0.00    -0.306 OA
BRANCH  34  35
HETATM   35  C15 UNL     1     143.975  17.913 -78.026  1.00  0.00     0.267 C 
HETATM   36  C16 UNL     1     144.009  19.292 -77.409  1.00  0.00     0.063 C 
HETATM   37  C17 UNL     1     145.472  19.415 -77.040  1.00  0.00     0.031 C 
HETATM   38  C18 UNL     1     146.116  18.571 -78.110  1.00  0.00     0.171 C 
HETATM   39  O5  UNL     1     145.226  17.587 -78.460  1.00  0.00    -0.361 OA
ENDBRANCH  34  35
ENDBRANCH   5  34
BRANCH   6  40
HETATM   40  O6  UNL     1     143.868  18.443 -81.628  1.00  0.00    -0.385 OA
ATOM     41  H6  UNL     1     143.037  18.839 -81.860  1.00  0.00     0.210 HD
ENDBRANCH   6  40
TORSDOF 13
ENDMDL
MODEL 4
REMARK VINA RESULT: -7.974037548      1.958      3.150
REMARK  13 active torsions:
REMARK  status: ('A' for Active; 'I' for Inactive)
REMARK    1  A    between atoms: N1_1  and  C1_5 
REMARK    2  A    between atoms: C1_5  and  C2_6 
REMARK    3  A    between atoms: C2_6  and  C3_7 
REMARK    4  A    between atoms: C6_10  and  O1_11 
REMARK    5  A    between atoms: C8_14  and  O2_15 
REMARK    6  A    between atoms: O2_15  and  C9_16 
REMARK    7  A    between atoms: C10_17  and  O3_18 
REMARK    8  A    between atoms: O3_18  and  C11_19 
REMARK    9  A    between atoms: C14_24  and  O4_25 
REMARK   10  A    between atoms: O4_25  and  C15_26 
REMARK   11  A    between atoms: C19_31  and  O6_32 
REMARK   12  A    between atoms: C20_34  and  O7_35 
REMARK   13  A    between atoms: C21_37  and  O8_38 
ROOT
HETATM    1  C9  UNL     1     144.668  16.145 -79.598  1.00  0.00     0.202 C 
HETATM    2  C10 UNL     1     143.523  16.013 -78.620  1.00  0.00     0.254 C 
HETATM    3  N2  UNL     1     143.503  17.044 -77.611  1.00  0.00    -0.343 N 
ATOM      4  H2  UNL     1     143.110  16.760 -76.714  1.00  0.00     0.164 HD
HETATM    5  C14 UNL     1     143.902  18.265 -77.667  1.00  0.00     0.150 C 
HETATM    6  C19 UNL     1     144.508  18.937 -78.839  1.00  0.00     0.223 C 
HETATM    7  C20 UNL     1     145.825  18.327 -79.236  1.00  0.00     0.186 C 
HETATM    8  C21 UNL     1     145.876  16.834 -79.019  1.00  0.00     0.183 C 
ENDROOT
BRANCH   1   9
HETATM    9  O2  UNL     1     144.900  14.942 -80.154  1.00  0.00    -0.373 OA
BRANCH   9  10
HETATM   10  C8  UNL     1     144.518  14.690 -81.414  1.00  0.00     0.130 C 
HETATM   11  C7  UNL     1     143.219  13.845 -81.521  1.00  0.00     0.057 A 
HETATM   12  C6  UNL     1     143.180  12.424 -81.425  1.00  0.00     0.069 A 
HETATM   13  C23 UNL     1     143.442  13.229 -82.720  1.00  0.00     0.038 A 
HETATM   14  C5  UNL     1     143.337  11.194 -82.269  1.00  0.00     0.039 C 
HETATM   15  C4  UNL     1     144.809  11.380 -82.684  1.00  0.00     0.013 C 
HETATM   16  C3  UNL     1     144.874  12.847 -82.980  1.00  0.00    -0.029 C 
HETATM   17  C22 UNL     1     145.568  13.736 -82.033  1.00  0.00     0.042 C 
BRANCH  12  18
HETATM   18  O1  UNL     1     144.169  12.191 -80.435  1.00  0.00    -0.389 OA
ATOM     19  H1  UNL     1     144.177  11.242 -80.413  1.00  0.00     0.210 HD
ENDBRANCH  12  18
BRANCH  16  20
HETATM   20  C2  UNL     1     145.145  13.151 -84.425  1.00  0.00     0.037 C 
BRANCH  20  21
HETATM   21  C1  UNL     1     143.946  13.366 -85.278  1.00  0.00     0.230 C 
BRANCH  21  22
HETATM   22  N1  UNL     1     143.890  14.610 -85.984  1.00  0.00    -0.079 N 
ATOM     23  H13 UNL     1     142.986  14.705 -86.445  1.00  0.00     0.274 HD
ATOM     24  H12 UNL     1     143.839  15.382 -85.319  1.00  0.00     0.274 HD
ATOM     25  H11 UNL     1     144.640  14.780 -86.655  1.00  0.00     0.274 HD
ENDBRANCH  21  22
ENDBRANCH  20  21
ENDBRANCH  16  20
ENDBRANCH   9  10
ENDBRANCH   1   9
BRANCH   2  26
HETATM   26  O3  UNL     1     143.531  14.779 -77.953  1.00  0.00    -0.359 OA
BRANCH  26  27
HETATM   27  C11 UNL     1     142.272  14.193 -77.894  1.00  0.00     0.124 A 
HETATM   28  C12 UNL     1     142.107  12.740 -77.810  1.00  0.00     0.034 A 
HETATM   29  C13 UNL     1     141.799  13.591 -76.604  1.00  0.00     0.034 A 
ENDBRANCH  26  27
ENDBRANCH   2  26
BRANCH   8  30
HETATM   30  O8  UNL     1     146.064  16.596 -77.678  1.00  0.00    -0.390 OA
ATOM     31  H8  UNL     1     146.839  16.081 -77.484  1.00  0.00     0.210 HD
ENDBRANCH   8  30
BRANCH   7  32
HETATM   32  O7  UNL     1     146.805  18.891 -78.418  1.00  0.00    -0.390 OA
ATOM     33  H7  UNL     1     147.529  18.278 -78.383  1.00  0.00     0.210 HD
ENDBRANCH   7  32
BRANCH   5  34
HETATM   34  O4  UNL     1     143.744  19.023 -76.501  1.00  0.00    -0.306 OA
BRANCH  34  35
HETATM   35  C15 UNL     1     142.398  19.168 -76.032  1.00  0.00     0.267 C 
HETATM   36  C16 UNL     1     141.953  20.556 -76.430  1.00  0.00     0.063 C 
HETATM   37  C17 UNL     1     141.212  20.998 -75.186  1.00  0.00     0.031 C 
HETATM   38  C18 UNL     1     141.963  20.248 -74.116  1.00  0.00     0.171 C 
HETATM   39  O5  UNL     1     142.432  19.084 -74.670  1.00  0.00    -0.361 OA
ENDBRANCH  34  35
ENDBRANCH   5  34
BRANCH   6  40
HETATM   40  O6  UNL     1     144.600  20.290 -78.591  1.00  0.00    -0.385 OA
ATOM     41  H6  UNL     1     145.017  20.717 -79.330  1.00  0.00     0.210 HD
ENDBRANCH   6  40
TORSDOF 13
ENDMDL
MODEL 5
REMARK VINA RESULT: -7.860613228      1.993      7.426
REMARK  13 active torsions:
REMARK  status: ('A' for Active; 'I' for Inactive)
REMARK    1  A    between atoms: N1_1  and  C1_5 
REMARK    2  A    between atoms: C1_5  and  C2_6 
REMARK    3  A    between atoms: C2_6  and  C3_7 
REMARK    4  A    between atoms: C6_10  and  O1_11 
REMARK    5  A    between atoms: C8_14  and  O2_15 
REMARK    6  A    between atoms: O2_15  and  C9_16 
REMARK    7  A    between atoms: C10_17  and  O3_18 
REMARK    8  A    between atoms: O3_18  and  C11_19 
REMARK    9  A    between atoms: C14_24  and  O4_25 
REMARK   10  A    between atoms: O4_25  and  C15_26 
REMARK   11  A    between atoms: C19_31  and  O6_32 
REMARK   12  A    between atoms: C20_34  and  O7_35 
REMARK   13  A    between atoms: C21_37  and  O8_38 
ROOT
HETATM    1  C9  UNL     1     144.288  15.226 -79.946  1.00  0.00     0.202 C 
HETATM    2  C10 UNL     1     144.256  13.720 -79.822  1.00  0.00     0.254 C 
HETATM    3  N2  UNL     1     144.239  13.035 -81.092  1.00  0.00    -0.343 N 
ATOM      4  H2  UNL     1     143.752  12.140 -81.091  1.00  0.00     0.164 HD
HETATM    5  C14 UNL     1     144.744  13.378 -82.224  1.00  0.00     0.150 C 
HETATM    6  C19 UNL     1     145.500  14.620 -82.507  1.00  0.00     0.223 C 
HETATM    7  C20 UNL     1     144.663  15.857 -82.332  1.00  0.00     0.186 C 
HETATM    8  C21 UNL     1     143.655  15.738 -81.214  1.00  0.00     0.183 C 
ENDROOT
BRANCH   1   9
HETATM    9  O2  UNL     1     143.814  15.762 -78.806  1.00  0.00    -0.373 OA
BRANCH   9  10
HETATM   10  C8  UNL     1     143.424  17.044 -78.767  1.00  0.00     0.130 C 
HETATM   11  C7  UNL     1     144.306  17.996 -79.621  1.00  0.00     0.057 A 
HETATM   12  C6  UNL     1     145.539  18.555 -79.178  1.00  0.00     0.069 A 
HETATM   13  C23 UNL     1     144.138  19.156 -78.921  1.00  0.00     0.038 A 
HETATM   14  C5  UNL     1     146.080  19.720 -78.404  1.00  0.00     0.039 C 
HETATM   15  C4  UNL     1     145.434  19.415 -77.039  1.00  0.00     0.013 C 
HETATM   16  C3  UNL     1     144.052  18.989 -77.427  1.00  0.00    -0.029 C 
HETATM   17  C22 UNL     1     143.691  17.564 -77.334  1.00  0.00     0.042 C 
BRANCH  12  18
HETATM   18  O1  UNL     1     146.075  17.473 -78.432  1.00  0.00    -0.389 OA
ATOM     19  H1  UNL     1     146.935  17.395 -78.828  1.00  0.00     0.210 HD
ENDBRANCH  12  18
BRANCH  16  20
HETATM   20  C2  UNL     1     142.983  19.930 -76.949  1.00  0.00     0.037 C 
BRANCH  20  21
HETATM   21  C1  UNL     1     142.588  19.789 -75.522  1.00  0.00     0.230 C 
BRANCH  21  22
HETATM   22  N1  UNL     1     141.351  20.403 -75.148  1.00  0.00    -0.079 N 
ATOM     23  H13 UNL     1     140.604  20.081 -75.763  1.00  0.00     0.274 HD
ATOM     24  H12 UNL     1     141.032  20.022 -74.257  1.00  0.00     0.274 HD
ATOM     25  H11 UNL     1     141.349  21.423 -75.108  1.00  0.00     0.274 HD
ENDBRANCH  21  22
ENDBRANCH  20  21
ENDBRANCH  16  20
ENDBRANCH   9  10
ENDBRANCH   1   9
BRANCH   2  26
HETATM   26  O3  UNL     1     143.146  13.269 -79.092  1.00  0.00    -0.359 OA
BRANCH  26  27
HETATM   27  C11 UNL     1     142.619  12.085 -79.595  1.00  0.00     0.124 A 
HETATM   28  C12 UNL     1     142.624  10.849 -78.807  1.00  0.00     0.034 A 
HETATM   29  C13 UNL     1     141.320  11.567 -79.050  1.00  0.00     0.034 A 
ENDBRANCH  26  27
ENDBRANCH   2  26
BRANCH   8  30
HETATM   30  O8  UNL     1     142.601  14.975 -81.658  1.00  0.00    -0.390 OA
ATOM     31  H8  UNL     1     142.555  14.114 -81.260  1.00  0.00     0.210 HD
ENDBRANCH   8  30
BRANCH   7  32
HETATM   32  O7  UNL     1     143.941  16.038 -83.512  1.00  0.00    -0.390 OA
ATOM     33  H7  UNL     1     144.262  16.835 -83.919  1.00  0.00     0.210 HD
ENDBRANCH   7  32
BRANCH   5  34
HETATM   34  O4  UNL     1     144.554  12.484 -83.283  1.00  0.00    -0.306 OA
BRANCH  34  35
HETATM   35  C15 UNL     1     145.720  11.772 -83.713  1.00  0.00     0.267 C 
HETATM   36  C16 UNL     1     145.443  11.306 -85.123  1.00  0.00     0.063 C 
HETATM   37  C17 UNL     1     146.009   9.902 -85.088  1.00  0.00     0.031 C 
HETATM   38  C18 UNL     1     145.786   9.532 -83.644  1.00  0.00     0.171 C 
HETATM   39  O5  UNL     1     145.853  10.683 -82.901  1.00  0.00    -0.361 OA
ENDBRANCH  34  35
ENDBRANCH   5  34
BRANCH   6  40
HETATM   40  O6  UNL     1     146.066  14.531 -83.761  1.00  0.00    -0.385 OA
ATOM     41  H6  UNL     1     145.980  15.367 -84.204  1.00  0.00     0.210 HD
ENDBRANCH   6  40
TORSDOF 13
ENDMDL
