MODEL 1
REMARK VINA RESULT: -8.375369082      0.000      0.000
REMARK  13 active torsions:
REMARK  status: ('A' for Active; 'I' for Inactive)
REMARK    1  A    between atoms: C3_3  and  C4_4 
REMARK    2  A    between atoms: C4_4  and  O1_5 
REMARK    3  A    between atoms: C6_9  and  O3_10 
REMARK    4  A    between atoms: O3_10  and  C7_11 
REMARK    5  A    between atoms: C10_15  and  O5_16 
REMARK    6  A    between atoms: C12_19  and  N1_20 
REMARK       I    between atoms: N1_20  and  C13_22 
REMARK    7  A    between atoms: C13_22  and  C14_24 
REMARK    8  A    between atoms: C14_24  and  N2_25 
REMARK    9  A    between atoms: C14_24  and  C15_29 
REMARK   10  A    between atoms: C15_29  and  C16_30 
REMARK   11  A    between atoms: C16_30  and  S1_31 
REMARK   12  A    between atoms: C18_33  and  O7_34 
REMARK   13  A    between atoms: O7_34  and  N3_35 
ROOT
HETATM    1  C1  UNL     1     142.845  19.837 -75.830  1.00  0.00     0.112 C 
HETATM    2  C2  UNL     1     143.848  19.274 -76.751  1.00  0.00    -0.106 C 
HETATM    3  C3  UNL     1     144.665  18.825 -77.524  1.00  0.00    -0.039 C 
ENDROOT
BRANCH   3   4
HETATM    4  C4  UNL     1     145.646  18.284 -78.488  1.00  0.00     0.236 C 
HETATM    5  O2  UNL     1     145.928  16.961 -78.153  1.00  0.00    -0.342 OA
HETATM    6  C5  UNL     1     144.818  16.142 -78.391  1.00  0.00     0.207 C 
HETATM    7  C6  UNL     1     144.578  15.987 -79.888  1.00  0.00     0.180 C 
HETATM    8  C18 UNL     1     145.162  17.104 -80.666  1.00  0.00     0.192 C 
HETATM    9  C19 UNL     1     145.158  18.421 -79.895  1.00  0.00     0.091 C 
HETATM   10  C20 UNL     1     143.749  18.998 -79.853  1.00  0.00     0.019 C 
BRANCH   4  11
HETATM   11  O1  UNL     1     146.813  19.020 -78.324  1.00  0.00    -0.355 OA
ATOM     12  H1  UNL     1     147.459  18.428 -77.956  1.00  0.00     0.214 HD
ENDBRANCH   4  11
BRANCH   7  13
HETATM   13  O3  UNL     1     145.052  14.714 -80.210  1.00  0.00    -0.349 OA
BRANCH  13  14
HETATM   14  C7  UNL     1     144.065  13.813 -79.960  1.00  0.00     0.283 C 
HETATM   15  O4  UNL     1     144.182  13.458 -78.583  1.00  0.00    -0.352 OA
HETATM   16  C8  UNL     1     143.019  12.826 -78.159  1.00  0.00     0.149 C 
HETATM   17  C9  UNL     1     141.955  13.871 -77.816  1.00  0.00     0.042 C 
HETATM   18  C10 UNL     1     142.504  11.750 -79.042  1.00  0.00     0.148 C 
HETATM   19  C11 UNL     1     142.632  11.985 -80.520  1.00  0.00     0.064 C 
HETATM   20  C12 UNL     1     144.076  12.518 -80.685  1.00  0.00     0.142 C 
BRANCH  18  21
HETATM   21  O5  UNL     1     141.190  11.453 -78.689  1.00  0.00    -0.393 OA
ATOM     22  H5  UNL     1     141.113  10.521 -78.520  1.00  0.00     0.210 HD
ENDBRANCH  18  21
BRANCH  20  23
HETATM   23  N1  UNL     1     144.507  12.516 -82.042  1.00  0.00    -0.350 N 
HETATM   24  C13 UNL     1     145.895  12.347 -82.395  1.00  0.00     0.248 C 
HETATM   25  O6  UNL     1     146.696  12.199 -81.442  1.00  0.00    -0.271 OA
ATOM     26  H1  UNL     1     143.817  12.638 -82.784  1.00  0.00     0.163 HD
BRANCH  24  27
HETATM   27  C14 UNL     1     146.406  12.339 -83.777  1.00  0.00     0.275 C 
BRANCH  27  28
HETATM   28  N2  UNL     1     146.681  13.738 -84.162  1.00  0.00    -0.066 N 
ATOM     29  H23 UNL     1     146.003  14.396 -83.776  1.00  0.00     0.275 HD
ATOM     30  H22 UNL     1     147.511  14.118 -83.707  1.00  0.00     0.275 HD
ATOM     31  H21 UNL     1     146.735  13.775 -85.180  1.00  0.00     0.275 HD
ENDBRANCH  27  28
BRANCH  27  32
HETATM   32  C15 UNL     1     145.379  11.777 -84.748  1.00  0.00     0.053 C 
BRANCH  32  33
HETATM   33  C16 UNL     1     145.155  12.688 -85.917  1.00  0.00     0.076 C 
BRANCH  33  34
HETATM   34  S1  UNL     1     143.695  13.721 -85.617  1.00  0.00    -0.173 SA
HETATM   35  C17 UNL     1     144.112  15.466 -85.753  1.00  0.00     0.089 C 
ENDBRANCH  33  34
ENDBRANCH  32  33
ENDBRANCH  27  32
ENDBRANCH  24  27
ENDBRANCH  20  23
ENDBRANCH  13  14
ENDBRANCH   7  13
BRANCH   8  36
HETATM   36  O7  UNL     1     144.497  17.378 -81.865  1.00  0.00    -0.279 OA
BRANCH  36  37
HETATM   37  N3  UNL     1     143.659  16.425 -82.264  1.00  0.00    -0.311 N 
ATOM     38  H32 UNL     1     143.908  15.763 -82.999  1.00  0.00     0.184 HD
ATOM     39  H31 UNL     1     142.762  16.417 -81.778  1.00  0.00     0.184 HD
ENDBRANCH  36  37
ENDBRANCH   8  36
ENDBRANCH   3   4
TORSDOF 13
ENDMDL
MODEL 2
REMARK VINA RESULT: -8.256890829      1.330      1.708
REMARK  13 active torsions:
REMARK  status: ('A' for Active; 'I' for Inactive)
REMARK    1  A    between atoms: C3_3  and  C4_4 
REMARK    2  A    between atoms: C4_4  and  O1_5 
REMARK    3  A    between atoms: C6_9  and  O3_10 
REMARK    4  A    between atoms: O3_10  and  C7_11 
REMARK    5  A    between atoms: C10_15  and  O5_16 
REMARK    6  A    between atoms: C12_19  and  N1_20 
REMARK       I    between atoms: N1_20  and  C13_22 
REMARK    7  A    between atoms: C13_22  and  C14_24 
REMARK    8  A    between atoms: C14_24  and  N2_25 
REMARK    9  A    between atoms: C14_24  and  C15_29 
REMARK   10  A    between atoms: C15_29  and  C16_30 
REMARK   11  A    between atoms: C16_30  and  S1_31 
REMARK   12  A    between atoms: C18_33  and  O7_34 
REMARK   13  A    between atoms: O7_34  and  N3_35 
ROOT
HETATM    1  C1  UNL     1     141.904  19.876 -74.968  1.00  0.00     0.112 C 
HETATM    2  C2  UNL     1     142.938  19.492 -75.946  1.00  0.00    -0.106 C 
HETATM    3  C3  UNL     1     143.799  19.168 -76.733  1.00  0.00    -0.039 C 
ENDROOT
BRANCH   3   4
HETATM    4  C4  UNL     1     144.867  18.768 -77.673  1.00  0.00     0.236 C 
HETATM    5  O2  UNL     1     145.266  17.466 -77.378  1.00  0.00    -0.342 OA
HETATM    6  C5  UNL     1     144.253  16.553 -77.697  1.00  0.00     0.207 C 
HETATM    7  C6  UNL     1     144.090  16.441 -79.208  1.00  0.00     0.180 C 
HETATM    8  C18 UNL     1     144.590  17.642 -79.915  1.00  0.00     0.192 C 
HETATM    9  C19 UNL     1     144.424  18.917 -79.094  1.00  0.00     0.091 C 
HETATM   10  C20 UNL     1     142.964  19.352 -79.091  1.00  0.00     0.019 C 
BRANCH   4  11
HETATM   11  O1  UNL     1     145.947  19.607 -77.429  1.00  0.00    -0.355 OA
ATOM     12  H1  UNL     1     146.720  19.055 -77.399  1.00  0.00     0.214 HD
ENDBRANCH   4  11
BRANCH   7  13
HETATM   13  O3  UNL     1     144.701  15.235 -79.559  1.00  0.00    -0.349 OA
BRANCH  13  14
HETATM   14  C7  UNL     1     143.788  14.237 -79.425  1.00  0.00     0.283 C 
HETATM   15  O4  UNL     1     144.163  13.501 -78.261  1.00  0.00    -0.352 OA
HETATM   16  C8  UNL     1     143.106  12.696 -77.852  1.00  0.00     0.149 C 
HETATM   17  C9  UNL     1     142.113  13.521 -77.032  1.00  0.00     0.042 C 
HETATM   18  C10 UNL     1     142.450  11.896 -78.915  1.00  0.00     0.148 C 
HETATM   19  C11 UNL     1     142.298  12.563 -80.252  1.00  0.00     0.064 C 
HETATM   20  C12 UNL     1     143.680  13.216 -80.497  1.00  0.00     0.142 C 
BRANCH  18  21
HETATM   21  O5  UNL     1     141.228  11.420 -78.445  1.00  0.00    -0.393 OA
ATOM     22  H5  UNL     1     141.373  10.635 -77.931  1.00  0.00     0.210 HD
ENDBRANCH  18  21
BRANCH  20  23
HETATM   23  N1  UNL     1     143.852  13.643 -81.845  1.00  0.00    -0.350 N 
HETATM   24  C13 UNL     1     145.160  13.755 -82.441  1.00  0.00     0.248 C 
HETATM   25  O6  UNL     1     146.132  13.454 -81.710  1.00  0.00    -0.271 OA
ATOM     26  H1  UNL     1     143.029  13.874 -82.402  1.00  0.00     0.163 HD
BRANCH  24  27
HETATM   27  C14 UNL     1     145.405  14.193 -83.828  1.00  0.00     0.275 C 
BRANCH  27  28
HETATM   28  N2  UNL     1     144.121  14.124 -84.553  1.00  0.00    -0.066 N 
ATOM     29  H23 UNL     1     144.240  14.049 -85.564  1.00  0.00     0.275 HD
ATOM     30  H22 UNL     1     143.631  13.242 -84.409  1.00  0.00     0.275 HD
ATOM     31  H21 UNL     1     143.566  14.935 -84.278  1.00  0.00     0.275 HD
ENDBRANCH  27  28
BRANCH  27  32
HETATM   32  C15 UNL     1     146.395  13.280 -84.534  1.00  0.00     0.053 C 
BRANCH  32  33
HETATM   33  C16 UNL     1     145.709  12.301 -85.438  1.00  0.00     0.076 C 
BRANCH  33  34
HETATM   34  S1  UNL     1     145.941  10.617 -84.805  1.00  0.00    -0.173 SA
HETATM   35  C17 UNL     1     145.170  10.435 -83.190  1.00  0.00     0.089 C 
ENDBRANCH  33  34
ENDBRANCH  32  33
ENDBRANCH  27  32
ENDBRANCH  24  27
ENDBRANCH  20  23
ENDBRANCH  13  14
ENDBRANCH   7  13
BRANCH   8  36
HETATM   36  O7  UNL     1     143.949  17.902 -81.131  1.00  0.00    -0.279 OA
BRANCH  36  37
HETATM   37  N3  UNL     1     143.357  16.846 -81.681  1.00  0.00    -0.311 N 
ATOM     38  H32 UNL     1     142.477  16.476 -81.322  1.00  0.00     0.184 HD
ATOM     39  H31 UNL     1     143.853  16.448 -82.479  1.00  0.00     0.184 HD
ENDBRANCH  36  37
ENDBRANCH   8  36
ENDBRANCH   3   4
TORSDOF 13
ENDMDL
MODEL 3
REMARK VINA RESULT: -8.235838013      1.601      1.924
REMARK  13 active torsions:
REMARK  status: ('A' for Active; 'I' for Inactive)
REMARK    1  A    between atoms: C3_3  and  C4_4 
REMARK    2  A    between atoms: C4_4  and  O1_5 
REMARK    3  A    between atoms: C6_9  and  O3_10 
REMARK    4  A    between atoms: O3_10  and  C7_11 
REMARK    5  A    between atoms: C10_15  and  O5_16 
REMARK    6  A    between atoms: C12_19  and  N1_20 
REMARK       I    between atoms: N1_20  and  C13_22 
REMARK    7  A    between atoms: C13_22  and  C14_24 
REMARK    8  A    between atoms: C14_24  and  N2_25 
REMARK    9  A    between atoms: C14_24  and  C15_29 
REMARK   10  A    between atoms: C15_29  and  C16_30 
REMARK   11  A    between atoms: C16_30  and  S1_31 
REMARK   12  A    between atoms: C18_33  and  O7_34 
REMARK   13  A    between atoms: O7_34  and  N3_35 
ROOT
HETATM    1  C1  UNL     1     142.923  19.804 -75.938  1.00  0.00     0.112 C 
HETATM    2  C2  UNL     1     143.869  19.118 -76.836  1.00  0.00    -0.106 C 
HETATM    3  C3  UNL     1     144.630  18.553 -77.590  1.00  0.00    -0.039 C 
ENDROOT
BRANCH   3   4
HETATM    4  C4  UNL     1     145.538  17.854 -78.524  1.00  0.00     0.236 C 
HETATM    5  O2  UNL     1     145.767  16.563 -78.049  1.00  0.00    -0.342 OA
HETATM    6  C5  UNL     1     144.607  15.785 -78.146  1.00  0.00     0.207 C 
HETATM    7  C6  UNL     1     144.292  15.476 -79.605  1.00  0.00     0.180 C 
HETATM    8  C18 UNL     1     144.895  16.463 -80.530  1.00  0.00     0.192 C 
HETATM    9  C19 UNL     1     144.993  17.856 -79.917  1.00  0.00     0.091 C 
HETATM   10  C20 UNL     1     143.618  18.512 -79.885  1.00  0.00     0.019 C 
BRANCH   4  11
HETATM   11  O1  UNL     1     146.747  18.537 -78.492  1.00  0.00    -0.355 OA
ATOM     12  H1  UNL     1     147.049  18.600 -79.391  1.00  0.00     0.214 HD
ENDBRANCH   4  11
BRANCH   7  13
HETATM   13  O3  UNL     1     144.686  14.150 -79.796  1.00  0.00    -0.349 OA
BRANCH  13  14
HETATM   14  C7  UNL     1     143.569  13.382 -79.906  1.00  0.00     0.283 C 
HETATM   15  O4  UNL     1     143.740  12.289 -79.005  1.00  0.00    -0.352 OA
HETATM   16  C8  UNL     1     142.520  11.658 -78.793  1.00  0.00     0.149 C 
HETATM   17  C9  UNL     1     141.717  12.422 -77.739  1.00  0.00     0.042 C 
HETATM   18  C10 UNL     1     141.727  11.350 -80.008  1.00  0.00     0.148 C 
HETATM   19  C11 UNL     1     141.762  12.377 -81.103  1.00  0.00     0.064 C 
HETATM   20  C12 UNL     1     143.260  12.749 -81.213  1.00  0.00     0.142 C 
BRANCH  18  21
HETATM   21  O5  UNL     1     140.418  11.047 -79.640  1.00  0.00    -0.393 OA
ATOM     22  H5  UNL     1     139.905  10.873 -80.420  1.00  0.00     0.210 HD
ENDBRANCH  18  21
BRANCH  20  23
HETATM   23  N1  UNL     1     143.556  13.482 -82.397  1.00  0.00    -0.350 N 
HETATM   24  C13 UNL     1     143.773  12.822 -83.661  1.00  0.00     0.248 C 
HETATM   25  O6  UNL     1     143.684  11.572 -83.658  1.00  0.00    -0.271 OA
ATOM     26  H1  UNL     1     143.617  14.499 -82.350  1.00  0.00     0.163 HD
BRANCH  24  27
HETATM   27  C14 UNL     1     144.086  13.522 -84.920  1.00  0.00     0.275 C 
BRANCH  27  28
HETATM   28  N2  UNL     1     142.914  13.390 -85.809  1.00  0.00    -0.066 N 
ATOM     29  H23 UNL     1     142.734  12.425 -86.087  1.00  0.00     0.275 HD
ATOM     30  H22 UNL     1     142.031  13.559 -85.328  1.00  0.00     0.275 HD
ATOM     31  H21 UNL     1     143.057  14.013 -86.604  1.00  0.00     0.275 HD
ENDBRANCH  27  28
BRANCH  27  32
HETATM   32  C15 UNL     1     145.282  12.900 -85.622  1.00  0.00     0.053 C 
BRANCH  32  33
HETATM   33  C16 UNL     1     146.578  13.497 -85.158  1.00  0.00     0.076 C 
BRANCH  33  34
HETATM   34  S1  UNL     1     147.315  12.439 -83.882  1.00  0.00    -0.173 SA
HETATM   35  C17 UNL     1     147.037  13.131 -82.245  1.00  0.00     0.089 C 
ENDBRANCH  33  34
ENDBRANCH  32  33
ENDBRANCH  27  32
ENDBRANCH  24  27
ENDBRANCH  20  23
ENDBRANCH  13  14
ENDBRANCH   7  13
BRANCH   8  36
HETATM   36  O7  UNL     1     144.191  16.635 -81.725  1.00  0.00    -0.279 OA
BRANCH  36  37
HETATM   37  N3  UNL     1     144.891  16.370 -82.824  1.00  0.00    -0.311 N 
ATOM     38  H32 UNL     1     145.793  16.809 -83.005  1.00  0.00     0.184 HD
ATOM     39  H31 UNL     1     144.452  15.700 -83.456  1.00  0.00     0.184 HD
ENDBRANCH  36  37
ENDBRANCH   8  36
ENDBRANCH   3   4
TORSDOF 13
ENDMDL
MODEL 4
REMARK VINA RESULT: -7.364581101      2.213      5.823
REMARK  13 active torsions:
REMARK  status: ('A' for Active; 'I' for Inactive)
REMARK    1  A    between atoms: C3_3  and  C4_4 
REMARK    2  A    between atoms: C4_4  and  O1_5 
REMARK    3  A    between atoms: C6_9  and  O3_10 
REMARK    4  A    between atoms: O3_10  and  C7_11 
REMARK    5  A    between atoms: C10_15  and  O5_16 
REMARK    6  A    between atoms: C12_19  and  N1_20 
REMARK       I    between atoms: N1_20  and  C13_22 
REMARK    7  A    between atoms: C13_22  and  C14_24 
REMARK    8  A    between atoms: C14_24  and  N2_25 
REMARK    9  A    between atoms: C14_24  and  C15_29 
REMARK   10  A    between atoms: C15_29  and  C16_30 
REMARK   11  A    between atoms: C16_30  and  S1_31 
REMARK   12  A    between atoms: C18_33  and  O7_34 
REMARK   13  A    between atoms: O7_34  and  N3_35 
ROOT
HETATM    1  C1  UNL     1     139.710   9.885 -79.606  1.00  0.00     0.112 C 
HETATM    2  C2  UNL     1     140.851  10.811 -79.716  1.00  0.00    -0.106 C 
HETATM    3  C3  UNL     1     141.799  11.557 -79.820  1.00  0.00    -0.039 C 
ENDROOT
BRANCH   3   4
HETATM    4  C4  UNL     1     142.972  12.447 -79.954  1.00  0.00     0.236 C 
HETATM    5  O2  UNL     1     142.727  13.368 -80.972  1.00  0.00    -0.342 OA
HETATM    6  C5  UNL     1     141.728  14.272 -80.592  1.00  0.00     0.207 C 
HETATM    7  C6  UNL     1     142.240  15.212 -79.507  1.00  0.00     0.180 C 
HETATM    8  C18 UNL     1     143.380  14.632 -78.759  1.00  0.00     0.192 C 
HETATM    9  C19 UNL     1     143.301  13.112 -78.656  1.00  0.00     0.091 C 
HETATM   10  C20 UNL     1     142.242  12.710 -77.637  1.00  0.00     0.019 C 
BRANCH   4  11
HETATM   11  O1  UNL     1     144.036  11.648 -80.355  1.00  0.00    -0.355 OA
ATOM     12  H1  UNL     1     143.989  11.585 -81.302  1.00  0.00     0.214 HD
ENDBRANCH   4  11
BRANCH   7  13
HETATM   13  O3  UNL     1     142.496  16.422 -80.155  1.00  0.00    -0.349 OA
BRANCH  13  14
HETATM   14  C7  UNL     1     143.566  17.011 -79.558  1.00  0.00     0.283 C 
HETATM   15  O4  UNL     1     143.209  18.377 -79.348  1.00  0.00    -0.352 OA
HETATM   16  C8  UNL     1     144.087  18.958 -78.441  1.00  0.00     0.149 C 
HETATM   17  C9  UNL     1     143.661  18.611 -77.013  1.00  0.00     0.042 C 
HETATM   18  C10 UNL     1     145.530  18.718 -78.686  1.00  0.00     0.148 C 
HETATM   19  C11 UNL     1     145.901  17.351 -79.185  1.00  0.00     0.064 C 
HETATM   20  C12 UNL     1     144.855  17.066 -80.291  1.00  0.00     0.142 C 
BRANCH  18  21
HETATM   21  O5  UNL     1     146.253  19.052 -77.543  1.00  0.00    -0.393 OA
ATOM     22  H5  UNL     1     145.842  18.656 -76.784  1.00  0.00     0.210 HD
ENDBRANCH  18  21
BRANCH  20  23
HETATM   23  N1  UNL     1     145.209  15.952 -81.104  1.00  0.00    -0.350 N 
HETATM   24  C13 UNL     1     144.759  15.839 -82.469  1.00  0.00     0.248 C 
HETATM   25  O6  UNL     1     144.044  16.775 -82.898  1.00  0.00    -0.271 OA
ATOM     26  H1  UNL     1     145.796  15.216 -80.711  1.00  0.00     0.163 HD
BRANCH  24  27
HETATM   27  C14 UNL     1     145.087  14.712 -83.361  1.00  0.00     0.275 C 
BRANCH  27  28
HETATM   28  N2  UNL     1     143.816  14.141 -83.849  1.00  0.00    -0.066 N 
ATOM     29  H23 UNL     1     143.308  13.629 -83.127  1.00  0.00     0.275 HD
ATOM     30  H22 UNL     1     143.108  14.851 -84.034  1.00  0.00     0.275 HD
ATOM     31  H21 UNL     1     144.027  13.569 -84.666  1.00  0.00     0.275 HD
ENDBRANCH  27  28
BRANCH  27  32
HETATM   32  C15 UNL     1     145.843  13.619 -82.624  1.00  0.00     0.053 C 
BRANCH  32  33
HETATM   33  C16 UNL     1     146.428  12.608 -83.564  1.00  0.00     0.076 C 
BRANCH  33  34
HETATM   34  S1  UNL     1     145.484  11.063 -83.467  1.00  0.00    -0.173 SA
HETATM   35  C17 UNL     1     146.217   9.803 -84.521  1.00  0.00     0.089 C 
ENDBRANCH  33  34
ENDBRANCH  32  33
ENDBRANCH  27  32
ENDBRANCH  24  27
ENDBRANCH  20  23
ENDBRANCH  13  14
ENDBRANCH   7  13
BRANCH   8  36
HETATM   36  O7  UNL     1     143.490  15.085 -77.440  1.00  0.00    -0.279 OA
BRANCH  36  37
HETATM   37  N3  UNL     1     144.705  14.962 -76.913  1.00  0.00    -0.311 N 
ATOM     38  H32 UNL     1     145.485  15.544 -77.218  1.00  0.00     0.184 HD
ATOM     39  H31 UNL     1     144.783  14.247 -76.189  1.00  0.00     0.184 HD
ENDBRANCH  36  37
ENDBRANCH   8  36
ENDBRANCH   3   4
TORSDOF 13
ENDMDL
MODEL 5
REMARK VINA RESULT: -7.337550291      1.833      2.669
REMARK  13 active torsions:
REMARK  status: ('A' for Active; 'I' for Inactive)
REMARK    1  A    between atoms: C3_3  and  C4_4 
REMARK    2  A    between atoms: C4_4  and  O1_5 
REMARK    3  A    between atoms: C6_9  and  O3_10 
REMARK    4  A    between atoms: O3_10  and  C7_11 
REMARK    5  A    between atoms: C10_15  and  O5_16 
REMARK    6  A    between atoms: C12_19  and  N1_20 
REMARK       I    between atoms: N1_20  and  C13_22 
REMARK    7  A    between atoms: C13_22  and  C14_24 
REMARK    8  A    between atoms: C14_24  and  N2_25 
REMARK    9  A    between atoms: C14_24  and  C15_29 
REMARK   10  A    between atoms: C15_29  and  C16_30 
REMARK   11  A    between atoms: C16_30  and  S1_31 
REMARK   12  A    between atoms: C18_33  and  O7_34 
REMARK   13  A    between atoms: O7_34  and  N3_35 
ROOT
HETATM    1  C1  UNL     1     146.364  20.284 -78.810  1.00  0.00     0.112 C 
HETATM    2  C2  UNL     1     145.572  19.119 -79.243  1.00  0.00    -0.106 C 
HETATM    3  C3  UNL     1     144.902  18.172 -79.592  1.00  0.00    -0.039 C 
ENDROOT
BRANCH   3   4
HETATM    4  C4  UNL     1     144.066  17.024 -80.001  1.00  0.00     0.236 C 
HETATM    5  O2  UNL     1     144.893  15.937 -80.276  1.00  0.00    -0.342 OA
HETATM    6  C5  UNL     1     145.483  15.453 -79.102  1.00  0.00     0.207 C 
HETATM    7  C6  UNL     1     144.441  14.773 -78.221  1.00  0.00     0.180 C 
HETATM    8  C18 UNL     1     143.068  15.249 -78.509  1.00  0.00     0.192 C 
HETATM    9  C19 UNL     1     143.036  16.705 -78.964  1.00  0.00     0.091 C 
HETATM   10  C20 UNL     1     143.261  17.630 -77.775  1.00  0.00     0.019 C 
BRANCH   4  11
HETATM   11  O1  UNL     1     143.440  17.389 -81.186  1.00  0.00    -0.355 OA
ATOM     12  H1  UNL     1     142.726  17.970 -80.950  1.00  0.00     0.214 HD
ENDBRANCH   4  11
BRANCH   7  13
HETATM   13  O3  UNL     1     144.653  13.403 -78.386  1.00  0.00    -0.349 OA
BRANCH  13  14
HETATM   14  C7  UNL     1     143.559  12.869 -78.992  1.00  0.00     0.283 C 
HETATM   15  O4  UNL     1     143.281  11.643 -78.317  1.00  0.00    -0.352 OA
HETATM   16  C8  UNL     1     141.997  11.214 -78.629  1.00  0.00     0.149 C 
HETATM   17  C9  UNL     1     140.978  11.947 -77.753  1.00  0.00     0.042 C 
HETATM   18  C10 UNL     1     141.636  11.233 -80.068  1.00  0.00     0.148 C 
HETATM   19  C11 UNL     1     142.164  12.387 -80.871  1.00  0.00     0.064 C 
HETATM   20  C12 UNL     1     143.643  12.499 -80.427  1.00  0.00     0.142 C 
BRANCH  18  21
HETATM   21  O5  UNL     1     140.254  11.116 -80.198  1.00  0.00    -0.393 OA
ATOM     22  H5  UNL     1     139.867  10.990 -79.340  1.00  0.00     0.210 HD
ENDBRANCH  18  21
BRANCH  20  23
HETATM   23  N1  UNL     1     144.410  13.334 -81.288  1.00  0.00    -0.350 N 
HETATM   24  C13 UNL     1     145.551  12.828 -82.012  1.00  0.00     0.248 C 
HETATM   25  O6  UNL     1     145.824  11.617 -81.843  1.00  0.00    -0.271 OA
ATOM     26  H1  UNL     1     144.147  14.314 -81.396  1.00  0.00     0.163 HD
BRANCH  24  27
HETATM   27  C14 UNL     1     146.387  13.640 -82.915  1.00  0.00     0.275 C 
BRANCH  27  28
HETATM   28  N2  UNL     1     145.572  14.782 -83.376  1.00  0.00    -0.066 N 
ATOM     29  H23 UNL     1     144.890  15.088 -82.681  1.00  0.00     0.275 HD
ATOM     30  H22 UNL     1     146.104  15.650 -83.435  1.00  0.00     0.275 HD
ATOM     31  H21 UNL     1     145.143  14.519 -84.263  1.00  0.00     0.275 HD
ENDBRANCH  27  28
BRANCH  27  32
HETATM   32  C15 UNL     1     146.820  12.846 -84.138  1.00  0.00     0.053 C 
BRANCH  32  33
HETATM   33  C16 UNL     1     146.309  13.453 -85.410  1.00  0.00     0.076 C 
BRANCH  33  34
HETATM   34  S1  UNL     1     144.882  12.507 -86.008  1.00  0.00    -0.173 SA
HETATM   35  C17 UNL     1     143.346  13.350 -85.603  1.00  0.00     0.089 C 
ENDBRANCH  33  34
ENDBRANCH  32  33
ENDBRANCH  27  32
ENDBRANCH  24  27
ENDBRANCH  20  23
ENDBRANCH  13  14
ENDBRANCH   7  13
BRANCH   8  36
HETATM   36  O7  UNL     1     142.197  15.185 -77.418  1.00  0.00    -0.279 OA
BRANCH  36  37
HETATM   37  N3  UNL     1     142.504  14.256 -76.517  1.00  0.00    -0.311 N 
ATOM     38  H32 UNL     1     142.654  13.282 -76.780  1.00  0.00     0.184 HD
ATOM     39  H31 UNL     1     142.574  14.600 -75.559  1.00  0.00     0.184 HD
ENDBRANCH  36  37
ENDBRANCH   8  36
ENDBRANCH   3   4
TORSDOF 13
ENDMDL
