MODEL 1
REMARK VINA RESULT: -5.645753613      0.000      0.000
REMARK  2 active torsions:
REMARK  status: ('A' for Active; 'I' for Inactive)
REMARK    1  A    between atoms: O1_2  and  C2_3 
REMARK    2  A    between atoms: C2_3  and  N1_4 
ROOT
HETATM    1  N1  UNL     1      21.720  -0.986  -2.317  1.00  0.00    -0.237 N 
HETATM    2  C3  UNL     1      22.553  -1.600  -1.440  1.00  0.00     0.166 A 
HETATM    3  C4  UNL     1      22.104  -2.004  -0.180  1.00  0.00     0.162 A 
HETATM    4  C5  UNL     1      20.787  -1.758   0.145  1.00  0.00     0.281 A 
HETATM    5  O2  UNL     1      20.393  -2.128   1.285  1.00  0.00    -0.265 OA
HETATM    6  N2  UNL     1      20.014  -1.155  -0.748  1.00  0.00    -0.273 N 
ATOM      7  H2  UNL     1      19.041  -0.979  -0.497  1.00  0.00     0.173 HD
HETATM    8  C6  UNL     1      20.430  -0.761  -1.964  1.00  0.00     0.336 A 
HETATM    9  O3  UNL     1      19.625  -0.199  -2.745  1.00  0.00    -0.246 OA
HETATM   10  N3  UNL     1      23.001  -2.645   0.724  1.00  0.00    -0.278 N 
ATOM     11  H3  UNL     1      22.681  -2.943   1.646  1.00  0.00     0.188 HD
HETATM   12  N4  UNL     1      24.315  -2.858   0.335  1.00  0.00    -0.132 N 
ATOM     13  H4  UNL     1      24.959  -3.316   0.980  1.00  0.00     0.205 HD
HETATM   14  C7  UNL     1      24.783  -2.452  -0.941  1.00  0.00     0.692 A 
HETATM   15  N5  UNL     1      26.019  -2.654  -1.304  1.00  0.00    -0.233 N 
ATOM     16  H51 UNL     1      26.355  -2.361  -2.222  1.00  0.00     0.174 HD
ATOM     17  H52 UNL     1      26.659  -3.113  -0.654  1.00  0.00     0.174 HD
HETATM   18  N6  UNL     1      23.894  -1.814  -1.845  1.00  0.00    -0.172 N 
ATOM     19  H6  UNL     1      24.214  -1.515  -2.767  1.00  0.00     0.186 HD
ENDROOT
BRANCH   1  20
HETATM   20  C2  UNL     1      22.175  -0.616  -3.584  1.00  0.00     0.239 C 
BRANCH  20  21
HETATM   21  O1  UNL     1      22.215  -1.703  -4.434  1.00  0.00    -0.351 OA
HETATM   22  C1  UNL     1      21.375  -1.704  -5.500  1.00  0.00     0.210 C 
ENDBRANCH  20  21
ENDBRANCH   1  20
TORSDOF 2
ENDMDL
MODEL 2
REMARK VINA RESULT: -5.517518953      1.778      1.923
REMARK  2 active torsions:
REMARK  status: ('A' for Active; 'I' for Inactive)
REMARK    1  A    between atoms: O1_2  and  C2_3 
REMARK    2  A    between atoms: C2_3  and  N1_4 
ROOT
HETATM    1  N1  UNL     1      21.470  -3.005  -3.113  1.00  0.00    -0.237 N 
HETATM    2  C3  UNL     1      22.051  -2.859  -1.897  1.00  0.00     0.166 A 
HETATM    3  C4  UNL     1      21.442  -2.103  -0.892  1.00  0.00     0.162 A 
HETATM    4  C5  UNL     1      20.231  -1.509  -1.176  1.00  0.00     0.281 A 
HETATM    5  O2  UNL     1      19.690  -0.830  -0.261  1.00  0.00    -0.265 OA
HETATM    6  N2  UNL     1      19.704  -1.684  -2.381  1.00  0.00    -0.273 N 
ATOM      7  H2  UNL     1      18.808  -1.240  -2.579  1.00  0.00     0.173 HD
HETATM    8  C6  UNL     1      20.277  -2.408  -3.357  1.00  0.00     0.336 A 
HETATM    9  O3  UNL     1      19.703  -2.519  -4.468  1.00  0.00    -0.246 OA
HETATM   10  N3  UNL     1      22.076  -1.962   0.377  1.00  0.00    -0.278 N 
ATOM     11  H3  UNL     1      21.637  -1.412   1.116  1.00  0.00     0.188 HD
HETATM   12  N4  UNL     1      23.297  -2.583   0.595  1.00  0.00    -0.132 N 
ATOM     13  H4  UNL     1      23.753  -2.484   1.503  1.00  0.00     0.205 HD
HETATM   14  C7  UNL     1      23.926  -3.353  -0.417  1.00  0.00     0.692 A 
HETATM   15  N5  UNL     1      25.074  -3.935  -0.209  1.00  0.00    -0.233 N 
ATOM     16  H51 UNL     1      25.526  -4.489  -0.937  1.00  0.00     0.174 HD
ATOM     17  H52 UNL     1      25.525  -3.833   0.701  1.00  0.00     0.174 HD
HETATM   18  N6  UNL     1      23.299  -3.496  -1.682  1.00  0.00    -0.172 N 
ATOM     19  H6  UNL     1      23.737  -4.046  -2.422  1.00  0.00     0.186 HD
ENDROOT
BRANCH   1  20
HETATM   20  C2  UNL     1      22.076  -3.790  -4.097  1.00  0.00     0.239 C 
BRANCH  20  21
HETATM   21  O1  UNL     1      23.169  -3.147  -4.642  1.00  0.00    -0.351 OA
HETATM   22  C1  UNL     1      23.048  -2.644  -5.896  1.00  0.00     0.210 C 
ENDBRANCH  20  21
ENDBRANCH   1  20
TORSDOF 2
ENDMDL
MODEL 3
REMARK VINA RESULT: -5.154032524      1.745      3.796
REMARK  2 active torsions:
REMARK  status: ('A' for Active; 'I' for Inactive)
REMARK    1  A    between atoms: O1_2  and  C2_3 
REMARK    2  A    between atoms: C2_3  and  N1_4 
ROOT
HETATM    1  N1  UNL     1      22.199  -2.001  -0.582  1.00  0.00    -0.237 N 
HETATM    2  C3  UNL     1      22.537  -1.500  -1.796  1.00  0.00     0.166 A 
HETATM    3  C4  UNL     1      21.592  -0.857  -2.600  1.00  0.00     0.162 A 
HETATM    4  C5  UNL     1      20.304  -0.750  -2.121  1.00  0.00     0.281 A 
HETATM    5  O2  UNL     1      19.460  -0.168  -2.856  1.00  0.00    -0.265 OA
HETATM    6  N2  UNL     1      20.025  -1.258  -0.928  1.00  0.00    -0.273 N 
ATOM      7  H2  UNL     1      19.068  -1.172  -0.584  1.00  0.00     0.173 HD
HETATM    8  C6  UNL     1      20.922  -1.877  -0.142  1.00  0.00     0.336 A 
HETATM    9  O3  UNL     1      20.567  -2.325   0.975  1.00  0.00    -0.246 OA
HETATM   10  N3  UNL     1      21.973  -0.341  -3.873  1.00  0.00    -0.278 N 
ATOM     11  H3  UNL     1      21.289   0.129  -4.466  1.00  0.00     0.188 HD
HETATM   12  N4  UNL     1      23.286  -0.486  -4.296  1.00  0.00    -0.132 N 
ATOM     13  H4  UNL     1      23.561  -0.118  -5.207  1.00  0.00     0.205 HD
HETATM   14  C7  UNL     1      24.254  -1.136  -3.489  1.00  0.00     0.692 A 
HETATM   15  N5  UNL     1      25.488  -1.271  -3.890  1.00  0.00    -0.233 N 
ATOM     16  H51 UNL     1      26.184  -1.739  -3.309  1.00  0.00     0.174 HD
ATOM     17  H52 UNL     1      25.757  -0.901  -4.802  1.00  0.00     0.174 HD
HETATM   18  N6  UNL     1      23.880  -1.652  -2.221  1.00  0.00    -0.172 N 
ATOM     19  H6  UNL     1      24.564  -2.123  -1.628  1.00  0.00     0.186 HD
ENDROOT
BRANCH   1  20
HETATM   20  C2  UNL     1      23.162  -2.613   0.224  1.00  0.00     0.239 C 
BRANCH  20  21
HETATM   21  O1  UNL     1      23.660  -3.752  -0.375  1.00  0.00    -0.351 OA
HETATM   22  C1  UNL     1      24.715  -4.368   0.215  1.00  0.00     0.210 C 
ENDBRANCH  20  21
ENDBRANCH   1  20
TORSDOF 2
ENDMDL
MODEL 4
REMARK VINA RESULT: -4.991740065      2.133      4.062
REMARK  2 active torsions:
REMARK  status: ('A' for Active; 'I' for Inactive)
REMARK    1  A    between atoms: O1_2  and  C2_3 
REMARK    2  A    between atoms: C2_3  and  N1_4 
ROOT
HETATM    1  N1  UNL     1      22.799  -1.706  -1.076  1.00  0.00    -0.237 N 
HETATM    2  C3  UNL     1      22.529  -1.359  -2.359  1.00  0.00     0.166 A 
HETATM    3  C4  UNL     1      21.214  -1.305  -2.830  1.00  0.00     0.162 A 
HETATM    4  C5  UNL     1      20.200  -1.616  -1.949  1.00  0.00     0.281 A 
HETATM    5  O2  UNL     1      19.018  -1.563  -2.386  1.00  0.00    -0.265 OA
HETATM    6  N2  UNL     1      20.518  -1.948  -0.705  1.00  0.00    -0.273 N 
ATOM      7  H2  UNL     1      19.760  -2.175  -0.063  1.00  0.00     0.173 HD
HETATM    8  C6  UNL     1      21.777  -2.004  -0.237  1.00  0.00     0.336 A 
HETATM    9  O3  UNL     1      21.983  -2.327   0.958  1.00  0.00    -0.246 OA
HETATM   10  N3  UNL     1      20.957  -0.941  -4.184  1.00  0.00    -0.278 N 
ATOM     11  H3  UNL     1      20.000  -0.899  -4.535  1.00  0.00     0.188 HD
HETATM   12  N4  UNL     1      22.024  -0.645  -5.019  1.00  0.00    -0.132 N 
ATOM     13  H4  UNL     1      21.843  -0.384  -5.988  1.00  0.00     0.205 HD
HETATM   14  C7  UNL     1      23.363  -0.697  -4.553  1.00  0.00     0.692 A 
HETATM   15  N5  UNL     1      24.364  -0.417  -5.340  1.00  0.00    -0.233 N 
ATOM     16  H51 UNL     1      25.327  -0.454  -5.005  1.00  0.00     0.174 HD
ATOM     17  H52 UNL     1      24.177  -0.157  -6.309  1.00  0.00     0.174 HD
HETATM   18  N6  UNL     1      23.624  -1.058  -3.206  1.00  0.00    -0.172 N 
ATOM     19  H6  UNL     1      24.581  -1.100  -2.854  1.00  0.00     0.186 HD
ENDROOT
BRANCH   1  20
HETATM   20  C2  UNL     1      24.116  -1.725  -0.612  1.00  0.00     0.239 C 
BRANCH  20  21
HETATM   21  O1  UNL     1      24.588  -0.445  -0.403  1.00  0.00    -0.351 OA
HETATM   22  C1  UNL     1      25.928  -0.244  -0.475  1.00  0.00     0.210 C 
ENDBRANCH  20  21
ENDBRANCH   1  20
TORSDOF 2
ENDMDL
MODEL 5
REMARK VINA RESULT: -4.906137499      2.063      4.013
REMARK  2 active torsions:
REMARK  status: ('A' for Active; 'I' for Inactive)
REMARK    1  A    between atoms: O1_2  and  C2_3 
REMARK    2  A    between atoms: C2_3  and  N1_4 
ROOT
HETATM    1  N1  UNL     1      22.962  -2.595  -1.251  1.00  0.00    -0.237 N 
HETATM    2  C3  UNL     1      22.119  -1.912  -2.065  1.00  0.00     0.166 A 
HETATM    3  C4  UNL     1      20.975  -1.288  -1.560  1.00  0.00     0.162 A 
HETATM    4  C5  UNL     1      20.730  -1.389  -0.207  1.00  0.00     0.281 A 
HETATM    5  O2  UNL     1      19.695  -0.821   0.238  1.00  0.00    -0.265 OA
HETATM    6  N2  UNL     1      21.586  -2.068   0.545  1.00  0.00    -0.273 N 
ATOM      7  H2  UNL     1      21.393  -2.135   1.545  1.00  0.00     0.173 HD
HETATM    8  C6  UNL     1      22.689  -2.673   0.075  1.00  0.00     0.336 A 
HETATM    9  O3  UNL     1      23.444  -3.293   0.864  1.00  0.00    -0.246 OA
HETATM   10  N3  UNL     1      20.104  -0.578  -2.437  1.00  0.00    -0.278 N 
ATOM     11  H3  UNL     1      19.268  -0.120  -2.076  1.00  0.00     0.188 HD
HETATM   12  N4  UNL     1      20.408  -0.520  -3.790  1.00  0.00    -0.132 N 
ATOM     13  H4  UNL     1      19.786  -0.012  -4.419  1.00  0.00     0.205 HD
HETATM   14  C7  UNL     1      21.565  -1.149  -4.314  1.00  0.00     0.692 A 
HETATM   15  N5  UNL     1      21.849  -1.092  -5.587  1.00  0.00    -0.233 N 
ATOM     16  H51 UNL     1      22.681  -1.546  -5.964  1.00  0.00     0.174 HD
ATOM     17  H52 UNL     1      21.223  -0.584  -6.212  1.00  0.00     0.174 HD
HETATM   18  N6  UNL     1      22.436  -1.857  -3.445  1.00  0.00    -0.172 N 
ATOM     19  H6  UNL     1      23.273  -2.316  -3.806  1.00  0.00     0.186 HD
ENDROOT
BRANCH   1  20
HETATM   20  C2  UNL     1      24.117  -3.187  -1.766  1.00  0.00     0.239 C 
BRANCH  20  21
HETATM   21  O1  UNL     1      23.817  -4.347  -2.451  1.00  0.00    -0.351 OA
HETATM   22  C1  UNL     1      24.170  -5.528  -1.882  1.00  0.00     0.210 C 
ENDBRANCH  20  21
ENDBRANCH   1  20
TORSDOF 2
ENDMDL
