MODEL 1
REMARK VINA RESULT: -5.590228445      0.000      0.000
REMARK  2 active torsions:
REMARK  status: ('A' for Active; 'I' for Inactive)
REMARK       I    between atoms: N1_1  and  C1_5 
REMARK       I    between atoms: C1_5  and  N2_6 
REMARK       I    between atoms: C1_5  and  N3_10 
REMARK    1  A    between atoms: N3_10  and  C2_12 
REMARK    2  A    between atoms: C3_15  and  N5_16 
ROOT
HETATM    1  C2  UNL     1      21.095  -1.092  -2.138  1.00  0.00     0.699 A 
HETATM    2  N4  UNL     1      22.418  -1.206  -1.955  1.00  0.00    -0.022 N 
ATOM      3  H4  UNL     1      23.033  -1.012  -2.746  1.00  0.00     0.203 HD
HETATM    4  C3  UNL     1      22.980  -1.563  -0.784  1.00  0.00     0.699 A 
HETATM    5  N7  UNL     1      22.139  -1.809   0.235  1.00  0.00    -0.140 N 
ATOM      6  H7  UNL     1      22.526  -2.082   1.138  1.00  0.00     0.189 HD
HETATM    7  C8  UNL     1      20.798  -1.709   0.107  1.00  0.00     0.352 A 
HETATM    8  O1  UNL     1      20.013  -1.940   1.062  1.00  0.00    -0.246 OA
HETATM    9  N8  UNL     1      20.289  -1.349  -1.090  1.00  0.00    -0.140 N 
ATOM     10  H8  UNL     1      19.278  -1.271  -1.203  1.00  0.00     0.189 HD
ENDROOT
BRANCH   1  11
HETATM   11  N3  UNL     1      20.635  -0.749  -3.280  1.00  0.00    -0.173 N 
HETATM   12  C1  UNL     1      20.917  -1.490  -4.490  1.00  0.00     0.494 C 
HETATM   13  N1  UNL     1      20.609  -0.756  -5.680  1.00  0.00    -0.032 N 
HETATM   14  N2  UNL     1      20.188  -2.721  -4.478  1.00  0.00    -0.032 N 
ATOM     15  H13 UNL     1      20.773  -1.306  -6.523  1.00  0.00     0.278 HD
ATOM     16  H12 UNL     1      19.606  -0.609  -5.792  1.00  0.00     0.278 HD
ATOM     17  H11 UNL     1      21.130   0.122  -5.689  1.00  0.00     0.278 HD
ATOM     18  H23 UNL     1      19.184  -2.574  -4.589  1.00  0.00     0.278 HD
ATOM     19  H22 UNL     1      20.351  -3.271  -5.320  1.00  0.00     0.278 HD
ATOM     20  H21 UNL     1      20.406  -3.244  -3.630  1.00  0.00     0.278 HD
ATOM     21  H3  UNL     1      20.045   0.081  -3.341  1.00  0.00     0.181 HD
ENDBRANCH   1  11
BRANCH   4  22
HETATM   22  N5  UNL     1      24.398  -1.671  -0.636  1.00  0.00    -0.214 N 
HETATM   23  C4  UNL     1      25.093  -2.921  -0.676  1.00  0.00     0.168 C 
HETATM   24  C5  UNL     1      26.184  -3.024   0.360  1.00  0.00     0.252 C 
HETATM   25  N6  UNL     1      26.890  -1.786   0.561  1.00  0.00    -0.072 N 
HETATM   26  C6  UNL     1      26.622  -0.812  -0.474  1.00  0.00     0.252 C 
ATOM     27  H62 UNL     1      26.695  -1.400   1.484  1.00  0.00     0.277 HD
ATOM     28  H61 UNL     1      27.892  -1.950   0.657  1.00  0.00     0.277 HD
HETATM   29  C7  UNL     1      25.164  -0.460  -0.437  1.00  0.00     0.168 C 
ENDBRANCH   4  22
TORSDOF 2
ENDMDL
MODEL 2
REMARK VINA RESULT: -5.446395616      0.514      1.272
REMARK  2 active torsions:
REMARK  status: ('A' for Active; 'I' for Inactive)
REMARK       I    between atoms: N1_1  and  C1_5 
REMARK       I    between atoms: C1_5  and  N2_6 
REMARK       I    between atoms: C1_5  and  N3_10 
REMARK    1  A    between atoms: N3_10  and  C2_12 
REMARK    2  A    between atoms: C3_15  and  N5_16 
ROOT
HETATM    1  C2  UNL     1      21.113  -1.092  -2.115  1.00  0.00     0.699 A 
HETATM    2  N4  UNL     1      22.435  -1.182  -1.917  1.00  0.00    -0.022 N 
ATOM      3  H4  UNL     1      23.056  -0.972  -2.699  1.00  0.00     0.203 HD
HETATM    4  C3  UNL     1      22.991  -1.535  -0.741  1.00  0.00     0.699 A 
HETATM    5  N7  UNL     1      22.143  -1.804   0.267  1.00  0.00    -0.140 N 
ATOM      6  H7  UNL     1      22.525  -2.075   1.172  1.00  0.00     0.189 HD
HETATM    7  C8  UNL     1      20.802  -1.728   0.123  1.00  0.00     0.352 A 
HETATM    8  O1  UNL     1      20.010  -1.981   1.067  1.00  0.00    -0.246 OA
HETATM    9  N8  UNL     1      20.299  -1.371  -1.078  1.00  0.00    -0.140 N 
ATOM     10  H8  UNL     1      19.289  -1.311  -1.202  1.00  0.00     0.189 HD
ENDROOT
BRANCH   1  11
HETATM   11  N3  UNL     1      20.659  -0.751  -3.260  1.00  0.00    -0.173 N 
HETATM   12  C1  UNL     1      20.922  -1.512  -4.461  1.00  0.00     0.494 C 
HETATM   13  N1  UNL     1      20.631  -0.784  -5.660  1.00  0.00    -0.032 N 
HETATM   14  N2  UNL     1      20.163  -2.725  -4.434  1.00  0.00    -0.032 N 
ATOM     15  H13 UNL     1      20.779  -1.348  -6.496  1.00  0.00     0.278 HD
ATOM     16  H12 UNL     1      19.631  -0.614  -5.772  1.00  0.00     0.278 HD
ATOM     17  H11 UNL     1      21.172   0.080  -5.679  1.00  0.00     0.278 HD
ATOM     18  H23 UNL     1      19.164  -2.554  -4.546  1.00  0.00     0.278 HD
ATOM     19  H22 UNL     1      20.312  -3.289  -5.271  1.00  0.00     0.278 HD
ATOM     20  H21 UNL     1      20.370  -3.243  -3.581  1.00  0.00     0.278 HD
ATOM     21  H3  UNL     1      20.090   0.093  -3.330  1.00  0.00     0.181 HD
ENDBRANCH   1  11
BRANCH   4  22
HETATM   22  N5  UNL     1      24.409  -1.618  -0.577  1.00  0.00    -0.214 N 
HETATM   23  C4  UNL     1      25.269  -0.476  -0.650  1.00  0.00     0.168 C 
HETATM   24  C5  UNL     1      26.546  -0.747  -1.404  1.00  0.00     0.252 C 
HETATM   25  N6  UNL     1      27.076  -2.063  -1.164  1.00  0.00    -0.072 N 
HETATM   26  C6  UNL     1      26.458  -2.721  -0.034  1.00  0.00     0.252 C 
ATOM     27  H62 UNL     1      27.010  -2.641  -2.002  1.00  0.00     0.277 HD
ATOM     28  H61 UNL     1      28.090  -2.036  -1.061  1.00  0.00     0.277 HD
HETATM   29  C7  UNL     1      24.999  -2.915  -0.329  1.00  0.00     0.168 C 
ENDBRANCH   4  22
TORSDOF 2
ENDMDL
MODEL 3
REMARK VINA RESULT: -5.353504003      1.398      5.355
REMARK  2 active torsions:
REMARK  status: ('A' for Active; 'I' for Inactive)
REMARK       I    between atoms: N1_1  and  C1_5 
REMARK       I    between atoms: C1_5  and  N2_6 
REMARK       I    between atoms: C1_5  and  N3_10 
REMARK    1  A    between atoms: N3_10  and  C2_12 
REMARK    2  A    between atoms: C3_15  and  N5_16 
ROOT
HETATM    1  C2  UNL     1      22.578  -2.240  -0.295  1.00  0.00     0.699 A 
HETATM    2  N4  UNL     1      22.328  -2.444  -1.596  1.00  0.00    -0.022 N 
ATOM      3  H4  UNL     1      23.087  -2.788  -2.185  1.00  0.00     0.203 HD
HETATM    4  C3  UNL     1      21.129  -2.221  -2.168  1.00  0.00     0.699 A 
HETATM    5  N7  UNL     1      20.153  -1.771  -1.361  1.00  0.00    -0.140 N 
ATOM      6  H7  UNL     1      19.231  -1.590  -1.757  1.00  0.00     0.189 HD
HETATM    7  C8  UNL     1      20.350  -1.548  -0.043  1.00  0.00     0.352 A 
HETATM    8  O1  UNL     1      19.435  -1.126   0.711  1.00  0.00    -0.246 OA
HETATM    9  N8  UNL     1      21.572  -1.787   0.478  1.00  0.00    -0.140 N 
ATOM     10  H8  UNL     1      21.736  -1.622   1.470  1.00  0.00     0.189 HD
ENDROOT
BRANCH   1  11
HETATM   11  N3  UNL     1      23.743  -2.474   0.177  1.00  0.00    -0.173 N 
HETATM   12  C1  UNL     1      24.947  -1.932  -0.414  1.00  0.00     0.494 C 
HETATM   13  N1  UNL     1      26.137  -2.587   0.040  1.00  0.00    -0.032 N 
HETATM   14  N2  UNL     1      25.029  -0.531  -0.134  1.00  0.00    -0.032 N 
ATOM     15  H13 UNL     1      26.979  -2.166  -0.351  1.00  0.00     0.278 HD
ATOM     16  H12 UNL     1      26.324  -2.403   1.026  1.00  0.00     0.278 HD
ATOM     17  H11 UNL     1      26.078  -3.586  -0.160  1.00  0.00     0.278 HD
ATOM     18  H23 UNL     1      25.215  -0.347   0.852  1.00  0.00     0.278 HD
ATOM     19  H22 UNL     1      25.871  -0.110  -0.525  1.00  0.00     0.278 HD
ATOM     20  H21 UNL     1      24.181  -0.064  -0.457  1.00  0.00     0.278 HD
ATOM     21  H3  UNL     1      23.827  -3.067   1.002  1.00  0.00     0.181 HD
ENDBRANCH   1  11
BRANCH   4  22
HETATM   22  N5  UNL     1      20.909  -2.455  -3.562  1.00  0.00    -0.214 N 
HETATM   23  C4  UNL     1      20.444  -3.705  -4.078  1.00  0.00     0.168 C 
HETATM   24  C5  UNL     1      21.147  -4.118  -5.347  1.00  0.00     0.252 C 
HETATM   25  N6  UNL     1      21.429  -3.010  -6.222  1.00  0.00    -0.072 N 
HETATM   26  C6  UNL     1      20.716  -1.807  -5.854  1.00  0.00     0.252 C 
ATOM     27  H62 UNL     1      22.432  -2.836  -6.278  1.00  0.00     0.277 HD
ATOM     28  H61 UNL     1      21.249  -3.258  -7.194  1.00  0.00     0.277 HD
HETATM   29  C7  UNL     1      21.171  -1.376  -4.490  1.00  0.00     0.168 C 
ENDBRANCH   4  22
TORSDOF 2
ENDMDL
MODEL 4
REMARK VINA RESULT: -5.312955988      1.386      5.572
REMARK  2 active torsions:
REMARK  status: ('A' for Active; 'I' for Inactive)
REMARK       I    between atoms: N1_1  and  C1_5 
REMARK       I    between atoms: C1_5  and  N2_6 
REMARK       I    between atoms: C1_5  and  N3_10 
REMARK    1  A    between atoms: N3_10  and  C2_12 
REMARK    2  A    between atoms: C3_15  and  N5_16 
ROOT
HETATM    1  C2  UNL     1      22.721  -2.241  -0.401  1.00  0.00     0.699 A 
HETATM    2  N4  UNL     1      22.603  -2.427  -1.723  1.00  0.00    -0.022 N 
ATOM      3  H4  UNL     1      23.432  -2.706  -2.247  1.00  0.00     0.203 HD
HETATM    4  C3  UNL     1      21.448  -2.264  -2.398  1.00  0.00     0.699 A 
HETATM    5  N7  UNL     1      20.376  -1.896  -1.675  1.00  0.00    -0.140 N 
ATOM      6  H7  UNL     1      19.484  -1.762  -2.150  1.00  0.00     0.189 HD
HETATM    7  C8  UNL     1      20.439  -1.696  -0.340  1.00  0.00     0.352 A 
HETATM    8  O1  UNL     1      19.435  -1.351   0.335  1.00  0.00    -0.246 OA
HETATM    9  N8  UNL     1      21.622  -1.872   0.285  1.00  0.00    -0.140 N 
ATOM     10  H8  UNL     1      21.685  -1.723   1.292  1.00  0.00     0.189 HD
ENDROOT
BRANCH   1  11
HETATM   11  N3  UNL     1      23.851  -2.415   0.170  1.00  0.00    -0.173 N 
HETATM   12  C1  UNL     1      25.080  -1.851  -0.344  1.00  0.00     0.494 C 
HETATM   13  N1  UNL     1      26.250  -2.445   0.228  1.00  0.00    -0.032 N 
HETATM   14  N2  UNL     1      25.092  -0.439  -0.115  1.00  0.00    -0.032 N 
ATOM     15  H13 UNL     1      27.107  -2.009  -0.112  1.00  0.00     0.278 HD
ATOM     16  H12 UNL     1      26.351  -2.218   1.218  1.00  0.00     0.278 HD
ATOM     17  H11 UNL     1      26.242  -3.452   0.065  1.00  0.00     0.278 HD
ATOM     18  H23 UNL     1      25.192  -0.212   0.874  1.00  0.00     0.278 HD
ATOM     19  H22 UNL     1      25.948  -0.003  -0.455  1.00  0.00     0.278 HD
ATOM     20  H21 UNL     1      24.258  -0.016  -0.523  1.00  0.00     0.278 HD
ATOM     21  H3  UNL     1      23.888  -2.973   1.023  1.00  0.00     0.181 HD
ENDBRANCH   1  11
BRANCH   4  22
HETATM   22  N5  UNL     1      21.370  -2.474  -3.810  1.00  0.00    -0.214 N 
HETATM   23  C4  UNL     1      21.928  -1.566  -4.765  1.00  0.00     0.168 C 
HETATM   24  C5  UNL     1      21.035  -1.344  -5.960  1.00  0.00     0.252 C 
HETATM   25  N6  UNL     1      20.348  -2.537  -6.381  1.00  0.00    -0.072 N 
HETATM   26  C6  UNL     1      20.887  -3.738  -5.780  1.00  0.00     0.252 C 
ATOM     27  H62 UNL     1      19.346  -2.462  -6.208  1.00  0.00     0.277 HD
ATOM     28  H61 UNL     1      20.336  -2.612  -7.398  1.00  0.00     0.277 HD
HETATM   29  C7  UNL     1      20.696  -3.659  -4.294  1.00  0.00     0.168 C 
ENDBRANCH   4  22
TORSDOF 2
ENDMDL
MODEL 5
REMARK VINA RESULT: -5.166499737      1.345      5.357
REMARK  2 active torsions:
REMARK  status: ('A' for Active; 'I' for Inactive)
REMARK       I    between atoms: N1_1  and  C1_5 
REMARK       I    between atoms: C1_5  and  N2_6 
REMARK       I    between atoms: C1_5  and  N3_10 
REMARK    1  A    between atoms: N3_10  and  C2_12 
REMARK    2  A    between atoms: C3_15  and  N5_16 
ROOT
HETATM    1  C2  UNL     1      22.880  -2.020  -0.490  1.00  0.00     0.699 A 
HETATM    2  N4  UNL     1      22.874  -1.948  -1.828  1.00  0.00    -0.022 N 
ATOM      3  H4  UNL     1      23.759  -2.068  -2.322  1.00  0.00     0.203 HD
HETATM    4  C3  UNL     1      21.762  -1.726  -2.557  1.00  0.00     0.699 A 
HETATM    5  N7  UNL     1      20.616  -1.574  -1.872  1.00  0.00    -0.140 N 
ATOM      6  H7  UNL     1      19.753  -1.405  -2.389  1.00  0.00     0.189 HD
HETATM    7  C8  UNL     1      20.565  -1.638  -0.524  1.00  0.00     0.352 A 
HETATM    8  O1  UNL     1      19.490  -1.495   0.115  1.00  0.00    -0.246 OA
HETATM    9  N8  UNL     1      21.708  -1.861   0.156  1.00  0.00    -0.140 N 
ATOM     10  H8  UNL     1      21.686  -1.910   1.175  1.00  0.00     0.189 HD
ENDROOT
BRANCH   1  11
HETATM   11  N3  UNL     1      23.975  -2.233   0.134  1.00  0.00    -0.173 N 
HETATM   12  C1  UNL     1      25.242  -1.692  -0.306  1.00  0.00     0.494 C 
HETATM   13  N1  UNL     1      26.367  -2.327   0.312  1.00  0.00    -0.032 N 
HETATM   14  N2  UNL     1      25.277  -0.285  -0.047  1.00  0.00    -0.032 N 
ATOM     15  H13 UNL     1      27.250  -1.906   0.025  1.00  0.00     0.278 HD
ATOM     16  H12 UNL     1      26.423  -2.121   1.310  1.00  0.00     0.278 HD
ATOM     17  H11 UNL     1      26.342  -3.330   0.127  1.00  0.00     0.278 HD
ATOM     18  H23 UNL     1      25.332  -0.080   0.950  1.00  0.00     0.278 HD
ATOM     19  H22 UNL     1      26.160   0.136  -0.335  1.00  0.00     0.278 HD
ATOM     20  H21 UNL     1      24.475   0.167  -0.487  1.00  0.00     0.278 HD
ATOM     21  H3  UNL     1      23.955  -2.809   0.976  1.00  0.00     0.181 HD
ENDBRANCH   1  11
BRANCH   4  22
HETATM   22  N5  UNL     1      21.805  -1.659  -3.985  1.00  0.00    -0.214 N 
HETATM   23  C4  UNL     1      23.024  -1.724  -4.732  1.00  0.00     0.168 C 
HETATM   24  C5  UNL     1      23.064  -0.750  -5.883  1.00  0.00     0.252 C 
HETATM   25  N6  UNL     1      21.793  -0.604  -6.542  1.00  0.00    -0.072 N 
HETATM   26  C6  UNL     1      20.845  -1.632  -6.173  1.00  0.00     0.252 C 
ATOM     27  H62 UNL     1      21.404   0.325  -6.382  1.00  0.00     0.277 HD
ATOM     28  H61 UNL     1      21.910  -0.562  -7.555  1.00  0.00     0.277 HD
HETATM   29  C7  UNL     1      20.558  -1.517  -4.704  1.00  0.00     0.168 C 
ENDBRANCH   4  22
TORSDOF 2
ENDMDL
