MODEL 1
REMARK VINA RESULT: -4.906886189      0.000      0.000
REMARK  5 active torsions:
REMARK  status: ('A' for Active; 'I' for Inactive)
REMARK    1  A    between atoms: N1_1  and  C1_4 
REMARK    2  A    between atoms: N5_17  and  C6_18 
REMARK    3  A    between atoms: C6_18  and  O3_19 
REMARK    4  A    between atoms: O3_19  and  C7_20 
REMARK    5  A    between atoms: C7_20  and  N6_21 
ROOT
HETATM    1  C1  UNL     1      21.162  -0.887  -2.108  1.00  0.00     0.174 A 
HETATM    2  C2  UNL     1      20.585  -1.433  -0.954  1.00  0.00     0.291 A 
HETATM    3  O1  UNL     1      19.347  -1.320  -0.742  1.00  0.00    -0.264 OA
HETATM    4  N2  UNL     1      21.412  -2.068  -0.110  1.00  0.00    -0.303 N 
ATOM      5  H2  UNL     1      21.017  -2.473   0.738  1.00  0.00     0.171 HD
HETATM    6  C3  UNL     1      22.734  -2.199  -0.319  1.00  0.00     0.157 A 
HETATM    7  N3  UNL     1      23.759  -2.768   0.344  1.00  0.00    -0.291 N 
ATOM      8  H3  UNL     1      23.670  -3.257   1.235  1.00  0.00     0.172 HD
HETATM    9  C4  UNL     1      24.913  -2.607  -0.325  1.00  0.00     0.327 A 
HETATM   10  O2  UNL     1      26.071  -3.014   0.006  1.00  0.00    -0.247 OA
HETATM   11  N4  UNL     1      24.597  -1.919  -1.434  1.00  0.00    -0.291 N 
ATOM     12  H4  UNL     1      25.266  -1.640  -2.152  1.00  0.00     0.172 HD
HETATM   13  C5  UNL     1      23.262  -1.646  -1.470  1.00  0.00     0.160 A 
HETATM   14  N5  UNL     1      22.473  -1.000  -2.345  1.00  0.00    -0.289 N 
ENDROOT
BRANCH  14  15
HETATM   15  C6  UNL     1      23.026  -0.432  -3.547  1.00  0.00     0.304 C 
BRANCH  15  16
HETATM   16  O3  UNL     1      23.987   0.547  -3.268  1.00  0.00    -0.345 OA
BRANCH  16  17
HETATM   17  C7  UNL     1      24.525   1.074  -4.439  1.00  0.00     0.398 C 
BRANCH  17  18
HETATM   18  N6  UNL     1      23.967   2.410  -4.599  1.00  0.00    -0.058 N 
ATOM     19  H63 UNL     1      22.949   2.413  -4.666  1.00  0.00     0.276 HD
ATOM     20  H62 UNL     1      24.043   2.979  -3.756  1.00  0.00     0.276 HD
ATOM     21  H61 UNL     1      24.424   2.829  -5.409  1.00  0.00     0.276 HD
ENDBRANCH  17  18
ENDBRANCH  16  17
ENDBRANCH  15  16
ENDBRANCH  14  15
BRANCH   1  22
HETATM   22  N1  UNL     1      20.320  -0.282  -2.884  1.00  0.00    -0.381 N 
ATOM     23  H12 UNL     1      20.292   0.725  -3.041  1.00  0.00     0.157 HD
ATOM     24  H11 UNL     1      19.657  -0.906  -3.344  1.00  0.00     0.157 HD
ENDBRANCH   1  22
TORSDOF 5
ENDMDL
MODEL 2
REMARK VINA RESULT: -4.893764575      2.678      3.360
REMARK  5 active torsions:
REMARK  status: ('A' for Active; 'I' for Inactive)
REMARK    1  A    between atoms: N1_1  and  C1_4 
REMARK    2  A    between atoms: N5_17  and  C6_18 
REMARK    3  A    between atoms: C6_18  and  O3_19 
REMARK    4  A    between atoms: O3_19  and  C7_20 
REMARK    5  A    between atoms: C7_20  and  N6_21 
ROOT
HETATM    1  C1  UNL     1      20.711  -1.891  -1.611  1.00  0.00     0.174 A 
HETATM    2  C2  UNL     1      20.685  -1.541  -0.254  1.00  0.00     0.291 A 
HETATM    3  O1  UNL     1      19.704  -0.911   0.226  1.00  0.00    -0.264 OA
HETATM    4  N2  UNL     1      21.743  -1.912   0.483  1.00  0.00    -0.303 N 
ATOM      5  H2  UNL     1      21.749  -1.668   1.473  1.00  0.00     0.171 HD
HETATM    6  C3  UNL     1      22.797  -2.586  -0.011  1.00  0.00     0.157 A 
HETATM    7  N3  UNL     1      23.951  -3.064   0.492  1.00  0.00    -0.291 N 
ATOM      8  H3  UNL     1      24.239  -2.973   1.467  1.00  0.00     0.172 HD
HETATM    9  C4  UNL     1      24.673  -3.678  -0.461  1.00  0.00     0.327 A 
HETATM   10  O2  UNL     1      25.806  -4.242  -0.341  1.00  0.00    -0.247 OA
HETATM   11  N4  UNL     1      23.947  -3.579  -1.586  1.00  0.00    -0.291 N 
ATOM     12  H4  UNL     1      24.230  -3.952  -2.493  1.00  0.00     0.172 HD
HETATM   13  C5  UNL     1      22.782  -2.911  -1.353  1.00  0.00     0.160 A 
HETATM   14  N5  UNL     1      21.744  -2.561  -2.133  1.00  0.00    -0.289 N 
ENDROOT
BRANCH  14  15
HETATM   15  C6  UNL     1      21.729  -2.908  -3.530  1.00  0.00     0.304 C 
BRANCH  15  16
HETATM   16  O3  UNL     1      20.576  -3.621  -3.878  1.00  0.00    -0.345 OA
BRANCH  16  17
HETATM   17  C7  UNL     1      20.823  -4.494  -4.935  1.00  0.00     0.398 C 
BRANCH  17  18
HETATM   18  N6  UNL     1      20.105  -5.727  -4.645  1.00  0.00    -0.058 N 
ATOM     19  H63 UNL     1      20.700  -6.554  -4.677  1.00  0.00     0.276 HD
ATOM     20  H62 UNL     1      19.824  -5.806  -3.668  1.00  0.00     0.276 HD
ATOM     21  H61 UNL     1      19.318  -5.773  -5.293  1.00  0.00     0.276 HD
ENDBRANCH  17  18
ENDBRANCH  16  17
ENDBRANCH  15  16
ENDBRANCH  14  15
BRANCH   1  22
HETATM   22  N1  UNL     1      19.669  -1.505  -2.276  1.00  0.00    -0.381 N 
ATOM     23  H12 UNL     1      18.865  -1.026  -1.871  1.00  0.00     0.157 HD
ATOM     24  H11 UNL     1      19.706  -1.726  -3.271  1.00  0.00     0.157 HD
ENDBRANCH   1  22
TORSDOF 5
ENDMDL
MODEL 3
REMARK VINA RESULT: -4.800113310      1.381      1.563
REMARK  5 active torsions:
REMARK  status: ('A' for Active; 'I' for Inactive)
REMARK    1  A    between atoms: N1_1  and  C1_4 
REMARK    2  A    between atoms: N5_17  and  C6_18 
REMARK    3  A    between atoms: C6_18  and  O3_19 
REMARK    4  A    between atoms: O3_19  and  C7_20 
REMARK    5  A    between atoms: C7_20  and  N6_21 
ROOT
HETATM    1  C1  UNL     1      21.100  -0.895  -1.893  1.00  0.00     0.174 A 
HETATM    2  C2  UNL     1      20.600  -1.365  -0.671  1.00  0.00     0.291 A 
HETATM    3  O1  UNL     1      19.390  -1.185  -0.362  1.00  0.00    -0.264 OA
HETATM    4  N2  UNL     1      21.468  -2.002   0.129  1.00  0.00    -0.303 N 
ATOM      5  H2  UNL     1      21.129  -2.352   1.025  1.00  0.00     0.171 HD
HETATM    6  C3  UNL     1      22.760  -2.204  -0.183  1.00  0.00     0.157 A 
HETATM    7  N3  UNL     1      23.812  -2.792   0.417  1.00  0.00    -0.291 N 
ATOM      8  H3  UNL     1      23.779  -3.238   1.334  1.00  0.00     0.172 HD
HETATM    9  C4  UNL     1      24.911  -2.713  -0.352  1.00  0.00     0.327 A 
HETATM   10  O2  UNL     1      26.075  -3.160  -0.101  1.00  0.00    -0.247 OA
HETATM   11  N4  UNL     1      24.532  -2.059  -1.461  1.00  0.00    -0.291 N 
ATOM     12  H4  UNL     1      25.148  -1.841  -2.244  1.00  0.00     0.172 HD
HETATM   13  C5  UNL     1      23.211  -1.725  -1.398  1.00  0.00     0.160 A 
HETATM   14  N5  UNL     1      22.380  -1.080  -2.233  1.00  0.00    -0.289 N 
ENDROOT
BRANCH  14  15
HETATM   15  C6  UNL     1      22.852  -0.589  -3.501  1.00  0.00     0.304 C 
BRANCH  15  16
HETATM   16  O3  UNL     1      23.375  -1.614  -4.297  1.00  0.00    -0.345 OA
BRANCH  16  17
HETATM   17  C7  UNL     1      22.424  -2.089  -5.198  1.00  0.00     0.398 C 
BRANCH  17  18
HETATM   18  N6  UNL     1      21.767  -0.924  -5.775  1.00  0.00    -0.058 N 
ATOM     19  H63 UNL     1      21.547  -0.206  -5.086  1.00  0.00     0.276 HD
ATOM     20  H62 UNL     1      22.388  -0.361  -6.356  1.00  0.00     0.276 HD
ATOM     21  H61 UNL     1      20.946  -1.264  -6.277  1.00  0.00     0.276 HD
ENDBRANCH  17  18
ENDBRANCH  16  17
ENDBRANCH  15  16
ENDBRANCH  14  15
BRANCH   1  22
HETATM   22  N1  UNL     1      20.221  -0.285  -2.623  1.00  0.00    -0.381 N 
ATOM     23  H12 UNL     1      19.627  -0.735  -3.318  1.00  0.00     0.157 HD
ATOM     24  H11 UNL     1      20.164   0.719  -2.451  1.00  0.00     0.157 HD
ENDBRANCH   1  22
TORSDOF 5
ENDMDL
MODEL 4
REMARK VINA RESULT: -4.776910363      2.055      4.130
REMARK  5 active torsions:
REMARK  status: ('A' for Active; 'I' for Inactive)
REMARK    1  A    between atoms: N1_1  and  C1_4 
REMARK    2  A    between atoms: N5_17  and  C6_18 
REMARK    3  A    between atoms: C6_18  and  O3_19 
REMARK    4  A    between atoms: O3_19  and  C7_20 
REMARK    5  A    between atoms: C7_20  and  N6_21 
ROOT
HETATM    1  C1  UNL     1      21.603  -1.684  -0.865  1.00  0.00     0.174 A 
HETATM    2  C2  UNL     1      20.224  -1.647  -1.111  1.00  0.00     0.291 A 
HETATM    3  O1  UNL     1      19.401  -1.753  -0.162  1.00  0.00    -0.264 OA
HETATM    4  N2  UNL     1      19.845  -1.494  -2.389  1.00  0.00    -0.303 N 
ATOM      5  H2  UNL     1      18.846  -1.465  -2.595  1.00  0.00     0.171 HD
HETATM    6  C3  UNL     1      20.707  -1.377  -3.415  1.00  0.00     0.157 A 
HETATM    7  N3  UNL     1      20.598  -1.219  -4.747  1.00  0.00    -0.291 N 
ATOM      8  H3  UNL     1      19.713  -1.155  -5.251  1.00  0.00     0.172 HD
HETATM    9  C4  UNL     1      21.810  -1.158  -5.325  1.00  0.00     0.327 A 
HETATM   10  O2  UNL     1      22.080  -1.014  -6.559  1.00  0.00    -0.247 OA
HETATM   11  N4  UNL     1      22.696  -1.281  -4.324  1.00  0.00    -0.291 N 
ATOM     12  H4  UNL     1      23.709  -1.271  -4.444  1.00  0.00     0.172 HD
HETATM   13  C5  UNL     1      22.057  -1.419  -3.127  1.00  0.00     0.160 A 
HETATM   14  N5  UNL     1      22.486  -1.571  -1.863  1.00  0.00    -0.289 N 
ENDROOT
BRANCH  14  15
HETATM   15  C6  UNL     1      23.895  -1.606  -1.567  1.00  0.00     0.304 C 
BRANCH  15  16
HETATM   16  O3  UNL     1      24.324  -0.438  -0.926  1.00  0.00    -0.345 OA
BRANCH  16  17
HETATM   17  C7  UNL     1      25.630  -0.568  -0.463  1.00  0.00     0.398 C 
BRANCH  17  18
HETATM   18  N6  UNL     1      25.727  -1.872   0.178  1.00  0.00    -0.058 N 
ATOM     19  H63 UNL     1      25.552  -1.839   1.183  1.00  0.00     0.276 HD
ATOM     20  H62 UNL     1      24.958  -2.496  -0.067  1.00  0.00     0.276 HD
ATOM     21  H61 UNL     1      26.643  -2.253  -0.058  1.00  0.00     0.276 HD
ENDBRANCH  17  18
ENDBRANCH  16  17
ENDBRANCH  15  16
ENDBRANCH  14  15
BRANCH   1  22
HETATM   22  N1  UNL     1      21.912  -1.838   0.382  1.00  0.00    -0.381 N 
ATOM     23  H12 UNL     1      22.861  -1.959   0.737  1.00  0.00     0.157 HD
ATOM     24  H11 UNL     1      21.111  -1.834   1.013  1.00  0.00     0.157 HD
ENDBRANCH   1  22
TORSDOF 5
ENDMDL
MODEL 5
REMARK VINA RESULT: -4.774768317      2.669      4.141
REMARK  5 active torsions:
REMARK  status: ('A' for Active; 'I' for Inactive)
REMARK    1  A    between atoms: N1_1  and  C1_4 
REMARK    2  A    between atoms: N5_17  and  C6_18 
REMARK    3  A    between atoms: C6_18  and  O3_19 
REMARK    4  A    between atoms: O3_19  and  C7_20 
REMARK    5  A    between atoms: C7_20  and  N6_21 
ROOT
HETATM    1  C1  UNL     1      22.554  -3.564  -3.297  1.00  0.00     0.174 A 
HETATM    2  C2  UNL     1      23.588  -3.632  -2.353  1.00  0.00     0.291 A 
HETATM    3  O1  UNL     1      24.683  -4.188  -2.641  1.00  0.00    -0.264 OA
HETATM    4  N2  UNL     1      23.344  -3.082  -1.154  1.00  0.00    -0.303 N 
ATOM      5  H2  UNL     1      24.080  -3.120  -0.448  1.00  0.00     0.171 HD
HETATM    6  C3  UNL     1      22.184  -2.484  -0.829  1.00  0.00     0.157 A 
HETATM    7  N3  UNL     1      21.693  -1.873   0.265  1.00  0.00    -0.291 N 
ATOM      8  H3  UNL     1      22.205  -1.754   1.140  1.00  0.00     0.172 HD
HETATM    9  C4  UNL     1      20.439  -1.439   0.052  1.00  0.00     0.327 A 
HETATM   10  O2  UNL     1      19.677  -0.823   0.862  1.00  0.00    -0.247 OA
HETATM   11  N4  UNL     1      20.143  -1.791  -1.209  1.00  0.00    -0.291 N 
ATOM     12  H4  UNL     1      19.253  -1.598  -1.670  1.00  0.00     0.172 HD
HETATM   13  C5  UNL     1      21.193  -2.439  -1.790  1.00  0.00     0.160 A 
HETATM   14  N5  UNL     1      21.389  -2.977  -3.006  1.00  0.00    -0.289 N 
ENDROOT
BRANCH  14  15
HETATM   15  C6  UNL     1      20.356  -2.921  -4.006  1.00  0.00     0.304 C 
BRANCH  15  16
HETATM   16  O3  UNL     1      20.142  -1.616  -4.465  1.00  0.00    -0.345 OA
BRANCH  16  17
HETATM   17  C7  UNL     1      20.564  -1.469  -5.784  1.00  0.00     0.398 C 
BRANCH  17  18
HETATM   18  N6  UNL     1      21.845  -0.778  -5.747  1.00  0.00    -0.058 N 
ATOM     19  H63 UNL     1      22.635  -1.388  -5.957  1.00  0.00     0.276 HD
ATOM     20  H62 UNL     1      21.972  -0.129  -6.522  1.00  0.00     0.276 HD
ATOM     21  H61 UNL     1      21.916  -0.331  -4.833  1.00  0.00     0.276 HD
ENDBRANCH  17  18
ENDBRANCH  16  17
ENDBRANCH  15  16
ENDBRANCH  14  15
BRANCH   1  22
HETATM   22  N1  UNL     1      22.841  -4.114  -4.434  1.00  0.00    -0.381 N 
ATOM     23  H12 UNL     1      22.350  -3.933  -5.309  1.00  0.00     0.157 HD
ATOM     24  H11 UNL     1      23.621  -4.770  -4.393  1.00  0.00     0.157 HD
ENDBRANCH   1  22
TORSDOF 5
ENDMDL
