MODEL 1
REMARK VINA RESULT: -8.390893586      0.000      0.000
REMARK  7 active torsions:
REMARK  status: ('A' for Active; 'I' for Inactive)
REMARK    1  A    between atoms: C2_2  and  N1_3 
REMARK    2  A    between atoms: N1_3  and  C3_5 
REMARK    3  A    between atoms: C4_8  and  N3_9 
REMARK    4  A    between atoms: N3_9  and  N4_11 
REMARK    5  A    between atoms: N4_11  and  C5_13 
REMARK    6  A    between atoms: C5_13  and  C6_14 
REMARK    7  A    between atoms: C8_18  and  C9_19 
ROOT
HETATM    1  C3  UNL     1      16.027  -9.400 -26.636  1.00  0.00     0.141 A 
HETATM    2  N2  UNL     1      15.173 -10.347 -27.049  1.00  0.00    -0.174 N 
ATOM      3  H2  UNL     1      15.496 -11.312 -27.109  1.00  0.00     0.186 HD
HETATM    4  C4  UNL     1      13.896 -10.061 -27.387  1.00  0.00     0.699 A 
HETATM    5  N7  UNL     1      13.407  -8.788 -27.326  1.00  0.00    -0.179 N 
ATOM      6  H7  UNL     1      12.440  -8.592 -27.585  1.00  0.00     0.185 HD
HETATM    7  C11 UNL     1      14.212  -7.808 -26.924  1.00  0.00     0.154 A 
HETATM    8  C12 UNL     1      13.726  -6.439 -26.846  1.00  0.00     0.120 C 
HETATM    9  N8  UNL     1      13.337  -5.350 -26.793  1.00  0.00    -0.190 NA
HETATM   10  C13 UNL     1      15.515  -8.102 -26.579  1.00  0.00     0.126 A 
HETATM   11  C14 UNL     1      16.357  -7.032 -26.150  1.00  0.00     0.106 C 
HETATM   12  N9  UNL     1      17.030  -6.166 -25.799  1.00  0.00    -0.191 NA
ENDROOT
BRANCH   4  13
HETATM   13  N3  UNL     1      13.151 -11.032 -27.771  1.00  0.00    -0.132 N 
ATOM     14  H3  UNL     1      12.910 -11.746 -27.083  1.00  0.00     0.205 HD
BRANCH  13  15
HETATM   15  N4  UNL     1      12.656 -11.178 -29.044  1.00  0.00    -0.295 N 
ATOM     16  H4  UNL     1      13.210 -11.725 -29.703  1.00  0.00     0.186 HD
BRANCH  15  17
HETATM   17  C5  UNL     1      11.553 -10.680 -29.471  1.00  0.00     0.138 C 
BRANCH  17  18
HETATM   18  C6  UNL     1      10.353 -10.638 -28.659  1.00  0.00     0.066 A 
HETATM   19  C7  UNL     1       9.283 -11.524 -28.745  1.00  0.00     0.120 A 
HETATM   20  N5  UNL     1       8.356 -11.170 -27.836  1.00  0.00    -0.353 N 
HETATM   21  C8  UNL     1       8.803 -10.096 -27.181  1.00  0.00     0.081 A 
ATOM     22  H5  UNL     1       7.467 -11.642 -27.674  1.00  0.00     0.166 HD
HETATM   23  N6  UNL     1      10.009  -9.781 -27.683  1.00  0.00    -0.344 N 
ATOM     24  H6  UNL     1      10.583  -8.999 -27.368  1.00  0.00     0.167 HD
BRANCH  21  25
HETATM   25  C9  UNL     1       8.105  -9.348 -26.074  1.00  0.00     0.072 C 
HETATM   26  C10 UNL     1       7.005 -10.240 -25.538  1.00  0.00     0.013 C 
ENDBRANCH  21  25
ENDBRANCH  17  18
ENDBRANCH  15  17
ENDBRANCH  13  15
ENDBRANCH   4  13
BRANCH   1  27
HETATM   27  N1  UNL     1      17.241  -9.611 -26.305  1.00  0.00    -0.375 N 
ATOM     28  H1  UNL     1      17.976  -9.225 -26.898  1.00  0.00     0.161 HD
BRANCH  27  29
HETATM   29  C2  UNL     1      17.628 -10.359 -25.150  1.00  0.00     0.116 C 
HETATM   30  C1  UNL     1      18.311  -9.455 -24.149  1.00  0.00     0.026 C 
ENDBRANCH  27  29
ENDBRANCH   1  27
TORSDOF 7
ENDMDL
MODEL 2
REMARK VINA RESULT: -8.259878519      1.169      3.162
REMARK  7 active torsions:
REMARK  status: ('A' for Active; 'I' for Inactive)
REMARK    1  A    between atoms: C2_2  and  N1_3 
REMARK    2  A    between atoms: N1_3  and  C3_5 
REMARK    3  A    between atoms: C4_8  and  N3_9 
REMARK    4  A    between atoms: N3_9  and  N4_11 
REMARK    5  A    between atoms: N4_11  and  C5_13 
REMARK    6  A    between atoms: C5_13  and  C6_14 
REMARK    7  A    between atoms: C8_18  and  C9_19 
ROOT
HETATM    1  C3  UNL     1      14.746  -7.690 -27.523  1.00  0.00     0.141 A 
HETATM    2  N2  UNL     1      13.871  -8.700 -27.616  1.00  0.00    -0.174 N 
ATOM      3  H2  UNL     1      12.916  -8.501 -27.913  1.00  0.00     0.186 HD
HETATM    4  C4  UNL     1      14.214  -9.974 -27.329  1.00  0.00     0.699 A 
HETATM    5  N7  UNL     1      15.478 -10.302 -26.927  1.00  0.00    -0.179 N 
ATOM      6  H7  UNL     1      15.719 -11.270 -26.715  1.00  0.00     0.185 HD
HETATM    7  C11 UNL     1      16.388  -9.338 -26.817  1.00  0.00     0.154 A 
HETATM    8  C12 UNL     1      17.744  -9.649 -26.391  1.00  0.00     0.120 C 
HETATM    9  N8  UNL     1      18.820  -9.900 -26.045  1.00  0.00    -0.190 NA
HETATM   10  C13 UNL     1      16.034  -8.037 -27.111  1.00  0.00     0.126 A 
HETATM   11  C14 UNL     1      17.031  -7.022 -26.985  1.00  0.00     0.106 C 
HETATM   12  N9  UNL     1      17.840  -6.209 -26.887  1.00  0.00    -0.191 NA
ENDROOT
BRANCH   4  13
HETATM   13  N3  UNL     1      13.309 -10.875 -27.446  1.00  0.00    -0.132 N 
ATOM     14  H3  UNL     1      13.005 -11.355 -26.599  1.00  0.00     0.205 HD
BRANCH  13  15
HETATM   15  N4  UNL     1      12.722 -11.239 -28.634  1.00  0.00    -0.295 N 
ATOM     16  H4  UNL     1      13.157 -11.997 -29.159  1.00  0.00     0.186 HD
BRANCH  15  17
HETATM   17  C5  UNL     1      11.671 -10.701 -29.136  1.00  0.00     0.138 C 
BRANCH  17  18
HETATM   18  C6  UNL     1      10.412 -10.637 -28.419  1.00  0.00     0.066 A 
HETATM   19  C7  UNL     1       9.323 -11.480 -28.616  1.00  0.00     0.120 A 
HETATM   20  N5  UNL     1       8.339 -11.119 -27.771  1.00  0.00    -0.353 N 
HETATM   21  C8  UNL     1       8.770 -10.082 -27.050  1.00  0.00     0.081 A 
ATOM     22  H5  UNL     1       7.424 -11.562 -27.695  1.00  0.00     0.166 HD
HETATM   23  N6  UNL     1      10.021  -9.797 -27.447  1.00  0.00    -0.344 N 
ATOM     24  H6  UNL     1      10.596  -9.046 -27.063  1.00  0.00     0.167 HD
BRANCH  21  25
HETATM   25  C9  UNL     1       8.013  -9.340 -25.978  1.00  0.00     0.072 C 
HETATM   26  C10 UNL     1       6.831 -10.196 -25.573  1.00  0.00     0.013 C 
ENDBRANCH  21  25
ENDBRANCH  17  18
ENDBRANCH  15  17
ENDBRANCH  13  15
ENDBRANCH   4  13
BRANCH   1  27
HETATM   27  N1  UNL     1      14.477  -6.469 -27.781  1.00  0.00    -0.375 N 
ATOM     28  H1  UNL     1      14.593  -5.783 -27.035  1.00  0.00     0.161 HD
BRANCH  27  29
HETATM   29  C2  UNL     1      14.024  -6.010 -29.057  1.00  0.00     0.116 C 
HETATM   30  C1  UNL     1      15.192  -5.876 -30.007  1.00  0.00     0.026 C 
ENDBRANCH  27  29
ENDBRANCH   1  27
TORSDOF 7
ENDMDL
MODEL 3
REMARK VINA RESULT: -7.620202914      1.899      7.370
REMARK  7 active torsions:
REMARK  status: ('A' for Active; 'I' for Inactive)
REMARK    1  A    between atoms: C2_2  and  N1_3 
REMARK    2  A    between atoms: N1_3  and  C3_5 
REMARK    3  A    between atoms: C4_8  and  N3_9 
REMARK    4  A    between atoms: N3_9  and  N4_11 
REMARK    5  A    between atoms: N4_11  and  C5_13 
REMARK    6  A    between atoms: C5_13  and  C6_14 
REMARK    7  A    between atoms: C8_18  and  C9_19 
ROOT
HETATM    1  C3  UNL     1       8.843 -10.168 -27.751  1.00  0.00     0.141 A 
HETATM    2  N2  UNL     1       9.725  -9.259 -28.190  1.00  0.00    -0.174 N 
ATOM      3  H2  UNL     1      10.466  -9.555 -28.825  1.00  0.00     0.186 HD
HETATM    4  C4  UNL     1       9.664  -7.962 -27.816  1.00  0.00     0.699 A 
HETATM    5  N7  UNL     1       8.695  -7.507 -26.968  1.00  0.00    -0.179 N 
ATOM      6  H7  UNL     1       8.664  -6.524 -26.697  1.00  0.00     0.185 HD
HETATM    7  C11 UNL     1       7.793  -8.366 -26.501  1.00  0.00     0.154 A 
HETATM    8  C12 UNL     1       6.747  -7.918 -25.595  1.00  0.00     0.120 C 
HETATM    9  N8  UNL     1       5.920  -7.558 -24.869  1.00  0.00    -0.190 NA
HETATM   10  C13 UNL     1       7.859  -9.690 -26.884  1.00  0.00     0.126 A 
HETATM   11  C14 UNL     1       6.878 -10.591 -26.369  1.00  0.00     0.106 C 
HETATM   12  N9  UNL     1       6.081 -11.311 -25.954  1.00  0.00    -0.191 NA
ENDROOT
BRANCH   4  13
HETATM   13  N3  UNL     1      10.551  -7.165 -28.287  1.00  0.00    -0.132 N 
ATOM     14  H3  UNL     1      10.245  -6.240 -28.589  1.00  0.00     0.205 HD
BRANCH  13  15
HETATM   15  N4  UNL     1      11.885  -7.470 -28.412  1.00  0.00    -0.295 N 
ATOM     16  H4  UNL     1      12.218  -7.747 -29.335  1.00  0.00     0.186 HD
BRANCH  15  17
HETATM   17  C5  UNL     1      12.745  -7.436 -27.460  1.00  0.00     0.138 C 
BRANCH  17  18
HETATM   18  C6  UNL     1      13.768  -8.451 -27.299  1.00  0.00     0.066 A 
HETATM   19  C7  UNL     1      13.573  -9.824 -27.409  1.00  0.00     0.120 A 
HETATM   20  N5  UNL     1      14.747 -10.445 -27.197  1.00  0.00    -0.353 N 
HETATM   21  C8  UNL     1      15.673  -9.515 -26.958  1.00  0.00     0.081 A 
ATOM     22  H5  UNL     1      14.903 -11.453 -27.216  1.00  0.00     0.166 HD
HETATM   23  N6  UNL     1      15.075  -8.313 -27.022  1.00  0.00    -0.344 N 
ATOM     24  H6  UNL     1      15.547  -7.420 -26.879  1.00  0.00     0.167 HD
BRANCH  21  25
HETATM   25  C9  UNL     1      17.135  -9.737 -26.666  1.00  0.00     0.072 C 
HETATM   26  C10 UNL     1      17.245 -10.291 -25.260  1.00  0.00     0.013 C 
ENDBRANCH  21  25
ENDBRANCH  17  18
ENDBRANCH  15  17
ENDBRANCH  13  15
ENDBRANCH   4  13
BRANCH   1  27
HETATM   27  N1  UNL     1       8.854 -11.403 -28.070  1.00  0.00    -0.375 N 
ATOM     28  H1  UNL     1       8.369 -12.062 -27.461  1.00  0.00     0.161 HD
BRANCH  27  29
HETATM   29  C2  UNL     1       9.507 -11.915 -29.234  1.00  0.00     0.116 C 
HETATM   30  C1  UNL     1      10.782 -12.628 -28.844  1.00  0.00     0.026 C 
ENDBRANCH  27  29
ENDBRANCH   1  27
TORSDOF 7
ENDMDL
MODEL 4
REMARK VINA RESULT: -7.593263690      4.031      7.774
REMARK  7 active torsions:
REMARK  status: ('A' for Active; 'I' for Inactive)
REMARK    1  A    between atoms: C2_2  and  N1_3 
REMARK    2  A    between atoms: N1_3  and  C3_5 
REMARK    3  A    between atoms: C4_8  and  N3_9 
REMARK    4  A    between atoms: N3_9  and  N4_11 
REMARK    5  A    between atoms: N4_11  and  C5_13 
REMARK    6  A    between atoms: C5_13  and  C6_14 
REMARK    7  A    between atoms: C8_18  and  C9_19 
ROOT
HETATM    1  C3  UNL     1      15.300  -7.092 -26.263  1.00  0.00     0.141 A 
HETATM    2  N2  UNL     1      15.810  -5.989 -25.699  1.00  0.00    -0.174 N 
ATOM      3  H2  UNL     1      15.290  -5.114 -25.768  1.00  0.00     0.186 HD
HETATM    4  C4  UNL     1      16.990  -5.999 -25.042  1.00  0.00     0.699 A 
HETATM    5  N7  UNL     1      17.729  -7.140 -24.917  1.00  0.00    -0.179 N 
ATOM      6  H7  UNL     1      18.618  -7.129 -24.416  1.00  0.00     0.185 HD
HETATM    7  C11 UNL     1      17.272  -8.266 -25.458  1.00  0.00     0.154 A 
HETATM    8  C12 UNL     1      18.032  -9.501 -25.345  1.00  0.00     0.120 C 
HETATM    9  N8  UNL     1      18.644 -10.480 -25.259  1.00  0.00    -0.190 NA
HETATM   10  C13 UNL     1      16.066  -8.252 -26.128  1.00  0.00     0.126 A 
HETATM   11  C14 UNL     1      15.598  -9.475 -26.699  1.00  0.00     0.106 C 
HETATM   12  N9  UNL     1      15.222 -10.465 -27.153  1.00  0.00    -0.191 NA
ENDROOT
BRANCH   4  13
HETATM   13  N3  UNL     1      17.398  -4.894 -24.535  1.00  0.00    -0.132 N 
ATOM     14  H3  UNL     1      18.109  -4.941 -23.805  1.00  0.00     0.205 HD
BRANCH  13  15
HETATM   15  N4  UNL     1      16.943  -3.652 -24.906  1.00  0.00    -0.295 N 
ATOM     16  H4  UNL     1      16.931  -3.436 -25.903  1.00  0.00     0.186 HD
BRANCH  15  17
HETATM   17  C5  UNL     1      16.533  -2.742 -24.101  1.00  0.00     0.138 C 
BRANCH  17  18
HETATM   18  C6  UNL     1      15.125  -2.505 -23.847  1.00  0.00     0.066 A 
HETATM   19  C7  UNL     1      14.072  -2.942 -24.643  1.00  0.00     0.120 A 
HETATM   20  N5  UNL     1      12.914  -2.534 -24.091  1.00  0.00    -0.353 N 
HETATM   21  C8  UNL     1      13.200  -1.857 -22.977  1.00  0.00     0.081 A 
ATOM     22  H5  UNL     1      11.981  -2.712 -24.460  1.00  0.00     0.166 HD
HETATM   23  N6  UNL     1      14.536  -1.844 -22.836  1.00  0.00    -0.344 N 
ATOM     24  H6  UNL     1      15.035  -1.394 -22.068  1.00  0.00     0.167 HD
BRANCH  21  25
HETATM   25  C9  UNL     1      12.224  -1.211 -22.028  1.00  0.00     0.072 C 
HETATM   26  C10 UNL     1      13.024  -0.428 -21.007  1.00  0.00     0.013 C 
ENDBRANCH  21  25
ENDBRANCH  17  18
ENDBRANCH  15  17
ENDBRANCH  13  15
ENDBRANCH   4  13
BRANCH   1  27
HETATM   27  N1  UNL     1      14.192  -7.141 -26.895  1.00  0.00    -0.375 N 
ATOM     28  H1  UNL     1      13.477  -7.788 -26.563  1.00  0.00     0.161 HD
BRANCH  27  29
HETATM   29  C2  UNL     1      13.899  -6.339 -28.041  1.00  0.00     0.116 C 
HETATM   30  C1  UNL     1      14.662  -6.850 -29.243  1.00  0.00     0.026 C 
ENDBRANCH  27  29
ENDBRANCH   1  27
TORSDOF 7
ENDMDL
MODEL 5
REMARK VINA RESULT: -7.546396713      1.546      3.546
REMARK  7 active torsions:
REMARK  status: ('A' for Active; 'I' for Inactive)
REMARK    1  A    between atoms: C2_2  and  N1_3 
REMARK    2  A    between atoms: N1_3  and  C3_5 
REMARK    3  A    between atoms: C4_8  and  N3_9 
REMARK    4  A    between atoms: N3_9  and  N4_11 
REMARK    5  A    between atoms: N4_11  and  C5_13 
REMARK    6  A    between atoms: C5_13  and  C6_14 
REMARK    7  A    between atoms: C8_18  and  C9_19 
ROOT
HETATM    1  C3  UNL     1      13.682  -8.300 -28.371  1.00  0.00     0.141 A 
HETATM    2  N2  UNL     1      12.812  -9.319 -28.419  1.00  0.00    -0.174 N 
ATOM      3  H2  UNL     1      11.927  -9.190 -28.909  1.00  0.00     0.186 HD
HETATM    4  C4  UNL     1      13.073 -10.511 -27.840  1.00  0.00     0.699 A 
HETATM    5  N7  UNL     1      14.241 -10.742 -27.172  1.00  0.00    -0.179 N 
ATOM      6  H7  UNL     1      14.420 -11.649 -26.741  1.00  0.00     0.185 HD
HETATM    7  C11 UNL     1      15.140  -9.765 -27.091  1.00  0.00     0.154 A 
HETATM    8  C12 UNL     1      16.396  -9.975 -26.387  1.00  0.00     0.120 C 
HETATM    9  N8  UNL     1      17.391 -10.144 -25.820  1.00  0.00    -0.190 NA
HETATM   10  C13 UNL     1      14.872  -8.549 -27.684  1.00  0.00     0.126 A 
HETATM   11  C14 UNL     1      15.855  -7.518 -27.583  1.00  0.00     0.106 C 
HETATM   12  N9  UNL     1      16.654  -6.692 -27.504  1.00  0.00    -0.191 NA
ENDROOT
BRANCH   4  13
HETATM   13  N3  UNL     1      12.181 -11.428 -27.938  1.00  0.00    -0.132 N 
ATOM     14  H3  UNL     1      12.136 -12.127 -27.198  1.00  0.00     0.205 HD
BRANCH  13  15
HETATM   15  N4  UNL     1      11.283 -11.532 -28.973  1.00  0.00    -0.295 N 
ATOM     16  H4  UNL     1      11.659 -11.544 -29.921  1.00  0.00     0.186 HD
BRANCH  15  17
HETATM   17  C5  UNL     1      10.009 -11.616 -28.843  1.00  0.00     0.138 C 
BRANCH  17  18
HETATM   18  C6  UNL     1       9.227 -10.597 -28.170  1.00  0.00     0.066 A 
HETATM   19  C7  UNL     1       9.287  -9.230 -28.421  1.00  0.00     0.120 A 
HETATM   20  N5  UNL     1       8.420  -8.602 -27.607  1.00  0.00    -0.353 N 
HETATM   21  C8  UNL     1       7.816  -9.523 -26.853  1.00  0.00     0.081 A 
ATOM     22  H5  UNL     1       8.252  -7.597 -27.571  1.00  0.00     0.166 HD
HETATM   23  N6  UNL     1       8.307 -10.725 -27.199  1.00  0.00    -0.344 N 
ATOM     24  H6  UNL     1       8.023 -11.611 -26.782  1.00  0.00     0.167 HD
BRANCH  21  25
HETATM   25  C9  UNL     1       6.767  -9.291 -25.796  1.00  0.00     0.072 C 
HETATM   26  C10 UNL     1       6.199 -10.640 -25.406  1.00  0.00     0.013 C 
ENDBRANCH  21  25
ENDBRANCH  17  18
ENDBRANCH  15  17
ENDBRANCH  13  15
ENDBRANCH   4  13
BRANCH   1  27
HETATM   27  N1  UNL     1      13.489  -7.154 -28.899  1.00  0.00    -0.375 N 
ATOM     28  H1  UNL     1      14.279  -6.511 -28.955  1.00  0.00     0.161 HD
BRANCH  27  29
HETATM   29  C2  UNL     1      12.228  -6.722 -29.415  1.00  0.00     0.116 C 
HETATM   30  C1  UNL     1      11.473  -5.943 -28.361  1.00  0.00     0.026 C 
ENDBRANCH  27  29
ENDBRANCH   1  27
TORSDOF 7
ENDMDL
