MODEL 1
REMARK VINA RESULT: -8.099053545      0.000      0.000
REMARK  7 active torsions:
REMARK  status: ('A' for Active; 'I' for Inactive)
REMARK    1  A    between atoms: C2_2  and  C3_3 
REMARK    2  A    between atoms: C3_3  and  C4_4 
REMARK    3  A    between atoms: C4_4  and  C5_5 
REMARK       I    between atoms: C5_5  and  N1_7 
REMARK    4  A    between atoms: N1_7  and  C6_9 
REMARK    5  A    between atoms: C6_9  and  N2_11 
REMARK    6  A    between atoms: N2_11  and  N3_13 
REMARK       I    between atoms: N3_13  and  C7_15 
REMARK    7  A    between atoms: C7_15  and  C8_17 
ROOT
HETATM    1  N3  UNL     1      14.322  -8.318 -27.772  1.00  0.00    -0.262 N 
ATOM      2  H3  UNL     1      14.912  -8.866 -28.398  1.00  0.00     0.190 HD
HETATM    3  C7  UNL     1      14.890  -7.677 -26.660  1.00  0.00     0.288 C 
HETATM    4  O2  UNL     1      14.187  -7.004 -25.885  1.00  0.00    -0.264 OA
ENDROOT
BRANCH   1   5
HETATM    5  N2  UNL     1      12.962  -8.208 -28.025  1.00  0.00    -0.273 N 
ATOM      6  H2  UNL     1      12.556  -7.282 -28.157  1.00  0.00     0.189 HD
BRANCH   5   7
HETATM    7  C6  UNL     1      12.125  -9.337 -28.104  1.00  0.00     0.193 C 
HETATM    8  S1  UNL     1      12.703 -10.768 -28.586  1.00  0.00    -0.039 SA
BRANCH   7   9
HETATM    9  N1  UNL     1      10.759  -9.220 -27.752  1.00  0.00    -0.303 N 
HETATM   10  C5  UNL     1      10.306  -8.885 -26.454  1.00  0.00     0.223 C 
HETATM   11  O1  UNL     1      11.166  -8.672 -25.549  1.00  0.00    -0.273 OA
ATOM     12  H1  UNL     1      10.061  -9.385 -28.477  1.00  0.00     0.171 HD
BRANCH  10  13
HETATM   13  C4  UNL     1       8.855  -8.792 -26.191  1.00  0.00     0.103 C 
BRANCH  13  14
HETATM   14  C3  UNL     1       8.129 -10.088 -26.510  1.00  0.00     0.009 C 
BRANCH  14  15
HETATM   15  C2  UNL     1       6.954 -10.173 -25.537  1.00  0.00    -0.004 C 
HETATM   16  C1  UNL     1       6.239  -8.852 -25.406  1.00  0.00     0.005 C 
ENDBRANCH  14  15
ENDBRANCH  13  14
ENDBRANCH  10  13
ENDBRANCH   7   9
ENDBRANCH   5   7
ENDBRANCH   1   5
BRANCH   3  17
HETATM   17  C8  UNL     1      16.315  -7.804 -26.411  1.00  0.00     0.127 A 
HETATM   18  N4  UNL     1      16.796  -8.924 -25.816  1.00  0.00    -0.339 N 
HETATM   19  C9  UNL     1      18.084  -9.105 -25.556  1.00  0.00     0.092 A 
ATOM     20  H4  UNL     1      16.138  -9.660 -25.558  1.00  0.00     0.167 HD
HETATM   21  C10 UNL     1      18.611 -10.352 -24.897  1.00  0.00     0.090 C 
HETATM   22  N5  UNL     1      18.947  -8.109 -25.910  1.00  0.00    -0.289 N 
HETATM   23  N6  UNL     1      18.486  -7.021 -26.488  1.00  0.00    -0.301 N 
ATOM     24  H5  UNL     1      19.945  -8.207 -25.728  1.00  0.00     0.188 HD
HETATM   25  C11 UNL     1      17.190  -6.800 -26.768  1.00  0.00     0.054 A 
ATOM     26  H6  UNL     1      19.157  -6.295 -26.740  1.00  0.00     0.186 HD
HETATM   27  C12 UNL     1      16.772  -5.538 -27.428  1.00  0.00     0.072 C 
ENDBRANCH   3  17
TORSDOF 7
ENDMDL
MODEL 2
REMARK VINA RESULT: -7.886864883      1.131      1.131
REMARK  7 active torsions:
REMARK  status: ('A' for Active; 'I' for Inactive)
REMARK    1  A    between atoms: C2_2  and  C3_3 
REMARK    2  A    between atoms: C3_3  and  C4_4 
REMARK    3  A    between atoms: C4_4  and  C5_5 
REMARK       I    between atoms: C5_5  and  N1_7 
REMARK    4  A    between atoms: N1_7  and  C6_9 
REMARK    5  A    between atoms: C6_9  and  N2_11 
REMARK    6  A    between atoms: N2_11  and  N3_13 
REMARK       I    between atoms: N3_13  and  C7_15 
REMARK    7  A    between atoms: C7_15  and  C8_17 
ROOT
HETATM    1  N3  UNL     1      13.695  -8.571 -27.301  1.00  0.00    -0.262 N 
ATOM      2  H3  UNL     1      13.511  -9.024 -26.405  1.00  0.00     0.190 HD
HETATM    3  C7  UNL     1      14.927  -7.934 -27.521  1.00  0.00     0.288 C 
HETATM    4  O2  UNL     1      15.171  -7.377 -28.606  1.00  0.00    -0.264 OA
ENDROOT
BRANCH   1   5
HETATM    5  N2  UNL     1      12.728  -8.588 -28.295  1.00  0.00    -0.273 N 
ATOM      6  H2  UNL     1      12.693  -7.820 -28.964  1.00  0.00     0.189 HD
BRANCH   5   7
HETATM    7  C6  UNL     1      11.793  -9.635 -28.408  1.00  0.00     0.193 C 
HETATM    8  S1  UNL     1      12.199 -11.042 -29.092  1.00  0.00    -0.039 SA
BRANCH   7   9
HETATM    9  N1  UNL     1      10.480  -9.454 -27.912  1.00  0.00    -0.303 N 
HETATM   10  C5  UNL     1      10.186  -9.065 -26.584  1.00  0.00     0.223 C 
HETATM   11  O1  UNL     1      11.149  -8.859 -25.786  1.00  0.00    -0.273 OA
ATOM     12  H1  UNL     1       9.700  -9.614 -28.549  1.00  0.00     0.171 HD
BRANCH  10  13
HETATM   13  C4  UNL     1       8.778  -8.908 -26.166  1.00  0.00     0.103 C 
BRANCH  13  14
HETATM   14  C3  UNL     1       7.926 -10.104 -26.558  1.00  0.00     0.009 C 
BRANCH  14  15
HETATM   15  C2  UNL     1       6.813 -10.199 -25.514  1.00  0.00    -0.004 C 
HETATM   16  C1  UNL     1       6.095  -8.884 -25.340  1.00  0.00     0.005 C 
ENDBRANCH  14  15
ENDBRANCH  13  14
ENDBRANCH  10  13
ENDBRANCH   7   9
ENDBRANCH   5   7
ENDBRANCH   1   5
BRANCH   3  17
HETATM   17  C8  UNL     1      15.927  -7.927 -26.468  1.00  0.00     0.127 A 
HETATM   18  N4  UNL     1      16.650  -9.047 -26.222  1.00  0.00    -0.339 N 
HETATM   19  C9  UNL     1      17.577  -9.113 -25.274  1.00  0.00     0.092 A 
ATOM     20  H4  UNL     1      16.475  -9.876 -26.790  1.00  0.00     0.167 HD
HETATM   21  C10 UNL     1      18.377 -10.359 -25.006  1.00  0.00     0.090 C 
HETATM   22  N5  UNL     1      17.797  -7.992 -24.526  1.00  0.00    -0.289 N 
HETATM   23  N6  UNL     1      17.098  -6.903 -24.761  1.00  0.00    -0.301 N 
ATOM     24  H5  UNL     1      18.499  -8.000 -23.788  1.00  0.00     0.188 HD
HETATM   25  C11 UNL     1      16.152  -6.797 -25.710  1.00  0.00     0.054 A 
ATOM     26  H6  UNL     1      17.287  -6.083 -24.185  1.00  0.00     0.186 HD
HETATM   27  C12 UNL     1      15.423  -5.518 -25.900  1.00  0.00     0.072 C 
ENDBRANCH   3  17
TORSDOF 7
ENDMDL
MODEL 3
REMARK VINA RESULT: -7.731808388      1.696      2.599
REMARK  7 active torsions:
REMARK  status: ('A' for Active; 'I' for Inactive)
REMARK    1  A    between atoms: C2_2  and  C3_3 
REMARK    2  A    between atoms: C3_3  and  C4_4 
REMARK    3  A    between atoms: C4_4  and  C5_5 
REMARK       I    between atoms: C5_5  and  N1_7 
REMARK    4  A    between atoms: N1_7  and  C6_9 
REMARK    5  A    between atoms: C6_9  and  N2_11 
REMARK    6  A    between atoms: N2_11  and  N3_13 
REMARK       I    between atoms: N3_13  and  C7_15 
REMARK    7  A    between atoms: C7_15  and  C8_17 
ROOT
HETATM    1  N3  UNL     1      13.170  -7.745 -26.656  1.00  0.00    -0.262 N 
ATOM      2  H3  UNL     1      13.025  -7.722 -25.647  1.00  0.00     0.190 HD
HETATM    3  C7  UNL     1      14.379  -7.282 -27.199  1.00  0.00     0.288 C 
HETATM    4  O2  UNL     1      14.576  -7.303 -28.427  1.00  0.00    -0.264 OA
ENDROOT
BRANCH   1   5
HETATM    5  N2  UNL     1      12.173  -8.236 -27.486  1.00  0.00    -0.273 N 
ATOM      6  H2  UNL     1      11.713  -7.600 -28.137  1.00  0.00     0.189 HD
BRANCH   5   7
HETATM    7  C6  UNL     1      11.776  -9.586 -27.457  1.00  0.00     0.193 C 
HETATM    8  S1  UNL     1      12.868 -10.772 -27.339  1.00  0.00    -0.039 SA
BRANCH   7   9
HETATM    9  N1  UNL     1      10.399  -9.911 -27.527  1.00  0.00    -0.303 N 
HETATM   10  C5  UNL     1       9.406  -9.309 -26.720  1.00  0.00     0.223 C 
HETATM   11  O1  UNL     1       9.758  -8.423 -25.886  1.00  0.00    -0.273 OA
ATOM     12  H1  UNL     1      10.107 -10.620 -28.200  1.00  0.00     0.171 HD
BRANCH  10  13
HETATM   13  C4  UNL     1       7.996  -9.723 -26.871  1.00  0.00     0.103 C 
BRANCH  13  14
HETATM   14  C3  UNL     1       7.384 -10.167 -25.553  1.00  0.00     0.009 C 
BRANCH  14  15
HETATM   15  C2  UNL     1       6.046  -9.438 -25.433  1.00  0.00    -0.004 C 
HETATM   16  C1  UNL     1       6.231  -7.946 -25.320  1.00  0.00     0.005 C 
ENDBRANCH  14  15
ENDBRANCH  13  14
ENDBRANCH  10  13
ENDBRANCH   7   9
ENDBRANCH   5   7
ENDBRANCH   1   5
BRANCH   3  17
HETATM   17  C8  UNL     1      15.412  -6.771 -26.314  1.00  0.00     0.127 A 
HETATM   18  N4  UNL     1      15.409  -5.460 -25.966  1.00  0.00    -0.339 N 
HETATM   19  C9  UNL     1      16.323  -4.926 -25.166  1.00  0.00     0.092 A 
ATOM     20  H4  UNL     1      14.672  -4.859 -26.336  1.00  0.00     0.167 HD
HETATM   21  C10 UNL     1      16.313  -3.470 -24.783  1.00  0.00     0.090 C 
HETATM   22  N5  UNL     1      17.299  -5.748 -24.683  1.00  0.00    -0.289 N 
HETATM   23  N6  UNL     1      17.305  -7.020 -25.017  1.00  0.00    -0.301 N 
ATOM     24  H5  UNL     1      18.020  -5.378 -24.065  1.00  0.00     0.188 HD
HETATM   25  C11 UNL     1      16.399  -7.599 -25.824  1.00  0.00     0.054 A 
ATOM     26  H6  UNL     1      18.049  -7.608 -24.639  1.00  0.00     0.186 HD
HETATM   27  C12 UNL     1      16.492  -9.047 -26.136  1.00  0.00     0.072 C 
ENDBRANCH   3  17
TORSDOF 7
ENDMDL
MODEL 4
REMARK VINA RESULT: -7.641850671      1.127      1.195
REMARK  7 active torsions:
REMARK  status: ('A' for Active; 'I' for Inactive)
REMARK    1  A    between atoms: C2_2  and  C3_3 
REMARK    2  A    between atoms: C3_3  and  C4_4 
REMARK    3  A    between atoms: C4_4  and  C5_5 
REMARK       I    between atoms: C5_5  and  N1_7 
REMARK    4  A    between atoms: N1_7  and  C6_9 
REMARK    5  A    between atoms: C6_9  and  N2_11 
REMARK    6  A    between atoms: N2_11  and  N3_13 
REMARK       I    between atoms: N3_13  and  C7_15 
REMARK    7  A    between atoms: C7_15  and  C8_17 
ROOT
HETATM    1  N3  UNL     1      14.157  -8.758 -27.551  1.00  0.00    -0.262 N 
ATOM      2  H3  UNL     1      14.727  -9.469 -28.010  1.00  0.00     0.190 HD
HETATM    3  C7  UNL     1      14.759  -7.832 -26.685  1.00  0.00     0.288 C 
HETATM    4  O2  UNL     1      14.081  -6.957 -26.117  1.00  0.00    -0.264 OA
ENDROOT
BRANCH   1   5
HETATM    5  N2  UNL     1      12.790  -8.710 -27.786  1.00  0.00    -0.273 N 
ATOM      6  H2  UNL     1      12.287  -7.842 -27.609  1.00  0.00     0.189 HD
BRANCH   5   7
HETATM    7  C6  UNL     1      12.077  -9.826 -28.264  1.00  0.00     0.193 C 
HETATM    8  S1  UNL     1      12.630 -10.695 -29.509  1.00  0.00    -0.039 SA
BRANCH   7   9
HETATM    9  N1  UNL     1      10.860 -10.195 -27.642  1.00  0.00    -0.303 N 
HETATM   10  C5  UNL     1       9.584  -9.953 -28.204  1.00  0.00     0.223 C 
HETATM   11  O1  UNL     1       9.518  -9.379 -29.331  1.00  0.00    -0.273 OA
ATOM     12  H1  UNL     1      10.905 -10.662 -26.737  1.00  0.00     0.171 HD
BRANCH  10  13
HETATM   13  C4  UNL     1       8.374 -10.376 -27.470  1.00  0.00     0.103 C 
BRANCH  13  14
HETATM   14  C3  UNL     1       8.339  -9.824 -26.054  1.00  0.00     0.009 C 
BRANCH  14  15
HETATM   15  C2  UNL     1       6.929 -10.085 -25.526  1.00  0.00    -0.004 C 
HETATM   16  C1  UNL     1       6.132  -8.811 -25.403  1.00  0.00     0.005 C 
ENDBRANCH  14  15
ENDBRANCH  13  14
ENDBRANCH  10  13
ENDBRANCH   7   9
ENDBRANCH   5   7
ENDBRANCH   1   5
BRANCH   3  17
HETATM   17  C8  UNL     1      16.191  -7.897 -26.450  1.00  0.00     0.127 A 
HETATM   18  N4  UNL     1      16.725  -8.996 -25.861  1.00  0.00    -0.339 N 
HETATM   19  C9  UNL     1      18.022  -9.122 -25.614  1.00  0.00     0.092 A 
ATOM     20  H4  UNL     1      16.101  -9.760 -25.598  1.00  0.00     0.167 HD
HETATM   21  C10 UNL     1      18.609 -10.345 -24.961  1.00  0.00     0.090 C 
HETATM   22  N5  UNL     1      18.838  -8.089 -25.975  1.00  0.00    -0.289 N 
HETATM   23  N6  UNL     1      18.325  -7.022 -26.547  1.00  0.00    -0.301 N 
ATOM     24  H5  UNL     1      19.841  -8.145 -25.803  1.00  0.00     0.188 HD
HETATM   25  C11 UNL     1      17.018  -6.856 -26.814  1.00  0.00     0.054 A 
ATOM     26  H6  UNL     1      18.962  -6.268 -26.805  1.00  0.00     0.186 HD
HETATM   27  C12 UNL     1      16.540  -5.613 -27.469  1.00  0.00     0.072 C 
ENDBRANCH   3  17
TORSDOF 7
ENDMDL
MODEL 5
REMARK VINA RESULT: -7.614126674      1.588      1.687
REMARK  7 active torsions:
REMARK  status: ('A' for Active; 'I' for Inactive)
REMARK    1  A    between atoms: C2_2  and  C3_3 
REMARK    2  A    between atoms: C3_3  and  C4_4 
REMARK    3  A    between atoms: C4_4  and  C5_5 
REMARK       I    between atoms: C5_5  and  N1_7 
REMARK    4  A    between atoms: N1_7  and  C6_9 
REMARK    5  A    between atoms: C6_9  and  N2_11 
REMARK    6  A    between atoms: N2_11  and  N3_13 
REMARK       I    between atoms: N3_13  and  C7_15 
REMARK    7  A    between atoms: C7_15  and  C8_17 
ROOT
HETATM    1  N3  UNL     1      13.687  -8.602 -27.274  1.00  0.00    -0.262 N 
ATOM      2  H3  UNL     1      13.498  -9.038 -26.372  1.00  0.00     0.190 HD
HETATM    3  C7  UNL     1      14.923  -7.976 -27.503  1.00  0.00     0.288 C 
HETATM    4  O2  UNL     1      15.172  -7.439 -28.597  1.00  0.00    -0.264 OA
ENDROOT
BRANCH   1   5
HETATM    5  N2  UNL     1      12.722  -8.631 -28.271  1.00  0.00    -0.273 N 
ATOM      6  H2  UNL     1      12.845  -9.266 -29.060  1.00  0.00     0.189 HD
BRANCH   5   7
HETATM    7  C6  UNL     1      11.579  -7.811 -28.225  1.00  0.00     0.193 C 
HETATM    8  S1  UNL     1      11.658  -6.252 -28.646  1.00  0.00    -0.039 SA
BRANCH   7   9
HETATM    9  N1  UNL     1      10.342  -8.360 -27.809  1.00  0.00    -0.303 N 
HETATM   10  C5  UNL     1      10.101  -8.862 -26.509  1.00  0.00     0.223 C 
HETATM   11  O1  UNL     1      11.041  -8.819 -25.659  1.00  0.00    -0.273 OA
ATOM     12  H1  UNL     1       9.581  -8.394 -28.486  1.00  0.00     0.171 HD
BRANCH  10  13
HETATM   13  C4  UNL     1       8.773  -9.417 -26.178  1.00  0.00     0.103 C 
BRANCH  13  14
HETATM   14  C3  UNL     1       7.765  -8.331 -25.841  1.00  0.00     0.009 C 
BRANCH  14  15
HETATM   15  C2  UNL     1       6.430  -9.040 -25.615  1.00  0.00    -0.004 C 
HETATM   16  C1  UNL     1       6.611 -10.524 -25.417  1.00  0.00     0.005 C 
ENDBRANCH  14  15
ENDBRANCH  13  14
ENDBRANCH  10  13
ENDBRANCH   7   9
ENDBRANCH   5   7
ENDBRANCH   1   5
BRANCH   3  17
HETATM   17  C8  UNL     1      15.921  -7.955 -26.447  1.00  0.00     0.127 A 
HETATM   18  N4  UNL     1      16.656  -9.067 -26.198  1.00  0.00    -0.339 N 
HETATM   19  C9  UNL     1      17.581  -9.121 -25.248  1.00  0.00     0.092 A 
ATOM     20  H4  UNL     1      16.491  -9.899 -26.765  1.00  0.00     0.167 HD
HETATM   21  C10 UNL     1      18.395 -10.358 -24.977  1.00  0.00     0.090 C 
HETATM   22  N5  UNL     1      17.786  -7.997 -24.501  1.00  0.00    -0.289 N 
HETATM   23  N6  UNL     1      17.076  -6.916 -24.740  1.00  0.00    -0.301 N 
ATOM     24  H5  UNL     1      18.488  -7.996 -23.761  1.00  0.00     0.188 HD
HETATM   25  C11 UNL     1      16.131  -6.822 -25.691  1.00  0.00     0.054 A 
ATOM     26  H6  UNL     1      17.254  -6.093 -24.164  1.00  0.00     0.186 HD
HETATM   27  C12 UNL     1      15.388  -5.552 -25.884  1.00  0.00     0.072 C 
ENDBRANCH   3  17
TORSDOF 7
ENDMDL
