MODEL 1
REMARK VINA RESULT: -8.966763110      0.000      0.000
REMARK  4 active torsions:
REMARK  status: ('A' for Active; 'I' for Inactive)
REMARK    1  A    between atoms: C2_2  and  C3_3 
REMARK    2  A    between atoms: C3_3  and  C5_6 
REMARK       I    between atoms: C5_6  and  N2_8 
REMARK    3  A    between atoms: N2_8  and  N3_9 
REMARK    4  A    between atoms: C6_11  and  C8_14 
REMARK       I    between atoms: N7_20  and  C10_22 
ROOT
HETATM    1  C3  UNL     1       7.964  -9.571 -26.264  1.00  0.00     0.201 C 
HETATM    2  C4  UNL     1       7.615  -8.344 -26.970  1.00  0.00     0.074 C 
HETATM    3  N1  UNL     1       7.333  -7.377 -27.532  1.00  0.00    -0.196 NA
ENDROOT
BRANCH   1   4
HETATM    4  C2  UNL     1       6.802 -10.419 -25.888  1.00  0.00     0.026 C 
HETATM    5  C1  UNL     1       5.834  -9.590 -25.065  1.00  0.00     0.007 C 
ENDBRANCH   1   4
BRANCH   1   6
HETATM    6  C5  UNL     1       8.820 -10.380 -27.268  1.00  0.00     0.330 C 
HETATM    7  O1  UNL     1       8.169 -11.154 -28.039  1.00  0.00    -0.254 OA
HETATM    8  N2  UNL     1      10.137 -10.148 -27.182  1.00  0.00    -0.284 NA
BRANCH   8   9
HETATM    9  N3  UNL     1      11.414  -9.923 -27.098  1.00  0.00    -0.219 N 
HETATM   10  C6  UNL     1      12.331 -10.021 -27.942  1.00  0.00     0.175 C 
HETATM   11  C7  UNL     1      12.099 -10.436 -29.274  1.00  0.00     0.123 C 
HETATM   12  N4  UNL     1      11.915 -10.763 -30.387  1.00  0.00    -0.190 NA
ATOM     13  H3  UNL     1      11.723  -9.610 -26.178  1.00  0.00     0.203 HD
BRANCH  10  14
HETATM   14  C8  UNL     1      13.707  -9.698 -27.536  1.00  0.00     0.132 A 
HETATM   15  N5  UNL     1      14.696 -10.489 -27.201  1.00  0.00    -0.289 N 
HETATM   16  N6  UNL     1      15.829 -10.025 -26.872  1.00  0.00    -0.279 N 
ATOM     17  H5  UNL     1      14.551 -11.498 -27.204  1.00  0.00     0.188 HD
HETATM   18  C9  UNL     1      16.019  -8.706 -26.864  1.00  0.00     0.168 A 
ATOM     19  H6  UNL     1      16.589 -10.657 -26.617  1.00  0.00     0.189 HD
HETATM   20  N7  UNL     1      17.030  -7.969 -26.578  1.00  0.00    -0.306 N 
HETATM   21  S1  UNL     1      14.443  -8.156 -27.370  1.00  0.00    -0.030 SA
HETATM   22  C10 UNL     1      18.265  -8.421 -26.177  1.00  0.00     0.219 C 
ATOM     23  H7  UNL     1      16.906  -6.959 -26.655  1.00  0.00     0.171 HD
HETATM   24  C11 UNL     1      18.583  -9.612 -25.347  1.00  0.00     0.117 C 
HETATM   25  O2  UNL     1      19.280  -7.725 -26.565  1.00  0.00    -0.274 OA
ENDBRANCH  10  14
ENDBRANCH   8   9
ENDBRANCH   1   6
TORSDOF 4
ENDMDL
MODEL 2
REMARK VINA RESULT: -8.576194143      1.079      1.439
REMARK  4 active torsions:
REMARK  status: ('A' for Active; 'I' for Inactive)
REMARK    1  A    between atoms: C2_2  and  C3_3 
REMARK    2  A    between atoms: C3_3  and  C5_6 
REMARK       I    between atoms: C5_6  and  N2_8 
REMARK    3  A    between atoms: N2_8  and  N3_9 
REMARK    4  A    between atoms: C6_11  and  C8_14 
REMARK       I    between atoms: N7_20  and  C10_22 
ROOT
HETATM    1  C3  UNL     1       7.792  -9.523 -26.745  1.00  0.00     0.201 C 
HETATM    2  C4  UNL     1       6.963 -10.380 -25.906  1.00  0.00     0.074 C 
HETATM    3  N1  UNL     1       6.313 -11.059 -25.237  1.00  0.00    -0.196 NA
ENDROOT
BRANCH   1   4
HETATM    4  C2  UNL     1       8.671  -8.588 -25.994  1.00  0.00     0.026 C 
HETATM    5  C1  UNL     1       7.921  -7.292 -25.755  1.00  0.00     0.007 C 
ENDBRANCH   1   4
BRANCH   1   6
HETATM    6  C5  UNL     1       8.710 -10.494 -27.525  1.00  0.00     0.330 C 
HETATM    7  O1  UNL     1       8.109 -11.404 -28.179  1.00  0.00    -0.254 OA
HETATM    8  N2  UNL     1      10.018 -10.237 -27.399  1.00  0.00    -0.284 NA
BRANCH   8   9
HETATM    9  N3  UNL     1      11.288  -9.987 -27.276  1.00  0.00    -0.219 N 
HETATM   10  C6  UNL     1      12.231 -10.055 -28.095  1.00  0.00     0.175 C 
HETATM   11  C7  UNL     1      12.044 -10.457 -29.437  1.00  0.00     0.123 C 
HETATM   12  N4  UNL     1      11.898 -10.773 -30.560  1.00  0.00    -0.190 NA
ATOM     13  H3  UNL     1      11.565  -9.681 -26.344  1.00  0.00     0.203 HD
BRANCH  10  14
HETATM   14  C8  UNL     1      13.588  -9.709 -27.645  1.00  0.00     0.132 A 
HETATM   15  N5  UNL     1      14.560 -10.481 -27.228  1.00  0.00    -0.289 N 
HETATM   16  N6  UNL     1      15.678 -10.000 -26.874  1.00  0.00    -0.279 N 
ATOM     17  H5  UNL     1      14.415 -11.489 -27.186  1.00  0.00     0.188 HD
HETATM   18  C9  UNL     1      15.869  -8.681 -26.924  1.00  0.00     0.168 A 
ATOM     19  H6  UNL     1      16.426 -10.616 -26.554  1.00  0.00     0.189 HD
HETATM   20  N7  UNL     1      16.866  -7.929 -26.632  1.00  0.00    -0.306 N 
HETATM   21  S1  UNL     1      14.317  -8.160 -27.526  1.00  0.00    -0.030 SA
HETATM   22  C10 UNL     1      18.083  -8.359 -26.155  1.00  0.00     0.219 C 
ATOM     23  H7  UNL     1      16.746  -6.925 -26.766  1.00  0.00     0.171 HD
HETATM   24  C11 UNL     1      18.363  -9.506 -25.253  1.00  0.00     0.117 C 
HETATM   25  O2  UNL     1      19.114  -7.682 -26.533  1.00  0.00    -0.274 OA
ENDBRANCH  10  14
ENDBRANCH   8   9
ENDBRANCH   1   6
TORSDOF 4
ENDMDL
MODEL 3
REMARK VINA RESULT: -8.568142552      1.260      1.694
REMARK  4 active torsions:
REMARK  status: ('A' for Active; 'I' for Inactive)
REMARK    1  A    between atoms: C2_2  and  C3_3 
REMARK    2  A    between atoms: C3_3  and  C5_6 
REMARK       I    between atoms: C5_6  and  N2_8 
REMARK    3  A    between atoms: N2_8  and  N3_9 
REMARK    4  A    between atoms: C6_11  and  C8_14 
REMARK       I    between atoms: N7_20  and  C10_22 
ROOT
HETATM    1  C3  UNL     1       7.889  -9.934 -27.307  1.00  0.00     0.201 C 
HETATM    2  C4  UNL     1       8.621 -10.990 -27.999  1.00  0.00     0.074 C 
HETATM    3  N1  UNL     1       9.205 -11.825 -28.539  1.00  0.00    -0.196 NA
ENDROOT
BRANCH   1   4
HETATM    4  C2  UNL     1       7.868 -10.066 -25.827  1.00  0.00     0.026 C 
HETATM    5  C1  UNL     1       6.462 -10.429 -25.385  1.00  0.00     0.007 C 
ENDBRANCH   1   4
BRANCH   1   6
HETATM    6  C5  UNL     1       8.654  -8.632 -27.644  1.00  0.00     0.330 C 
HETATM    7  O1  UNL     1       7.933  -7.668 -28.053  1.00  0.00    -0.254 OA
HETATM    8  N2  UNL     1       9.978  -8.705 -27.454  1.00  0.00    -0.284 NA
BRANCH   8   9
HETATM    9  N3  UNL     1      11.263  -8.777 -27.271  1.00  0.00    -0.219 N 
HETATM   10  C6  UNL     1      12.186  -9.183 -28.011  1.00  0.00     0.175 C 
HETATM   11  C7  UNL     1      11.952  -9.681 -29.313  1.00  0.00     0.123 C 
HETATM   12  N4  UNL     1      11.773 -10.081 -30.404  1.00  0.00    -0.190 NA
ATOM     13  H3  UNL     1      11.574  -8.443 -26.359  1.00  0.00     0.203 HD
BRANCH  10  14
HETATM   14  C8  UNL     1      13.567  -9.146 -27.508  1.00  0.00     0.132 A 
HETATM   15  N5  UNL     1      14.403 -10.125 -27.266  1.00  0.00    -0.289 N 
HETATM   16  N6  UNL     1      15.571  -9.901 -26.827  1.00  0.00    -0.279 N 
ATOM     17  H5  UNL     1      14.109 -11.086 -27.435  1.00  0.00     0.188 HD
HETATM   18  C9  UNL     1      15.956  -8.645 -26.602  1.00  0.00     0.168 A 
ATOM     19  H6  UNL     1      16.211 -10.676 -26.647  1.00  0.00     0.189 HD
HETATM   20  N7  UNL     1      17.047  -8.129 -26.165  1.00  0.00    -0.306 N 
HETATM   21  S1  UNL     1      14.515  -7.783 -27.072  1.00  0.00    -0.030 SA
HETATM   22  C10 UNL     1      18.173  -8.826 -25.796  1.00  0.00     0.219 C 
ATOM     23  H7  UNL     1      17.081  -7.112 -26.085  1.00  0.00     0.171 HD
HETATM   24  C11 UNL     1      18.258 -10.164 -25.155  1.00  0.00     0.117 C 
HETATM   25  O2  UNL     1      19.303  -8.248 -26.031  1.00  0.00    -0.274 OA
ENDBRANCH  10  14
ENDBRANCH   8   9
ENDBRANCH   1   6
TORSDOF 4
ENDMDL
MODEL 4
REMARK VINA RESULT: -8.494380244      1.640      1.911
REMARK  4 active torsions:
REMARK  status: ('A' for Active; 'I' for Inactive)
REMARK    1  A    between atoms: C2_2  and  C3_3 
REMARK    2  A    between atoms: C3_3  and  C5_6 
REMARK       I    between atoms: C5_6  and  N2_8 
REMARK    3  A    between atoms: N2_8  and  N3_9 
REMARK    4  A    between atoms: C6_11  and  C8_14 
REMARK       I    between atoms: N7_20  and  C10_22 
ROOT
HETATM    1  C3  UNL     1       7.614  -9.219 -25.808  1.00  0.00     0.201 C 
HETATM    2  C4  UNL     1       7.893  -7.805 -26.032  1.00  0.00     0.074 C 
HETATM    3  N1  UNL     1       8.107  -6.687 -26.216  1.00  0.00    -0.196 NA
ENDROOT
BRANCH   1   4
HETATM    4  C2  UNL     1       6.186  -9.600 -25.970  1.00  0.00     0.026 C 
HETATM    5  C1  UNL     1       5.886 -10.782 -25.067  1.00  0.00     0.007 C 
ENDBRANCH   1   4
BRANCH   1   6
HETATM    6  C5  UNL     1       8.417  -9.963 -26.901  1.00  0.00     0.330 C 
HETATM    7  O1  UNL     1       7.724 -10.668 -27.701  1.00  0.00    -0.254 OA
HETATM    8  N2  UNL     1       9.740  -9.756 -26.850  1.00  0.00    -0.284 NA
BRANCH   8   9
HETATM    9  N3  UNL     1      11.023  -9.556 -26.799  1.00  0.00    -0.219 N 
HETATM   10  C6  UNL     1      11.737  -8.630 -27.242  1.00  0.00     0.175 C 
HETATM   11  C7  UNL     1      11.201  -7.526 -27.944  1.00  0.00     0.123 C 
HETATM   12  N4  UNL     1      10.765  -6.595 -28.515  1.00  0.00    -0.190 NA
ATOM     13  H3  UNL     1      11.540 -10.287 -26.311  1.00  0.00     0.203 HD
BRANCH  10  14
HETATM   14  C8  UNL     1      13.191  -8.691 -27.029  1.00  0.00     0.132 A 
HETATM   15  N5  UNL     1      14.012  -7.791 -26.548  1.00  0.00    -0.289 N 
HETATM   16  N6  UNL     1      15.253  -8.022 -26.438  1.00  0.00    -0.279 N 
ATOM     17  H5  UNL     1      13.645  -6.885 -26.257  1.00  0.00     0.188 HD
HETATM   18  C9  UNL     1      15.735  -9.204 -26.823  1.00  0.00     0.168 A 
ATOM     19  H6  UNL     1      15.878  -7.310 -26.058  1.00  0.00     0.189 HD
HETATM   20  N7  UNL     1      16.916  -9.706 -26.833  1.00  0.00    -0.306 N 
HETATM   21  S1  UNL     1      14.270  -9.983 -27.360  1.00  0.00    -0.030 SA
HETATM   22  C10 UNL     1      18.061  -9.074 -26.408  1.00  0.00     0.219 C 
ATOM     23  H7  UNL     1      17.013 -10.657 -27.189  1.00  0.00     0.171 HD
HETATM   24  C11 UNL     1      18.403  -7.631 -26.502  1.00  0.00     0.117 C 
HETATM   25  O2  UNL     1      18.956  -9.825 -25.860  1.00  0.00    -0.274 OA
ENDBRANCH  10  14
ENDBRANCH   8   9
ENDBRANCH   1   6
TORSDOF 4
ENDMDL
MODEL 5
REMARK VINA RESULT: -8.481325580      2.126      8.527
REMARK  4 active torsions:
REMARK  status: ('A' for Active; 'I' for Inactive)
REMARK    1  A    between atoms: C2_2  and  C3_3 
REMARK    2  A    between atoms: C3_3  and  C5_6 
REMARK       I    between atoms: C5_6  and  N2_8 
REMARK    3  A    between atoms: N2_8  and  N3_9 
REMARK    4  A    between atoms: C6_11  and  C8_14 
REMARK       I    between atoms: N7_20  and  C10_22 
ROOT
HETATM    1  C3  UNL     1      17.851  -8.825 -25.740  1.00  0.00     0.201 C 
HETATM    2  C4  UNL     1      18.672  -9.862 -25.127  1.00  0.00     0.074 C 
HETATM    3  N1  UNL     1      19.328 -10.681 -24.648  1.00  0.00    -0.196 NA
ENDROOT
BRANCH   1   4
HETATM    4  C2  UNL     1      18.617  -7.677 -26.293  1.00  0.00     0.026 C 
HETATM    5  C1  UNL     1      17.653  -6.547 -26.604  1.00  0.00     0.007 C 
ENDBRANCH   1   4
BRANCH   1   6
HETATM    6  C5  UNL     1      17.146  -9.524 -26.928  1.00  0.00     0.330 C 
HETATM    7  O1  UNL     1      17.918 -10.104 -27.754  1.00  0.00    -0.254 OA
HETATM    8  N2  UNL     1      15.811  -9.418 -26.915  1.00  0.00    -0.284 NA
BRANCH   8   9
HETATM    9  N3  UNL     1      14.515  -9.314 -26.904  1.00  0.00    -0.219 N 
HETATM   10  C6  UNL     1      13.739  -8.544 -27.511  1.00  0.00     0.175 C 
HETATM   11  C7  UNL     1      14.198  -7.554 -28.410  1.00  0.00     0.123 C 
HETATM   12  N4  UNL     1      14.567  -6.739 -29.172  1.00  0.00    -0.190 NA
ATOM     13  H3  UNL     1      14.048  -9.980 -26.290  1.00  0.00     0.203 HD
BRANCH  10  14
HETATM   14  C8  UNL     1      12.292  -8.667 -27.278  1.00  0.00     0.132 A 
HETATM   15  N5  UNL     1      11.638  -9.036 -26.205  1.00  0.00    -0.289 N 
HETATM   16  N6  UNL     1      10.371  -9.085 -26.188  1.00  0.00    -0.279 N 
ATOM     17  H5  UNL     1      12.159  -9.288 -25.365  1.00  0.00     0.188 HD
HETATM   18  C9  UNL     1       9.689  -8.759 -27.286  1.00  0.00     0.168 A 
ATOM     19  H6  UNL     1       9.879  -9.372 -25.341  1.00  0.00     0.189 HD
HETATM   20  N7  UNL     1       8.436  -8.721 -27.559  1.00  0.00    -0.306 N 
HETATM   21  S1  UNL     1      11.000  -8.364 -28.367  1.00  0.00    -0.030 SA
HETATM   22  C10 UNL     1       7.416  -9.039 -26.693  1.00  0.00     0.219 C 
ATOM     23  H7  UNL     1       8.174  -8.429 -28.500  1.00  0.00     0.171 HD
HETATM   24  C11 UNL     1       7.407 -10.070 -25.623  1.00  0.00     0.117 C 
HETATM   25  O2  UNL     1       6.326  -8.361 -26.823  1.00  0.00    -0.274 OA
ENDBRANCH  10  14
ENDBRANCH   8   9
ENDBRANCH   1   6
TORSDOF 4
ENDMDL
