MODEL 1
REMARK VINA RESULT: -7.387995042      0.000      0.000
REMARK  6 active torsions:
REMARK  status: ('A' for Active; 'I' for Inactive)
REMARK    1  A    between atoms: C2_2  and  N1_4 
REMARK    2  A    between atoms: N1_4  and  N2_5 
REMARK    3  A    between atoms: C7_10  and  O2_11 
REMARK    4  A    between atoms: O2_11  and  C8_12 
REMARK       I    between atoms: C8_12  and  N3_14 
REMARK    5  A    between atoms: N3_14  and  S1_16 
REMARK    6  A    between atoms: S1_16  and  N4_17 
ROOT
HETATM    1  N2  UNL     1      14.467  -3.663 -25.215  1.00  0.00    -0.101 NA
HETATM    2  O1  UNL     1      13.363  -4.186 -25.838  1.00  0.00    -0.274 OA
HETATM    3  C4  UNL     1      13.879  -4.541 -27.108  1.00  0.00     0.105 C 
HETATM    4  C5  UNL     1      14.137  -3.231 -27.825  1.00  0.00     0.050 C 
HETATM    5  C6  UNL     1      12.939  -5.363 -27.906  1.00  0.00     0.050 C 
HETATM    6  C7  UNL     1      15.155  -5.237 -26.724  1.00  0.00     0.190 C 
HETATM    7  C9  UNL     1      15.398  -4.770 -25.341  1.00  0.00     0.134 C 
HETATM    8  C10 UNL     1      16.827  -4.331 -25.106  1.00  0.00     0.033 C 
ENDROOT
BRANCH   6   9
HETATM    9  O2  UNL     1      15.139  -6.614 -26.911  1.00  0.00    -0.293 OA
BRANCH   9  10
HETATM   10  C8  UNL     1      16.274  -7.407 -26.855  1.00  0.00     0.376 C 
HETATM   11  O3  UNL     1      17.282  -6.925 -27.437  1.00  0.00    -0.237 OA
HETATM   12  N3  UNL     1      16.313  -8.653 -26.204  1.00  0.00    -0.213 N 
ATOM     13  H3  UNL     1      15.471  -9.003 -25.746  1.00  0.00     0.185 HD
BRANCH  12  14
HETATM   14  S1  UNL     1      17.746  -9.599 -26.161  1.00  0.00     0.321 S 
HETATM   15  O4  UNL     1      18.033 -10.090 -27.570  1.00  0.00    -0.183 OA
HETATM   16  O5  UNL     1      17.616 -10.755 -25.232  1.00  0.00    -0.183 OA
BRANCH  14  17
HETATM   17  N4  UNL     1      19.077  -8.632 -25.626  1.00  0.00    -0.311 N 
ATOM     18  H42 UNL     1      19.191  -8.293 -24.671  1.00  0.00     0.170 HD
ATOM     19  H41 UNL     1      19.717  -8.460 -26.401  1.00  0.00     0.170 HD
ENDBRANCH  14  17
ENDBRANCH  12  14
ENDBRANCH   9  10
ENDBRANCH   6   9
BRANCH   1  20
HETATM   20  N1  UNL     1      14.213  -3.486 -23.868  1.00  0.00    -0.135 NA
BRANCH  20  21
HETATM   21  C2  UNL     1      13.938  -2.127 -23.484  1.00  0.00     0.088 C 
HETATM   22  C1  UNL     1      12.560  -1.914 -22.957  1.00  0.00     0.029 C 
HETATM   23  C3  UNL     1      14.922  -1.612 -22.444  1.00  0.00     0.029 C 
ENDBRANCH  20  21
ENDBRANCH   1  20
TORSDOF 6
ENDMDL
MODEL 2
REMARK VINA RESULT: -7.061770781      5.463      7.109
REMARK  6 active torsions:
REMARK  status: ('A' for Active; 'I' for Inactive)
REMARK    1  A    between atoms: C2_2  and  N1_4 
REMARK    2  A    between atoms: N1_4  and  N2_5 
REMARK    3  A    between atoms: C7_10  and  O2_11 
REMARK    4  A    between atoms: O2_11  and  C8_12 
REMARK       I    between atoms: C8_12  and  N3_14 
REMARK    5  A    between atoms: N3_14  and  S1_16 
REMARK    6  A    between atoms: S1_16  and  N4_17 
ROOT
HETATM    1  N2  UNL     1       8.974  -9.797 -27.661  1.00  0.00    -0.101 NA
HETATM    2  O1  UNL     1       9.209 -10.338 -28.899  1.00  0.00    -0.274 OA
HETATM    3  C4  UNL     1      10.241  -9.505 -29.396  1.00  0.00     0.105 C 
HETATM    4  C5  UNL     1       9.584  -8.169 -29.681  1.00  0.00     0.050 C 
HETATM    5  C6  UNL     1      10.859 -10.026 -30.638  1.00  0.00     0.050 C 
HETATM    6  C7  UNL     1      11.164  -9.440 -28.212  1.00  0.00     0.190 C 
HETATM    7  C9  UNL     1      10.304  -9.858 -27.082  1.00  0.00     0.134 C 
HETATM    8  C10 UNL     1      10.432  -8.956 -25.874  1.00  0.00     0.033 C 
ENDROOT
BRANCH   6   9
HETATM    9  O2  UNL     1      12.353 -10.143 -28.368  1.00  0.00    -0.293 OA
BRANCH   9  10
HETATM   10  C8  UNL     1      13.540  -9.785 -27.751  1.00  0.00     0.376 C 
HETATM   11  O3  UNL     1      14.015 -10.657 -26.975  1.00  0.00    -0.237 OA
HETATM   12  N3  UNL     1      14.178  -8.550 -27.965  1.00  0.00    -0.213 N 
ATOM     13  H3  UNL     1      13.757  -7.875 -28.602  1.00  0.00     0.185 HD
BRANCH  12  14
HETATM   14  S1  UNL     1      15.652  -8.153 -27.176  1.00  0.00     0.321 S 
HETATM   15  O4  UNL     1      15.319  -7.557 -25.819  1.00  0.00    -0.183 OA
HETATM   16  O5  UNL     1      16.463  -7.192 -27.974  1.00  0.00    -0.183 OA
BRANCH  14  17
HETATM   17  N4  UNL     1      16.600  -9.581 -26.940  1.00  0.00    -0.311 N 
ATOM     18  H42 UNL     1      16.484 -10.441 -27.477  1.00  0.00     0.170 HD
ATOM     19  H41 UNL     1      17.279  -9.430 -26.194  1.00  0.00     0.170 HD
ENDBRANCH  14  17
ENDBRANCH  12  14
ENDBRANCH   9  10
ENDBRANCH   6   9
BRANCH   1  20
HETATM   20  N1  UNL     1       8.162 -10.636 -26.923  1.00  0.00    -0.135 NA
BRANCH  20  21
HETATM   21  C2  UNL     1       6.886 -10.074 -26.565  1.00  0.00     0.088 C 
HETATM   22  C1  UNL     1       6.208 -10.779 -25.440  1.00  0.00     0.029 C 
HETATM   23  C3  UNL     1       6.988  -8.600 -26.201  1.00  0.00     0.029 C 
ENDBRANCH  20  21
ENDBRANCH   1  20
TORSDOF 6
ENDMDL
MODEL 3
REMARK VINA RESULT: -7.059486025      4.304      6.217
REMARK  6 active torsions:
REMARK  status: ('A' for Active; 'I' for Inactive)
REMARK    1  A    between atoms: C2_2  and  N1_4 
REMARK    2  A    between atoms: N1_4  and  N2_5 
REMARK    3  A    between atoms: C7_10  and  O2_11 
REMARK    4  A    between atoms: O2_11  and  C8_12 
REMARK       I    between atoms: C8_12  and  N3_14 
REMARK    5  A    between atoms: N3_14  and  S1_16 
REMARK    6  A    between atoms: S1_16  and  N4_17 
ROOT
HETATM    1  N2  UNL     1      15.562  -7.002 -28.076  1.00  0.00    -0.101 NA
HETATM    2  O1  UNL     1      16.542  -7.930 -27.832  1.00  0.00    -0.274 OA
HETATM    3  C4  UNL     1      16.069  -8.561 -26.656  1.00  0.00     0.105 C 
HETATM    4  C5  UNL     1      16.231  -7.536 -25.551  1.00  0.00     0.050 C 
HETATM    5  C6  UNL     1      16.829  -9.785 -26.309  1.00  0.00     0.050 C 
HETATM    6  C7  UNL     1      14.626  -8.793 -27.005  1.00  0.00     0.190 C 
HETATM    7  C9  UNL     1      14.389  -7.855 -28.126  1.00  0.00     0.134 C 
HETATM    8  C10 UNL     1      13.110  -7.061 -27.974  1.00  0.00     0.033 C 
ENDROOT
BRANCH   6   9
HETATM    9  O2  UNL     1      14.296 -10.123 -27.240  1.00  0.00    -0.293 OA
BRANCH   9  10
HETATM   10  C8  UNL     1      13.028 -10.544 -27.607  1.00  0.00     0.376 C 
HETATM   11  O3  UNL     1      12.134 -10.341 -26.741  1.00  0.00    -0.237 OA
HETATM   12  N3  UNL     1      12.744 -11.148 -28.845  1.00  0.00    -0.213 N 
ATOM     13  H3  UNL     1      13.500 -11.292 -29.514  1.00  0.00     0.185 HD
BRANCH  12  14
HETATM   14  S1  UNL     1      11.153 -11.652 -29.253  1.00  0.00     0.321 S 
HETATM   15  O4  UNL     1      10.945 -13.055 -28.711  1.00  0.00    -0.183 OA
HETATM   16  O5  UNL     1      10.931 -11.633 -30.726  1.00  0.00    -0.183 OA
BRANCH  14  17
HETATM   17  N4  UNL     1       9.993 -10.594 -28.526  1.00  0.00    -0.311 N 
ATOM     18  H42 UNL     1      10.230  -9.723 -28.053  1.00  0.00     0.170 HD
ATOM     19  H41 UNL     1       9.053 -10.974 -28.644  1.00  0.00     0.170 HD
ENDBRANCH  14  17
ENDBRANCH  12  14
ENDBRANCH   9  10
ENDBRANCH   6   9
BRANCH   1  20
HETATM   20  N1  UNL     1      15.729  -6.453 -29.332  1.00  0.00    -0.135 NA
BRANCH  20  21
HETATM   21  C2  UNL     1      15.877  -5.021 -29.345  1.00  0.00     0.088 C 
HETATM   22  C1  UNL     1      14.903  -4.321 -30.230  1.00  0.00     0.029 C 
HETATM   23  C3  UNL     1      15.764  -4.418 -27.953  1.00  0.00     0.029 C 
ENDBRANCH  20  21
ENDBRANCH   1  20
TORSDOF 6
ENDMDL
MODEL 4
REMARK VINA RESULT: -7.046516947      4.273      6.465
REMARK  6 active torsions:
REMARK  status: ('A' for Active; 'I' for Inactive)
REMARK    1  A    between atoms: C2_2  and  N1_4 
REMARK    2  A    between atoms: N1_4  and  N2_5 
REMARK    3  A    between atoms: C7_10  and  O2_11 
REMARK    4  A    between atoms: O2_11  and  C8_12 
REMARK       I    between atoms: C8_12  and  N3_14 
REMARK    5  A    between atoms: N3_14  and  S1_16 
REMARK    6  A    between atoms: S1_16  and  N4_17 
ROOT
HETATM    1  N2  UNL     1      12.112  -9.701 -29.398  1.00  0.00    -0.101 NA
HETATM    2  O1  UNL     1      12.633  -8.844 -30.333  1.00  0.00    -0.274 OA
HETATM    3  C4  UNL     1      12.771  -7.645 -29.592  1.00  0.00     0.105 C 
HETATM    4  C5  UNL     1      11.359  -7.144 -29.360  1.00  0.00     0.050 C 
HETATM    5  C6  UNL     1      13.551  -6.608 -30.308  1.00  0.00     0.050 C 
HETATM    6  C7  UNL     1      13.407  -8.150 -28.327  1.00  0.00     0.190 C 
HETATM    7  C9  UNL     1      13.112  -9.600 -28.351  1.00  0.00     0.134 C 
HETATM    8  C10 UNL     1      12.596 -10.122 -27.028  1.00  0.00     0.033 C 
ENDROOT
BRANCH   6   9
HETATM    9  O2  UNL     1      14.743  -7.799 -28.174  1.00  0.00    -0.293 OA
BRANCH   9  10
HETATM   10  C8  UNL     1      15.515  -8.183 -27.089  1.00  0.00     0.376 C 
HETATM   11  O3  UNL     1      15.132  -7.722 -25.980  1.00  0.00    -0.237 OA
HETATM   12  N3  UNL     1      16.638  -9.021 -27.201  1.00  0.00    -0.213 N 
ATOM     13  H3  UNL     1      16.911  -9.370 -28.119  1.00  0.00     0.185 HD
BRANCH  12  14
HETATM   14  S1  UNL     1      17.563  -9.470 -25.824  1.00  0.00     0.321 S 
HETATM   15  O4  UNL     1      18.993  -9.719 -26.272  1.00  0.00    -0.183 OA
HETATM   16  O5  UNL     1      17.013 -10.687 -25.164  1.00  0.00    -0.183 OA
BRANCH  14  17
HETATM   17  N4  UNL     1      17.558  -8.187 -24.664  1.00  0.00    -0.311 N 
ATOM     18  H42 UNL     1      17.856  -7.232 -24.864  1.00  0.00     0.170 HD
ATOM     19  H41 UNL     1      17.215  -8.530 -23.766  1.00  0.00     0.170 HD
ENDBRANCH  14  17
ENDBRANCH  12  14
ENDBRANCH   9  10
ENDBRANCH   6   9
BRANCH   1  20
HETATM   20  N1  UNL     1      12.140 -10.998 -29.874  1.00  0.00    -0.135 NA
BRANCH  20  21
HETATM   21  C2  UNL     1      10.867 -11.669 -29.860  1.00  0.00     0.088 C 
HETATM   22  C1  UNL     1      10.848 -12.914 -29.040  1.00  0.00     0.029 C 
HETATM   23  C3  UNL     1       9.745 -10.767 -29.367  1.00  0.00     0.029 C 
ENDBRANCH  20  21
ENDBRANCH   1  20
TORSDOF 6
ENDMDL
MODEL 5
REMARK VINA RESULT: -6.967851098      1.186      1.210
REMARK  6 active torsions:
REMARK  status: ('A' for Active; 'I' for Inactive)
REMARK    1  A    between atoms: C2_2  and  N1_4 
REMARK    2  A    between atoms: N1_4  and  N2_5 
REMARK    3  A    between atoms: C7_10  and  O2_11 
REMARK    4  A    between atoms: O2_11  and  C8_12 
REMARK       I    between atoms: C8_12  and  N3_14 
REMARK    5  A    between atoms: N3_14  and  S1_16 
REMARK    6  A    between atoms: S1_16  and  N4_17 
ROOT
HETATM    1  N2  UNL     1      14.882  -3.832 -26.013  1.00  0.00    -0.101 NA
HETATM    2  O1  UNL     1      14.125  -4.318 -27.049  1.00  0.00    -0.274 OA
HETATM    3  C4  UNL     1      15.097  -4.513 -28.060  1.00  0.00     0.105 C 
HETATM    4  C5  UNL     1      15.506  -3.123 -28.505  1.00  0.00     0.050 C 
HETATM    5  C6  UNL     1      14.578  -5.271 -29.223  1.00  0.00     0.050 C 
HETATM    6  C7  UNL     1      16.188  -5.205 -27.293  1.00  0.00     0.190 C 
HETATM    7  C9  UNL     1      15.870  -4.887 -25.882  1.00  0.00     0.134 C 
HETATM    8  C10 UNL     1      17.077  -4.432 -25.092  1.00  0.00     0.033 C 
ENDROOT
BRANCH   6   9
HETATM    9  O2  UNL     1      16.340  -6.553 -27.597  1.00  0.00    -0.293 OA
BRANCH   9  10
HETATM   10  C8  UNL     1      17.144  -7.416 -26.869  1.00  0.00     0.376 C 
HETATM   11  O3  UNL     1      18.347  -7.055 -26.767  1.00  0.00    -0.237 OA
HETATM   12  N3  UNL     1      16.668  -8.602 -26.282  1.00  0.00    -0.213 N 
ATOM     13  H3  UNL     1      15.686  -8.853 -26.391  1.00  0.00     0.185 HD
BRANCH  12  14
HETATM   14  S1  UNL     1      17.705  -9.638 -25.386  1.00  0.00     0.321 S 
HETATM   15  O4  UNL     1      18.911  -9.965 -26.250  1.00  0.00    -0.183 OA
HETATM   16  O5  UNL     1      17.012 -10.892 -24.979  1.00  0.00    -0.183 OA
BRANCH  14  17
HETATM   17  N4  UNL     1      18.246  -8.838 -23.951  1.00  0.00    -0.311 N 
ATOM     18  H42 UNL     1      18.064  -9.172 -23.005  1.00  0.00     0.170 HD
ATOM     19  H41 UNL     1      18.765  -7.995 -24.197  1.00  0.00     0.170 HD
ENDBRANCH  14  17
ENDBRANCH  12  14
ENDBRANCH   9  10
ENDBRANCH   6   9
BRANCH   1  20
HETATM   20  N1  UNL     1      14.138  -3.815 -24.849  1.00  0.00    -0.135 NA
BRANCH  20  21
HETATM   21  C2  UNL     1      13.882  -2.501 -24.321  1.00  0.00     0.088 C 
HETATM   22  C1  UNL     1      12.484  -2.302 -23.844  1.00  0.00     0.029 C 
HETATM   23  C3  UNL     1      14.822  -2.146 -23.178  1.00  0.00     0.029 C 
ENDBRANCH  20  21
ENDBRANCH   1  20
TORSDOF 6
ENDMDL
