MODEL 1
REMARK VINA RESULT: -7.355124400      0.000      0.000
REMARK  7 active torsions:
REMARK  status: ('A' for Active; 'I' for Inactive)
REMARK    1  A    between atoms: C2_2  and  C3_3 
REMARK    2  A    between atoms: C3_3  and  C4_4 
REMARK       I    between atoms: C4_4  and  N1_6 
REMARK    3  A    between atoms: N1_6  and  N2_8 
REMARK    4  A    between atoms: C5_10  and  N3_11 
REMARK    5  A    between atoms: C5_10  and  C10_23 
REMARK       I    between atoms: N3_11  and  C6_13 
REMARK       I    between atoms: C6_13  and  N4_15 
REMARK    6  A    between atoms: N4_15  and  C7_17 
REMARK    7  A    between atoms: C10_23  and  O4_25 
ROOT
HETATM    1  N2  UNL     1      17.749  -7.448 -25.285  1.00  0.00    -0.278 N 
ATOM      2  H2  UNL     1      18.761  -7.520 -25.175  1.00  0.00     0.189 HD
HETATM    3  C5  UNL     1      17.091  -8.353 -26.024  1.00  0.00     0.201 C 
ENDROOT
BRANCH   3   4
HETATM    4  N3  UNL     1      15.716  -8.165 -26.108  1.00  0.00    -0.288 N 
HETATM    5  C6  UNL     1      14.981  -7.749 -27.216  1.00  0.00     0.328 C 
HETATM    6  O2  UNL     1      15.366  -7.461 -28.342  1.00  0.00    -0.247 OA
HETATM    7  N4  UNL     1      13.545  -7.640 -27.009  1.00  0.00    -0.288 N 
ATOM      8  H4  UNL     1      13.121  -6.789 -26.640  1.00  0.00     0.172 HD
ATOM      9  H3  UNL     1      15.183  -8.353 -25.258  1.00  0.00     0.172 HD
BRANCH   7  10
HETATM   10  C7  UNL     1      12.822  -8.692 -27.320  1.00  0.00     0.152 A 
HETATM   11  N5  UNL     1      13.169  -9.775 -28.013  1.00  0.00    -0.346 N 
HETATM   12  C8  UNL     1      12.283 -10.706 -28.206  1.00  0.00     0.097 A 
ATOM     13  H5  UNL     1      14.114  -9.872 -28.386  1.00  0.00     0.167 HD
HETATM   14  C9  UNL     1      11.031 -10.520 -27.682  1.00  0.00     0.070 A 
HETATM   15  S1  UNL     1      11.188  -8.996 -26.927  1.00  0.00    -0.064 SA
ENDBRANCH   7  10
ENDBRANCH   3   4
BRANCH   3  16
HETATM   16  C10 UNL     1      17.882  -9.376 -26.618  1.00  0.00     0.328 C 
HETATM   17  O3  UNL     1      17.690  -9.951 -27.695  1.00  0.00    -0.256 OA
BRANCH  16  18
HETATM   18  O4  UNL     1      19.060  -9.843 -25.938  1.00  0.00    -0.320 OA
HETATM   19  C11 UNL     1      18.919 -10.484 -24.699  1.00  0.00     0.213 C 
ENDBRANCH  16  18
ENDBRANCH   3  16
BRANCH   1  20
HETATM   20  N1  UNL     1      17.055  -6.414 -24.668  1.00  0.00    -0.268 N 
HETATM   21  C4  UNL     1      16.748  -5.231 -25.346  1.00  0.00     0.239 C 
HETATM   22  O1  UNL     1      17.084  -5.051 -26.541  1.00  0.00    -0.272 OA
ATOM     23  H1  UNL     1      16.763  -6.521 -23.696  1.00  0.00     0.190 HD
BRANCH  21  24
HETATM   24  C3  UNL     1      16.007  -4.151 -24.655  1.00  0.00     0.131 C 
BRANCH  24  25
HETATM   25  C2  UNL     1      16.747  -2.878 -24.628  1.00  0.00    -0.028 C 
HETATM   26  C1  UNL     1      17.806  -2.750 -23.863  1.00  0.00     0.007 C 
ENDBRANCH  24  25
ENDBRANCH  21  24
ENDBRANCH   1  20
TORSDOF 7
ENDMDL
MODEL 2
REMARK VINA RESULT: -7.276981229      1.424      1.547
REMARK  7 active torsions:
REMARK  status: ('A' for Active; 'I' for Inactive)
REMARK    1  A    between atoms: C2_2  and  C3_3 
REMARK    2  A    between atoms: C3_3  and  C4_4 
REMARK       I    between atoms: C4_4  and  N1_6 
REMARK    3  A    between atoms: N1_6  and  N2_8 
REMARK    4  A    between atoms: C5_10  and  N3_11 
REMARK    5  A    between atoms: C5_10  and  C10_23 
REMARK       I    between atoms: N3_11  and  C6_13 
REMARK       I    between atoms: C6_13  and  N4_15 
REMARK    6  A    between atoms: N4_15  and  C7_17 
REMARK    7  A    between atoms: C10_23  and  O4_25 
ROOT
HETATM    1  N2  UNL     1      17.875  -6.733 -26.572  1.00  0.00    -0.278 N 
ATOM      2  H2  UNL     1      18.877  -6.709 -26.384  1.00  0.00     0.189 HD
HETATM    3  C5  UNL     1      17.254  -7.909 -26.748  1.00  0.00     0.201 C 
ENDROOT
BRANCH   3   4
HETATM    4  N3  UNL     1      15.888  -7.828 -26.997  1.00  0.00    -0.288 N 
HETATM    5  C6  UNL     1      15.262  -7.354 -28.148  1.00  0.00     0.328 C 
HETATM    6  O2  UNL     1      15.756  -6.912 -29.177  1.00  0.00    -0.247 OA
HETATM    7  N4  UNL     1      13.808  -7.388 -28.127  1.00  0.00    -0.288 N 
ATOM      8  H4  UNL     1      13.260  -6.622 -27.737  1.00  0.00     0.172 HD
ATOM      9  H3  UNL     1      15.274  -8.153 -26.251  1.00  0.00     0.172 HD
BRANCH   7  10
HETATM   10  C7  UNL     1      13.235  -8.456 -28.637  1.00  0.00     0.152 A 
HETATM   11  N5  UNL     1      12.703  -8.629 -29.845  1.00  0.00    -0.346 N 
HETATM   12  C8  UNL     1      12.182  -9.782 -30.142  1.00  0.00     0.097 A 
ATOM     13  H5  UNL     1      12.704  -7.868 -30.526  1.00  0.00     0.167 HD
HETATM   14  C9  UNL     1      12.210 -10.764 -29.188  1.00  0.00     0.070 A 
HETATM   15  S1  UNL     1      12.992  -9.974 -27.892  1.00  0.00    -0.064 SA
ENDBRANCH   7  10
ENDBRANCH   3   4
BRANCH   3  16
HETATM   16  C10 UNL     1      18.069  -9.071 -26.654  1.00  0.00     0.328 C 
HETATM   17  O3  UNL     1      18.107 -10.032 -27.430  1.00  0.00    -0.256 OA
BRANCH  16  18
HETATM   18  O4  UNL     1      18.983  -9.207 -25.551  1.00  0.00    -0.320 OA
HETATM   19  C11 UNL     1      18.932 -10.370 -24.769  1.00  0.00     0.213 C 
ENDBRANCH  16  18
ENDBRANCH   3  16
BRANCH   1  20
HETATM   20  N1  UNL     1      17.155  -5.546 -26.647  1.00  0.00    -0.268 N 
HETATM   21  C4  UNL     1      16.850  -4.800 -25.505  1.00  0.00     0.239 C 
HETATM   22  O1  UNL     1      17.213  -5.169 -24.362  1.00  0.00    -0.272 OA
ATOM     23  H1  UNL     1      16.842  -5.211 -27.558  1.00  0.00     0.190 HD
BRANCH  21  24
HETATM   24  C3  UNL     1      16.081  -3.541 -25.624  1.00  0.00     0.131 C 
BRANCH  24  25
HETATM   25  C2  UNL     1      15.908  -2.852 -24.334  1.00  0.00    -0.028 C 
HETATM   26  C1  UNL     1      14.709  -2.499 -23.934  1.00  0.00     0.007 C 
ENDBRANCH  24  25
ENDBRANCH  21  24
ENDBRANCH   1  20
TORSDOF 7
ENDMDL
MODEL 3
REMARK VINA RESULT: -7.236702098      4.870      8.211
REMARK  7 active torsions:
REMARK  status: ('A' for Active; 'I' for Inactive)
REMARK    1  A    between atoms: C2_2  and  C3_3 
REMARK    2  A    between atoms: C3_3  and  C4_4 
REMARK       I    between atoms: C4_4  and  N1_6 
REMARK    3  A    between atoms: N1_6  and  N2_8 
REMARK    4  A    between atoms: C5_10  and  N3_11 
REMARK    5  A    between atoms: C5_10  and  C10_23 
REMARK       I    between atoms: N3_11  and  C6_13 
REMARK       I    between atoms: C6_13  and  N4_15 
REMARK    6  A    between atoms: N4_15  and  C7_17 
REMARK    7  A    between atoms: C10_23  and  O4_25 
ROOT
HETATM    1  N2  UNL     1       8.341 -11.123 -27.774  1.00  0.00    -0.278 N 
ATOM      2  H2  UNL     1       7.761 -11.902 -28.087  1.00  0.00     0.189 HD
HETATM    3  C5  UNL     1       9.650 -11.102 -28.069  1.00  0.00     0.201 C 
ENDROOT
BRANCH   3   4
HETATM    4  N3  UNL     1      10.347  -9.996 -27.596  1.00  0.00    -0.288 N 
HETATM    5  C6  UNL     1      11.645  -9.962 -27.091  1.00  0.00     0.328 C 
HETATM    6  O2  UNL     1      12.449 -10.874 -26.952  1.00  0.00    -0.247 OA
HETATM    7  N4  UNL     1      12.117  -8.653 -26.667  1.00  0.00    -0.288 N 
ATOM      8  H4  UNL     1      11.941  -8.299 -25.727  1.00  0.00     0.172 HD
ATOM      9  H3  UNL     1       9.850  -9.105 -27.621  1.00  0.00     0.172 HD
BRANCH   7  10
HETATM   10  C7  UNL     1      12.783  -7.949 -27.555  1.00  0.00     0.152 A 
HETATM   11  N5  UNL     1      13.090  -8.258 -28.813  1.00  0.00    -0.346 N 
HETATM   12  C8  UNL     1      13.764  -7.403 -29.522  1.00  0.00     0.097 A 
ATOM     13  H5  UNL     1      12.801  -9.151 -29.214  1.00  0.00     0.167 HD
HETATM   14  C9  UNL     1      14.125  -6.221 -28.931  1.00  0.00     0.070 A 
HETATM   15  S1  UNL     1      13.469  -6.397 -27.364  1.00  0.00    -0.064 SA
ENDBRANCH   7  10
ENDBRANCH   3   4
BRANCH   3  16
HETATM   16  C10 UNL     1      10.143 -12.204 -28.820  1.00  0.00     0.328 C 
HETATM   17  O3  UNL     1       9.785 -13.385 -28.753  1.00  0.00    -0.256 OA
BRANCH  16  18
HETATM   18  O4  UNL     1      11.182 -11.991 -29.792  1.00  0.00    -0.320 OA
HETATM   19  C11 UNL     1      11.053 -10.930 -30.700  1.00  0.00     0.213 C 
ENDBRANCH  16  18
ENDBRANCH   3  16
BRANCH   1  20
HETATM   20  N1  UNL     1       7.774 -10.086 -27.043  1.00  0.00    -0.268 N 
HETATM   21  C4  UNL     1       6.730 -10.311 -26.140  1.00  0.00     0.239 C 
HETATM   22  O1  UNL     1       6.261 -11.458 -25.950  1.00  0.00    -0.272 OA
ATOM     23  H1  UNL     1       8.128  -9.137 -27.168  1.00  0.00     0.190 HD
BRANCH  21  24
HETATM   24  C3  UNL     1       6.151  -9.181 -25.379  1.00  0.00     0.131 C 
BRANCH  24  25
HETATM   25  C2  UNL     1       6.418  -7.875 -26.003  1.00  0.00    -0.028 C 
HETATM   26  C1  UNL     1       7.441  -7.153 -25.604  1.00  0.00     0.007 C 
ENDBRANCH  24  25
ENDBRANCH  21  24
ENDBRANCH   1  20
TORSDOF 7
ENDMDL
MODEL 4
REMARK VINA RESULT: -7.172906418      1.356      1.674
REMARK  7 active torsions:
REMARK  status: ('A' for Active; 'I' for Inactive)
REMARK    1  A    between atoms: C2_2  and  C3_3 
REMARK    2  A    between atoms: C3_3  and  C4_4 
REMARK       I    between atoms: C4_4  and  N1_6 
REMARK    3  A    between atoms: N1_6  and  N2_8 
REMARK    4  A    between atoms: C5_10  and  N3_11 
REMARK    5  A    between atoms: C5_10  and  C10_23 
REMARK       I    between atoms: N3_11  and  C6_13 
REMARK       I    between atoms: C6_13  and  N4_15 
REMARK    6  A    between atoms: N4_15  and  C7_17 
REMARK    7  A    between atoms: C10_23  and  O4_25 
ROOT
HETATM    1  N2  UNL     1      17.405  -6.112 -24.868  1.00  0.00    -0.278 N 
ATOM      2  H2  UNL     1      18.354  -6.033 -24.504  1.00  0.00     0.189 HD
HETATM    3  C5  UNL     1      17.007  -7.248 -25.461  1.00  0.00     0.201 C 
ENDROOT
BRANCH   3   4
HETATM    4  N3  UNL     1      15.695  -7.251 -25.920  1.00  0.00    -0.288 N 
HETATM    5  C6  UNL     1      15.256  -7.371 -27.237  1.00  0.00     0.328 C 
HETATM    6  O2  UNL     1      15.908  -7.498 -28.266  1.00  0.00    -0.247 OA
HETATM    7  N4  UNL     1      13.814  -7.341 -27.421  1.00  0.00    -0.288 N 
ATOM      8  H4  UNL     1      13.306  -6.463 -27.527  1.00  0.00     0.172 HD
ATOM      9  H3  UNL     1      14.969  -7.154 -25.210  1.00  0.00     0.172 HD
BRANCH   7  10
HETATM   10  C7  UNL     1      13.197  -8.502 -27.443  1.00  0.00     0.152 A 
HETATM   11  N5  UNL     1      13.715  -9.728 -27.462  1.00  0.00    -0.346 N 
HETATM   12  C8  UNL     1      12.910 -10.748 -27.483  1.00  0.00     0.097 A 
ATOM     13  H5  UNL     1      14.727  -9.864 -27.458  1.00  0.00     0.167 HD
HETATM   14  C9  UNL     1      11.563 -10.503 -27.487  1.00  0.00     0.070 A 
HETATM   15  S1  UNL     1      11.515  -8.796 -27.458  1.00  0.00    -0.064 SA
ENDBRANCH   7  10
ENDBRANCH   3   4
BRANCH   3  16
HETATM   16  C10 UNL     1      17.974  -8.289 -25.536  1.00  0.00     0.328 C 
HETATM   17  O3  UNL     1      18.921  -8.385 -26.325  1.00  0.00    -0.256 OA
BRANCH  16  18
HETATM   18  O4  UNL     1      17.901  -9.392 -24.616  1.00  0.00    -0.320 OA
HETATM   19  C11 UNL     1      18.845 -10.423 -24.717  1.00  0.00     0.213 C 
ENDBRANCH  16  18
ENDBRANCH   3  16
BRANCH   1  20
HETATM   20  N1  UNL     1      16.525  -5.042 -24.751  1.00  0.00    -0.268 N 
HETATM   21  C4  UNL     1      16.957  -3.781 -24.331  1.00  0.00     0.239 C 
HETATM   22  O1  UNL     1      18.157  -3.559 -24.043  1.00  0.00    -0.272 OA
ATOM     23  H1  UNL     1      15.540  -5.181 -24.977  1.00  0.00     0.190 HD
BRANCH  21  24
HETATM   24  C3  UNL     1      15.990  -2.665 -24.218  1.00  0.00     0.131 C 
BRANCH  24  25
HETATM   25  C2  UNL     1      14.591  -3.108 -24.329  1.00  0.00    -0.028 C 
HETATM   26  C1  UNL     1      13.654  -2.508 -23.631  1.00  0.00     0.007 C 
ENDBRANCH  24  25
ENDBRANCH  21  24
ENDBRANCH   1  20
TORSDOF 7
ENDMDL
MODEL 5
REMARK VINA RESULT: -7.165802372      2.866      3.604
REMARK  7 active torsions:
REMARK  status: ('A' for Active; 'I' for Inactive)
REMARK    1  A    between atoms: C2_2  and  C3_3 
REMARK    2  A    between atoms: C3_3  and  C4_4 
REMARK       I    between atoms: C4_4  and  N1_6 
REMARK    3  A    between atoms: N1_6  and  N2_8 
REMARK    4  A    between atoms: C5_10  and  N3_11 
REMARK    5  A    between atoms: C5_10  and  C10_23 
REMARK       I    between atoms: N3_11  and  C6_13 
REMARK       I    between atoms: C6_13  and  N4_15 
REMARK    6  A    between atoms: N4_15  and  C7_17 
REMARK    7  A    between atoms: C10_23  and  O4_25 
ROOT
HETATM    1  N2  UNL     1      17.758  -7.132 -25.465  1.00  0.00    -0.278 N 
ATOM      2  H2  UNL     1      18.122  -7.566 -24.617  1.00  0.00     0.189 HD
HETATM    3  C5  UNL     1      17.408  -7.896 -26.511  1.00  0.00     0.201 C 
ENDROOT
BRANCH   3   4
HETATM    4  N3  UNL     1      16.923  -7.206 -27.616  1.00  0.00    -0.288 N 
HETATM    5  C6  UNL     1      15.622  -7.207 -28.115  1.00  0.00     0.328 C 
HETATM    6  O2  UNL     1      14.633  -7.802 -27.707  1.00  0.00    -0.247 OA
HETATM    7  N4  UNL     1      15.404  -6.384 -29.294  1.00  0.00    -0.288 N 
ATOM      8  H4  UNL     1      15.568  -6.741 -30.235  1.00  0.00     0.172 HD
ATOM      9  H3  UNL     1      17.598  -6.631 -28.120  1.00  0.00     0.172 HD
BRANCH   7  10
HETATM   10  C7  UNL     1      14.985  -5.155 -29.087  1.00  0.00     0.152 A 
HETATM   11  N5  UNL     1      14.352  -4.651 -28.030  1.00  0.00    -0.346 N 
HETATM   12  C8  UNL     1      14.025  -3.393 -28.036  1.00  0.00     0.097 A 
ATOM     13  H5  UNL     1      14.126  -5.242 -27.229  1.00  0.00     0.167 HD
HETATM   14  C9  UNL     1      14.354  -2.650 -29.139  1.00  0.00     0.070 A 
HETATM   15  S1  UNL     1      15.125  -3.809 -30.128  1.00  0.00    -0.064 SA
ENDBRANCH   7  10
ENDBRANCH   3   4
BRANCH   3  16
HETATM   16  C10 UNL     1      17.578  -9.299 -26.349  1.00  0.00     0.328 C 
HETATM   17  O3  UNL     1      16.727 -10.185 -26.487  1.00  0.00    -0.256 OA
BRANCH  16  18
HETATM   18  O4  UNL     1      18.868  -9.819 -25.981  1.00  0.00    -0.320 OA
HETATM   19  C11 UNL     1      19.015 -10.449 -24.737  1.00  0.00     0.213 C 
ENDBRANCH  16  18
ENDBRANCH   3  16
BRANCH   1  20
HETATM   20  N1  UNL     1      17.625  -5.751 -25.536  1.00  0.00    -0.268 N 
HETATM   21  C4  UNL     1      16.518  -5.091 -24.995  1.00  0.00     0.239 C 
HETATM   22  O1  UNL     1      15.596  -5.718 -24.421  1.00  0.00    -0.272 OA
ATOM     23  H1  UNL     1      18.355  -5.204 -25.995  1.00  0.00     0.190 HD
BRANCH  21  24
HETATM   24  C3  UNL     1      16.412  -3.617 -25.090  1.00  0.00     0.131 C 
BRANCH  24  25
HETATM   25  C2  UNL     1      15.132  -3.102 -24.578  1.00  0.00    -0.028 C 
HETATM   26  C1  UNL     1      15.116  -2.291 -23.545  1.00  0.00     0.007 C 
ENDBRANCH  24  25
ENDBRANCH  21  24
ENDBRANCH   1  20
TORSDOF 7
ENDMDL
