MODEL 1
REMARK VINA RESULT: -6.668626590      0.000      0.000
REMARK  3 active torsions:
REMARK  status: ('A' for Active; 'I' for Inactive)
REMARK    1  A    between atoms: C2_2  and  N1_3 
REMARK    2  A    between atoms: N1_3  and  C3_5 
REMARK    3  A    between atoms: C3_5  and  C4_6 
ROOT
HETATM    1  C4  UNL     1     -65.853 -34.601 -29.725  1.00  0.00     0.085 C 
HETATM    2  C5  UNL     1     -66.494 -33.585 -28.828  1.00  0.00     0.245 C 
HETATM    3  N2  UNL     1     -67.276 -33.102 -29.963  1.00  0.00    -0.065 N 
ATOM      4  H21 UNL     1     -67.566 -32.126 -30.030  1.00  0.00     0.278 HD
ATOM      5  H22 UNL     1     -68.252 -33.371 -30.089  1.00  0.00     0.278 HD
HETATM    6  C6  UNL     1     -66.228 -33.639 -30.812  1.00  0.00     0.135 C 
HETATM    7  C7  UNL     1     -65.239 -32.627 -31.261  1.00  0.00     0.040 C 
HETATM    8  C8  UNL     1     -64.338 -33.164 -32.345  1.00  0.00     0.002 C 
HETATM    9  C9  UNL     1     -64.939 -33.150 -33.711  1.00  0.00     0.000 C 
HETATM   10  C10 UNL     1     -66.347 -32.678 -33.797  1.00  0.00     0.000 C 
HETATM   11  C11 UNL     1     -67.348 -33.463 -33.025  1.00  0.00     0.002 C 
HETATM   12  C12 UNL     1     -66.778 -34.399 -32.012  1.00  0.00     0.040 C 
ENDROOT
BRANCH   1  13
HETATM   13  C3  UNL     1     -64.421 -34.842 -29.444  1.00  0.00     0.069 C 
BRANCH  13  14
HETATM   14  N1  UNL     1     -64.052 -36.179 -29.462  1.00  0.00    -0.382 N 
ATOM     15  H1  UNL     1     -63.155 -36.415 -29.037  1.00  0.00     0.163 HD
BRANCH  14  16
HETATM   16  C2  UNL     1     -64.779 -37.220 -30.000  1.00  0.00     0.056 C 
HETATM   17  C1  UNL     1     -64.078 -38.567 -30.045  1.00  0.00     0.054 C 
ENDBRANCH  14  16
ENDBRANCH  13  14
ENDBRANCH   1  13
TORSDOF 3
ENDMDL
MODEL 2
REMARK VINA RESULT: -6.493510559      1.709      2.285
REMARK  3 active torsions:
REMARK  status: ('A' for Active; 'I' for Inactive)
REMARK    1  A    between atoms: C2_2  and  N1_3 
REMARK    2  A    between atoms: N1_3  and  C3_5 
REMARK    3  A    between atoms: C3_5  and  C4_6 
ROOT
HETATM    1  C4  UNL     1     -67.281 -34.953 -31.988  1.00  0.00     0.085 C 
HETATM    2  C5  UNL     1     -68.691 -34.445 -32.039  1.00  0.00     0.245 C 
HETATM    3  N2  UNL     1     -68.351 -33.675 -33.233  1.00  0.00    -0.065 N 
ATOM      4  H21 UNL     1     -68.818 -32.794 -33.446  1.00  0.00     0.278 HD
ATOM      5  H22 UNL     1     -68.604 -34.003 -34.166  1.00  0.00     0.278 HD
HETATM    6  C6  UNL     1     -66.977 -33.709 -32.768  1.00  0.00     0.135 C 
HETATM    7  C7  UNL     1     -66.555 -32.482 -32.046  1.00  0.00     0.040 C 
HETATM    8  C8  UNL     1     -65.064 -32.446 -31.822  1.00  0.00     0.002 C 
HETATM    9  C9  UNL     1     -64.272 -31.995 -33.004  1.00  0.00     0.000 C 
HETATM   10  C10 UNL     1     -65.052 -31.715 -34.240  1.00  0.00     0.000 C 
HETATM   11  C11 UNL     1     -65.824 -32.857 -34.799  1.00  0.00     0.002 C 
HETATM   12  C12 UNL     1     -65.987 -34.023 -33.884  1.00  0.00     0.040 C 
ENDROOT
BRANCH   1  13
HETATM   13  C3  UNL     1     -66.735 -35.093 -30.620  1.00  0.00     0.069 C 
BRANCH  13  14
HETATM   14  N1  UNL     1     -65.863 -36.159 -30.459  1.00  0.00    -0.382 N 
ATOM     15  H1  UNL     1     -64.887 -35.930 -30.267  1.00  0.00     0.163 HD
BRANCH  14  16
HETATM   16  C2  UNL     1     -66.186 -37.497 -30.533  1.00  0.00     0.056 C 
HETATM   17  C1  UNL     1     -65.110 -38.468 -30.075  1.00  0.00     0.054 C 
ENDBRANCH  14  16
ENDBRANCH  13  14
ENDBRANCH   1  13
TORSDOF 3
ENDMDL
MODEL 3
REMARK VINA RESULT: -6.489199545      0.977      1.251
REMARK  3 active torsions:
REMARK  status: ('A' for Active; 'I' for Inactive)
REMARK    1  A    between atoms: C2_2  and  N1_3 
REMARK    2  A    between atoms: N1_3  and  C3_5 
REMARK    3  A    between atoms: C3_5  and  C4_6 
ROOT
HETATM    1  C4  UNL     1     -66.662 -33.842 -29.498  1.00  0.00     0.085 C 
HETATM    2  C5  UNL     1     -67.807 -32.959 -29.103  1.00  0.00     0.245 C 
HETATM    3  N2  UNL     1     -68.262 -32.959 -30.491  1.00  0.00    -0.065 N 
ATOM      4  H21 UNL     1     -68.757 -32.160 -30.887  1.00  0.00     0.278 HD
ATOM      5  H22 UNL     1     -69.034 -33.553 -30.797  1.00  0.00     0.278 HD
HETATM    6  C6  UNL     1     -66.889 -33.255 -30.858  1.00  0.00     0.135 C 
HETATM    7  C7  UNL     1     -66.108 -32.064 -31.277  1.00  0.00     0.040 C 
HETATM    8  C8  UNL     1     -64.790 -32.448 -31.902  1.00  0.00     0.002 C 
HETATM    9  C9  UNL     1     -64.881 -32.863 -33.332  1.00  0.00     0.000 C 
HETATM   10  C10 UNL     1     -66.251 -32.904 -33.911  1.00  0.00     0.000 C 
HETATM   11  C11 UNL     1     -67.210 -33.833 -33.255  1.00  0.00     0.002 C 
HETATM   12  C12 UNL     1     -66.788 -34.345 -31.919  1.00  0.00     0.040 C 
ENDROOT
BRANCH   1  13
HETATM   13  C3  UNL     1     -65.395 -33.546 -28.792  1.00  0.00     0.069 C 
BRANCH  13  14
HETATM   14  N1  UNL     1     -64.562 -34.643 -28.628  1.00  0.00    -0.382 N 
ATOM     15  H1  UNL     1     -64.383 -34.946 -27.670  1.00  0.00     0.163 HD
BRANCH  14  16
HETATM   16  C2  UNL     1     -63.953 -35.363 -29.632  1.00  0.00     0.056 C 
HETATM   17  C1  UNL     1     -64.489 -36.766 -29.865  1.00  0.00     0.054 C 
ENDBRANCH  14  16
ENDBRANCH  13  14
ENDBRANCH   1  13
TORSDOF 3
ENDMDL
MODEL 4
REMARK VINA RESULT: -6.476478339      1.653      2.382
REMARK  3 active torsions:
REMARK  status: ('A' for Active; 'I' for Inactive)
REMARK    1  A    between atoms: C2_2  and  N1_3 
REMARK    2  A    between atoms: N1_3  and  C3_5 
REMARK    3  A    between atoms: C3_5  and  C4_6 
ROOT
HETATM    1  C4  UNL     1     -67.084 -34.914 -31.749  1.00  0.00     0.085 C 
HETATM    2  C5  UNL     1     -68.507 -34.444 -31.735  1.00  0.00     0.245 C 
HETATM    3  N2  UNL     1     -68.263 -33.723 -32.981  1.00  0.00    -0.065 N 
ATOM      4  H21 UNL     1     -68.766 -32.865 -33.205  1.00  0.00     0.278 HD
ATOM      5  H22 UNL     1     -68.563 -34.100 -33.881  1.00  0.00     0.278 HD
HETATM    6  C6  UNL     1     -66.862 -33.700 -32.601  1.00  0.00     0.135 C 
HETATM    7  C7  UNL     1     -66.431 -32.431 -31.963  1.00  0.00     0.040 C 
HETATM    8  C8  UNL     1     -64.931 -32.347 -31.834  1.00  0.00     0.002 C 
HETATM    9  C9  UNL     1     -64.225 -31.933 -33.081  1.00  0.00     0.000 C 
HETATM   10  C10 UNL     1     -65.086 -31.730 -34.278  1.00  0.00     0.000 C 
HETATM   11  C11 UNL     1     -65.859 -32.916 -34.736  1.00  0.00     0.002 C 
HETATM   12  C12 UNL     1     -65.934 -34.042 -33.761  1.00  0.00     0.040 C 
ENDROOT
BRANCH   1  13
HETATM   13  C3  UNL     1     -66.452 -34.976 -30.412  1.00  0.00     0.069 C 
BRANCH  13  14
HETATM   14  N1  UNL     1     -65.395 -35.869 -30.320  1.00  0.00    -0.382 N 
ATOM     15  H1  UNL     1     -65.485 -36.743 -30.839  1.00  0.00     0.163 HD
BRANCH  14  16
HETATM   16  C2  UNL     1     -64.235 -35.691 -29.596  1.00  0.00     0.056 C 
HETATM   17  C1  UNL     1     -64.252 -34.563 -28.579  1.00  0.00     0.054 C 
ENDBRANCH  14  16
ENDBRANCH  13  14
ENDBRANCH   1  13
TORSDOF 3
ENDMDL
MODEL 5
REMARK VINA RESULT: -6.239846838      1.498      2.315
REMARK  3 active torsions:
REMARK  status: ('A' for Active; 'I' for Inactive)
REMARK    1  A    between atoms: C2_2  and  N1_3 
REMARK    2  A    between atoms: N1_3  and  C3_5 
REMARK    3  A    between atoms: C3_5  and  C4_6 
ROOT
HETATM    1  C4  UNL     1     -64.968 -35.420 -29.124  1.00  0.00     0.085 C 
HETATM    2  C5  UNL     1     -63.822 -34.788 -28.392  1.00  0.00     0.245 C 
HETATM    3  N2  UNL     1     -64.560 -33.528 -28.362  1.00  0.00    -0.065 N 
ATOM      4  H21 UNL     1     -64.076 -32.630 -28.369  1.00  0.00     0.278 HD
ATOM      5  H22 UNL     1     -65.055 -33.223 -27.523  1.00  0.00     0.278 HD
HETATM    6  C6  UNL     1     -65.275 -34.010 -29.530  1.00  0.00     0.135 C 
HETATM    7  C7  UNL     1     -64.748 -33.491 -30.816  1.00  0.00     0.040 C 
HETATM    8  C8  UNL     1     -65.674 -33.793 -31.967  1.00  0.00     0.002 C 
HETATM    9  C9  UNL     1     -66.831 -32.860 -32.091  1.00  0.00     0.000 C 
HETATM   10  C10 UNL     1     -66.943 -31.818 -31.035  1.00  0.00     0.000 C 
HETATM   11  C11 UNL     1     -67.090 -32.315 -29.640  1.00  0.00     0.002 C 
HETATM   12  C12 UNL     1     -66.776 -33.759 -29.442  1.00  0.00     0.040 C 
ENDROOT
BRANCH   1  13
HETATM   13  C3  UNL     1     -64.563 -36.393 -30.163  1.00  0.00     0.069 C 
BRANCH  13  14
HETATM   14  N1  UNL     1     -64.290 -37.665 -29.681  1.00  0.00    -0.382 N 
ATOM     15  H1  UNL     1     -63.524 -37.749 -29.013  1.00  0.00     0.163 HD
BRANCH  14  16
HETATM   16  C2  UNL     1     -64.953 -38.825 -30.018  1.00  0.00     0.056 C 
HETATM   17  C1  UNL     1     -66.289 -38.649 -30.720  1.00  0.00     0.054 C 
ENDBRANCH  14  16
ENDBRANCH  13  14
ENDBRANCH   1  13
TORSDOF 3
ENDMDL
