MODEL 1
REMARK VINA RESULT: -6.637486494      0.000      0.000
REMARK  3 active torsions:
REMARK  status: ('A' for Active; 'I' for Inactive)
REMARK    1  A    between atoms: C2_3  and  C3_4 
REMARK    2  A    between atoms: C3_4  and  N2_5 
REMARK    3  A    between atoms: N2_5  and  C4_7 
ROOT
HETATM    1  N1  UNL     1     -68.881 -37.745 -33.090  1.00  0.00    -0.197 NA
HETATM    2  C1  UNL     1     -68.257 -38.206 -32.243  1.00  0.00     0.060 C 
HETATM    3  C2  UNL     1     -67.432 -38.815 -31.169  1.00  0.00     0.143 C 
ENDROOT
BRANCH   3   4
HETATM    4  C3  UNL     1     -66.427 -37.776 -30.682  1.00  0.00     0.128 C 
BRANCH   4   5
HETATM    5  N2  UNL     1     -66.985 -36.494 -30.901  1.00  0.00    -0.412 N 
ATOM      6  H2  UNL     1     -67.886 -36.369 -31.362  1.00  0.00     0.154 HD
BRANCH   5   7
HETATM    7  C4  UNL     1     -66.218 -35.393 -30.443  1.00  0.00     0.026 C 
HETATM    8  C5  UNL     1     -66.983 -34.440 -29.555  1.00  0.00     0.035 C 
HETATM    9  C6  UNL     1     -66.051 -33.346 -29.096  1.00  0.00    -0.012 C 
HETATM   10  C7  UNL     1     -64.833 -33.900 -28.392  1.00  0.00     0.009 C 
HETATM   11  C11 UNL     1     -65.548 -32.522 -30.268  1.00  0.00     0.009 C 
HETATM   12  C8  UNL     1     -64.066 -34.780 -29.340  1.00  0.00    -0.012 C 
HETATM   13  C9  UNL     1     -63.670 -34.063 -30.605  1.00  0.00     0.009 C 
HETATM   14  C13 UNL     1     -65.002 -35.905 -29.725  1.00  0.00     0.035 C 
HETATM   15  C10 UNL     1     -64.892 -33.454 -31.255  1.00  0.00    -0.012 C 
HETATM   16  C12 UNL     1     -65.829 -34.539 -31.665  1.00  0.00     0.035 C 
ENDBRANCH   5   7
ENDBRANCH   4   5
ENDBRANCH   3   4
TORSDOF 3
ENDMDL
MODEL 2
REMARK VINA RESULT: -6.528385514      1.736      3.128
REMARK  3 active torsions:
REMARK  status: ('A' for Active; 'I' for Inactive)
REMARK    1  A    between atoms: C2_3  and  C3_4 
REMARK    2  A    between atoms: C3_4  and  N2_5 
REMARK    3  A    between atoms: N2_5  and  C4_7 
ROOT
HETATM    1  N1  UNL     1     -66.482 -38.825 -30.800  1.00  0.00    -0.197 NA
HETATM    2  C1  UNL     1     -65.456 -38.421 -30.480  1.00  0.00     0.060 C 
HETATM    3  C2  UNL     1     -64.121 -37.896 -30.094  1.00  0.00     0.143 C 
ENDROOT
BRANCH   3   4
HETATM    4  C3  UNL     1     -64.248 -36.399 -29.829  1.00  0.00     0.128 C 
BRANCH   4   5
HETATM    5  N2  UNL     1     -65.624 -36.092 -29.708  1.00  0.00    -0.412 N 
ATOM      6  H2  UNL     1     -66.278 -36.722 -29.244  1.00  0.00     0.154 HD
BRANCH   5   7
HETATM    7  C4  UNL     1     -66.041 -34.858 -30.268  1.00  0.00     0.026 C 
HETATM    8  C5  UNL     1     -64.950 -34.121 -31.009  1.00  0.00     0.035 C 
HETATM    9  C6  UNL     1     -65.527 -32.858 -31.597  1.00  0.00    -0.012 C 
HETATM   10  C7  UNL     1     -66.709 -33.141 -32.494  1.00  0.00     0.009 C 
HETATM   11  C11 UNL     1     -66.012 -31.915 -30.510  1.00  0.00     0.009 C 
HETATM   12  C8  UNL     1     -67.796 -33.805 -31.695  1.00  0.00    -0.012 C 
HETATM   13  C9  UNL     1     -68.218 -32.988 -30.500  1.00  0.00     0.009 C 
HETATM   14  C13 UNL     1     -67.210 -35.102 -31.179  1.00  0.00     0.035 C 
HETATM   15  C10 UNL     1     -67.010 -32.654 -29.654  1.00  0.00    -0.012 C 
HETATM   16  C12 UNL     1     -66.418 -33.911 -29.113  1.00  0.00     0.035 C 
ENDBRANCH   5   7
ENDBRANCH   4   5
ENDBRANCH   3   4
TORSDOF 3
ENDMDL
MODEL 3
REMARK VINA RESULT: -6.498839609      0.124      1.887
REMARK  3 active torsions:
REMARK  status: ('A' for Active; 'I' for Inactive)
REMARK    1  A    between atoms: C2_3  and  C3_4 
REMARK    2  A    between atoms: C3_4  and  N2_5 
REMARK    3  A    between atoms: N2_5  and  C4_7 
ROOT
HETATM    1  N1  UNL     1     -68.912 -37.625 -33.105  1.00  0.00    -0.197 NA
HETATM    2  C1  UNL     1     -68.298 -38.127 -32.274  1.00  0.00     0.060 C 
HETATM    3  C2  UNL     1     -67.487 -38.788 -31.220  1.00  0.00     0.143 C 
ENDROOT
BRANCH   3   4
HETATM    4  C3  UNL     1     -66.487 -37.774 -30.672  1.00  0.00     0.128 C 
BRANCH   4   5
HETATM    5  N2  UNL     1     -67.021 -36.480 -30.876  1.00  0.00    -0.412 N 
ATOM      6  H2  UNL     1     -67.959 -36.336 -31.251  1.00  0.00     0.154 HD
BRANCH   5   7
HETATM    7  C4  UNL     1     -66.178 -35.394 -30.529  1.00  0.00     0.026 C 
HETATM    8  C5  UNL     1     -65.705 -34.583 -31.712  1.00  0.00     0.035 C 
HETATM    9  C6  UNL     1     -64.862 -33.436 -31.211  1.00  0.00    -0.012 C 
HETATM   10  C7  UNL     1     -65.610 -32.579 -30.217  1.00  0.00     0.009 C 
HETATM   11  C11 UNL     1     -63.610 -33.936 -30.512  1.00  0.00     0.009 C 
HETATM   12  C8  UNL     1     -65.993 -33.412 -29.025  1.00  0.00    -0.012 C 
HETATM   13  C9  UNL     1     -64.804 -34.071 -28.373  1.00  0.00     0.009 C 
HETATM   14  C13 UNL     1     -66.894 -34.510 -29.549  1.00  0.00     0.035 C 
HETATM   15  C10 UNL     1     -64.029 -34.865 -29.400  1.00  0.00    -0.012 C 
HETATM   16  C12 UNL     1     -64.883 -35.969 -29.924  1.00  0.00     0.035 C 
ENDBRANCH   5   7
ENDBRANCH   4   5
ENDBRANCH   3   4
TORSDOF 3
ENDMDL
MODEL 4
REMARK VINA RESULT: -6.448424928      1.816      2.891
REMARK  3 active torsions:
REMARK  status: ('A' for Active; 'I' for Inactive)
REMARK    1  A    between atoms: C2_3  and  C3_4 
REMARK    2  A    between atoms: C3_4  and  N2_5 
REMARK    3  A    between atoms: N2_5  and  C4_7 
ROOT
HETATM    1  N1  UNL     1     -63.472 -39.031 -30.116  1.00  0.00    -0.197 NA
HETATM    2  C1  UNL     1     -64.607 -38.854 -30.114  1.00  0.00     0.060 C 
HETATM    3  C2  UNL     1     -66.072 -38.612 -30.085  1.00  0.00     0.143 C 
ENDROOT
BRANCH   3   4
HETATM    4  C3  UNL     1     -66.365 -37.324 -30.849  1.00  0.00     0.128 C 
BRANCH   4   5
HETATM    5  N2  UNL     1     -65.592 -36.289 -30.272  1.00  0.00    -0.412 N 
ATOM      6  H2  UNL     1     -64.754 -36.484 -29.723  1.00  0.00     0.154 HD
BRANCH   5   7
HETATM    7  C4  UNL     1     -66.048 -34.967 -30.501  1.00  0.00     0.026 C 
HETATM    8  C5  UNL     1     -66.263 -34.165 -29.240  1.00  0.00     0.035 C 
HETATM    9  C6  UNL     1     -66.697 -32.770 -29.616  1.00  0.00    -0.012 C 
HETATM   10  C7  UNL     1     -65.703 -32.098 -30.535  1.00  0.00     0.009 C 
HETATM   11  C11 UNL     1     -68.031 -32.784 -30.341  1.00  0.00     0.009 C 
HETATM   12  C8  UNL     1     -65.581 -32.892 -31.806  1.00  0.00    -0.012 C 
HETATM   13  C9  UNL     1     -66.906 -33.081 -32.501  1.00  0.00     0.009 C 
HETATM   14  C13 UNL     1     -65.076 -34.261 -31.403  1.00  0.00     0.035 C 
HETATM   15  C10 UNL     1     -67.906 -33.686 -31.542  1.00  0.00    -0.012 C 
HETATM   16  C12 UNL     1     -67.448 -35.047 -31.139  1.00  0.00     0.035 C 
ENDBRANCH   5   7
ENDBRANCH   4   5
ENDBRANCH   3   4
TORSDOF 3
ENDMDL
MODEL 5
REMARK VINA RESULT: -6.414491875      1.400      2.448
REMARK  3 active torsions:
REMARK  status: ('A' for Active; 'I' for Inactive)
REMARK    1  A    between atoms: C2_3  and  C3_4 
REMARK    2  A    between atoms: C3_4  and  N2_5 
REMARK    3  A    between atoms: N2_5  and  C4_7 
ROOT
HETATM    1  N1  UNL     1     -68.603 -39.422 -31.615  1.00  0.00    -0.197 NA
HETATM    2  C1  UNL     1     -68.591 -38.487 -32.281  1.00  0.00     0.060 C 
HETATM    3  C2  UNL     1     -68.603 -37.282 -33.149  1.00  0.00     0.143 C 
ENDROOT
BRANCH   3   4
HETATM    4  C3  UNL     1     -68.815 -36.053 -32.269  1.00  0.00     0.128 C 
BRANCH   4   5
HETATM    5  N2  UNL     1     -67.921 -35.046 -32.704  1.00  0.00    -0.412 N 
ATOM      6  H2  UNL     1     -67.896 -34.729 -33.673  1.00  0.00     0.154 HD
BRANCH   5   7
HETATM    7  C4  UNL     1     -67.064 -34.503 -31.714  1.00  0.00     0.026 C 
HETATM    8  C5  UNL     1     -66.531 -35.524 -30.736  1.00  0.00     0.035 C 
HETATM    9  C6  UNL     1     -65.599 -34.835 -29.771  1.00  0.00    -0.012 C 
HETATM   10  C7  UNL     1     -64.478 -34.116 -30.485  1.00  0.00     0.009 C 
HETATM   11  C11 UNL     1     -66.333 -33.797 -28.941  1.00  0.00     0.009 C 
HETATM   12  C8  UNL     1     -65.054 -33.060 -31.387  1.00  0.00    -0.012 C 
HETATM   13  C9  UNL     1     -65.930 -32.081 -30.647  1.00  0.00     0.009 C 
HETATM   14  C13 UNL     1     -65.927 -33.789 -32.386  1.00  0.00     0.035 C 
HETATM   15  C10 UNL     1     -67.000 -32.825 -29.881  1.00  0.00    -0.012 C 
HETATM   16  C12 UNL     1     -67.891 -33.540 -30.840  1.00  0.00     0.035 C 
ENDBRANCH   5   7
ENDBRANCH   4   5
ENDBRANCH   3   4
TORSDOF 3
ENDMDL
