MODEL 1
REMARK VINA RESULT: -9.056502444      0.000      0.000
REMARK  11 active torsions:
REMARK  status: ('A' for Active; 'I' for Inactive)
REMARK    1  A    between atoms: C2_2  and  C3_3 
REMARK    2  A    between atoms: C3_3  and  C4_4 
REMARK    3  A    between atoms: C3_3  and  C12_14 
REMARK    4  A    between atoms: C4_4  and  C5_5 
REMARK    5  A    between atoms: C5_5  and  C6_6 
REMARK    6  A    between atoms: C16_18  and  O1_19 
REMARK    7  A    between atoms: C18_22  and  C19_23 
REMARK    8  A    between atoms: C19_23  and  C21_25 
REMARK    9  A    between atoms: C21_25  and  C22_26 
REMARK   10  A    between atoms: C22_26  and  C24_29 
REMARK   11  A    between atoms: C25_30  and  S1_31 
ROOT
HETATM    1  C22 UNL     1       6.285  -0.976  47.358  1.00  0.00     0.116 C 
HETATM    2  C23 UNL     1       6.925  -1.526  48.624  1.00  0.00     0.068 C 
HETATM    3  N2  UNL     1       7.394  -1.942  49.622  1.00  0.00    -0.197 NA
ENDROOT
BRANCH   1   4
HETATM    4  C21 UNL     1       5.031  -1.742  47.245  1.00  0.00     0.027 C 
BRANCH   4   5
HETATM    5  C19 UNL     1       3.970  -1.669  48.284  1.00  0.00    -0.012 C 
HETATM    6  C20 UNL     1       3.546  -0.243  48.465  1.00  0.00     0.010 C 
BRANCH   5   7
HETATM    7  C18 UNL     1       2.874  -2.608  47.859  1.00  0.00     0.000 C 
HETATM    8  C12 UNL     1       2.442  -3.698  48.723  1.00  0.00    -0.036 C 
HETATM    9  C13 UNL     1       1.503  -3.401  49.836  1.00  0.00     0.016 C 
HETATM   10  C14 UNL     1       1.646  -4.661  47.806  1.00  0.00     0.012 C 
HETATM   11  C15 UNL     1       0.586  -3.988  47.013  1.00  0.00     0.032 C 
HETATM   12  C16 UNL     1       0.434  -2.523  47.193  1.00  0.00     0.118 C 
HETATM   13  C17 UNL     1       1.718  -1.787  47.367  1.00  0.00     0.037 C 
BRANCH   8  14
HETATM   14  C3  UNL     1       3.564  -4.592  49.249  1.00  0.00    -0.006 C 
BRANCH  14  15
HETATM   15  C2  UNL     1       3.563  -5.970  48.716  1.00  0.00     0.001 C 
HETATM   16  C1  UNL     1       4.813  -6.596  48.211  1.00  0.00     0.005 C 
ENDBRANCH  14  15
BRANCH  14  17
HETATM   17  C4  UNL     1       3.689  -4.418  50.708  1.00  0.00     0.010 C 
BRANCH  17  18
HETATM   18  C5  UNL     1       4.506  -3.397  51.364  1.00  0.00     0.040 C 
BRANCH  18  19
HETATM   19  C6  UNL     1       4.311  -3.207  52.819  1.00  0.00    -0.043 A 
HETATM   20  C7  UNL     1       3.883  -4.146  53.696  1.00  0.00     0.010 A 
HETATM   21  C8  UNL     1       3.743  -3.899  55.070  1.00  0.00     0.025 A 
HETATM   22  C9  UNL     1       4.045  -2.659  55.580  1.00  0.00     0.005 A 
HETATM   23  C10 UNL     1       3.903  -2.375  57.043  1.00  0.00     0.068 C 
HETATM   24  N1  UNL     1       4.469  -1.723  54.715  1.00  0.00    -0.369 N 
HETATM   25  C11 UNL     1       4.603  -1.956  53.402  1.00  0.00     0.095 A 
ATOM     26  H1  UNL     1       4.697  -0.796  55.072  1.00  0.00     0.165 HD
ENDBRANCH  18  19
ENDBRANCH  17  18
ENDBRANCH  14  17
ENDBRANCH   8  14
BRANCH  12  27
HETATM   27  O1  UNL     1      -0.218  -2.064  46.003  1.00  0.00    -0.396 OA
ATOM     28  H1  UNL     1      -0.799  -1.368  46.290  1.00  0.00     0.210 HD
ENDBRANCH  12  27
ENDBRANCH   5   7
ENDBRANCH   4   5
ENDBRANCH   1   4
BRANCH   1  29
HETATM   29  C24 UNL     1       7.321  -1.125  46.343  1.00  0.00    -0.001 C 
HETATM   30  C25 UNL     1       8.435  -0.397  46.330  1.00  0.00     0.042 C 
BRANCH  30  31
HETATM   31  S1  UNL     1       9.686  -0.613  45.062  1.00  0.00    -0.146 SA
HETATM   32  C26 UNL     1      11.075  -1.605  45.668  1.00  0.00     0.095 C 
ENDBRANCH  30  31
ENDBRANCH   1  29
TORSDOF 11
ENDMDL
MODEL 2
REMARK VINA RESULT: -8.830448177      1.673      1.987
REMARK  11 active torsions:
REMARK  status: ('A' for Active; 'I' for Inactive)
REMARK    1  A    between atoms: C2_2  and  C3_3 
REMARK    2  A    between atoms: C3_3  and  C4_4 
REMARK    3  A    between atoms: C3_3  and  C12_14 
REMARK    4  A    between atoms: C4_4  and  C5_5 
REMARK    5  A    between atoms: C5_5  and  C6_6 
REMARK    6  A    between atoms: C16_18  and  O1_19 
REMARK    7  A    between atoms: C18_22  and  C19_23 
REMARK    8  A    between atoms: C19_23  and  C21_25 
REMARK    9  A    between atoms: C21_25  and  C22_26 
REMARK   10  A    between atoms: C22_26  and  C24_29 
REMARK   11  A    between atoms: C25_30  and  S1_31 
ROOT
HETATM    1  C22 UNL     1       6.206  -1.693  47.668  1.00  0.00     0.116 C 
HETATM    2  C23 UNL     1       6.881  -0.428  47.157  1.00  0.00     0.068 C 
HETATM    3  N2  UNL     1       7.394   0.543  46.730  1.00  0.00    -0.197 NA
ENDROOT
BRANCH   1   4
HETATM    4  C21 UNL     1       4.795  -1.508  47.286  1.00  0.00     0.027 C 
BRANCH   4   5
HETATM    5  C19 UNL     1       3.702  -1.504  48.294  1.00  0.00    -0.012 C 
HETATM    6  C20 UNL     1       3.181  -0.108  48.459  1.00  0.00     0.010 C 
BRANCH   5   7
HETATM    7  C18 UNL     1       2.681  -2.512  47.840  1.00  0.00     0.000 C 
HETATM    8  C12 UNL     1       2.380  -3.689  48.643  1.00  0.00    -0.036 C 
HETATM    9  C13 UNL     1       1.456  -3.550  49.799  1.00  0.00     0.016 C 
HETATM   10  C14 UNL     1       1.643  -4.663  47.688  1.00  0.00     0.012 C 
HETATM   11  C15 UNL     1       0.501  -4.043  46.971  1.00  0.00     0.032 C 
HETATM   12  C16 UNL     1       0.223  -2.613  47.250  1.00  0.00     0.118 C 
HETATM   13  C17 UNL     1       1.440  -1.773  47.435  1.00  0.00     0.037 C 
BRANCH   8  14
HETATM   14  C3  UNL     1       3.595  -4.506  49.077  1.00  0.00    -0.006 C 
BRANCH  14  15
HETATM   15  C2  UNL     1       3.694  -5.848  48.467  1.00  0.00     0.001 C 
HETATM   16  C1  UNL     1       4.993  -6.570  48.411  1.00  0.00     0.005 C 
ENDBRANCH  14  15
BRANCH  14  17
HETATM   17  C4  UNL     1       3.764  -4.400  50.539  1.00  0.00     0.010 C 
BRANCH  17  18
HETATM   18  C5  UNL     1       4.535  -3.362  51.222  1.00  0.00     0.040 C 
BRANCH  18  19
HETATM   19  C6  UNL     1       4.315  -3.203  52.677  1.00  0.00    -0.043 A 
HETATM   20  C7  UNL     1       3.889  -4.165  53.529  1.00  0.00     0.010 A 
HETATM   21  C8  UNL     1       3.725  -3.946  54.905  1.00  0.00     0.025 A 
HETATM   22  C9  UNL     1       3.999  -2.711  55.443  1.00  0.00     0.005 A 
HETATM   23  C10 UNL     1       3.830  -2.457  56.909  1.00  0.00     0.068 C 
HETATM   24  N1  UNL     1       4.419  -1.753  54.602  1.00  0.00    -0.369 N 
HETATM   25  C11 UNL     1       4.578  -1.958  53.287  1.00  0.00     0.095 A 
ATOM     26  H1  UNL     1       4.627  -0.829  54.980  1.00  0.00     0.165 HD
ENDBRANCH  18  19
ENDBRANCH  17  18
ENDBRANCH  14  17
ENDBRANCH   8  14
BRANCH  12  27
HETATM   27  O1  UNL     1      -0.509  -2.143  46.112  1.00  0.00    -0.396 OA
ATOM     28  H1  UNL     1      -0.578  -1.202  46.229  1.00  0.00     0.210 HD
ENDBRANCH  12  27
ENDBRANCH   5   7
ENDBRANCH   4   5
ENDBRANCH   1   4
BRANCH   1  29
HETATM   29  C24 UNL     1       6.576  -1.749  49.077  1.00  0.00    -0.001 C 
HETATM   30  C25 UNL     1       7.838  -1.708  49.498  1.00  0.00     0.042 C 
BRANCH  30  31
HETATM   31  S1  UNL     1       8.251  -1.779  51.242  1.00  0.00    -0.146 SA
HETATM   32  C26 UNL     1       9.867  -1.027  51.568  1.00  0.00     0.095 C 
ENDBRANCH  30  31
ENDBRANCH   1  29
TORSDOF 11
ENDMDL
MODEL 3
REMARK VINA RESULT: -8.651465199      1.184      1.512
REMARK  11 active torsions:
REMARK  status: ('A' for Active; 'I' for Inactive)
REMARK    1  A    between atoms: C2_2  and  C3_3 
REMARK    2  A    between atoms: C3_3  and  C4_4 
REMARK    3  A    between atoms: C3_3  and  C12_14 
REMARK    4  A    between atoms: C4_4  and  C5_5 
REMARK    5  A    between atoms: C5_5  and  C6_6 
REMARK    6  A    between atoms: C16_18  and  O1_19 
REMARK    7  A    between atoms: C18_22  and  C19_23 
REMARK    8  A    between atoms: C19_23  and  C21_25 
REMARK    9  A    between atoms: C21_25  and  C22_26 
REMARK   10  A    between atoms: C22_26  and  C24_29 
REMARK   11  A    between atoms: C25_30  and  S1_31 
ROOT
HETATM    1  C22 UNL     1       6.371  -1.009  47.668  1.00  0.00     0.116 C 
HETATM    2  C23 UNL     1       7.135  -1.562  48.863  1.00  0.00     0.068 C 
HETATM    3  N2  UNL     1       7.700  -1.980  49.809  1.00  0.00    -0.197 NA
ENDROOT
BRANCH   1   4
HETATM    4  C21 UNL     1       5.114  -1.776  47.678  1.00  0.00     0.027 C 
BRANCH   4   5
HETATM    5  C19 UNL     1       3.978  -1.412  48.564  1.00  0.00    -0.012 C 
HETATM    6  C20 UNL     1       4.144   0.003  49.032  1.00  0.00     0.010 C 
BRANCH   5   7
HETATM    7  C18 UNL     1       2.714  -1.680  47.791  1.00  0.00     0.000 C 
HETATM    8  C12 UNL     1       1.783  -2.718  48.212  1.00  0.00    -0.036 C 
HETATM    9  C13 UNL     1       0.827  -2.419  49.311  1.00  0.00     0.016 C 
HETATM   10  C14 UNL     1       0.874  -2.979  46.984  1.00  0.00     0.012 C 
HETATM   11  C15 UNL     1       0.275  -1.746  46.414  1.00  0.00     0.032 C 
HETATM   12  C16 UNL     1       0.617  -0.461  47.071  1.00  0.00     0.118 C 
HETATM   13  C17 UNL     1       2.025  -0.369  47.549  1.00  0.00     0.037 C 
BRANCH   8  14
HETATM   14  C3  UNL     1       2.408  -4.089  48.459  1.00  0.00    -0.006 C 
BRANCH  14  15
HETATM   15  C2  UNL     1       2.006  -5.139  47.501  1.00  0.00     0.001 C 
HETATM   16  C1  UNL     1       2.847  -6.347  47.292  1.00  0.00     0.005 C 
ENDBRANCH  14  15
BRANCH  14  17
HETATM   17  C4  UNL     1       2.343  -4.408  49.897  1.00  0.00     0.010 C 
BRANCH  17  18
HETATM   18  C5  UNL     1       3.469  -4.878  50.705  1.00  0.00     0.040 C 
BRANCH  18  19
HETATM   19  C6  UNL     1       3.865  -4.045  51.862  1.00  0.00    -0.043 A 
HETATM   20  C7  UNL     1       3.535  -4.268  53.157  1.00  0.00     0.010 A 
HETATM   21  C8  UNL     1       3.968  -3.444  54.207  1.00  0.00     0.025 A 
HETATM   22  C9  UNL     1       4.762  -2.354  53.944  1.00  0.00     0.005 A 
HETATM   23  C10 UNL     1       5.234  -1.463  55.050  1.00  0.00     0.068 C 
HETATM   24  N1  UNL     1       5.091  -2.127  52.662  1.00  0.00    -0.369 N 
HETATM   25  C11 UNL     1       4.680  -2.911  51.656  1.00  0.00     0.095 A 
ATOM     26  H1  UNL     1       5.679  -1.322  52.444  1.00  0.00     0.165 HD
ENDBRANCH  18  19
ENDBRANCH  17  18
ENDBRANCH  14  17
ENDBRANCH   8  14
BRANCH  12  27
HETATM   27  O1  UNL     1       0.387   0.544  46.076  1.00  0.00    -0.396 OA
ATOM     28  H1  UNL     1       1.102   0.451  45.456  1.00  0.00     0.210 HD
ENDBRANCH  12  27
ENDBRANCH   5   7
ENDBRANCH   4   5
ENDBRANCH   1   4
BRANCH   1  29
HETATM   29  C24 UNL     1       7.302  -1.152  46.555  1.00  0.00    -0.001 C 
HETATM   30  C25 UNL     1       8.366  -0.370  46.394  1.00  0.00     0.042 C 
BRANCH  30  31
HETATM   31  S1  UNL     1       9.488  -0.581  45.009  1.00  0.00    -0.146 SA
HETATM   32  C26 UNL     1      10.998  -1.447  45.510  1.00  0.00     0.095 C 
ENDBRANCH  30  31
ENDBRANCH   1  29
TORSDOF 11
ENDMDL
MODEL 4
REMARK VINA RESULT: -8.617415657      3.998      7.524
REMARK  11 active torsions:
REMARK  status: ('A' for Active; 'I' for Inactive)
REMARK    1  A    between atoms: C2_2  and  C3_3 
REMARK    2  A    between atoms: C3_3  and  C4_4 
REMARK    3  A    between atoms: C3_3  and  C12_14 
REMARK    4  A    between atoms: C4_4  and  C5_5 
REMARK    5  A    between atoms: C5_5  and  C6_6 
REMARK    6  A    between atoms: C16_18  and  O1_19 
REMARK    7  A    between atoms: C18_22  and  C19_23 
REMARK    8  A    between atoms: C19_23  and  C21_25 
REMARK    9  A    between atoms: C21_25  and  C22_26 
REMARK   10  A    between atoms: C22_26  and  C24_29 
REMARK   11  A    between atoms: C25_30  and  S1_31 
ROOT
HETATM    1  C22 UNL     1       5.081  -2.756  52.522  1.00  0.00     0.116 C 
HETATM    2  C23 UNL     1       5.592  -1.400  52.984  1.00  0.00     0.068 C 
HETATM    3  N2  UNL     1       6.008  -0.347  53.315  1.00  0.00    -0.197 NA
ENDROOT
BRANCH   1   4
HETATM    4  C21 UNL     1       4.471  -2.466  51.212  1.00  0.00     0.027 C 
BRANCH   4   5
HETATM    5  C19 UNL     1       4.451  -3.469  50.116  1.00  0.00    -0.012 C 
HETATM    6  C20 UNL     1       3.169  -4.245  50.172  1.00  0.00     0.010 C 
BRANCH   5   7
HETATM    7  C18 UNL     1       4.684  -2.721  48.831  1.00  0.00     0.000 C 
HETATM    8  C12 UNL     1       3.700  -1.774  48.325  1.00  0.00    -0.036 C 
HETATM    9  C13 UNL     1       3.664  -0.404  48.899  1.00  0.00     0.016 C 
HETATM   10  C14 UNL     1       4.072  -1.549  46.837  1.00  0.00     0.012 C 
HETATM   11  C15 UNL     1       5.498  -1.194  46.627  1.00  0.00     0.032 C 
HETATM   12  C16 UNL     1       6.359  -1.109  47.832  1.00  0.00     0.118 C 
HETATM   13  C17 UNL     1       6.063  -2.132  48.874  1.00  0.00     0.037 C 
BRANCH   8  14
HETATM   14  C3  UNL     1       2.273  -2.309  48.232  1.00  0.00    -0.006 C 
BRANCH  14  15
HETATM   15  C2  UNL     1       1.977  -3.088  47.012  1.00  0.00     0.001 C 
HETATM   16  C1  UNL     1       1.176  -4.339  47.077  1.00  0.00     0.005 C 
ENDBRANCH  14  15
BRANCH  14  17
HETATM   17  C4  UNL     1       1.323  -1.250  48.620  1.00  0.00     0.010 C 
BRANCH  17  18
HETATM   18  C5  UNL     1       0.108  -0.901  47.884  1.00  0.00     0.040 C 
BRANCH  18  19
HETATM   19  C6  UNL     1      -0.093   0.527  47.549  1.00  0.00    -0.043 A 
HETATM   20  C7  UNL     1      -1.019   1.351  48.094  1.00  0.00     0.010 A 
HETATM   21  C8  UNL     1      -1.137   2.704  47.742  1.00  0.00     0.025 A 
HETATM   22  C9  UNL     1      -0.290   3.248  46.806  1.00  0.00     0.005 A 
HETATM   23  C10 UNL     1      -0.400   4.689  46.417  1.00  0.00     0.068 C 
HETATM   24  N1  UNL     1       0.629   2.435  46.261  1.00  0.00    -0.369 N 
HETATM   25  C11 UNL     1       0.744   1.142  46.595  1.00  0.00     0.095 A 
ATOM     26  H1  UNL     1       1.266   2.818  45.563  1.00  0.00     0.165 HD
ENDBRANCH  18  19
ENDBRANCH  17  18
ENDBRANCH  14  17
ENDBRANCH   8  14
BRANCH  12  27
HETATM   27  O1  UNL     1       7.697  -1.292  47.353  1.00  0.00    -0.396 OA
ATOM     28  H1  UNL     1       8.253  -1.177  48.116  1.00  0.00     0.210 HD
ENDBRANCH  12  27
ENDBRANCH   5   7
ENDBRANCH   4   5
ENDBRANCH   1   4
BRANCH   1  29
HETATM   29  C24 UNL     1       4.247  -3.216  53.626  1.00  0.00    -0.001 C 
HETATM   30  C25 UNL     1       4.540  -2.983  54.903  1.00  0.00     0.042 C 
BRANCH  30  31
HETATM   31  S1  UNL     1       3.486  -3.567  56.232  1.00  0.00    -0.146 SA
HETATM   32  C26 UNL     1       3.197  -2.269  57.463  1.00  0.00     0.095 C 
ENDBRANCH  30  31
ENDBRANCH   1  29
TORSDOF 11
ENDMDL
MODEL 5
REMARK VINA RESULT: -8.603847375      3.190      4.969
REMARK  11 active torsions:
REMARK  status: ('A' for Active; 'I' for Inactive)
REMARK    1  A    between atoms: C2_2  and  C3_3 
REMARK    2  A    between atoms: C3_3  and  C4_4 
REMARK    3  A    between atoms: C3_3  and  C12_14 
REMARK    4  A    between atoms: C4_4  and  C5_5 
REMARK    5  A    between atoms: C5_5  and  C6_6 
REMARK    6  A    between atoms: C16_18  and  O1_19 
REMARK    7  A    between atoms: C18_22  and  C19_23 
REMARK    8  A    between atoms: C19_23  and  C21_25 
REMARK    9  A    between atoms: C21_25  and  C22_26 
REMARK   10  A    between atoms: C22_26  and  C24_29 
REMARK   11  A    between atoms: C25_30  and  S1_31 
ROOT
HETATM    1  C22 UNL     1       0.650  -0.441  47.159  1.00  0.00     0.116 C 
HETATM    2  C23 UNL     1      -0.356  -1.012  48.147  1.00  0.00     0.068 C 
HETATM    3  N2  UNL     1      -1.124  -1.484  48.906  1.00  0.00    -0.197 NA
ENDROOT
BRANCH   1   4
HETATM    4  C21 UNL     1       1.948  -0.896  47.687  1.00  0.00     0.027 C 
BRANCH   4   5
HETATM    5  C19 UNL     1       2.956  -1.566  46.825  1.00  0.00    -0.012 C 
HETATM    6  C20 UNL     1       4.090  -0.622  46.557  1.00  0.00     0.010 C 
BRANCH   5   7
HETATM    7  C18 UNL     1       3.346  -2.845  47.515  1.00  0.00     0.000 C 
HETATM    8  C12 UNL     1       3.776  -2.846  48.907  1.00  0.00    -0.036 C 
HETATM    9  C13 UNL     1       2.742  -2.803  49.975  1.00  0.00     0.016 C 
HETATM   10  C14 UNL     1       4.479  -4.211  49.120  1.00  0.00     0.012 C 
HETATM   11  C15 UNL     1       3.669  -5.374  48.678  1.00  0.00     0.032 C 
HETATM   12  C16 UNL     1       2.332  -5.088  48.102  1.00  0.00     0.118 C 
HETATM   13  C17 UNL     1       2.276  -3.864  47.254  1.00  0.00     0.037 C 
BRANCH   8  14
HETATM   14  C3  UNL     1       4.880  -1.847  49.246  1.00  0.00    -0.006 C 
BRANCH  14  15
HETATM   15  C2  UNL     1       6.248  -2.296  48.916  1.00  0.00     0.001 C 
HETATM   16  C1  UNL     1       7.163  -1.439  48.117  1.00  0.00     0.005 C 
ENDBRANCH  14  15
BRANCH  14  17
HETATM   17  C4  UNL     1       4.643  -1.289  50.590  1.00  0.00     0.010 C 
BRANCH  17  18
HETATM   18  C5  UNL     1       5.520  -1.482  51.745  1.00  0.00     0.040 C 
BRANCH  18  19
HETATM   19  C6  UNL     1       4.944  -2.170  52.923  1.00  0.00    -0.043 A 
HETATM   20  C7  UNL     1       4.797  -3.508  53.073  1.00  0.00     0.010 A 
HETATM   21  C8  UNL     1       4.262  -4.090  54.232  1.00  0.00     0.025 A 
HETATM   22  C9  UNL     1       3.860  -3.296  55.279  1.00  0.00     0.005 A 
HETATM   23  C10 UNL     1       3.286  -3.898  56.524  1.00  0.00     0.068 C 
HETATM   24  N1  UNL     1       4.002  -1.968  55.135  1.00  0.00    -0.369 N 
HETATM   25  C11 UNL     1       4.513  -1.408  54.030  1.00  0.00     0.095 A 
ATOM     26  H1  UNL     1       3.709  -1.360  55.899  1.00  0.00     0.165 HD
ENDBRANCH  18  19
ENDBRANCH  17  18
ENDBRANCH  14  17
ENDBRANCH   8  14
BRANCH  12  27
HETATM   27  O1  UNL     1       2.013  -6.233  47.303  1.00  0.00    -0.396 OA
ATOM     28  H1  UNL     1       1.819  -5.889  46.438  1.00  0.00     0.210 HD
ENDBRANCH  12  27
ENDBRANCH   5   7
ENDBRANCH   4   5
ENDBRANCH   1   4
BRANCH   1  29
HETATM   29  C24 UNL     1       0.341   0.983  47.119  1.00  0.00    -0.001 C 
HETATM   30  C25 UNL     1       0.538   1.798  48.152  1.00  0.00     0.042 C 
BRANCH  30  31
HETATM   31  S1  UNL     1       0.144   3.546  48.061  1.00  0.00    -0.146 SA
HETATM   32  C26 UNL     1      -0.572   3.977  46.453  1.00  0.00     0.095 C 
ENDBRANCH  30  31
ENDBRANCH   1  29
TORSDOF 11
ENDMDL
