MODEL 1
REMARK VINA RESULT: -8.410630638      0.000      0.000
REMARK  14 active torsions:
REMARK  status: ('A' for Active; 'I' for Inactive)
REMARK    1  A    between atoms: C2_2  and  C3_3 
REMARK    2  A    between atoms: C3_3  and  C4_4 
REMARK    3  A    between atoms: C4_4  and  C5_5 
REMARK    4  A    between atoms: C5_5  and  C6_6 
REMARK    5  A    between atoms: C6_6  and  C7_7 
REMARK    6  A    between atoms: C7_7  and  C8_8 
REMARK    7  A    between atoms: C8_8  and  C9_9 
REMARK    8  A    between atoms: C9_9  and  C10_10 
REMARK    9  A    between atoms: C10_10  and  C11_12 
REMARK   10  A    between atoms: C11_12  and  O2_14 
REMARK   11  A    between atoms: O2_14  and  C12_15 
REMARK   12  A    between atoms: N1_21  and  C18_22 
REMARK   13  A    between atoms: C18_22  and  O3_23 
REMARK   14  A    between atoms: C18_22  and  N2_25 
ROOT
HETATM    1  C12 UNL     1       5.134  -1.652  49.421  1.00  0.00     0.138 C 
HETATM    2  C13 UNL     1       5.415  -2.141  48.027  1.00  0.00     0.039 C 
HETATM    3  C14 UNL     1       5.308  -0.944  47.121  1.00  0.00     0.006 C 
HETATM    4  C15 UNL     1       5.502   0.239  48.049  1.00  0.00     0.015 C 
HETATM    5  C16 UNL     1       4.682  -0.215  49.238  1.00  0.00     0.034 C 
HETATM    6  C17 UNL     1       3.242  -0.186  48.895  1.00  0.00     0.133 C 
HETATM    7  N1  UNL     1       2.972  -0.226  47.438  1.00  0.00    -0.347 N 
HETATM    8  C24 UNL     1       3.906  -0.799  46.529  1.00  0.00     0.131 C 
ENDROOT
BRANCH   1   9
HETATM    9  O2  UNL     1       6.286  -1.730  50.203  1.00  0.00    -0.315 OA
BRANCH   9  10
HETATM   10  C11 UNL     1       6.331  -1.514  51.562  1.00  0.00     0.274 C 
HETATM   11  O1  UNL     1       7.414  -1.044  52.025  1.00  0.00    -0.264 OA
BRANCH  10  12
HETATM   12  C10 UNL     1       5.198  -1.803  52.473  1.00  0.00     0.158 C 
HETATM   13  S1  UNL     1       5.450  -1.000  54.097  1.00  0.00    -0.082 SA
BRANCH  12  14
HETATM   14  C9  UNL     1       5.077  -3.276  52.655  1.00  0.00     0.026 C 
BRANCH  14  15
HETATM   15  C8  UNL     1       3.750  -3.684  53.268  1.00  0.00     0.002 C 
BRANCH  15  16
HETATM   16  C7  UNL     1       2.864  -4.388  52.302  1.00  0.00     0.000 C 
BRANCH  16  17
HETATM   17  C6  UNL     1       3.404  -4.251  50.908  1.00  0.00     0.000 C 
BRANCH  17  18
HETATM   18  C5  UNL     1       3.166  -5.525  50.150  1.00  0.00     0.000 C 
BRANCH  18  19
HETATM   19  C4  UNL     1       3.890  -5.504  48.804  1.00  0.00     0.000 C 
BRANCH  19  20
HETATM   20  C3  UNL     1       2.881  -5.843  47.741  1.00  0.00    -0.000 C 
BRANCH  20  21
HETATM   21  C2  UNL     1       1.658  -4.963  47.751  1.00  0.00    -0.005 C 
HETATM   22  C1  UNL     1       2.017  -3.708  46.970  1.00  0.00     0.005 C 
ENDBRANCH  20  21
ENDBRANCH  19  20
ENDBRANCH  18  19
ENDBRANCH  17  18
ENDBRANCH  16  17
ENDBRANCH  15  16
ENDBRANCH  14  15
ENDBRANCH  12  14
ENDBRANCH  10  12
ENDBRANCH   9  10
ENDBRANCH   1   9
BRANCH   7  23
HETATM   23  C18 UNL     1       1.749   0.333  47.033  1.00  0.00     0.217 C 
BRANCH  23  24
HETATM   24  O3  UNL     1       1.812   1.067  45.940  1.00  0.00    -0.333 OA
ATOM     25  H3  UNL     1       1.041   1.025  45.388  1.00  0.00     0.220 HD
ENDBRANCH  23  24
BRANCH  23  26
HETATM   26  N2  UNL     1       0.466   0.260  47.571  1.00  0.00    -0.348 N 
HETATM   27  C19 UNL     1      -0.216   1.338  48.227  1.00  0.00     0.126 C 
HETATM   28  C20 UNL     1      -1.716   1.055  48.314  1.00  0.00     0.020 C 
HETATM   29  C21 UNL     1      -2.074  -0.256  48.894  1.00  0.00     0.003 C 
HETATM   30  C22 UNL     1      -1.002  -1.264  48.733  1.00  0.00     0.020 C 
HETATM   31  C23 UNL     1      -0.247  -1.039  47.463  1.00  0.00     0.126 C 
ENDBRANCH  23  26
ENDBRANCH   7  23
TORSDOF 14
ENDMDL
MODEL 2
REMARK VINA RESULT: -8.311974390      3.262      6.022
REMARK  14 active torsions:
REMARK  status: ('A' for Active; 'I' for Inactive)
REMARK    1  A    between atoms: C2_2  and  C3_3 
REMARK    2  A    between atoms: C3_3  and  C4_4 
REMARK    3  A    between atoms: C4_4  and  C5_5 
REMARK    4  A    between atoms: C5_5  and  C6_6 
REMARK    5  A    between atoms: C6_6  and  C7_7 
REMARK    6  A    between atoms: C7_7  and  C8_8 
REMARK    7  A    between atoms: C8_8  and  C9_9 
REMARK    8  A    between atoms: C9_9  and  C10_10 
REMARK    9  A    between atoms: C10_10  and  C11_12 
REMARK   10  A    between atoms: C11_12  and  O2_14 
REMARK   11  A    between atoms: O2_14  and  C12_15 
REMARK   12  A    between atoms: N1_21  and  C18_22 
REMARK   13  A    between atoms: C18_22  and  O3_23 
REMARK   14  A    between atoms: C18_22  and  N2_25 
ROOT
HETATM    1  C12 UNL     1       5.562  -0.853  50.098  1.00  0.00     0.138 C 
HETATM    2  C13 UNL     1       4.846   0.032  49.116  1.00  0.00     0.039 C 
HETATM    3  C14 UNL     1       4.830  -0.708  47.804  1.00  0.00     0.006 C 
HETATM    4  C15 UNL     1       5.042  -2.156  48.195  1.00  0.00     0.015 C 
HETATM    5  C16 UNL     1       6.106  -1.995  49.260  1.00  0.00     0.034 C 
HETATM    6  C17 UNL     1       7.384  -1.588  48.634  1.00  0.00     0.133 C 
HETATM    7  N1  UNL     1       7.227  -0.969  47.296  1.00  0.00    -0.347 N 
HETATM    8  C24 UNL     1       6.015  -0.325  46.918  1.00  0.00     0.131 C 
ENDROOT
BRANCH   1   9
HETATM    9  O2  UNL     1       4.676  -1.311  51.073  1.00  0.00    -0.315 OA
BRANCH   9  10
HETATM   10  C11 UNL     1       4.934  -1.331  52.425  1.00  0.00     0.274 C 
HETATM   11  O1  UNL     1       5.794  -0.501  52.850  1.00  0.00    -0.264 OA
BRANCH  10  12
HETATM   12  C10 UNL     1       4.264  -2.256  53.370  1.00  0.00     0.158 C 
HETATM   13  S1  UNL     1       4.876  -1.998  55.074  1.00  0.00    -0.082 SA
BRANCH  12  14
HETATM   14  C9  UNL     1       4.525  -3.660  52.950  1.00  0.00     0.026 C 
BRANCH  14  15
HETATM   15  C8  UNL     1       3.313  -4.316  52.314  1.00  0.00     0.002 C 
BRANCH  15  16
HETATM   16  C7  UNL     1       3.270  -4.137  50.838  1.00  0.00     0.000 C 
BRANCH  16  17
HETATM   17  C6  UNL     1       3.097  -5.464  50.158  1.00  0.00     0.000 C 
BRANCH  17  18
HETATM   18  C5  UNL     1       3.774  -5.435  48.818  1.00  0.00     0.000 C 
BRANCH  18  19
HETATM   19  C4  UNL     1       2.808  -5.854  47.709  1.00  0.00     0.000 C 
BRANCH  19  20
HETATM   20  C3  UNL     1       1.662  -4.880  47.714  1.00  0.00    -0.000 C 
BRANCH  20  21
HETATM   21  C2  UNL     1       1.926  -3.617  46.934  1.00  0.00    -0.005 C 
HETATM   22  C1  UNL     1       1.351  -2.471  47.752  1.00  0.00     0.005 C 
ENDBRANCH  20  21
ENDBRANCH  19  20
ENDBRANCH  18  19
ENDBRANCH  17  18
ENDBRANCH  16  17
ENDBRANCH  15  16
ENDBRANCH  14  15
ENDBRANCH  12  14
ENDBRANCH  10  12
ENDBRANCH   9  10
ENDBRANCH   1   9
BRANCH   7  23
HETATM   23  C18 UNL     1       8.342  -1.069  46.448  1.00  0.00     0.217 C 
BRANCH  23  24
HETATM   24  O3  UNL     1       8.055  -1.288  45.180  1.00  0.00    -0.333 OA
ATOM     25  H3  UNL     1       8.810  -1.414  44.617  1.00  0.00     0.220 HD
ENDBRANCH  23  24
BRANCH  23  26
HETATM   26  N2  UNL     1       9.711  -0.978  46.692  1.00  0.00    -0.348 N 
HETATM   27  C19 UNL     1      10.312  -0.195  47.733  1.00  0.00     0.126 C 
HETATM   28  C20 UNL     1      11.753  -0.642  47.982  1.00  0.00     0.020 C 
HETATM   29  C21 UNL     1      12.607  -0.706  46.778  1.00  0.00     0.003 C 
HETATM   30  C22 UNL     1      11.829  -0.915  45.537  1.00  0.00     0.020 C 
HETATM   31  C23 UNL     1      10.617  -1.749  45.803  1.00  0.00     0.126 C 
ENDBRANCH  23  26
ENDBRANCH   7  23
TORSDOF 14
ENDMDL
MODEL 3
REMARK VINA RESULT: -8.305762479      3.628      6.976
REMARK  14 active torsions:
REMARK  status: ('A' for Active; 'I' for Inactive)
REMARK    1  A    between atoms: C2_2  and  C3_3 
REMARK    2  A    between atoms: C3_3  and  C4_4 
REMARK    3  A    between atoms: C4_4  and  C5_5 
REMARK    4  A    between atoms: C5_5  and  C6_6 
REMARK    5  A    between atoms: C6_6  and  C7_7 
REMARK    6  A    between atoms: C7_7  and  C8_8 
REMARK    7  A    between atoms: C8_8  and  C9_9 
REMARK    8  A    between atoms: C9_9  and  C10_10 
REMARK    9  A    between atoms: C10_10  and  C11_12 
REMARK   10  A    between atoms: C11_12  and  O2_14 
REMARK   11  A    between atoms: O2_14  and  C12_15 
REMARK   12  A    between atoms: N1_21  and  C18_22 
REMARK   13  A    between atoms: C18_22  and  O3_23 
REMARK   14  A    between atoms: C18_22  and  N2_25 
ROOT
HETATM    1  C12 UNL     1       3.912  -0.772  47.809  1.00  0.00     0.138 C 
HETATM    2  C13 UNL     1       4.458  -2.172  47.873  1.00  0.00     0.039 C 
HETATM    3  C14 UNL     1       5.733  -2.100  48.669  1.00  0.00     0.006 C 
HETATM    4  C15 UNL     1       5.600  -0.817  49.464  1.00  0.00     0.015 C 
HETATM    5  C16 UNL     1       5.004   0.092  48.411  1.00  0.00     0.034 C 
HETATM    6  C17 UNL     1       6.022   0.399  47.380  1.00  0.00     0.133 C 
HETATM    7  N1  UNL     1       7.132  -0.582  47.323  1.00  0.00    -0.347 N 
HETATM    8  C24 UNL     1       6.958  -1.922  47.770  1.00  0.00     0.131 C 
ENDROOT
BRANCH   1   9
HETATM    9  O2  UNL     1       2.727  -0.680  48.538  1.00  0.00    -0.315 OA
BRANCH   9  10
HETATM   10  C11 UNL     1       1.586  -0.041  48.109  1.00  0.00     0.274 C 
HETATM   11  O1  UNL     1       1.645   1.222  48.016  1.00  0.00    -0.264 OA
BRANCH  10  12
HETATM   12  C10 UNL     1       0.332  -0.753  47.763  1.00  0.00     0.158 C 
HETATM   13  S1  UNL     1      -1.110   0.056  48.544  1.00  0.00    -0.082 SA
BRANCH  12  14
HETATM   14  C9  UNL     1       0.427  -2.165  48.225  1.00  0.00     0.026 C 
BRANCH  14  15
HETATM   15  C8  UNL     1       0.296  -3.163  47.089  1.00  0.00     0.002 C 
BRANCH  15  16
HETATM   16  C7  UNL     1       1.358  -4.205  47.115  1.00  0.00     0.000 C 
BRANCH  16  17
HETATM   17  C6  UNL     1       1.847  -4.413  48.519  1.00  0.00     0.000 C 
BRANCH  17  18
HETATM   18  C5  UNL     1       2.955  -5.426  48.520  1.00  0.00     0.000 C 
BRANCH  18  19
HETATM   19  C4  UNL     1       3.605  -5.524  49.901  1.00  0.00     0.000 C 
BRANCH  19  20
HETATM   20  C3  UNL     1       2.960  -4.486  50.779  1.00  0.00    -0.000 C 
BRANCH  20  21
HETATM   21  C2  UNL     1       3.933  -3.710  51.630  1.00  0.00    -0.005 C 
HETATM   22  C1  UNL     1       3.715  -4.162  53.065  1.00  0.00     0.005 C 
ENDBRANCH  20  21
ENDBRANCH  19  20
ENDBRANCH  18  19
ENDBRANCH  17  18
ENDBRANCH  16  17
ENDBRANCH  15  16
ENDBRANCH  14  15
ENDBRANCH  12  14
ENDBRANCH  10  12
ENDBRANCH   9  10
ENDBRANCH   1   9
BRANCH   7  23
HETATM   23  C18 UNL     1       8.343  -0.095  46.804  1.00  0.00     0.217 C 
BRANCH  23  24
HETATM   24  O3  UNL     1       8.222   0.934  45.991  1.00  0.00    -0.333 OA
ATOM     25  H3  UNL     1       8.856   1.628  46.129  1.00  0.00     0.220 HD
ENDBRANCH  23  24
BRANCH  23  26
HETATM   26  N2  UNL     1       9.665  -0.496  46.988  1.00  0.00    -0.348 N 
HETATM   27  C19 UNL     1      10.537  -0.013  48.020  1.00  0.00     0.126 C 
HETATM   28  C20 UNL     1      11.738  -0.943  48.192  1.00  0.00     0.020 C 
HETATM   29  C21 UNL     1      12.475  -1.252  46.949  1.00  0.00     0.003 C 
HETATM   30  C22 UNL     1      11.631  -1.128  45.739  1.00  0.00     0.020 C 
HETATM   31  C23 UNL     1      10.214  -1.498  46.039  1.00  0.00     0.126 C 
ENDBRANCH  23  26
ENDBRANCH   7  23
TORSDOF 14
ENDMDL
MODEL 4
REMARK VINA RESULT: -8.219612869      2.713      5.213
REMARK  14 active torsions:
REMARK  status: ('A' for Active; 'I' for Inactive)
REMARK    1  A    between atoms: C2_2  and  C3_3 
REMARK    2  A    between atoms: C3_3  and  C4_4 
REMARK    3  A    between atoms: C4_4  and  C5_5 
REMARK    4  A    between atoms: C5_5  and  C6_6 
REMARK    5  A    between atoms: C6_6  and  C7_7 
REMARK    6  A    between atoms: C7_7  and  C8_8 
REMARK    7  A    between atoms: C8_8  and  C9_9 
REMARK    8  A    between atoms: C9_9  and  C10_10 
REMARK    9  A    between atoms: C10_10  and  C11_12 
REMARK   10  A    between atoms: C11_12  and  O2_14 
REMARK   11  A    between atoms: O2_14  and  C12_15 
REMARK   12  A    between atoms: N1_21  and  C18_22 
REMARK   13  A    between atoms: C18_22  and  O3_23 
REMARK   14  A    between atoms: C18_22  and  N2_25 
ROOT
HETATM    1  C12 UNL     1       1.750  -3.182  48.712  1.00  0.00     0.138 C 
HETATM    2  C13 UNL     1       0.382  -3.398  48.128  1.00  0.00     0.039 C 
HETATM    3  C14 UNL     1       0.432  -2.884  46.714  1.00  0.00     0.006 C 
HETATM    4  C15 UNL     1       1.908  -2.893  46.370  1.00  0.00     0.015 C 
HETATM    5  C16 UNL     1       2.489  -2.368  47.666  1.00  0.00     0.034 C 
HETATM    6  C17 UNL     1       2.153  -0.935  47.822  1.00  0.00     0.133 C 
HETATM    7  N1  UNL     1       0.984  -0.502  47.018  1.00  0.00    -0.347 N 
HETATM    8  C24 UNL     1      -0.021  -1.426  46.620  1.00  0.00     0.131 C 
ENDROOT
BRANCH   1   9
HETATM    9  O2  UNL     1       2.377  -4.406  48.943  1.00  0.00    -0.315 OA
BRANCH   9  10
HETATM   10  C11 UNL     1       3.229  -4.669  49.991  1.00  0.00     0.274 C 
HETATM   11  O1  UNL     1       3.774  -5.815  50.005  1.00  0.00    -0.264 OA
BRANCH  10  12
HETATM   12  C10 UNL     1       3.524  -3.695  51.068  1.00  0.00     0.158 C 
HETATM   13  S1  UNL     1       4.822  -2.519  50.542  1.00  0.00    -0.082 SA
BRANCH  12  14
HETATM   14  C9  UNL     1       3.974  -4.428  52.284  1.00  0.00     0.026 C 
BRANCH  14  15
HETATM   15  C8  UNL     1       3.262  -3.967  53.543  1.00  0.00     0.002 C 
BRANCH  15  16
HETATM   16  C7  UNL     1       4.203  -3.503  54.597  1.00  0.00     0.000 C 
BRANCH  16  17
HETATM   17  C6  UNL     1       4.392  -2.017  54.507  1.00  0.00     0.000 C 
BRANCH  17  18
HETATM   18  C5  UNL     1       5.318  -1.561  55.598  1.00  0.00     0.000 C 
BRANCH  18  19
HETATM   19  C4  UNL     1       5.377  -2.588  56.729  1.00  0.00     0.000 C 
BRANCH  19  20
HETATM   20  C3  UNL     1       4.599  -2.028  57.889  1.00  0.00    -0.000 C 
BRANCH  20  21
HETATM   21  C2  UNL     1       3.182  -2.533  57.981  1.00  0.00    -0.005 C 
HETATM   22  C1  UNL     1       3.265  -4.047  58.097  1.00  0.00     0.005 C 
ENDBRANCH  20  21
ENDBRANCH  19  20
ENDBRANCH  18  19
ENDBRANCH  17  18
ENDBRANCH  16  17
ENDBRANCH  15  16
ENDBRANCH  14  15
ENDBRANCH  12  14
ENDBRANCH  10  12
ENDBRANCH   9  10
ENDBRANCH   1   9
BRANCH   7  23
HETATM   23  C18 UNL     1       0.950   0.863  46.688  1.00  0.00     0.217 C 
BRANCH  23  24
HETATM   24  O3  UNL     1       1.843   1.238  45.795  1.00  0.00    -0.333 OA
ATOM     25  H3  UNL     1       2.556   0.626  45.663  1.00  0.00     0.220 HD
ENDBRANCH  23  24
BRANCH  23  26
HETATM   26  N2  UNL     1       0.141   1.909  47.128  1.00  0.00    -0.348 N 
HETATM   27  C19 UNL     1       0.229   3.267  46.672  1.00  0.00     0.126 C 
HETATM   28  C20 UNL     1      -1.041   4.040  47.030  1.00  0.00     0.020 C 
HETATM   29  C21 UNL     1      -1.445   3.961  48.449  1.00  0.00     0.003 C 
HETATM   30  C22 UNL     1      -0.950   2.735  49.115  1.00  0.00     0.020 C 
HETATM   31  C23 UNL     1      -0.887   1.594  48.153  1.00  0.00     0.126 C 
ENDBRANCH  23  26
ENDBRANCH   7  23
TORSDOF 14
ENDMDL
MODEL 5
REMARK VINA RESULT: -8.215780833      3.389      6.364
REMARK  14 active torsions:
REMARK  status: ('A' for Active; 'I' for Inactive)
REMARK    1  A    between atoms: C2_2  and  C3_3 
REMARK    2  A    between atoms: C3_3  and  C4_4 
REMARK    3  A    between atoms: C4_4  and  C5_5 
REMARK    4  A    between atoms: C5_5  and  C6_6 
REMARK    5  A    between atoms: C6_6  and  C7_7 
REMARK    6  A    between atoms: C7_7  and  C8_8 
REMARK    7  A    between atoms: C8_8  and  C9_9 
REMARK    8  A    between atoms: C9_9  and  C10_10 
REMARK    9  A    between atoms: C10_10  and  C11_12 
REMARK   10  A    between atoms: C11_12  and  O2_14 
REMARK   11  A    between atoms: O2_14  and  C12_15 
REMARK   12  A    between atoms: N1_21  and  C18_22 
REMARK   13  A    between atoms: C18_22  and  O3_23 
REMARK   14  A    between atoms: C18_22  and  N2_25 
ROOT
HETATM    1  C12 UNL     1       5.464  -1.172  49.913  1.00  0.00     0.138 C 
HETATM    2  C13 UNL     1       4.935   0.007  49.145  1.00  0.00     0.039 C 
HETATM    3  C14 UNL     1       4.921  -0.397  47.694  1.00  0.00     0.006 C 
HETATM    4  C15 UNL     1       4.923  -1.911  47.734  1.00  0.00     0.015 C 
HETATM    5  C16 UNL     1       5.920  -2.151  48.847  1.00  0.00     0.034 C 
HETATM    6  C17 UNL     1       7.280  -1.789  48.388  1.00  0.00     0.133 C 
HETATM    7  N1  UNL     1       7.296  -0.860  47.233  1.00  0.00    -0.347 N 
HETATM    8  C24 UNL     1       6.205   0.015  46.973  1.00  0.00     0.131 C 
ENDROOT
BRANCH   1   9
HETATM    9  O2  UNL     1       4.461  -1.717  50.713  1.00  0.00    -0.315 OA
BRANCH   9  10
HETATM   10  C11 UNL     1       4.663  -2.659  51.697  1.00  0.00     0.274 C 
HETATM   11  O1  UNL     1       5.815  -2.687  52.227  1.00  0.00    -0.264 OA
BRANCH  10  12
HETATM   12  C10 UNL     1       3.617  -3.608  52.146  1.00  0.00     0.158 C 
HETATM   13  S1  UNL     1       3.934  -4.160  53.860  1.00  0.00    -0.082 SA
BRANCH  12  14
HETATM   14  C9  UNL     1       3.600  -4.785  51.234  1.00  0.00     0.026 C 
BRANCH  14  15
HETATM   15  C8  UNL     1       2.862  -4.511  49.936  1.00  0.00     0.002 C 
BRANCH  15  16
HETATM   16  C7  UNL     1       3.519  -5.138  48.759  1.00  0.00     0.000 C 
BRANCH  16  17
HETATM   17  C6  UNL     1       2.495  -5.481  47.715  1.00  0.00     0.000 C 
BRANCH  17  18
HETATM   18  C5  UNL     1       1.431  -4.423  47.688  1.00  0.00     0.000 C 
BRANCH  18  19
HETATM   19  C4  UNL     1       1.737  -3.366  46.626  1.00  0.00     0.000 C 
BRANCH  19  20
HETATM   20  C3  UNL     1       0.862  -2.175  46.907  1.00  0.00    -0.000 C 
BRANCH  20  21
HETATM   21  C2  UNL     1       1.266  -1.391  48.129  1.00  0.00    -0.005 C 
HETATM   22  C1  UNL     1       1.260   0.076  47.728  1.00  0.00     0.005 C 
ENDBRANCH  20  21
ENDBRANCH  19  20
ENDBRANCH  18  19
ENDBRANCH  17  18
ENDBRANCH  16  17
ENDBRANCH  15  16
ENDBRANCH  14  15
ENDBRANCH  12  14
ENDBRANCH  10  12
ENDBRANCH   9  10
ENDBRANCH   1   9
BRANCH   7  23
HETATM   23  C18 UNL     1       8.448  -0.912  46.430  1.00  0.00     0.217 C 
BRANCH  23  24
HETATM   24  O3  UNL     1       8.217  -1.006  45.137  1.00  0.00    -0.333 OA
ATOM     25  H3  UNL     1       7.609  -0.362  44.793  1.00  0.00     0.220 HD
ENDBRANCH  23  24
BRANCH  23  26
HETATM   26  N2  UNL     1       9.805  -0.883  46.744  1.00  0.00    -0.348 N 
HETATM   27  C19 UNL     1      10.391  -0.109  47.801  1.00  0.00     0.126 C 
HETATM   28  C20 UNL     1      11.793  -0.620  48.132  1.00  0.00     0.020 C 
HETATM   29  C21 UNL     1      12.703  -0.748  46.975  1.00  0.00     0.003 C 
HETATM   30  C22 UNL     1      11.980  -0.944  45.698  1.00  0.00     0.020 C 
HETATM   31  C23 UNL     1      10.717  -1.713  45.915  1.00  0.00     0.126 C 
ENDBRANCH  23  26
ENDBRANCH   7  23
TORSDOF 14
ENDMDL
