MODEL 1
REMARK VINA RESULT: -7.873656183      0.000      0.000
REMARK  0 active torsions:
REMARK  status: ('A' for Active; 'I' for Inactive)
ROOT
HETATM    1  N1  UNL     1      -7.344  -6.480  -3.845  1.00  0.00    -0.191 NA
HETATM    2  C1  UNL     1      -7.763  -5.449  -3.547  1.00  0.00     0.102 C 
HETATM    3  C2  UNL     1      -8.272  -4.146  -3.161  1.00  0.00     0.073 A 
HETATM    4  C3  UNL     1      -8.617  -3.876  -1.853  1.00  0.00     0.027 A 
HETATM    5  C4  UNL     1      -9.103  -2.648  -1.459  1.00  0.00     0.032 A 
HETATM    6  C5  UNL     1      -9.241  -1.671  -2.413  1.00  0.00     0.047 A 
HETATM    7  C6  UNL     1      -8.905  -1.903  -3.743  1.00  0.00     0.053 A 
HETATM    8  C7  UNL     1      -9.010  -0.982  -4.795  1.00  0.00     0.117 A 
HETATM    9  C8  UNL     1      -8.644  -1.334  -6.089  1.00  0.00     0.287 A 
HETATM   10  O1  UNL     1      -8.755  -0.475  -6.999  1.00  0.00    -0.264 OA
HETATM   11  N2  UNL     1      -8.179  -2.563  -6.372  1.00  0.00    -0.264 N 
ATOM     12  H2  UNL     1      -7.911  -2.819  -7.322  1.00  0.00     0.190 HD
HETATM   13  N3  UNL     1      -8.083  -3.414  -5.394  1.00  0.00    -0.295 N 
ATOM     14  H3  UNL     1      -7.730  -4.346  -5.610  1.00  0.00     0.187 HD
HETATM   15  C9  UNL     1      -8.417  -3.151  -4.115  1.00  0.00     0.083 A 
HETATM   16  N4  UNL     1      -9.459   0.372  -4.782  1.00  0.00    -0.349 N 
ATOM     17  H4  UNL     1      -9.797   0.757  -5.664  1.00  0.00     0.166 HD
HETATM   18  C10 UNL     1      -9.479   1.246  -3.636  1.00  0.00     0.060 A 
HETATM   19  C11 UNL     1      -9.355   2.568  -3.983  1.00  0.00     0.033 A 
HETATM   20  C12 UNL     1      -9.341   3.484  -2.955  1.00  0.00     0.014 A 
HETATM   21  C13 UNL     1      -9.447   3.101  -1.637  1.00  0.00    -0.024 A 
HETATM   22  C14 UNL     1      -9.419   4.074  -0.658  1.00  0.00     0.012 A 
HETATM   23  C15 UNL     1      -9.512   3.718   0.648  1.00  0.00     0.001 A 
HETATM   24  C16 UNL     1      -9.635   2.386   1.009  1.00  0.00     0.001 A 
HETATM   25  C17 UNL     1      -9.668   1.386   0.041  1.00  0.00     0.014 A 
HETATM   26  C18 UNL     1      -9.573   1.764  -1.266  1.00  0.00     0.003 A 
HETATM   27  C19 UNL     1      -9.589   0.845  -2.290  1.00  0.00     0.070 A 
HETATM   28  N5  UNL     1      -9.768  -0.477  -1.802  1.00  0.00    -0.353 N 
ATOM     29  H5  UNL     1     -10.314  -0.591  -0.948  1.00  0.00     0.166 HD
ENDROOT
TORSDOF 0
ENDMDL
MODEL 2
REMARK VINA RESULT: -6.783038551      3.068      5.463
REMARK  0 active torsions:
REMARK  status: ('A' for Active; 'I' for Inactive)
ROOT
HETATM    1  N1  UNL     1      -8.075   2.018  -6.090  1.00  0.00    -0.191 NA
HETATM    2  C1  UNL     1      -8.445   1.452  -5.158  1.00  0.00     0.102 C 
HETATM    3  C2  UNL     1      -8.932   0.746  -3.987  1.00  0.00     0.073 A 
HETATM    4  C3  UNL     1      -9.381   1.432  -2.877  1.00  0.00     0.027 A 
HETATM    5  C4  UNL     1      -9.848   0.787  -1.752  1.00  0.00     0.032 A 
HETATM    6  C5  UNL     1      -9.860  -0.586  -1.753  1.00  0.00     0.047 A 
HETATM    7  C6  UNL     1      -9.416  -1.315  -2.851  1.00  0.00     0.053 A 
HETATM    8  C7  UNL     1      -9.383  -2.713  -2.957  1.00  0.00     0.117 A 
HETATM    9  C8  UNL     1      -8.911  -3.329  -4.111  1.00  0.00     0.287 A 
HETATM   10  O1  UNL     1      -8.900  -4.584  -4.159  1.00  0.00    -0.264 OA
HETATM   11  N2  UNL     1      -8.475  -2.608  -5.158  1.00  0.00    -0.264 N 
ATOM     12  H2  UNL     1      -8.130  -3.062  -6.003  1.00  0.00     0.190 HD
HETATM   13  N3  UNL     1      -8.509  -1.313  -5.057  1.00  0.00    -0.295 N 
ATOM     14  H3  UNL     1      -8.179  -0.766  -5.852  1.00  0.00     0.187 HD
HETATM   15  C9  UNL     1      -8.950  -0.640  -3.974  1.00  0.00     0.083 A 
HETATM   16  N4  UNL     1      -9.781  -3.709  -2.017  1.00  0.00    -0.349 N 
ATOM     17  H4  UNL     1      -9.364  -4.635  -2.118  1.00  0.00     0.166 HD
HETATM   18  C10 UNL     1     -10.720  -3.528  -0.939  1.00  0.00     0.060 A 
HETATM   19  C11 UNL     1     -11.368  -4.692  -0.607  1.00  0.00     0.033 A 
HETATM   20  C12 UNL     1     -12.303  -4.619   0.400  1.00  0.00     0.014 A 
HETATM   21  C13 UNL     1     -12.584  -3.439   1.050  1.00  0.00    -0.024 A 
HETATM   22  C14 UNL     1     -13.540  -3.439   2.046  1.00  0.00     0.012 A 
HETATM   23  C15 UNL     1     -13.838  -2.285   2.694  1.00  0.00     0.001 A 
HETATM   24  C16 UNL     1     -13.192  -1.104   2.365  1.00  0.00     0.001 A 
HETATM   25  C17 UNL     1     -12.223  -1.077   1.366  1.00  0.00     0.014 A 
HETATM   26  C18 UNL     1     -11.937  -2.249   0.727  1.00  0.00     0.003 A 
HETATM   27  C19 UNL     1     -11.000  -2.316  -0.278  1.00  0.00     0.070 A 
HETATM   28  N5  UNL     1     -10.372  -1.059  -0.492  1.00  0.00    -0.353 N 
ATOM     29  H5  UNL     1     -10.276  -0.441   0.313  1.00  0.00     0.166 HD
ENDROOT
TORSDOF 0
ENDMDL
MODEL 3
REMARK VINA RESULT: -5.668563711      2.951      5.128
REMARK  0 active torsions:
REMARK  status: ('A' for Active; 'I' for Inactive)
ROOT
HETATM    1  N1  UNL     1      -6.389  -1.364  -6.877  1.00  0.00    -0.191 NA
HETATM    2  C1  UNL     1      -7.216  -1.527  -6.092  1.00  0.00     0.102 C 
HETATM    3  C2  UNL     1      -8.243  -1.745  -5.089  1.00  0.00     0.073 A 
HETATM    4  C3  UNL     1      -8.779  -2.998  -4.880  1.00  0.00     0.027 A 
HETATM    5  C4  UNL     1      -9.755  -3.233  -3.935  1.00  0.00     0.032 A 
HETATM    6  C5  UNL     1     -10.196  -2.172  -3.185  1.00  0.00     0.047 A 
HETATM    7  C6  UNL     1      -9.682  -0.892  -3.365  1.00  0.00     0.053 A 
HETATM    8  C7  UNL     1     -10.061   0.258  -2.659  1.00  0.00     0.117 A 
HETATM    9  C8  UNL     1      -9.473   1.489  -2.933  1.00  0.00     0.287 A 
HETATM   10  O1  UNL     1      -9.845   2.492  -2.274  1.00  0.00    -0.264 OA
HETATM   11  N2  UNL     1      -8.526   1.614  -3.878  1.00  0.00    -0.264 N 
ATOM     12  H2  UNL     1      -8.096   2.517  -4.077  1.00  0.00     0.190 HD
HETATM   13  N3  UNL     1      -8.176   0.545  -4.530  1.00  0.00    -0.295 N 
ATOM     14  H3  UNL     1      -7.457   0.640  -5.246  1.00  0.00     0.187 HD
HETATM   15  C9  UNL     1      -8.698  -0.682  -4.325  1.00  0.00     0.083 A 
HETATM   16  N4  UNL     1     -11.022   0.415  -1.616  1.00  0.00    -0.349 N 
ATOM     17  H4  UNL     1     -11.409   1.348  -1.479  1.00  0.00     0.166 HD
HETATM   18  C10 UNL     1     -11.495  -0.626  -0.739  1.00  0.00     0.060 A 
HETATM   19  C11 UNL     1     -11.890  -0.141   0.484  1.00  0.00     0.033 A 
HETATM   20  C12 UNL     1     -12.339  -1.062   1.403  1.00  0.00     0.014 A 
HETATM   21  C13 UNL     1     -12.393  -2.408   1.120  1.00  0.00    -0.024 A 
HETATM   22  C14 UNL     1     -12.848  -3.275   2.094  1.00  0.00     0.012 A 
HETATM   23  C15 UNL     1     -12.900  -4.606   1.839  1.00  0.00     0.001 A 
HETATM   24  C16 UNL     1     -12.502  -5.106   0.610  1.00  0.00     0.001 A 
HETATM   25  C17 UNL     1     -12.040  -4.253  -0.389  1.00  0.00     0.014 A 
HETATM   26  C18 UNL     1     -11.996  -2.918  -0.114  1.00  0.00     0.003 A 
HETATM   27  C19 UNL     1     -11.548  -2.001  -1.037  1.00  0.00     0.070 A 
HETATM   28  N5  UNL     1     -11.214  -2.624  -2.270  1.00  0.00    -0.353 N 
ATOM     29  H5  UNL     1     -11.738  -3.459  -2.529  1.00  0.00     0.166 HD
ENDROOT
TORSDOF 0
ENDMDL
MODEL 4
REMARK VINA RESULT: -5.522145122      3.081      6.031
REMARK  0 active torsions:
REMARK  status: ('A' for Active; 'I' for Inactive)
ROOT
HETATM    1  N1  UNL     1     -13.776  -3.913   2.517  1.00  0.00    -0.191 NA
HETATM    2  C1  UNL     1     -13.033  -3.655   1.676  1.00  0.00     0.102 C 
HETATM    3  C2  UNL     1     -12.112  -3.333   0.601  1.00  0.00     0.073 A 
HETATM    4  C3  UNL     1     -11.768  -4.273  -0.348  1.00  0.00     0.027 A 
HETATM    5  C4  UNL     1     -10.896  -3.994  -1.379  1.00  0.00     0.032 A 
HETATM    6  C5  UNL     1     -10.363  -2.731  -1.449  1.00  0.00     0.047 A 
HETATM    7  C6  UNL     1     -10.685  -1.754  -0.513  1.00  0.00     0.053 A 
HETATM    8  C7  UNL     1     -10.198  -0.440  -0.489  1.00  0.00     0.117 A 
HETATM    9  C8  UNL     1     -10.592   0.449   0.506  1.00  0.00     0.287 A 
HETATM   10  O1  UNL     1     -10.129   1.616   0.486  1.00  0.00    -0.264 OA
HETATM   11  N2  UNL     1     -11.450   0.078   1.471  1.00  0.00    -0.264 N 
ATOM     12  H2  UNL     1     -11.738   0.731   2.200  1.00  0.00     0.190 HD
HETATM   13  N3  UNL     1     -11.900  -1.141   1.446  1.00  0.00    -0.295 N 
ATOM     14  H3  UNL     1     -12.552  -1.422   2.178  1.00  0.00     0.187 HD
HETATM   15  C9  UNL     1     -11.566  -2.061   0.518  1.00  0.00     0.083 A 
HETATM   16  N4  UNL     1      -9.293   0.216  -1.377  1.00  0.00    -0.349 N 
ATOM     17  H4  UNL     1      -8.791   1.026  -1.013  1.00  0.00     0.166 HD
HETATM   18  C10 UNL     1      -9.026  -0.162  -2.742  1.00  0.00     0.060 A 
HETATM   19  C11 UNL     1      -8.647   0.907  -3.517  1.00  0.00     0.033 A 
HETATM   20  C12 UNL     1      -8.389   0.653  -4.845  1.00  0.00     0.014 A 
HETATM   21  C13 UNL     1      -8.503  -0.610  -5.381  1.00  0.00    -0.024 A 
HETATM   22  C14 UNL     1      -8.235  -0.789  -6.724  1.00  0.00     0.012 A 
HETATM   23  C15 UNL     1      -8.350  -2.024  -7.274  1.00  0.00     0.001 A 
HETATM   24  C16 UNL     1      -8.733  -3.108  -6.502  1.00  0.00     0.001 A 
HETATM   25  C17 UNL     1      -9.007  -2.955  -5.146  1.00  0.00     0.014 A 
HETATM   26  C18 UNL     1      -8.885  -1.706  -4.610  1.00  0.00     0.003 A 
HETATM   27  C19 UNL     1      -9.143  -1.458  -3.282  1.00  0.00     0.070 A 
HETATM   28  N5  UNL     1      -9.479  -2.649  -2.584  1.00  0.00    -0.353 N 
ATOM     29  H5  UNL     1      -9.059  -3.518  -2.913  1.00  0.00     0.166 HD
ENDROOT
TORSDOF 0
ENDMDL
MODEL 5
REMARK VINA RESULT: -5.375675890      2.864      6.295
REMARK  0 active torsions:
REMARK  status: ('A' for Active; 'I' for Inactive)
ROOT
HETATM    1  N1  UNL     1      -9.156   5.708  -1.862  1.00  0.00    -0.191 NA
HETATM    2  C1  UNL     1      -9.342   4.610  -1.568  1.00  0.00     0.102 C 
HETATM    3  C2  UNL     1      -9.598   3.231  -1.194  1.00  0.00     0.073 A 
HETATM    4  C3  UNL     1      -9.902   2.891   0.108  1.00  0.00     0.027 A 
HETATM    5  C4  UNL     1     -10.149   1.590   0.491  1.00  0.00     0.032 A 
HETATM    6  C5  UNL     1     -10.087   0.612  -0.470  1.00  0.00     0.047 A 
HETATM    7  C6  UNL     1      -9.783   0.912  -1.794  1.00  0.00     0.053 A 
HETATM    8  C7  UNL     1      -9.690  -0.005  -2.850  1.00  0.00     0.117 A 
HETATM    9  C8  UNL     1      -9.375   0.418  -4.136  1.00  0.00     0.287 A 
HETATM   10  O1  UNL     1      -9.303  -0.441  -5.050  1.00  0.00    -0.264 OA
HETATM   11  N2  UNL     1      -9.150   1.715  -4.408  1.00  0.00    -0.264 N 
ATOM     12  H2  UNL     1      -8.919   2.023  -5.352  1.00  0.00     0.190 HD
HETATM   13  N3  UNL     1      -9.238   2.563  -3.426  1.00  0.00    -0.295 N 
ATOM     14  H3  UNL     1      -9.068   3.547  -3.633  1.00  0.00     0.187 HD
HETATM   15  C9  UNL     1      -9.538   2.233  -2.154  1.00  0.00     0.083 A 
HETATM   16  N4  UNL     1      -9.880  -1.419  -2.850  1.00  0.00    -0.349 N 
ATOM     17  H4  UNL     1      -9.434  -1.947  -3.600  1.00  0.00     0.166 HD
HETATM   18  C10 UNL     1     -10.644  -2.170  -1.887  1.00  0.00     0.060 A 
HETATM   19  C11 UNL     1     -11.167  -3.324  -2.417  1.00  0.00     0.033 A 
HETATM   20  C12 UNL     1     -11.934  -4.103  -1.580  1.00  0.00     0.014 A 
HETATM   21  C13 UNL     1     -12.172  -3.750  -0.271  1.00  0.00    -0.024 A 
HETATM   22  C14 UNL     1     -12.956  -4.578   0.508  1.00  0.00     0.012 A 
HETATM   23  C15 UNL     1     -13.211  -4.244   1.798  1.00  0.00     0.001 A 
HETATM   24  C16 UNL     1     -12.690  -3.081   2.343  1.00  0.00     0.001 A 
HETATM   25  C17 UNL     1     -11.895  -2.232   1.579  1.00  0.00     0.014 A 
HETATM   26  C18 UNL     1     -11.650  -2.584   0.284  1.00  0.00     0.003 A 
HETATM   27  C19 UNL     1     -10.881  -1.803  -0.548  1.00  0.00     0.070 A 
HETATM   28  N5  UNL     1     -10.365  -0.667   0.133  1.00  0.00    -0.353 N 
ATOM     29  H5  UNL     1     -10.177  -0.765   1.130  1.00  0.00     0.166 HD
ENDROOT
TORSDOF 0
ENDMDL
