MODEL 1
REMARK VINA RESULT: -8.432328802      0.000      0.000
REMARK  0 active torsions:
REMARK  status: ('A' for Active; 'I' for Inactive)
REMARK       I    between atoms: C1_2  and  N2_4 
ROOT
HETATM    1  N1  UNL     1      -7.663  -4.548  -4.943  1.00  0.00    -0.040 NA
HETATM    2  C1  UNL     1      -8.553  -3.610  -5.529  1.00  0.00     0.333 C 
HETATM    3  O1  UNL     1      -8.922  -3.691  -6.729  1.00  0.00    -0.251 OA
HETATM    4  N2  UNL     1      -9.036  -2.561  -4.743  1.00  0.00    -0.314 N 
ATOM      5  H2  UNL     1      -9.807  -2.769  -4.109  1.00  0.00     0.170 HD
HETATM    6  C2  UNL     1      -8.591  -1.360  -4.752  1.00  0.00     0.025 C 
HETATM    7  C3  UNL     1      -7.471  -0.965  -5.643  1.00  0.00     0.058 C 
HETATM    8  C4  UNL     1      -8.019   0.252  -6.409  1.00  0.00     0.011 C 
HETATM    9  C5  UNL     1      -8.025   1.371  -5.432  1.00  0.00     0.047 C 
HETATM   10  C6  UNL     1      -8.873   1.007  -4.235  1.00  0.00    -0.002 A 
HETATM   11  S1  UNL     1      -9.675   1.929  -3.042  1.00  0.00    -0.075 SA
HETATM   12  C7  UNL     1     -10.355   0.664  -2.124  1.00  0.00     0.088 A 
HETATM   13  N3  UNL     1     -11.125   0.346  -1.034  1.00  0.00    -0.335 N 
ATOM     14  H3  UNL     1     -11.554   1.011  -0.390  1.00  0.00     0.168 HD
HETATM   15  C8  UNL     1     -11.220  -1.020  -0.960  1.00  0.00     0.126 A 
HETATM   16  N4  UNL     1     -11.807  -1.889  -0.158  1.00  0.00    -0.326 N 
ATOM     17  H4  UNL     1     -12.355  -1.575   0.643  1.00  0.00     0.169 HD
HETATM   18  C9  UNL     1     -11.666  -3.189  -0.421  1.00  0.00     0.145 A 
HETATM   19  S2  UNL     1     -12.288  -4.480   0.412  1.00  0.00    -0.052 SA
HETATM   20  S3  UNL     1     -10.693  -3.193  -1.819  1.00  0.00    -0.056 SA
HETATM   21  C10 UNL     1     -10.507  -1.506  -2.005  1.00  0.00     0.066 A 
HETATM   22  C11 UNL     1      -9.938  -0.454  -2.774  1.00  0.00     0.032 A 
HETATM   23  C12 UNL     1      -9.160  -0.283  -3.884  1.00  0.00     0.014 A 
ENDROOT
TORSDOF 0
ENDMDL
MODEL 2
REMARK VINA RESULT: -7.961753345      1.977      4.240
REMARK  0 active torsions:
REMARK  status: ('A' for Active; 'I' for Inactive)
REMARK       I    between atoms: C1_2  and  N2_4 
ROOT
HETATM    1  N1  UNL     1      -8.643  -0.090  -7.027  1.00  0.00    -0.040 NA
HETATM    2  C1  UNL     1      -7.702  -0.691  -6.151  1.00  0.00     0.333 C 
HETATM    3  O1  UNL     1      -6.506  -0.891  -6.485  1.00  0.00    -0.251 OA
HETATM    4  N2  UNL     1      -8.121  -1.074  -4.875  1.00  0.00    -0.314 N 
ATOM      5  H2  UNL     1      -8.186  -0.344  -4.167  1.00  0.00     0.170 HD
HETATM    6  C2  UNL     1      -8.430  -2.265  -4.521  1.00  0.00     0.025 C 
HETATM    7  C3  UNL     1      -8.365  -3.392  -5.485  1.00  0.00     0.058 C 
HETATM    8  C4  UNL     1      -7.487  -4.437  -4.773  1.00  0.00     0.011 C 
HETATM    9  C5  UNL     1      -8.339  -5.015  -3.704  1.00  0.00     0.047 C 
HETATM   10  C6  UNL     1      -8.812  -3.922  -2.772  1.00  0.00    -0.002 A 
HETATM   11  S1  UNL     1      -9.374  -3.917  -1.160  1.00  0.00    -0.075 SA
HETATM   12  C7  UNL     1      -9.669  -2.250  -0.974  1.00  0.00     0.088 A 
HETATM   13  N3  UNL     1     -10.101  -1.266  -0.120  1.00  0.00    -0.335 N 
ATOM     14  H3  UNL     1     -10.416  -1.404   0.841  1.00  0.00     0.168 HD
HETATM   15  C8  UNL     1     -10.038  -0.066  -0.780  1.00  0.00     0.126 A 
HETATM   16  N4  UNL     1     -10.312   1.193  -0.491  1.00  0.00    -0.326 N 
ATOM     17  H4  UNL     1     -10.668   1.453   0.428  1.00  0.00     0.169 HD
HETATM   18  C9  UNL     1     -10.112   2.117  -1.432  1.00  0.00     0.145 A 
HETATM   19  S2  UNL     1     -10.369   3.751  -1.340  1.00  0.00    -0.052 SA
HETATM   20  S3  UNL     1      -9.528   1.204  -2.747  1.00  0.00    -0.056 SA
HETATM   21  C10 UNL     1      -9.568  -0.342  -2.021  1.00  0.00     0.066 A 
HETATM   22  C11 UNL     1      -9.320  -1.733  -2.181  1.00  0.00     0.032 A 
HETATM   23  C12 UNL     1      -8.868  -2.605  -3.131  1.00  0.00     0.014 A 
ENDROOT
TORSDOF 0
ENDMDL
MODEL 3
REMARK VINA RESULT: -7.728940604      2.809      4.177
REMARK  0 active torsions:
REMARK  status: ('A' for Active; 'I' for Inactive)
REMARK       I    between atoms: C1_2  and  N2_4 
ROOT
HETATM    1  N1  UNL     1     -10.922   3.520  -1.905  1.00  0.00    -0.040 NA
HETATM    2  C1  UNL     1      -9.662   2.874  -2.004  1.00  0.00     0.333 C 
HETATM    3  O1  UNL     1      -8.576   3.491  -1.851  1.00  0.00    -0.251 OA
HETATM    4  N2  UNL     1      -9.628   1.506  -2.280  1.00  0.00    -0.314 N 
ATOM      5  H2  UNL     1      -9.799   0.868  -1.503  1.00  0.00     0.170 HD
HETATM    6  C2  UNL     1      -9.402   0.985  -3.429  1.00  0.00     0.025 C 
HETATM    7  C3  UNL     1      -9.143   1.836  -4.617  1.00  0.00     0.058 C 
HETATM    8  C4  UNL     1      -7.815   1.294  -5.177  1.00  0.00     0.011 C 
HETATM    9  C5  UNL     1      -8.148  -0.005  -5.813  1.00  0.00     0.047 C 
HETATM   10  C6  UNL     1      -8.772  -0.934  -4.797  1.00  0.00    -0.002 A 
HETATM   11  S1  UNL     1      -8.936  -2.631  -4.703  1.00  0.00    -0.075 SA
HETATM   12  C7  UNL     1      -9.767  -2.748  -3.221  1.00  0.00     0.088 A 
HETATM   13  N3  UNL     1     -10.331  -3.601  -2.305  1.00  0.00    -0.335 N 
ATOM     14  H3  UNL     1     -10.360  -4.618  -2.374  1.00  0.00     0.168 HD
HETATM   15  C8  UNL     1     -10.850  -2.850  -1.282  1.00  0.00     0.126 A 
HETATM   16  N4  UNL     1     -11.492  -3.095  -0.154  1.00  0.00    -0.326 N 
ATOM     17  H4  UNL     1     -11.711  -4.051   0.125  1.00  0.00     0.169 HD
HETATM   18  C9  UNL     1     -11.847  -2.062   0.610  1.00  0.00     0.145 A 
HETATM   19  S2  UNL     1     -12.652  -2.082   2.058  1.00  0.00    -0.052 SA
HETATM   20  S3  UNL     1     -11.270  -0.720  -0.268  1.00  0.00    -0.056 SA
HETATM   21  C10 UNL     1     -10.591  -1.556  -1.593  1.00  0.00     0.066 A 
HETATM   22  C11 UNL     1      -9.897  -1.453  -2.831  1.00  0.00     0.032 A 
HETATM   23  C12 UNL     1      -9.377  -0.494  -3.652  1.00  0.00     0.014 A 
ENDROOT
TORSDOF 0
ENDMDL
MODEL 4
REMARK VINA RESULT: -6.868332066      2.266      4.130
REMARK  0 active torsions:
REMARK  status: ('A' for Active; 'I' for Inactive)
REMARK       I    between atoms: C1_2  and  N2_4 
ROOT
HETATM    1  N1  UNL     1      -7.750   1.842  -5.815  1.00  0.00    -0.040 NA
HETATM    2  C1  UNL     1      -7.178   0.670  -5.254  1.00  0.00     0.333 C 
HETATM    3  O1  UNL     1      -6.028   0.267  -5.567  1.00  0.00    -0.251 OA
HETATM    4  N2  UNL     1      -7.919  -0.059  -4.322  1.00  0.00    -0.314 N 
ATOM      5  H2  UNL     1      -7.936   0.288  -3.364  1.00  0.00     0.170 HD
HETATM    6  C2  UNL     1      -8.580  -1.128  -4.571  1.00  0.00     0.025 C 
HETATM    7  C3  UNL     1      -8.613  -1.708  -5.937  1.00  0.00     0.058 C 
HETATM    8  C4  UNL     1      -8.180  -3.170  -5.728  1.00  0.00     0.011 C 
HETATM    9  C5  UNL     1      -9.341  -3.846  -5.096  1.00  0.00     0.047 C 
HETATM   10  C6  UNL     1      -9.697  -3.155  -3.799  1.00  0.00    -0.002 A 
HETATM   11  S1  UNL     1     -10.543  -3.649  -2.401  1.00  0.00    -0.075 SA
HETATM   12  C7  UNL     1     -10.442  -2.211  -1.492  1.00  0.00     0.088 A 
HETATM   13  N3  UNL     1     -10.772  -1.593  -0.312  1.00  0.00    -0.335 N 
ATOM     14  H3  UNL     1     -11.292  -2.014   0.458  1.00  0.00     0.168 HD
HETATM   15  C8  UNL     1     -10.283  -0.313  -0.346  1.00  0.00     0.126 A 
HETATM   16  N4  UNL     1     -10.284   0.727   0.468  1.00  0.00    -0.326 N 
ATOM     17  H4  UNL     1     -10.736   0.675   1.381  1.00  0.00     0.169 HD
HETATM   18  C9  UNL     1      -9.680   1.846   0.068  1.00  0.00     0.145 A 
HETATM   19  S2  UNL     1      -9.533   3.283   0.880  1.00  0.00    -0.052 SA
HETATM   20  S3  UNL     1      -9.098   1.434  -1.480  1.00  0.00    -0.056 SA
HETATM   21  C10 UNL     1      -9.664  -0.176  -1.545  1.00  0.00     0.066 A 
HETATM   22  C11 UNL     1      -9.746  -1.374  -2.307  1.00  0.00     0.032 A 
HETATM   23  C12 UNL     1      -9.351  -1.862  -3.519  1.00  0.00     0.014 A 
ENDROOT
TORSDOF 0
ENDMDL
MODEL 5
REMARK VINA RESULT: -6.480634133      2.633      3.871
REMARK  0 active torsions:
REMARK  status: ('A' for Active; 'I' for Inactive)
REMARK       I    between atoms: C1_2  and  N2_4 
ROOT
HETATM    1  N1  UNL     1     -10.920   2.183  -4.623  1.00  0.00    -0.040 NA
HETATM    2  C1  UNL     1      -9.596   1.719  -4.403  1.00  0.00     0.333 C 
HETATM    3  O1  UNL     1      -8.590   2.458  -4.559  1.00  0.00    -0.251 OA
HETATM    4  N2  UNL     1      -9.407   0.396  -3.998  1.00  0.00    -0.314 N 
ATOM      5  H2  UNL     1      -9.555   0.184  -3.012  1.00  0.00     0.170 HD
HETATM    6  C2  UNL     1      -9.063  -0.572  -4.763  1.00  0.00     0.025 C 
HETATM    7  C3  UNL     1      -8.826  -0.357  -6.212  1.00  0.00     0.058 C 
HETATM    8  C4  UNL     1      -7.420  -0.938  -6.447  1.00  0.00     0.011 C 
HETATM    9  C5  UNL     1      -7.581  -2.412  -6.393  1.00  0.00     0.047 C 
HETATM   10  C6  UNL     1      -8.162  -2.820  -5.058  1.00  0.00    -0.002 A 
HETATM   11  S1  UNL     1      -8.156  -4.280  -4.172  1.00  0.00    -0.075 SA
HETATM   12  C7  UNL     1      -9.054  -3.783  -2.812  1.00  0.00     0.088 A 
HETATM   13  N3  UNL     1      -9.578  -4.165  -1.602  1.00  0.00    -0.335 N 
ATOM     14  H3  UNL     1      -9.498  -5.090  -1.181  1.00  0.00     0.168 HD
HETATM   15  C8  UNL     1     -10.229  -3.087  -1.057  1.00  0.00     0.126 A 
HETATM   16  N4  UNL     1     -10.905  -2.847   0.051  1.00  0.00    -0.326 N 
ATOM     17  H4  UNL     1     -11.040  -3.577   0.750  1.00  0.00     0.169 HD
HETATM   18  C9  UNL     1     -11.407  -1.625   0.234  1.00  0.00     0.145 A 
HETATM   19  S2  UNL     1     -12.287  -1.057   1.518  1.00  0.00    -0.052 SA
HETATM   20  S3  UNL     1     -10.922  -0.797  -1.174  1.00  0.00    -0.056 SA
HETATM   21  C10 UNL     1     -10.087  -2.072  -1.944  1.00  0.00     0.066 A 
HETATM   22  C11 UNL     1      -9.338  -2.482  -3.082  1.00  0.00     0.032 A 
HETATM   23  C12 UNL     1      -8.873  -1.968  -4.259  1.00  0.00     0.014 A 
ENDROOT
TORSDOF 0
ENDMDL
