MODEL 1
REMARK VINA RESULT: -4.568549652      0.000      0.000
REMARK  3 active torsions:
REMARK  status: ('A' for Active; 'I' for Inactive)
REMARK    1  A    between atoms: C3_5  and  N2_6 
REMARK    2  A    between atoms: C4_10  and  C5_11 
REMARK    3  A    between atoms: C6_12  and  C7_13 
ROOT
HETATM    1  C7  UNL     1      -8.871 -11.156   1.805  1.00  0.00     0.067 A 
HETATM    2  S2  UNL     1      -8.214 -11.307   3.362  1.00  0.00    -0.083 SA
HETATM    3  C8  UNL     1      -9.643 -11.102   4.285  1.00  0.00     0.012 A 
HETATM    4  C9  UNL     1     -10.602 -10.920   3.325  1.00  0.00     0.049 A 
HETATM    5  C10 UNL     1     -10.201 -10.948   2.039  1.00  0.00    -0.009 A 
HETATM    6  C11 UNL     1     -11.143 -10.767   0.849  1.00  0.00     0.052 C 
HETATM    7  N3  UNL     1     -11.931 -10.715   3.881  1.00  0.00    -0.388 N 
ATOM      8  H3  UNL     1     -12.738 -11.042   3.351  1.00  0.00     0.159 HD
HETATM    9  C12 UNL     1     -12.149 -10.079   5.133  1.00  0.00     0.129 C 
HETATM   10  C13 UNL     1     -11.031 -10.117   6.097  1.00  0.00    -0.027 C 
HETATM   11  C14 UNL     1     -10.430  -8.724   6.203  1.00  0.00     0.016 C 
HETATM   12  C15 UNL     1     -11.532 -10.464   7.500  1.00  0.00     0.016 C 
HETATM   13  C16 UNL     1      -9.949 -11.100   5.767  1.00  0.00     0.059 C 
ENDROOT
BRANCH   1  14
HETATM   14  C6  UNL     1      -8.176 -11.232   0.526  1.00  0.00    -0.053 C 
HETATM   15  C5  UNL     1      -7.592 -11.278  -0.528  1.00  0.00    -0.051 C 
BRANCH  15  16
HETATM   16  C4  UNL     1      -6.866 -11.344  -1.791  1.00  0.00     0.084 A 
HETATM   17  C2  UNL     1      -7.367 -11.474  -3.054  1.00  0.00     0.033 A 
HETATM   18  C1  UNL     1      -8.867 -11.570  -3.275  1.00  0.00     0.070 C 
HETATM   19  N1  UNL     1      -6.515 -11.512  -4.048  1.00  0.00    -0.339 N 
HETATM   20  C3  UNL     1      -5.212 -11.423  -3.770  1.00  0.00     0.143 A 
ATOM     21  H1  UNL     1      -6.839 -11.608  -5.011  1.00  0.00     0.168 HD
HETATM   22  S1  UNL     1      -5.188 -11.281  -2.071  1.00  0.00    -0.043 SA
BRANCH  20  23
HETATM   23  N2  UNL     1      -4.218 -11.442  -4.632  1.00  0.00    -0.380 N 
ATOM     24  H22 UNL     1      -4.228 -11.341  -5.647  1.00  0.00     0.158 HD
ATOM     25  H21 UNL     1      -3.228 -11.567  -4.421  1.00  0.00     0.158 HD
ENDBRANCH  20  23
ENDBRANCH  15  16
ENDBRANCH   1  14
TORSDOF 3
ENDMDL
MODEL 2
REMARK VINA RESULT: -2.851809143     10.149     13.278
REMARK  3 active torsions:
REMARK  status: ('A' for Active; 'I' for Inactive)
REMARK    1  A    between atoms: C3_5  and  N2_6 
REMARK    2  A    between atoms: C4_10  and  C5_11 
REMARK    3  A    between atoms: C6_12  and  C7_13 
ROOT
HETATM    1  C7  UNL     1     -10.057  -1.301  -1.510  1.00  0.00     0.067 A 
HETATM    2  S2  UNL     1      -8.891  -2.352  -2.154  1.00  0.00    -0.083 SA
HETATM    3  C8  UNL     1      -8.204  -1.312  -3.330  1.00  0.00     0.012 A 
HETATM    4  C9  UNL     1      -8.924  -0.158  -3.175  1.00  0.00     0.049 A 
HETATM    5  C10 UNL     1      -9.885  -0.153  -2.230  1.00  0.00    -0.009 A 
HETATM    6  C11 UNL     1     -10.774   1.052  -1.926  1.00  0.00     0.052 C 
HETATM    7  N3  UNL     1      -8.515   0.895  -4.091  1.00  0.00    -0.388 N 
ATOM      8  H3  UNL     1      -8.594   1.866  -3.788  1.00  0.00     0.159 HD
HETATM    9  C12 UNL     1      -8.010   0.627  -5.393  1.00  0.00     0.129 C 
HETATM   10  C13 UNL     1      -7.401  -0.703  -5.604  1.00  0.00    -0.027 C 
HETATM   11  C14 UNL     1      -8.331  -1.532  -6.475  1.00  0.00     0.016 C 
HETATM   12  C15 UNL     1      -6.090  -0.584  -6.383  1.00  0.00     0.016 C 
HETATM   13  C16 UNL     1      -7.092  -1.459  -4.347  1.00  0.00     0.059 C 
ENDROOT
BRANCH   1  14
HETATM   14  C6  UNL     1     -11.012  -1.567  -0.441  1.00  0.00    -0.053 C 
HETATM   15  C5  UNL     1     -11.816  -1.777   0.433  1.00  0.00    -0.051 C 
BRANCH  15  16
HETATM   16  C4  UNL     1     -12.796  -2.050   1.477  1.00  0.00     0.084 A 
HETATM   17  C2  UNL     1     -13.300  -3.253   1.877  1.00  0.00     0.033 A 
HETATM   18  C1  UNL     1     -12.841  -4.536   1.205  1.00  0.00     0.070 C 
HETATM   19  N1  UNL     1     -14.180  -3.256   2.848  1.00  0.00    -0.339 N 
HETATM   20  C3  UNL     1     -14.532  -2.086   3.386  1.00  0.00     0.143 A 
ATOM     21  H1  UNL     1     -14.586  -4.129   3.183  1.00  0.00     0.168 HD
HETATM   22  S1  UNL     1     -13.602  -0.960   2.507  1.00  0.00    -0.043 SA
BRANCH  20  23
HETATM   23  N2  UNL     1     -15.394  -1.893   4.362  1.00  0.00    -0.380 N 
ATOM     24  H22 UNL     1     -15.234  -1.717   5.353  1.00  0.00     0.158 HD
ATOM     25  H21 UNL     1     -16.411  -1.888   4.287  1.00  0.00     0.158 HD
ENDBRANCH  20  23
ENDBRANCH  15  16
ENDBRANCH   1  14
TORSDOF 3
ENDMDL
MODEL 3
REMARK VINA RESULT: -1.895900864      8.354     11.892
REMARK  3 active torsions:
REMARK  status: ('A' for Active; 'I' for Inactive)
REMARK    1  A    between atoms: C3_5  and  N2_6 
REMARK    2  A    between atoms: C4_10  and  C5_11 
REMARK    3  A    between atoms: C6_12  and  C7_13 
ROOT
HETATM    1  C7  UNL     1     -12.440  -2.903   1.393  1.00  0.00     0.067 A 
HETATM    2  S2  UNL     1     -12.024  -1.265   1.230  1.00  0.00    -0.083 SA
HETATM    3  C8  UNL     1     -11.505  -1.274  -0.403  1.00  0.00     0.012 A 
HETATM    4  C9  UNL     1     -11.679  -2.581  -0.771  1.00  0.00     0.049 A 
HETATM    5  C10 UNL     1     -12.164  -3.425   0.161  1.00  0.00    -0.009 A 
HETATM    6  C11 UNL     1     -12.421  -4.911  -0.087  1.00  0.00     0.052 C 
HETATM    7  N3  UNL     1     -11.291  -2.840  -2.149  1.00  0.00    -0.388 N 
ATOM      8  H3  UNL     1     -11.787  -3.564  -2.669  1.00  0.00     0.159 HD
HETATM    9  C12 UNL     1     -10.250  -2.125  -2.801  1.00  0.00     0.129 C 
HETATM   10  C13 UNL     1      -9.939  -0.782  -2.270  1.00  0.00    -0.027 C 
HETATM   11  C14 UNL     1      -8.600  -0.838  -1.553  1.00  0.00     0.016 C 
HETATM   12  C15 UNL     1      -9.763   0.226  -3.408  1.00  0.00     0.016 C 
HETATM   13  C16 UNL     1     -10.974  -0.216  -1.346  1.00  0.00     0.059 C 
ENDROOT
BRANCH   1  14
HETATM   14  C6  UNL     1     -12.967  -3.582   2.569  1.00  0.00    -0.053 C 
HETATM   15  C5  UNL     1     -13.398  -4.129   3.554  1.00  0.00    -0.051 C 
BRANCH  15  16
HETATM   16  C4  UNL     1     -13.940  -4.778   4.742  1.00  0.00     0.084 A 
HETATM   17  C2  UNL     1     -13.572  -5.964   5.306  1.00  0.00     0.033 A 
HETATM   18  C1  UNL     1     -12.457  -6.791   4.688  1.00  0.00     0.070 C 
HETATM   19  N1  UNL     1     -14.207  -6.352   6.384  1.00  0.00    -0.339 N 
HETATM   20  C3  UNL     1     -15.175  -5.569   6.865  1.00  0.00     0.143 A 
ATOM     21  H1  UNL     1     -13.968  -7.231   6.844  1.00  0.00     0.168 HD
HETATM   22  S1  UNL     1     -15.189  -4.258   5.776  1.00  0.00    -0.043 SA
BRANCH  20  23
HETATM   23  N2  UNL     1     -15.917  -5.793   7.929  1.00  0.00    -0.380 N 
ATOM     24  H22 UNL     1     -15.643  -6.057   8.875  1.00  0.00     0.158 HD
ATOM     25  H21 UNL     1     -16.933  -5.739   7.989  1.00  0.00     0.158 HD
ENDBRANCH  20  23
ENDBRANCH  15  16
ENDBRANCH   1  14
TORSDOF 3
ENDMDL
MODEL 4
REMARK VINA RESULT: -0.940680752      8.582     12.177
REMARK  3 active torsions:
REMARK  status: ('A' for Active; 'I' for Inactive)
REMARK    1  A    between atoms: C3_5  and  N2_6 
REMARK    2  A    between atoms: C4_10  and  C5_11 
REMARK    3  A    between atoms: C6_12  and  C7_13 
ROOT
HETATM    1  C7  UNL     1     -11.948  -2.565   0.478  1.00  0.00     0.067 A 
HETATM    2  S2  UNL     1     -11.283  -1.039   0.146  1.00  0.00    -0.083 SA
HETATM    3  C8  UNL     1     -10.754  -1.312  -1.461  1.00  0.00     0.012 A 
HETATM    4  C9  UNL     1     -11.122  -2.611  -1.686  1.00  0.00     0.049 A 
HETATM    5  C10 UNL     1     -11.741  -3.261  -0.681  1.00  0.00    -0.009 A 
HETATM    6  C11 UNL     1     -12.221  -4.709  -0.769  1.00  0.00     0.052 C 
HETATM    7  N3  UNL     1     -10.764  -3.081  -3.016  1.00  0.00    -0.388 N 
ATOM      8  H3  UNL     1     -11.360  -3.777  -3.465  1.00  0.00     0.159 HD
HETATM    9  C12 UNL     1      -9.619  -2.611  -3.713  1.00  0.00     0.129 C 
HETATM   10  C13 UNL     1      -9.111  -1.279  -3.327  1.00  0.00    -0.027 C 
HETATM   11  C14 UNL     1      -7.805  -1.454  -2.571  1.00  0.00     0.016 C 
HETATM   12  C15 UNL     1      -8.771  -0.446  -4.565  1.00  0.00     0.016 C 
HETATM   13  C16 UNL     1     -10.058  -0.461  -2.501  1.00  0.00     0.059 C 
ENDROOT
BRANCH   1  14
HETATM   14  C6  UNL     1     -12.585  -3.018   1.707  1.00  0.00    -0.053 C 
HETATM   15  C5  UNL     1     -13.119  -3.410   2.714  1.00  0.00    -0.051 C 
BRANCH  15  16
HETATM   16  C4  UNL     1     -13.745  -3.897   3.938  1.00  0.00     0.084 A 
HETATM   17  C2  UNL     1     -14.794  -3.363   4.628  1.00  0.00     0.033 A 
HETATM   18  C1  UNL     1     -15.467  -2.093   4.134  1.00  0.00     0.070 C 
HETATM   19  N1  UNL     1     -15.190  -3.980   5.714  1.00  0.00    -0.339 N 
HETATM   20  C3  UNL     1     -14.546  -5.090   6.082  1.00  0.00     0.143 A 
ATOM     21  H1  UNL     1     -15.970  -3.621   6.264  1.00  0.00     0.168 HD
HETATM   22  S1  UNL     1     -13.359  -5.268   4.871  1.00  0.00    -0.043 SA
BRANCH  20  23
HETATM   23  N2  UNL     1     -14.800  -5.838   7.134  1.00  0.00    -0.380 N 
ATOM     24  H22 UNL     1     -15.451  -6.616   7.244  1.00  0.00     0.158 HD
ATOM     25  H21 UNL     1     -14.371  -5.763   8.056  1.00  0.00     0.158 HD
ENDBRANCH  20  23
ENDBRANCH  15  16
ENDBRANCH   1  14
TORSDOF 3
ENDMDL
MODEL 5
REMARK VINA RESULT: -0.729042885      8.576     12.213
REMARK  3 active torsions:
REMARK  status: ('A' for Active; 'I' for Inactive)
REMARK    1  A    between atoms: C3_5  and  N2_6 
REMARK    2  A    between atoms: C4_10  and  C5_11 
REMARK    3  A    between atoms: C6_12  and  C7_13 
ROOT
HETATM    1  C7  UNL     1     -12.235  -2.563   0.750  1.00  0.00     0.067 A 
HETATM    2  S2  UNL     1     -11.593  -1.043   0.352  1.00  0.00    -0.083 SA
HETATM    3  C8  UNL     1     -10.987  -1.401  -1.211  1.00  0.00     0.012 A 
HETATM    4  C9  UNL     1     -11.314  -2.721  -1.370  1.00  0.00     0.049 A 
HETATM    5  C10 UNL     1     -11.961  -3.323  -0.352  1.00  0.00    -0.009 A 
HETATM    6  C11 UNL     1     -12.401  -4.787  -0.370  1.00  0.00     0.052 C 
HETATM    7  N3  UNL     1     -10.887  -3.263  -2.650  1.00  0.00    -0.388 N 
ATOM      8  H3  UNL     1     -11.445  -4.000  -3.081  1.00  0.00     0.159 HD
HETATM    9  C12 UNL     1      -9.723  -2.806  -3.327  1.00  0.00     0.129 C 
HETATM   10  C13 UNL     1      -9.265  -1.439  -3.004  1.00  0.00    -0.027 C 
HETATM   11  C14 UNL     1      -7.989  -1.533  -2.183  1.00  0.00     0.016 C 
HETATM   12  C15 UNL     1      -8.890  -0.676  -4.276  1.00  0.00     0.016 C 
HETATM   13  C16 UNL     1     -10.266  -0.598  -2.271  1.00  0.00     0.059 C 
ENDROOT
BRANCH   1  14
HETATM   14  C6  UNL     1     -12.915  -2.957   1.977  1.00  0.00    -0.053 C 
HETATM   15  C5  UNL     1     -13.494  -3.288   2.982  1.00  0.00    -0.051 C 
BRANCH  15  16
HETATM   16  C4  UNL     1     -14.186  -3.711   4.194  1.00  0.00     0.084 A 
HETATM   17  C2  UNL     1     -13.932  -4.792   4.985  1.00  0.00     0.033 A 
HETATM   18  C1  UNL     1     -12.797  -5.742   4.640  1.00  0.00     0.070 C 
HETATM   19  N1  UNL     1     -14.693  -4.975   6.035  1.00  0.00    -0.339 N 
HETATM   20  C3  UNL     1     -15.670  -4.095   6.269  1.00  0.00     0.143 A 
ATOM     21  H1  UNL     1     -14.543  -5.768   6.659  1.00  0.00     0.168 HD
HETATM   22  S1  UNL     1     -15.511  -2.989   4.982  1.00  0.00    -0.043 SA
BRANCH  20  23
HETATM   23  N2  UNL     1     -16.528  -4.115   7.267  1.00  0.00    -0.380 N 
ATOM     24  H22 UNL     1     -16.665  -4.811   8.000  1.00  0.00     0.158 HD
ATOM     25  H21 UNL     1     -17.231  -3.409   7.484  1.00  0.00     0.158 HD
ENDBRANCH  20  23
ENDBRANCH  15  16
ENDBRANCH   1  14
TORSDOF 3
ENDMDL
