MODEL 1
REMARK VINA RESULT: -5.211216608      0.000      0.000
REMARK  10 active torsions:
REMARK  status: ('A' for Active; 'I' for Inactive)
REMARK    1  A    between atoms: C1_2  and  O2_3 
REMARK    2  A    between atoms: C1_2  and  C9_15 
REMARK    3  A    between atoms: O2_3  and  C2_4 
REMARK    4  A    between atoms: C2_4  and  C3_5 
REMARK    5  A    between atoms: C3_5  and  C4_7 
REMARK    6  A    between atoms: N2_18  and  S1_19 
REMARK    7  A    between atoms: S1_19  and  C12_22 
REMARK    8  A    between atoms: C12_22  and  C13_23 
REMARK    9  A    between atoms: C13_23  and  C14_24 
REMARK   10  A    between atoms: C14_24  and  O6_25 
ROOT
HETATM    1  C9  UNL     1     -35.568  -7.676  11.143  1.00  0.00     0.088 C 
HETATM    2  C10 UNL     1     -34.662  -6.479  11.080  1.00  0.00     0.035 C 
HETATM    3  C11 UNL     1     -33.473  -6.613  12.004  1.00  0.00     0.136 C 
HETATM    4  N2  UNL     1     -32.796  -7.854  11.931  1.00  0.00    -0.311 N 
HETATM    5  C15 UNL     1     -33.576  -9.035  11.816  1.00  0.00     0.136 C 
HETATM    6  C16 UNL     1     -34.789  -8.916  10.924  1.00  0.00     0.035 C 
ENDROOT
BRANCH   1   7
HETATM    7  C1  UNL     1     -36.418  -7.666  12.357  1.00  0.00     0.263 C 
HETATM    8  O1  UNL     1     -36.669  -6.546  12.913  1.00  0.00    -0.265 OA
BRANCH   7   9
HETATM    9  O2  UNL     1     -36.954  -8.805  12.912  1.00  0.00    -0.314 OA
BRANCH   9  10
HETATM   10  C2  UNL     1     -37.740  -8.695  14.074  1.00  0.00     0.259 C 
BRANCH  10  11
HETATM   11  C3  UNL     1     -39.145  -9.129  13.867  1.00  0.00     0.181 C 
HETATM   12  O3  UNL     1     -39.608 -10.104  14.413  1.00  0.00    -0.293 OA
BRANCH  11  13
HETATM   13  C4  UNL     1     -39.998  -8.332  12.960  1.00  0.00     0.257 C 
HETATM   14  C5  UNL     1     -39.955  -8.912  11.578  1.00  0.00     0.041 C 
HETATM   15  C6  UNL     1     -40.732  -8.054  10.595  1.00  0.00     0.004 C 
HETATM   16  C7  UNL     1     -40.270  -6.603  10.707  1.00  0.00     0.027 C 
HETATM   17  C8  UNL     1     -40.345  -6.141  12.148  1.00  0.00     0.233 C 
HETATM   18  N1  UNL     1     -39.632  -6.958  13.067  1.00  0.00    -0.064 N 
ATOM     19  H12 UNL     1     -39.741  -6.620  14.023  1.00  0.00     0.278 HD
ATOM     20  H11 UNL     1     -38.624  -6.836  12.967  1.00  0.00     0.278 HD
ENDBRANCH  11  13
ENDBRANCH  10  11
ENDBRANCH   9  10
ENDBRANCH   7   9
ENDBRANCH   1   7
BRANCH   4  21
HETATM   21  S1  UNL     1     -31.322  -7.865  11.125  1.00  0.00     0.228 S 
HETATM   22  O4  UNL     1     -30.982  -6.463  10.693  1.00  0.00    -0.206 OA
HETATM   23  O5  UNL     1     -31.370  -8.711   9.885  1.00  0.00    -0.206 OA
BRANCH  21  24
HETATM   24  C12 UNL     1     -29.969  -8.465  12.120  1.00  0.00     0.165 C 
BRANCH  24  25
HETATM   25  C13 UNL     1     -29.083  -9.261  11.183  1.00  0.00     0.043 C 
BRANCH  25  26
HETATM   26  C14 UNL     1     -27.929  -8.392  10.728  1.00  0.00     0.165 C 
BRANCH  26  27
HETATM   27  O6  UNL     1     -28.265  -7.751   9.519  1.00  0.00    -0.401 OA
ATOM     28  H6  UNL     1     -27.505  -7.722   8.951  1.00  0.00     0.209 HD
ENDBRANCH  26  27
ENDBRANCH  25  26
ENDBRANCH  24  25
ENDBRANCH  21  24
ENDBRANCH   4  21
TORSDOF 10
ENDMDL
MODEL 2
REMARK VINA RESULT: -5.093673946      2.611      8.724
REMARK  10 active torsions:
REMARK  status: ('A' for Active; 'I' for Inactive)
REMARK    1  A    between atoms: C1_2  and  O2_3 
REMARK    2  A    between atoms: C1_2  and  C9_15 
REMARK    3  A    between atoms: O2_3  and  C2_4 
REMARK    4  A    between atoms: C2_4  and  C3_5 
REMARK    5  A    between atoms: C3_5  and  C4_7 
REMARK    6  A    between atoms: N2_18  and  S1_19 
REMARK    7  A    between atoms: S1_19  and  C12_22 
REMARK    8  A    between atoms: C12_22  and  C13_23 
REMARK    9  A    between atoms: C13_23  and  C14_24 
REMARK   10  A    between atoms: C14_24  and  O6_25 
ROOT
HETATM    1  C9  UNL     1     -34.610  -8.051  10.856  1.00  0.00     0.088 C 
HETATM    2  C10 UNL     1     -35.225  -9.406  11.057  1.00  0.00     0.035 C 
HETATM    3  C11 UNL     1     -35.952  -9.512  12.379  1.00  0.00     0.136 C 
HETATM    4  N2  UNL     1     -36.821  -8.434  12.672  1.00  0.00    -0.311 N 
HETATM    5  C15 UNL     1     -36.386  -7.120  12.354  1.00  0.00     0.136 C 
HETATM    6  C16 UNL     1     -35.628  -6.995  11.053  1.00  0.00     0.035 C 
ENDROOT
BRANCH   1   7
HETATM    7  C1  UNL     1     -33.362  -7.885  11.637  1.00  0.00     0.263 C 
HETATM    8  O1  UNL     1     -32.845  -8.916  12.182  1.00  0.00    -0.265 OA
BRANCH   7   9
HETATM    9  O2  UNL     1     -32.730  -6.674  11.802  1.00  0.00    -0.314 OA
BRANCH   9  10
HETATM   10  C2  UNL     1     -32.161  -6.041  10.682  1.00  0.00     0.259 C 
BRANCH  10  11
HETATM   11  C3  UNL     1     -30.721  -5.728  10.862  1.00  0.00     0.181 C 
HETATM   12  O3  UNL     1     -30.271  -4.619  10.677  1.00  0.00    -0.293 OA
BRANCH  11  13
HETATM   13  C4  UNL     1     -29.814  -6.817  11.283  1.00  0.00     0.257 C 
HETATM   14  C5  UNL     1     -29.883  -7.946  10.299  1.00  0.00     0.041 C 
HETATM   15  C6  UNL     1     -29.048  -9.129  10.757  1.00  0.00     0.004 C 
HETATM   16  C7  UNL     1     -29.420  -9.492  12.194  1.00  0.00     0.027 C 
HETATM   17  C8  UNL     1     -29.328  -8.268  13.082  1.00  0.00     0.233 C 
HETATM   18  N1  UNL     1     -30.096  -7.157  12.638  1.00  0.00    -0.064 N 
ATOM     19  H12 UNL     1     -29.973  -6.353  13.253  1.00  0.00     0.278 HD
ATOM     20  H11 UNL     1     -31.094  -7.317  12.779  1.00  0.00     0.278 HD
ENDBRANCH  11  13
ENDBRANCH  10  11
ENDBRANCH   9  10
ENDBRANCH   7   9
ENDBRANCH   1   7
BRANCH   4  21
HETATM   21  S1  UNL     1     -38.468  -8.723  12.508  1.00  0.00     0.228 S 
HETATM   22  O4  UNL     1     -38.677  -9.879  11.564  1.00  0.00    -0.206 OA
HETATM   23  O5  UNL     1     -39.186  -7.540  11.924  1.00  0.00    -0.206 OA
BRANCH  21  24
HETATM   24  C12 UNL     1     -39.278  -9.128  14.044  1.00  0.00     0.165 C 
BRANCH  24  25
HETATM   25  C13 UNL     1     -40.747  -8.819  13.834  1.00  0.00     0.043 C 
BRANCH  25  26
HETATM   26  C14 UNL     1     -41.563 -10.067  14.097  1.00  0.00     0.165 C 
BRANCH  26  27
HETATM   27  O6  UNL     1     -40.785 -11.002  14.807  1.00  0.00    -0.401 OA
ATOM     28  H6  UNL     1     -40.974 -10.937  15.735  1.00  0.00     0.209 HD
ENDBRANCH  26  27
ENDBRANCH  25  26
ENDBRANCH  24  25
ENDBRANCH  21  24
ENDBRANCH   4  21
TORSDOF 10
ENDMDL
MODEL 3
REMARK VINA RESULT: -5.080608397      2.407      8.815
REMARK  10 active torsions:
REMARK  status: ('A' for Active; 'I' for Inactive)
REMARK    1  A    between atoms: C1_2  and  O2_3 
REMARK    2  A    between atoms: C1_2  and  C9_15 
REMARK    3  A    between atoms: O2_3  and  C2_4 
REMARK    4  A    between atoms: C2_4  and  C3_5 
REMARK    5  A    between atoms: C3_5  and  C4_7 
REMARK    6  A    between atoms: N2_18  and  S1_19 
REMARK    7  A    between atoms: S1_19  and  C12_22 
REMARK    8  A    between atoms: C12_22  and  C13_23 
REMARK    9  A    between atoms: C13_23  and  C14_24 
REMARK   10  A    between atoms: C14_24  and  O6_25 
ROOT
HETATM    1  C9  UNL     1     -34.544  -8.130  10.913  1.00  0.00     0.088 C 
HETATM    2  C10 UNL     1     -35.140  -9.506  11.002  1.00  0.00     0.035 C 
HETATM    3  C11 UNL     1     -35.916  -9.709  12.283  1.00  0.00     0.136 C 
HETATM    4  N2  UNL     1     -36.817  -8.667  12.609  1.00  0.00    -0.311 N 
HETATM    5  C15 UNL     1     -36.395  -7.329  12.395  1.00  0.00     0.136 C 
HETATM    6  C16 UNL     1     -35.589  -7.106  11.136  1.00  0.00     0.035 C 
ENDROOT
BRANCH   1   7
HETATM    7  C1  UNL     1     -33.331  -7.994  11.753  1.00  0.00     0.263 C 
HETATM    8  O1  UNL     1     -32.999  -6.830  12.156  1.00  0.00    -0.265 OA
BRANCH   7   9
HETATM    9  O2  UNL     1     -32.545  -9.061  12.123  1.00  0.00    -0.314 OA
BRANCH   9  10
HETATM   10  C2  UNL     1     -31.146  -8.910  12.134  1.00  0.00     0.259 C 
BRANCH  10  11
HETATM   11  C3  UNL     1     -30.546  -8.973  10.778  1.00  0.00     0.181 C 
HETATM   12  O3  UNL     1     -30.813  -9.853   9.992  1.00  0.00    -0.293 OA
BRANCH  11  13
HETATM   13  C4  UNL     1     -29.589  -7.916  10.386  1.00  0.00     0.257 C 
HETATM   14  C5  UNL     1     -28.214  -8.268  10.870  1.00  0.00     0.041 C 
HETATM   15  C6  UNL     1     -27.226  -7.152  10.580  1.00  0.00     0.004 C 
HETATM   16  C7  UNL     1     -27.782  -5.828  11.102  1.00  0.00     0.027 C 
HETATM   17  C8  UNL     1     -29.176  -5.597  10.556  1.00  0.00     0.233 C 
HETATM   18  N1  UNL     1     -30.093  -6.653  10.813  1.00  0.00    -0.064 N 
ATOM     19  H12 UNL     1     -31.004  -6.460  10.398  1.00  0.00     0.278 HD
ATOM     20  H11 UNL     1     -30.365  -6.677  11.796  1.00  0.00     0.278 HD
ENDBRANCH  11  13
ENDBRANCH  10  11
ENDBRANCH   9  10
ENDBRANCH   7   9
ENDBRANCH   1   7
BRANCH   4  21
HETATM   21  S1  UNL     1     -38.450  -8.972  12.361  1.00  0.00     0.228 S 
HETATM   22  O4  UNL     1     -39.044  -9.548  13.620  1.00  0.00    -0.206 OA
HETATM   23  O5  UNL     1     -38.668  -9.980  11.268  1.00  0.00    -0.206 OA
BRANCH  21  24
HETATM   24  C12 UNL     1     -39.392  -7.520  11.934  1.00  0.00     0.165 C 
BRANCH  24  25
HETATM   25  C13 UNL     1     -40.424  -7.974  10.922  1.00  0.00     0.043 C 
BRANCH  25  26
HETATM   26  C14 UNL     1     -41.705  -8.338  11.643  1.00  0.00     0.165 C 
BRANCH  26  27
HETATM   27  O6  UNL     1     -41.692  -9.707  11.973  1.00  0.00    -0.401 OA
ATOM     28  H6  UNL     1     -41.792  -9.812  12.911  1.00  0.00     0.209 HD
ENDBRANCH  26  27
ENDBRANCH  25  26
ENDBRANCH  24  25
ENDBRANCH  21  24
ENDBRANCH   4  21
TORSDOF 10
ENDMDL
MODEL 4
REMARK VINA RESULT: -5.055244431      2.871      8.596
REMARK  10 active torsions:
REMARK  status: ('A' for Active; 'I' for Inactive)
REMARK    1  A    between atoms: C1_2  and  O2_3 
REMARK    2  A    between atoms: C1_2  and  C9_15 
REMARK    3  A    between atoms: O2_3  and  C2_4 
REMARK    4  A    between atoms: C2_4  and  C3_5 
REMARK    5  A    between atoms: C3_5  and  C4_7 
REMARK    6  A    between atoms: N2_18  and  S1_19 
REMARK    7  A    between atoms: S1_19  and  C12_22 
REMARK    8  A    between atoms: C12_22  and  C13_23 
REMARK    9  A    between atoms: C13_23  and  C14_24 
REMARK   10  A    between atoms: C14_24  and  O6_25 
ROOT
HETATM    1  C9  UNL     1     -37.763  -7.919  11.725  1.00  0.00     0.088 C 
HETATM    2  C10 UNL     1     -37.607  -9.108  12.628  1.00  0.00     0.035 C 
HETATM    3  C11 UNL     1     -38.067  -8.818  14.039  1.00  0.00     0.136 C 
HETATM    4  N2  UNL     1     -39.327  -8.179  14.137  1.00  0.00    -0.311 N 
HETATM    5  C15 UNL     1     -39.628  -7.150  13.207  1.00  0.00     0.136 C 
HETATM    6  C16 UNL     1     -39.149  -7.402  11.797  1.00  0.00     0.035 C 
ENDROOT
BRANCH   1   7
HETATM    7  C1  UNL     1     -36.698  -6.912  11.942  1.00  0.00     0.263 C 
HETATM    8  O1  UNL     1     -36.981  -5.681  11.763  1.00  0.00    -0.265 OA
BRANCH   7   9
HETATM    9  O2  UNL     1     -35.419  -7.237  12.329  1.00  0.00    -0.314 OA
BRANCH   9  10
HETATM   10  C2  UNL     1     -34.364  -7.075  11.412  1.00  0.00     0.259 C 
BRANCH  10  11
HETATM   11  C3  UNL     1     -33.572  -8.316  11.216  1.00  0.00     0.181 C 
HETATM   12  O3  UNL     1     -34.030  -9.298  10.677  1.00  0.00    -0.293 OA
BRANCH  11  13
HETATM   13  C4  UNL     1     -32.175  -8.339  11.698  1.00  0.00     0.257 C 
HETATM   14  C5  UNL     1     -31.279  -8.908  10.638  1.00  0.00     0.041 C 
HETATM   15  C6  UNL     1     -29.852  -9.050  11.140  1.00  0.00     0.004 C 
HETATM   16  C7  UNL     1     -29.850  -9.802  12.469  1.00  0.00     0.027 C 
HETATM   17  C8  UNL     1     -30.802  -9.141  13.445  1.00  0.00     0.233 C 
HETATM   18  N1  UNL     1     -32.132  -8.993  12.964  1.00  0.00    -0.064 N 
ATOM     19  H12 UNL     1     -32.721  -8.516  13.646  1.00  0.00     0.278 HD
ATOM     20  H11 UNL     1     -32.616  -9.891  12.932  1.00  0.00     0.278 HD
ENDBRANCH  11  13
ENDBRANCH  10  11
ENDBRANCH   9  10
ENDBRANCH   7   9
ENDBRANCH   1   7
BRANCH   4  21
HETATM   21  S1  UNL     1     -40.622  -9.131  14.627  1.00  0.00     0.228 S 
HETATM   22  O4  UNL     1     -40.947  -8.824  16.066  1.00  0.00    -0.206 OA
HETATM   23  O5  UNL     1     -40.297 -10.596  14.550  1.00  0.00    -0.206 OA
BRANCH  21  24
HETATM   24  C12 UNL     1     -42.103  -8.868  13.670  1.00  0.00     0.165 C 
BRANCH  24  25
HETATM   25  C13 UNL     1     -42.326 -10.147  12.887  1.00  0.00     0.043 C 
BRANCH  25  26
HETATM   26  C14 UNL     1     -41.788  -9.973  11.483  1.00  0.00     0.165 C 
BRANCH  26  27
HETATM   27  O6  UNL     1     -40.549 -10.632  11.364  1.00  0.00    -0.401 OA
ATOM     28  H6  UNL     1     -39.967 -10.123  10.811  1.00  0.00     0.209 HD
ENDBRANCH  26  27
ENDBRANCH  25  26
ENDBRANCH  24  25
ENDBRANCH  21  24
ENDBRANCH   4  21
TORSDOF 10
ENDMDL
MODEL 5
REMARK VINA RESULT: -5.045270050      1.580      2.331
REMARK  10 active torsions:
REMARK  status: ('A' for Active; 'I' for Inactive)
REMARK    1  A    between atoms: C1_2  and  O2_3 
REMARK    2  A    between atoms: C1_2  and  C9_15 
REMARK    3  A    between atoms: O2_3  and  C2_4 
REMARK    4  A    between atoms: C2_4  and  C3_5 
REMARK    5  A    between atoms: C3_5  and  C4_7 
REMARK    6  A    between atoms: N2_18  and  S1_19 
REMARK    7  A    between atoms: S1_19  and  C12_22 
REMARK    8  A    between atoms: C12_22  and  C13_23 
REMARK    9  A    between atoms: C13_23  and  C14_24 
REMARK   10  A    between atoms: C14_24  and  O6_25 
ROOT
HETATM    1  C9  UNL     1     -35.473  -7.563  11.144  1.00  0.00     0.088 C 
HETATM    2  C10 UNL     1     -34.456  -6.459  11.183  1.00  0.00     0.035 C 
HETATM    3  C11 UNL     1     -33.322  -6.762  12.137  1.00  0.00     0.136 C 
HETATM    4  N2  UNL     1     -32.765  -8.058  12.011  1.00  0.00    -0.311 N 
HETATM    5  C15 UNL     1     -33.650  -9.147  11.799  1.00  0.00     0.136 C 
HETATM    6  C16 UNL     1     -34.810  -8.859  10.875  1.00  0.00     0.035 C 
ENDROOT
BRANCH   1   7
HETATM    7  C1  UNL     1     -36.366  -7.539  12.326  1.00  0.00     0.263 C 
HETATM    8  O1  UNL     1     -36.554  -6.428  12.922  1.00  0.00    -0.265 OA
BRANCH   7   9
HETATM    9  O2  UNL     1     -37.006  -8.656  12.811  1.00  0.00    -0.314 OA
BRANCH   9  10
HETATM   10  C2  UNL     1     -38.412  -8.711  12.771  1.00  0.00     0.259 C 
BRANCH  10  11
HETATM   11  C3  UNL     1     -39.019  -8.982  14.098  1.00  0.00     0.181 C 
HETATM   12  O3  UNL     1     -39.610 -10.010  14.343  1.00  0.00    -0.293 OA
BRANCH  11  13
HETATM   13  C4  UNL     1     -38.891  -7.952  15.151  1.00  0.00     0.257 C 
HETATM   14  C5  UNL     1     -39.503  -6.666  14.683  1.00  0.00     0.041 C 
HETATM   15  C6  UNL     1     -39.291  -5.554  15.696  1.00  0.00     0.004 C 
HETATM   16  C7  UNL     1     -37.812  -5.475  16.067  1.00  0.00     0.027 C 
HETATM   17  C8  UNL     1     -37.310  -6.836  16.506  1.00  0.00     0.233 C 
HETATM   18  N1  UNL     1     -37.528  -7.877  15.563  1.00  0.00    -0.064 N 
ATOM     19  H12 UNL     1     -37.201  -8.774  15.921  1.00  0.00     0.278 HD
ATOM     20  H11 UNL     1     -36.905  -7.786  14.760  1.00  0.00     0.278 HD
ENDBRANCH  11  13
ENDBRANCH  10  11
ENDBRANCH   9  10
ENDBRANCH   7   9
ENDBRANCH   1   7
BRANCH   4  21
HETATM   21  S1  UNL     1     -31.268  -8.168  11.256  1.00  0.00     0.228 S 
HETATM   22  O4  UNL     1     -31.006  -6.899  10.486  1.00  0.00    -0.206 OA
HETATM   23  O5  UNL     1     -31.222  -9.301  10.271  1.00  0.00    -0.206 OA
BRANCH  21  24
HETATM   24  C12 UNL     1     -29.912  -8.400  12.391  1.00  0.00     0.165 C 
BRANCH  24  25
HETATM   25  C13 UNL     1     -28.928  -9.310  11.683  1.00  0.00     0.043 C 
BRANCH  25  26
HETATM   26  C14 UNL     1     -27.912  -8.468  10.941  1.00  0.00     0.165 C 
BRANCH  26  27
HETATM   27  O6  UNL     1     -28.309  -8.318   9.598  1.00  0.00    -0.401 OA
ATOM     28  H6  UNL     1     -27.616  -7.897   9.104  1.00  0.00     0.209 HD
ENDBRANCH  26  27
ENDBRANCH  25  26
ENDBRANCH  24  25
ENDBRANCH  21  24
ENDBRANCH   4  21
TORSDOF 10
ENDMDL
