MODEL 1
REMARK VINA RESULT: -5.395953503      0.000      0.000
REMARK  9 active torsions:
REMARK  status: ('A' for Active; 'I' for Inactive)
REMARK    1  A    between atoms: S1_2  and  N1_5 
REMARK    2  A    between atoms: N1_5  and  C2_7 
REMARK    3  A    between atoms: C2_7  and  C3_8 
REMARK    4  A    between atoms: C2_7  and  C10_15 
REMARK    5  A    between atoms: C3_8  and  C4_9 
REMARK    6  A    between atoms: C10_15  and  O4_17 
REMARK    7  A    between atoms: O4_17  and  C11_18 
REMARK    8  A    between atoms: C11_18  and  C12_19 
REMARK       I    between atoms: C12_19  and  N2_21 
REMARK    9  A    between atoms: N2_21  and  C13_23 
ROOT
HETATM    1  C2  UNL     1     -33.753  -1.128   5.594  1.00  0.00     0.192 C 
ENDROOT
BRANCH   1   2
HETATM    2  N1  UNL     1     -32.319  -1.195   5.866  1.00  0.00    -0.305 N 
ATOM      3  H1  UNL     1     -31.846  -1.973   6.325  1.00  0.00     0.173 HD
BRANCH   2   4
HETATM    4  S1  UNL     1     -31.542   0.245   5.295  1.00  0.00     0.223 S 
HETATM    5  C1  UNL     1     -32.543   1.019   4.031  1.00  0.00     0.185 C 
HETATM    6  O1  UNL     1     -30.227  -0.068   4.714  1.00  0.00    -0.206 OA
HETATM    7  O2  UNL     1     -31.466   1.201   6.441  1.00  0.00    -0.206 OA
ENDBRANCH   2   4
ENDBRANCH   1   2
BRANCH   1   8
HETATM    8  C3  UNL     1     -34.276  -2.494   5.420  1.00  0.00     0.040 C 
BRANCH   8   9
HETATM    9  C4  UNL     1     -35.036  -2.834   4.205  1.00  0.00    -0.012 C 
HETATM   10  C5  UNL     1     -34.551  -2.230   2.918  1.00  0.00     0.005 C 
HETATM   11  C6  UNL     1     -35.055  -3.148   1.790  1.00  0.00     0.000 C 
HETATM   12  C7  UNL     1     -36.559  -3.251   1.828  1.00  0.00     0.000 C 
HETATM   13  C8  UNL     1     -37.110  -3.572   3.189  1.00  0.00     0.000 C 
HETATM   14  C9  UNL     1     -36.528  -2.684   4.281  1.00  0.00     0.005 C 
ENDBRANCH   8   9
ENDBRANCH   1   8
BRANCH   1  15
HETATM   15  C10 UNL     1     -34.371  -0.616   6.899  1.00  0.00     0.282 C 
HETATM   16  O3  UNL     1     -35.490  -0.097   6.882  1.00  0.00    -0.263 OA
BRANCH  15  17
HETATM   17  O4  UNL     1     -33.672  -0.753   8.071  1.00  0.00    -0.310 OA
BRANCH  17  18
HETATM   18  C11 UNL     1     -34.040  -1.653   9.090  1.00  0.00     0.281 C 
BRANCH  18  19
HETATM   19  C12 UNL     1     -33.173  -2.847   9.133  1.00  0.00     0.242 C 
HETATM   20  O5  UNL     1     -32.291  -3.098   8.245  1.00  0.00    -0.271 OA
HETATM   21  N2  UNL     1     -33.308  -3.770  10.190  1.00  0.00    -0.352 N 
ATOM     22  H2  UNL     1     -33.992  -3.604  10.929  1.00  0.00     0.163 HD
BRANCH  21  23
HETATM   23  C13 UNL     1     -32.486  -4.939  10.225  1.00  0.00     0.110 C 
HETATM   24  C14 UNL     1     -31.223  -4.796  11.050  1.00  0.00     0.053 C 
HETATM   25  C15 UNL     1     -30.931  -6.265  11.302  1.00  0.00     0.169 C 
HETATM   26  O6  UNL     1     -32.130  -6.913  11.396  1.00  0.00    -0.389 OA
HETATM   27  C16 UNL     1     -33.152  -6.094  10.942  1.00  0.00     0.192 C 
ENDBRANCH  21  23
ENDBRANCH  18  19
ENDBRANCH  17  18
ENDBRANCH  15  17
ENDBRANCH   1  15
TORSDOF 9
ENDMDL
MODEL 2
REMARK VINA RESULT: -5.380443586      3.967      7.017
REMARK  9 active torsions:
REMARK  status: ('A' for Active; 'I' for Inactive)
REMARK    1  A    between atoms: S1_2  and  N1_5 
REMARK    2  A    between atoms: N1_5  and  C2_7 
REMARK    3  A    between atoms: C2_7  and  C3_8 
REMARK    4  A    between atoms: C2_7  and  C10_15 
REMARK    5  A    between atoms: C3_8  and  C4_9 
REMARK    6  A    between atoms: C10_15  and  O4_17 
REMARK    7  A    between atoms: O4_17  and  C11_18 
REMARK    8  A    between atoms: C11_18  and  C12_19 
REMARK       I    between atoms: C12_19  and  N2_21 
REMARK    9  A    between atoms: N2_21  and  C13_23 
ROOT
HETATM    1  C2  UNL     1     -33.937  -0.826   5.770  1.00  0.00     0.192 C 
ENDROOT
BRANCH   1   2
HETATM    2  N1  UNL     1     -34.861  -0.002   4.995  1.00  0.00    -0.305 N 
ATOM      3  H1  UNL     1     -34.734   0.260   4.018  1.00  0.00     0.173 HD
BRANCH   2   4
HETATM    4  S1  UNL     1     -36.208   0.464   5.983  1.00  0.00     0.223 S 
HETATM    5  C1  UNL     1     -36.310   2.247   6.074  1.00  0.00     0.185 C 
HETATM    6  O1  UNL     1     -36.057  -0.060   7.350  1.00  0.00    -0.206 OA
HETATM    7  O2  UNL     1     -37.450  -0.013   5.304  1.00  0.00    -0.206 OA
ENDBRANCH   2   4
ENDBRANCH   1   2
BRANCH   1   8
HETATM    8  C3  UNL     1     -34.043  -2.225   5.321  1.00  0.00     0.040 C 
BRANCH   8   9
HETATM    9  C4  UNL     1     -35.032  -2.587   4.290  1.00  0.00    -0.012 C 
HETATM   10  C5  UNL     1     -36.195  -3.424   4.740  1.00  0.00     0.005 C 
HETATM   11  C6  UNL     1     -37.332  -3.164   3.735  1.00  0.00     0.000 C 
HETATM   12  C7  UNL     1     -36.891  -3.523   2.338  1.00  0.00     0.000 C 
HETATM   13  C8  UNL     1     -35.565  -2.930   1.950  1.00  0.00     0.000 C 
HETATM   14  C9  UNL     1     -34.492  -3.151   3.009  1.00  0.00     0.005 C 
ENDBRANCH   8   9
ENDBRANCH   1   8
BRANCH   1  15
HETATM   15  C10 UNL     1     -32.544  -0.360   5.333  1.00  0.00     0.282 C 
HETATM   16  O3  UNL     1     -31.568  -0.603   6.045  1.00  0.00    -0.263 OA
BRANCH  15  17
HETATM   17  O4  UNL     1     -32.405   0.314   4.146  1.00  0.00    -0.310 OA
BRANCH  17  18
HETATM   18  C11 UNL     1     -31.378   1.247   3.902  1.00  0.00     0.281 C 
BRANCH  18  19
HETATM   19  C12 UNL     1     -30.797   1.112   2.553  1.00  0.00     0.242 C 
HETATM   20  O5  UNL     1     -31.146   1.847   1.568  1.00  0.00    -0.271 OA
HETATM   21  N2  UNL     1     -29.812   0.132   2.311  1.00  0.00    -0.352 N 
ATOM     22  H2  UNL     1     -29.493  -0.469   3.071  1.00  0.00     0.163 HD
BRANCH  21  23
HETATM   23  C13 UNL     1     -29.261  -0.017   1.001  1.00  0.00     0.110 C 
HETATM   24  C14 UNL     1     -27.748   0.022   0.946  1.00  0.00     0.053 C 
HETATM   25  C15 UNL     1     -27.536  -0.678  -0.386  1.00  0.00     0.169 C 
HETATM   26  O6  UNL     1     -28.528  -1.608  -0.526  1.00  0.00    -0.389 OA
HETATM   27  C16 UNL     1     -29.522  -1.389   0.416  1.00  0.00     0.192 C 
ENDBRANCH  21  23
ENDBRANCH  18  19
ENDBRANCH  17  18
ENDBRANCH  15  17
ENDBRANCH   1  15
TORSDOF 9
ENDMDL
MODEL 3
REMARK VINA RESULT: -5.244860062      2.339      3.459
REMARK  9 active torsions:
REMARK  status: ('A' for Active; 'I' for Inactive)
REMARK    1  A    between atoms: S1_2  and  N1_5 
REMARK    2  A    between atoms: N1_5  and  C2_7 
REMARK    3  A    between atoms: C2_7  and  C3_8 
REMARK    4  A    between atoms: C2_7  and  C10_15 
REMARK    5  A    between atoms: C3_8  and  C4_9 
REMARK    6  A    between atoms: C10_15  and  O4_17 
REMARK    7  A    between atoms: O4_17  and  C11_18 
REMARK    8  A    between atoms: C11_18  and  C12_19 
REMARK       I    between atoms: C12_19  and  N2_21 
REMARK    9  A    between atoms: N2_21  and  C13_23 
ROOT
HETATM    1  C2  UNL     1     -34.335  -2.341   6.733  1.00  0.00     0.192 C 
ENDROOT
BRANCH   1   2
HETATM    2  N1  UNL     1     -35.160  -1.397   7.483  1.00  0.00    -0.305 N 
ATOM      3  H1  UNL     1     -35.012  -0.389   7.517  1.00  0.00     0.173 HD
BRANCH   2   4
HETATM    4  S1  UNL     1     -36.428  -2.245   8.306  1.00  0.00     0.223 S 
HETATM    5  C1  UNL     1     -38.018  -1.594   7.813  1.00  0.00     0.185 C 
HETATM    6  O1  UNL     1     -36.298  -2.091   9.764  1.00  0.00    -0.206 OA
HETATM    7  O2  UNL     1     -36.380  -3.670   7.859  1.00  0.00    -0.206 OA
ENDBRANCH   2   4
ENDBRANCH   1   2
BRANCH   1   8
HETATM    8  C3  UNL     1     -34.164  -1.847   5.356  1.00  0.00     0.040 C 
BRANCH   8   9
HETATM    9  C4  UNL     1     -34.968  -2.431   4.267  1.00  0.00    -0.012 C 
HETATM   10  C5  UNL     1     -34.594  -2.033   2.868  1.00  0.00     0.005 C 
HETATM   11  C6  UNL     1     -35.102  -3.157   1.947  1.00  0.00     0.000 C 
HETATM   12  C7  UNL     1     -36.591  -3.331   2.100  1.00  0.00     0.000 C 
HETATM   13  C8  UNL     1     -37.045  -3.440   3.530  1.00  0.00     0.000 C 
HETATM   14  C9  UNL     1     -36.460  -2.348   4.415  1.00  0.00     0.005 C 
ENDBRANCH   8   9
ENDBRANCH   1   8
BRANCH   1  15
HETATM   15  C10 UNL     1     -32.949  -2.242   7.379  1.00  0.00     0.282 C 
HETATM   16  O3  UNL     1     -32.206  -1.302   7.086  1.00  0.00    -0.263 OA
BRANCH  15  17
HETATM   17  O4  UNL     1     -32.561  -3.198   8.283  1.00  0.00    -0.310 OA
BRANCH  17  18
HETATM   18  C11 UNL     1     -32.943  -3.178   9.639  1.00  0.00     0.281 C 
BRANCH  18  19
HETATM   19  C12 UNL     1     -33.308  -4.516  10.145  1.00  0.00     0.242 C 
HETATM   20  O5  UNL     1     -34.517  -4.877  10.344  1.00  0.00    -0.271 OA
HETATM   21  N2  UNL     1     -32.296  -5.454  10.432  1.00  0.00    -0.352 N 
ATOM     22  H2  UNL     1     -31.317  -5.213  10.276  1.00  0.00     0.163 HD
BRANCH  21  23
HETATM   23  C13 UNL     1     -32.644  -6.743  10.942  1.00  0.00     0.110 C 
HETATM   24  C14 UNL     1     -31.795  -7.880  10.411  1.00  0.00     0.053 C 
HETATM   25  C15 UNL     1     -32.051  -8.905  11.504  1.00  0.00     0.169 C 
HETATM   26  O6  UNL     1     -32.205  -8.224  12.679  1.00  0.00    -0.389 OA
HETATM   27  C16 UNL     1     -32.374  -6.871  12.427  1.00  0.00     0.192 C 
ENDBRANCH  21  23
ENDBRANCH  18  19
ENDBRANCH  17  18
ENDBRANCH  15  17
ENDBRANCH   1  15
TORSDOF 9
ENDMDL
MODEL 4
REMARK VINA RESULT: -5.213745288      3.508      6.125
REMARK  9 active torsions:
REMARK  status: ('A' for Active; 'I' for Inactive)
REMARK    1  A    between atoms: S1_2  and  N1_5 
REMARK    2  A    between atoms: N1_5  and  C2_7 
REMARK    3  A    between atoms: C2_7  and  C3_8 
REMARK    4  A    between atoms: C2_7  and  C10_15 
REMARK    5  A    between atoms: C3_8  and  C4_9 
REMARK    6  A    between atoms: C10_15  and  O4_17 
REMARK    7  A    between atoms: O4_17  and  C11_18 
REMARK    8  A    between atoms: C11_18  and  C12_19 
REMARK       I    between atoms: C12_19  and  N2_21 
REMARK    9  A    between atoms: N2_21  and  C13_23 
ROOT
HETATM    1  C2  UNL     1     -34.254  -1.125   5.993  1.00  0.00     0.192 C 
ENDROOT
BRANCH   1   2
HETATM    2  N1  UNL     1     -33.873  -1.033   7.400  1.00  0.00    -0.305 N 
ATOM      3  H1  UNL     1     -34.334  -1.526   8.165  1.00  0.00     0.173 HD
BRANCH   2   4
HETATM    4  S1  UNL     1     -32.521   0.038   7.577  1.00  0.00     0.223 S 
HETATM    5  C1  UNL     1     -33.097   1.698   7.907  1.00  0.00     0.185 C 
HETATM    6  O1  UNL     1     -31.713   0.065   6.347  1.00  0.00    -0.206 OA
HETATM    7  O2  UNL     1     -31.751  -0.407   8.777  1.00  0.00    -0.206 OA
ENDBRANCH   2   4
ENDBRANCH   1   2
BRANCH   1   8
HETATM    8  C3  UNL     1     -34.931  -2.412   5.758  1.00  0.00     0.040 C 
BRANCH   8   9
HETATM    9  C4  UNL     1     -35.359  -2.772   4.394  1.00  0.00    -0.012 C 
HETATM   10  C5  UNL     1     -34.586  -2.155   3.263  1.00  0.00     0.005 C 
HETATM   11  C6  UNL     1     -34.773  -3.087   2.051  1.00  0.00     0.000 C 
HETATM   12  C7  UNL     1     -36.236  -3.229   1.718  1.00  0.00     0.000 C 
HETATM   13  C8  UNL     1     -37.098  -3.563   2.903  1.00  0.00     0.000 C 
HETATM   14  C9  UNL     1     -36.826  -2.661   4.099  1.00  0.00     0.005 C 
ENDBRANCH   8   9
ENDBRANCH   1   8
BRANCH   1  15
HETATM   15  C10 UNL     1     -35.337  -0.055   5.815  1.00  0.00     0.282 C 
HETATM   16  O3  UNL     1     -36.236   0.049   6.652  1.00  0.00    -0.263 OA
BRANCH  15  17
HETATM   17  O4  UNL     1     -35.280   0.781   4.728  1.00  0.00    -0.310 OA
BRANCH  17  18
HETATM   18  C11 UNL     1     -34.279   1.758   4.555  1.00  0.00     0.281 C 
BRANCH  18  19
HETATM   19  C12 UNL     1     -33.332   1.415   3.476  1.00  0.00     0.242 C 
HETATM   20  O5  UNL     1     -33.708   1.064   2.308  1.00  0.00    -0.271 OA
HETATM   21  N2  UNL     1     -31.945   1.467   3.723  1.00  0.00    -0.352 N 
ATOM     22  H2  UNL     1     -31.599   1.755   4.638  1.00  0.00     0.163 HD
BRANCH  21  23
HETATM   23  C13 UNL     1     -31.024   1.116   2.688  1.00  0.00     0.110 C 
HETATM   24  C14 UNL     1     -30.554   2.281   1.841  1.00  0.00     0.053 C 
HETATM   25  C15 UNL     1     -29.277   1.676   1.283  1.00  0.00     0.169 C 
HETATM   26  O6  UNL     1     -28.760   0.851   2.241  1.00  0.00    -0.389 OA
HETATM   27  C16 UNL     1     -29.701   0.622   3.233  1.00  0.00     0.192 C 
ENDBRANCH  21  23
ENDBRANCH  18  19
ENDBRANCH  17  18
ENDBRANCH  15  17
ENDBRANCH   1  15
TORSDOF 9
ENDMDL
MODEL 5
REMARK VINA RESULT: -5.208186983      4.270      5.098
REMARK  9 active torsions:
REMARK  status: ('A' for Active; 'I' for Inactive)
REMARK    1  A    between atoms: S1_2  and  N1_5 
REMARK    2  A    between atoms: N1_5  and  C2_7 
REMARK    3  A    between atoms: C2_7  and  C3_8 
REMARK    4  A    between atoms: C2_7  and  C10_15 
REMARK    5  A    between atoms: C3_8  and  C4_9 
REMARK    6  A    between atoms: C10_15  and  O4_17 
REMARK    7  A    between atoms: O4_17  and  C11_18 
REMARK    8  A    between atoms: C11_18  and  C12_19 
REMARK       I    between atoms: C12_19  and  N2_21 
REMARK    9  A    between atoms: N2_21  and  C13_23 
ROOT
HETATM    1  C2  UNL     1     -33.912  -0.013   4.337  1.00  0.00     0.192 C 
ENDROOT
BRANCH   1   2
HETATM    2  N1  UNL     1     -32.591   0.283   3.790  1.00  0.00    -0.305 N 
ATOM      3  H1  UNL     1     -31.705   0.012   4.218  1.00  0.00     0.173 HD
BRANCH   2   4
HETATM    4  S1  UNL     1     -32.750   1.164   2.306  1.00  0.00     0.223 S 
HETATM    5  C1  UNL     1     -33.469   2.770   2.623  1.00  0.00     0.185 C 
HETATM    6  O1  UNL     1     -33.623   0.445   1.364  1.00  0.00    -0.206 OA
HETATM    7  O2  UNL     1     -31.374   1.397   1.771  1.00  0.00    -0.206 OA
ENDBRANCH   2   4
ENDBRANCH   1   2
BRANCH   1   8
HETATM    8  C3  UNL     1     -34.063  -1.471   4.478  1.00  0.00     0.040 C 
BRANCH   8   9
HETATM    9  C4  UNL     1     -35.093  -2.176   3.695  1.00  0.00    -0.012 C 
HETATM   10  C5  UNL     1     -35.897  -3.215   4.423  1.00  0.00     0.005 C 
HETATM   11  C6  UNL     1     -37.223  -3.355   3.654  1.00  0.00     0.000 C 
HETATM   12  C7  UNL     1     -36.962  -3.750   2.222  1.00  0.00     0.000 C 
HETATM   13  C8  UNL     1     -35.928  -2.900   1.537  1.00  0.00     0.000 C 
HETATM   14  C9  UNL     1     -34.663  -2.734   2.369  1.00  0.00     0.005 C 
ENDBRANCH   8   9
ENDBRANCH   1   8
BRANCH   1  15
HETATM   15  C10 UNL     1     -33.870   0.534   5.769  1.00  0.00     0.282 C 
HETATM   16  O3  UNL     1     -32.996   1.344   6.086  1.00  0.00    -0.263 OA
BRANCH  15  17
HETATM   17  O4  UNL     1     -34.815   0.120   6.673  1.00  0.00    -0.310 OA
BRANCH  17  18
HETATM   18  C11 UNL     1     -36.109   0.673   6.746  1.00  0.00     0.281 C 
BRANCH  18  19
HETATM   19  C12 UNL     1     -37.155  -0.269   6.305  1.00  0.00     0.242 C 
HETATM   20  O5  UNL     1     -37.672  -0.237   5.138  1.00  0.00    -0.271 OA
HETATM   21  N2  UNL     1     -37.625  -1.257   7.194  1.00  0.00    -0.352 N 
ATOM     22  H2  UNL     1     -37.231  -1.328   8.133  1.00  0.00     0.163 HD
BRANCH  21  23
HETATM   23  C13 UNL     1     -38.653  -2.159   6.779  1.00  0.00     0.110 C 
HETATM   24  C14 UNL     1     -38.428  -3.601   7.185  1.00  0.00     0.053 C 
HETATM   25  C15 UNL     1     -39.857  -4.107   7.087  1.00  0.00     0.169 C 
HETATM   26  O6  UNL     1     -40.683  -3.076   7.437  1.00  0.00    -0.389 OA
HETATM   27  C16 UNL     1     -39.975  -1.885   7.463  1.00  0.00     0.192 C 
ENDBRANCH  21  23
ENDBRANCH  18  19
ENDBRANCH  17  18
ENDBRANCH  15  17
ENDBRANCH   1  15
TORSDOF 9
ENDMDL
