MODEL 1
REMARK VINA RESULT: -5.323943240      0.000      0.000
REMARK  8 active torsions:
REMARK  status: ('A' for Active; 'I' for Inactive)
REMARK    1  A    between atoms: C1_2  and  C2_3 
REMARK       I    between atoms: C1_2  and  N3_23 
REMARK    2  A    between atoms: C2_3  and  C3_4 
REMARK    3  A    between atoms: C3_4  and  C4_5 
REMARK       I    between atoms: C4_5  and  N1_7 
REMARK    4  A    between atoms: N1_7  and  C5_8 
REMARK    5  A    between atoms: N1_7  and  C10_17 
REMARK    6  A    between atoms: C5_8  and  C6_9 
REMARK    7  A    between atoms: C10_17  and  C11_18 
REMARK    8  A    between atoms: N3_23  and  C14_25 
ROOT
HETATM    1  C4  UNL     1     -33.430  -1.821   8.086  1.00  0.00     0.220 C 
HETATM    2  O2  UNL     1     -32.515  -2.730   8.090  1.00  0.00    -0.273 OA
HETATM    3  N1  UNL     1     -34.712  -2.152   8.555  1.00  0.00    -0.345 N 
ENDROOT
BRANCH   3   4
HETATM    4  C5  UNL     1     -35.790  -1.241   8.487  1.00  0.00     0.159 C 
BRANCH   4   5
HETATM    5  C6  UNL     1     -36.502  -1.033   7.221  1.00  0.00     0.165 C 
HETATM    6  C7  UNL     1     -36.648   0.362   6.795  1.00  0.00     0.265 C 
HETATM    7  N2  UNL     1     -37.328   0.416   5.469  1.00  0.00    -0.071 N 
HETATM    8  C8  UNL     1     -38.656  -0.114   5.778  1.00  0.00     0.258 C 
ATOM      9  H22 UNL     1     -37.324   1.332   5.020  1.00  0.00     0.277 HD
ATOM     10  H21 UNL     1     -36.838  -0.064   4.714  1.00  0.00     0.277 HD
HETATM   11  C9  UNL     1     -38.537  -1.518   6.206  1.00  0.00     0.196 C 
HETATM   12  O3  UNL     1     -37.640  -1.807   7.185  1.00  0.00    -0.381 OA
ENDBRANCH   4   5
ENDBRANCH   3   4
BRANCH   3  13
HETATM   13  C10 UNL     1     -34.860  -3.502   9.116  1.00  0.00     0.186 C 
BRANCH  13  14
HETATM   14  C11 UNL     1     -36.171  -3.659   9.834  1.00  0.00     0.277 C 
HETATM   15  O4  UNL     1     -36.044  -4.261  11.069  1.00  0.00    -0.358 OA
HETATM   16  C12 UNL     1     -37.331  -4.740  11.304  1.00  0.00     0.197 C 
HETATM   17  C13 UNL     1     -37.972  -4.943   9.953  1.00  0.00     0.197 C 
HETATM   18  O5  UNL     1     -36.924  -4.588   9.100  1.00  0.00    -0.358 OA
ENDBRANCH  13  14
ENDBRANCH   3  13
BRANCH   1  19
HETATM   19  C3  UNL     1     -33.083  -0.499   7.607  1.00  0.00     0.112 C 
BRANCH  19  20
HETATM   20  C2  UNL     1     -32.607  -0.458   6.178  1.00  0.00     0.112 C 
BRANCH  20  21
HETATM   21  C1  UNL     1     -33.613  -0.613   5.153  1.00  0.00     0.218 C 
HETATM   22  O1  UNL     1     -34.113   0.365   4.564  1.00  0.00    -0.274 OA
HETATM   23  N3  UNL     1     -34.046  -1.916   4.805  1.00  0.00    -0.356 N 
ATOM     24  H3  UNL     1     -33.645  -2.728   5.274  1.00  0.00     0.162 HD
BRANCH  23  25
HETATM   25  C14 UNL     1     -35.059  -2.096   3.780  1.00  0.00     0.084 C 
HETATM   26  C15 UNL     1     -34.452  -2.352   2.432  1.00  0.00     0.025 C 
HETATM   27  C16 UNL     1     -35.228  -3.346   1.618  1.00  0.00     0.002 C 
HETATM   28  C17 UNL     1     -36.705  -3.322   1.867  1.00  0.00     0.000 C 
HETATM   29  C18 UNL     1     -37.085  -3.371   3.309  1.00  0.00     0.002 C 
HETATM   30  C19 UNL     1     -35.847  -3.346   4.175  1.00  0.00     0.025 C 
ENDBRANCH  23  25
ENDBRANCH  20  21
ENDBRANCH  19  20
ENDBRANCH   1  19
TORSDOF 8
ENDMDL
MODEL 2
REMARK VINA RESULT: -5.267960968      6.106      9.311
REMARK  8 active torsions:
REMARK  status: ('A' for Active; 'I' for Inactive)
REMARK    1  A    between atoms: C1_2  and  C2_3 
REMARK       I    between atoms: C1_2  and  N3_23 
REMARK    2  A    between atoms: C2_3  and  C3_4 
REMARK    3  A    between atoms: C3_4  and  C4_5 
REMARK       I    between atoms: C4_5  and  N1_7 
REMARK    4  A    between atoms: N1_7  and  C5_8 
REMARK    5  A    between atoms: N1_7  and  C10_17 
REMARK    6  A    between atoms: C5_8  and  C6_9 
REMARK    7  A    between atoms: C10_17  and  C11_18 
REMARK    8  A    between atoms: N3_23  and  C14_25 
ROOT
HETATM    1  C4  UNL     1     -37.148  -9.504  11.730  1.00  0.00     0.220 C 
HETATM    2  O2  UNL     1     -37.612 -10.477  11.022  1.00  0.00    -0.273 OA
HETATM    3  N1  UNL     1     -38.032  -8.500  12.159  1.00  0.00    -0.345 N 
ENDROOT
BRANCH   3   4
HETATM    4  C5  UNL     1     -37.579  -7.353  12.850  1.00  0.00     0.159 C 
BRANCH   4   5
HETATM    5  C6  UNL     1     -37.436  -6.075  12.143  1.00  0.00     0.165 C 
HETATM    6  C7  UNL     1     -38.637  -5.235  12.098  1.00  0.00     0.265 C 
HETATM    7  N2  UNL     1     -38.328  -3.948  11.411  1.00  0.00    -0.071 N 
HETATM    8  C8  UNL     1     -38.020  -4.388  10.050  1.00  0.00     0.258 C 
ATOM      9  H22 UNL     1     -39.057  -3.238  11.479  1.00  0.00     0.277 HD
ATOM     10  H21 UNL     1     -37.602  -3.387  11.856  1.00  0.00     0.277 HD
HETATM   11  C9  UNL     1     -36.813  -5.232  10.067  1.00  0.00     0.196 C 
HETATM   12  O3  UNL     1     -36.777  -6.264  10.949  1.00  0.00    -0.381 OA
ENDBRANCH   4   5
ENDBRANCH   3   4
BRANCH   3  13
HETATM   13  C10 UNL     1     -39.450  -8.717  11.842  1.00  0.00     0.186 C 
BRANCH  13  14
HETATM   14  C11 UNL     1     -40.290  -8.770  13.086  1.00  0.00     0.277 C 
HETATM   15  O4  UNL     1     -40.061  -9.897  13.849  1.00  0.00    -0.358 OA
HETATM   16  C12 UNL     1     -41.223  -9.986  14.611  1.00  0.00     0.197 C 
HETATM   17  C13 UNL     1     -42.311  -9.292  13.829  1.00  0.00     0.197 C 
HETATM   18  O5  UNL     1     -41.620  -8.928  12.670  1.00  0.00    -0.358 OA
ENDBRANCH  13  14
ENDBRANCH   3  13
BRANCH   1  19
HETATM   19  C3  UNL     1     -35.737  -9.504  12.056  1.00  0.00     0.112 C 
BRANCH  19  20
HETATM   20  C2  UNL     1     -34.829  -9.167  10.901  1.00  0.00     0.112 C 
BRANCH  20  21
HETATM   21  C1  UNL     1     -33.542  -8.599  11.230  1.00  0.00     0.218 C 
HETATM   22  O1  UNL     1     -33.432  -7.485  11.777  1.00  0.00    -0.274 OA
HETATM   23  N3  UNL     1     -32.369  -9.329  10.923  1.00  0.00    -0.356 N 
ATOM     24  H3  UNL     1     -32.439 -10.244  10.477  1.00  0.00     0.162 HD
BRANCH  23  25
HETATM   25  C14 UNL     1     -31.064  -8.777  11.242  1.00  0.00     0.084 C 
HETATM   26  C15 UNL     1     -30.539  -9.299  12.547  1.00  0.00     0.025 C 
HETATM   27  C16 UNL     1     -29.056  -9.534  12.531  1.00  0.00     0.002 C 
HETATM   28  C17 UNL     1     -28.295  -8.586  11.655  1.00  0.00     0.000 C 
HETATM   29  C18 UNL     1     -28.848  -8.448  10.276  1.00  0.00     0.002 C 
HETATM   30  C19 UNL     1     -30.117  -9.256  10.140  1.00  0.00     0.025 C 
ENDBRANCH  23  25
ENDBRANCH  20  21
ENDBRANCH  19  20
ENDBRANCH   1  19
TORSDOF 8
ENDMDL
MODEL 3
REMARK VINA RESULT: -5.206220627      7.225      9.443
REMARK  8 active torsions:
REMARK  status: ('A' for Active; 'I' for Inactive)
REMARK    1  A    between atoms: C1_2  and  C2_3 
REMARK       I    between atoms: C1_2  and  N3_23 
REMARK    2  A    between atoms: C2_3  and  C3_4 
REMARK    3  A    between atoms: C3_4  and  C4_5 
REMARK       I    between atoms: C4_5  and  N1_7 
REMARK    4  A    between atoms: N1_7  and  C5_8 
REMARK    5  A    between atoms: N1_7  and  C10_17 
REMARK    6  A    between atoms: C5_8  and  C6_9 
REMARK    7  A    between atoms: C10_17  and  C11_18 
REMARK    8  A    between atoms: N3_23  and  C14_25 
ROOT
HETATM    1  C4  UNL     1     -37.140  -9.586  11.718  1.00  0.00     0.220 C 
HETATM    2  O2  UNL     1     -37.531 -10.557  10.964  1.00  0.00    -0.273 OA
HETATM    3  N1  UNL     1     -38.101  -8.702  12.233  1.00  0.00    -0.345 N 
ENDROOT
BRANCH   3   4
HETATM    4  C5  UNL     1     -37.738  -7.559  12.981  1.00  0.00     0.159 C 
BRANCH   4   5
HETATM    5  C6  UNL     1     -37.654  -6.247  12.329  1.00  0.00     0.165 C 
HETATM    6  C7  UNL     1     -36.369  -5.554  12.459  1.00  0.00     0.265 C 
HETATM    7  N2  UNL     1     -36.407  -4.272  11.697  1.00  0.00    -0.071 N 
HETATM    8  C8  UNL     1     -37.420  -3.508  12.425  1.00  0.00     0.258 C 
ATOM      9  H22 UNL     1     -35.506  -3.805  11.595  1.00  0.00     0.277 HD
ATOM     10  H21 UNL     1     -36.580  -4.372  10.697  1.00  0.00     0.277 HD
HETATM   11  C9  UNL     1     -38.724  -4.182  12.308  1.00  0.00     0.196 C 
HETATM   12  O3  UNL     1     -38.780  -5.506  12.609  1.00  0.00    -0.381 OA
ENDBRANCH   4   5
ENDBRANCH   3   4
BRANCH   3  13
HETATM   13  C10 UNL     1     -39.501  -9.039  11.944  1.00  0.00     0.186 C 
BRANCH  13  14
HETATM   14  C11 UNL     1     -40.355  -8.951  13.177  1.00  0.00     0.277 C 
HETATM   15  O4  UNL     1     -40.057  -9.920  14.113  1.00  0.00    -0.358 OA
HETATM   16  C12 UNL     1     -41.222  -9.969  14.876  1.00  0.00     0.197 C 
HETATM   17  C13 UNL     1     -42.345  -9.494  13.987  1.00  0.00     0.197 C 
HETATM   18  O5  UNL     1     -41.664  -9.272  12.787  1.00  0.00    -0.358 OA
ENDBRANCH  13  14
ENDBRANCH   3  13
BRANCH   1  19
HETATM   19  C3  UNL     1     -35.724  -9.466  12.004  1.00  0.00     0.112 C 
BRANCH  19  20
HETATM   20  C2  UNL     1     -34.914  -8.847  10.893  1.00  0.00     0.112 C 
BRANCH  20  21
HETATM   21  C1  UNL     1     -33.589  -8.384  11.237  1.00  0.00     0.218 C 
HETATM   22  O1  UNL     1     -33.400  -7.306  11.832  1.00  0.00    -0.274 OA
HETATM   23  N3  UNL     1     -32.470  -9.179  10.887  1.00  0.00    -0.356 N 
ATOM     24  H3  UNL     1     -32.607 -10.065  10.401  1.00  0.00     0.162 HD
BRANCH  23  25
HETATM   25  C14 UNL     1     -31.129  -8.732  11.219  1.00  0.00     0.084 C 
HETATM   26  C15 UNL     1     -30.656  -9.302  12.524  1.00  0.00     0.025 C 
HETATM   27  C16 UNL     1     -29.196  -9.652  12.516  1.00  0.00     0.002 C 
HETATM   28  C17 UNL     1     -28.357  -8.760  11.653  1.00  0.00     0.000 C 
HETATM   29  C18 UNL     1     -28.887  -8.570  10.271  1.00  0.00     0.002 C 
HETATM   30  C19 UNL     1     -30.215  -9.276  10.120  1.00  0.00     0.025 C 
ENDBRANCH  23  25
ENDBRANCH  20  21
ENDBRANCH  19  20
ENDBRANCH   1  19
TORSDOF 8
ENDMDL
MODEL 4
REMARK VINA RESULT: -5.183384113      8.421      9.924
REMARK  8 active torsions:
REMARK  status: ('A' for Active; 'I' for Inactive)
REMARK    1  A    between atoms: C1_2  and  C2_3 
REMARK       I    between atoms: C1_2  and  N3_23 
REMARK    2  A    between atoms: C2_3  and  C3_4 
REMARK    3  A    between atoms: C3_4  and  C4_5 
REMARK       I    between atoms: C4_5  and  N1_7 
REMARK    4  A    between atoms: N1_7  and  C5_8 
REMARK    5  A    between atoms: N1_7  and  C10_17 
REMARK    6  A    between atoms: C5_8  and  C6_9 
REMARK    7  A    between atoms: C10_17  and  C11_18 
REMARK    8  A    between atoms: N3_23  and  C14_25 
ROOT
HETATM    1  C4  UNL     1     -37.064  -8.779  12.512  1.00  0.00     0.220 C 
HETATM    2  O2  UNL     1     -36.412  -9.467  13.386  1.00  0.00    -0.273 OA
HETATM    3  N1  UNL     1     -38.450  -8.619  12.675  1.00  0.00    -0.345 N 
ENDROOT
BRANCH   3   4
HETATM    4  C5  UNL     1     -39.245  -7.965  11.707  1.00  0.00     0.159 C 
BRANCH   4   5
HETATM    5  C6  UNL     1     -40.334  -8.686  11.037  1.00  0.00     0.165 C 
HETATM    6  C7  UNL     1     -40.002 -10.028  10.550  1.00  0.00     0.265 C 
HETATM    7  N2  UNL     1     -41.213 -10.663   9.955  1.00  0.00    -0.071 N 
HETATM    8  C8  UNL     1     -41.479  -9.805   8.800  1.00  0.00     0.258 C 
ATOM      9  H22 UNL     1     -41.117 -11.655   9.740  1.00  0.00     0.277 HD
ATOM     10  H21 UNL     1     -41.998 -10.776  10.596  1.00  0.00     0.277 HD
HETATM   11  C9  UNL     1     -41.819  -8.449   9.263  1.00  0.00     0.196 C 
HETATM   12  O3  UNL     1     -40.977  -7.854  10.149  1.00  0.00    -0.381 OA
ENDBRANCH   4   5
ENDBRANCH   3   4
BRANCH   3  13
HETATM   13  C10 UNL     1     -39.017  -9.175  13.911  1.00  0.00     0.186 C 
BRANCH  13  14
HETATM   14  C11 UNL     1     -39.217  -8.110  14.953  1.00  0.00     0.277 C 
HETATM   15  O4  UNL     1     -38.196  -8.058  15.879  1.00  0.00    -0.358 OA
HETATM   16  C12 UNL     1     -38.797  -7.410  16.955  1.00  0.00     0.197 C 
HETATM   17  C13 UNL     1     -40.280  -7.674  16.847  1.00  0.00     0.197 C 
HETATM   18  O5  UNL     1     -40.326  -8.497  15.719  1.00  0.00    -0.358 OA
ENDBRANCH  13  14
ENDBRANCH   3  13
BRANCH   1  19
HETATM   19  C3  UNL     1     -36.328  -8.195  11.410  1.00  0.00     0.112 C 
BRANCH  19  20
HETATM   20  C2  UNL     1     -35.149  -9.011  10.945  1.00  0.00     0.112 C 
BRANCH  20  21
HETATM   21  C1  UNL     1     -33.837  -8.484  11.241  1.00  0.00     0.218 C 
HETATM   22  O1  UNL     1     -33.675  -7.346  11.723  1.00  0.00    -0.274 OA
HETATM   23  N3  UNL     1     -32.698  -9.283  10.977  1.00  0.00    -0.356 N 
ATOM     24  H3  UNL     1     -32.811 -10.218  10.585  1.00  0.00     0.162 HD
BRANCH  23  25
HETATM   25  C14 UNL     1     -31.369  -8.773  11.264  1.00  0.00     0.084 C 
HETATM   26  C15 UNL     1     -30.861  -9.251  12.592  1.00  0.00     0.025 C 
HETATM   27  C16 UNL     1     -29.390  -9.551  12.584  1.00  0.00     0.002 C 
HETATM   28  C17 UNL     1     -28.592  -8.683  11.659  1.00  0.00     0.000 C 
HETATM   29  C18 UNL     1     -29.145  -8.590  10.276  1.00  0.00     0.002 C 
HETATM   30  C19 UNL     1     -30.450  -9.348  10.185  1.00  0.00     0.025 C 
ENDBRANCH  23  25
ENDBRANCH  20  21
ENDBRANCH  19  20
ENDBRANCH   1  19
TORSDOF 8
ENDMDL
MODEL 5
REMARK VINA RESULT: -5.156383712      3.736      6.153
REMARK  8 active torsions:
REMARK  status: ('A' for Active; 'I' for Inactive)
REMARK    1  A    between atoms: C1_2  and  C2_3 
REMARK       I    between atoms: C1_2  and  N3_23 
REMARK    2  A    between atoms: C2_3  and  C3_4 
REMARK    3  A    between atoms: C3_4  and  C4_5 
REMARK       I    between atoms: C4_5  and  N1_7 
REMARK    4  A    between atoms: N1_7  and  C5_8 
REMARK    5  A    between atoms: N1_7  and  C10_17 
REMARK    6  A    between atoms: C5_8  and  C6_9 
REMARK    7  A    between atoms: C10_17  and  C11_18 
REMARK    8  A    between atoms: N3_23  and  C14_25 
ROOT
HETATM    1  C4  UNL     1     -34.741  -4.527  10.255  1.00  0.00     0.220 C 
HETATM    2  O2  UNL     1     -33.626  -3.885  10.164  1.00  0.00    -0.273 OA
HETATM    3  N1  UNL     1     -34.771  -5.732  10.976  1.00  0.00    -0.345 N 
ENDROOT
BRANCH   3   4
HETATM    4  C5  UNL     1     -35.929  -6.539  11.034  1.00  0.00     0.159 C 
BRANCH   4   5
HETATM    5  C6  UNL     1     -36.218  -7.331  12.235  1.00  0.00     0.165 C 
HETATM    6  C7  UNL     1     -36.414  -8.767  12.017  1.00  0.00     0.265 C 
HETATM    7  N2  UNL     1     -36.632  -9.451  13.325  1.00  0.00    -0.071 N 
HETATM    8  C8  UNL     1     -37.900  -8.873  13.770  1.00  0.00     0.258 C 
ATOM      9  H22 UNL     1     -36.614 -10.470  13.286  1.00  0.00     0.277 HD
ATOM     10  H21 UNL     1     -35.863  -9.364  13.989  1.00  0.00     0.277 HD
HETATM   11  C9  UNL     1     -37.729  -7.429  14.000  1.00  0.00     0.196 C 
HETATM   12  O3  UNL     1     -37.163  -6.694  13.007  1.00  0.00    -0.381 OA
ENDBRANCH   4   5
ENDBRANCH   3   4
BRANCH   3  13
HETATM   13  C10 UNL     1     -33.524  -6.098  11.662  1.00  0.00     0.186 C 
BRANCH  13  14
HETATM   14  C11 UNL     1     -32.879  -7.298  11.028  1.00  0.00     0.277 C 
HETATM   15  O4  UNL     1     -32.651  -8.326  11.920  1.00  0.00    -0.358 OA
HETATM   16  C12 UNL     1     -31.657  -9.063  11.281  1.00  0.00     0.197 C 
HETATM   17  C13 UNL     1     -30.926  -8.109  10.369  1.00  0.00     0.197 C 
HETATM   18  O5  UNL     1     -31.586  -6.909  10.647  1.00  0.00    -0.358 OA
ENDBRANCH  13  14
ENDBRANCH   3  13
BRANCH   1  19
HETATM   19  C3  UNL     1     -35.912  -3.962   9.616  1.00  0.00     0.112 C 
BRANCH  19  20
HETATM   20  C2  UNL     1     -35.701  -2.591   9.026  1.00  0.00     0.112 C 
BRANCH  20  21
HETATM   21  C1  UNL     1     -36.174  -2.385   7.677  1.00  0.00     0.218 C 
HETATM   22  O1  UNL     1     -37.296  -1.897   7.437  1.00  0.00    -0.274 OA
HETATM   23  N3  UNL     1     -35.340  -2.747   6.591  1.00  0.00    -0.356 N 
ATOM     24  H3  UNL     1     -34.417  -3.144   6.768  1.00  0.00     0.162 HD
BRANCH  23  25
HETATM   25  C14 UNL     1     -35.796  -2.551   5.226  1.00  0.00     0.084 C 
HETATM   26  C15 UNL     1     -34.650  -2.383   4.272  1.00  0.00     0.025 C 
HETATM   27  C16 UNL     1     -34.895  -3.035   2.942  1.00  0.00     0.002 C 
HETATM   28  C17 UNL     1     -36.331  -3.037   2.515  1.00  0.00     0.000 C 
HETATM   29  C18 UNL     1     -37.279  -3.531   3.556  1.00  0.00     0.002 C 
HETATM   30  C19 UNL     1     -36.536  -3.832   4.837  1.00  0.00     0.025 C 
ENDBRANCH  23  25
ENDBRANCH  20  21
ENDBRANCH  19  20
ENDBRANCH   1  19
TORSDOF 8
ENDMDL
