MODEL 1
REMARK VINA RESULT: -6.219358419      0.000      0.000
REMARK  5 active torsions:
REMARK  status: ('A' for Active; 'I' for Inactive)
REMARK    1  A    between atoms: N1_2  and  C3_4 
REMARK    2  A    between atoms: C3_4  and  C4_5 
REMARK    3  A    between atoms: C4_5  and  N2_6 
REMARK    4  A    between atoms: N2_6  and  C5_8 
REMARK    5  A    between atoms: C8_12  and  C9_13 
ROOT
HETATM    1  C9  UNL     1       0.256  -8.375  28.717  1.00  0.00     0.165 C 
HETATM    2  C10 UNL     1       0.209  -7.288  29.690  1.00  0.00     0.063 C 
HETATM    3  N3  UNL     1       0.164  -6.441  30.472  1.00  0.00    -0.197 NA
ENDROOT
BRANCH   1   4
HETATM    4  C8  UNL     1       1.301  -8.078  27.634  1.00  0.00    -0.004 A 
HETATM    5  C5  UNL     1       2.437  -8.852  27.566  1.00  0.00     0.078 A 
HETATM    6  S1  UNL     1       3.282  -8.176  26.242  1.00  0.00    -0.076 SA
HETATM    7  C6  UNL     1       2.195  -6.948  25.812  1.00  0.00    -0.008 A 
HETATM    8  C7  UNL     1       1.184  -7.085  26.711  1.00  0.00    -0.035 A 
HETATM    9  C13 UNL     1       1.934  -5.809  24.852  1.00  0.00     0.047 C 
HETATM   10  C11 UNL     1       0.152  -6.003  26.385  1.00  0.00     0.040 C 
HETATM   11  C12 UNL     1       0.995  -4.966  25.694  1.00  0.00     0.010 C 
BRANCH   5  12
HETATM   12  N2  UNL     1       2.799  -9.943  28.413  1.00  0.00    -0.382 N 
ATOM     13  H2  UNL     1       2.684  -9.877  29.425  1.00  0.00     0.160 HD
BRANCH  12  14
HETATM   14  C4  UNL     1       3.327 -11.135  27.813  1.00  0.00     0.150 C 
BRANCH  14  15
HETATM   15  C3  UNL     1       4.771 -11.348  28.113  1.00  0.00     0.290 C 
BRANCH  15  16
HETATM   16  N1  UNL     1       5.061 -12.777  28.023  1.00  0.00     0.081 N 
HETATM   17  C1  UNL     1       4.481 -13.383  29.232  1.00  0.00     0.309 C 
HETATM   18  C2  UNL     1       6.499 -13.012  28.082  1.00  0.00     0.309 C 
ENDBRANCH  15  16
ENDBRANCH  14  15
ENDBRANCH  12  14
ENDBRANCH   5  12
ENDBRANCH   1   4
TORSDOF 5
ENDMDL
MODEL 2
REMARK VINA RESULT: -6.063707444      2.458      3.981
REMARK  5 active torsions:
REMARK  status: ('A' for Active; 'I' for Inactive)
REMARK    1  A    between atoms: N1_2  and  C3_4 
REMARK    2  A    between atoms: C3_4  and  C4_5 
REMARK    3  A    between atoms: C4_5  and  N2_6 
REMARK    4  A    between atoms: N2_6  and  C5_8 
REMARK    5  A    between atoms: C8_12  and  C9_13 
ROOT
HETATM    1  C9  UNL     1       4.018 -10.781  24.826  1.00  0.00     0.165 C 
HETATM    2  C10 UNL     1       5.401 -11.102  25.160  1.00  0.00     0.063 C 
HETATM    3  N3  UNL     1       6.500 -11.355  25.404  1.00  0.00    -0.197 NA
ENDROOT
BRANCH   1   4
HETATM    4  C8  UNL     1       3.324 -10.103  26.014  1.00  0.00    -0.004 A 
HETATM    5  C5  UNL     1       3.395 -10.689  27.258  1.00  0.00     0.078 A 
HETATM    6  S1  UNL     1       2.507  -9.609  28.241  1.00  0.00    -0.076 SA
HETATM    7  C6  UNL     1       2.072  -8.458  27.074  1.00  0.00    -0.008 A 
HETATM    8  C7  UNL     1       2.630  -8.936  25.929  1.00  0.00    -0.035 A 
HETATM    9  C13 UNL     1       1.332  -7.161  26.832  1.00  0.00     0.047 C 
HETATM   10  C11 UNL     1       2.280  -7.943  24.818  1.00  0.00     0.040 C 
HETATM   11  C12 UNL     1       1.026  -7.306  25.353  1.00  0.00     0.010 C 
BRANCH   5  12
HETATM   12  N2  UNL     1       4.052 -11.907  27.610  1.00  0.00    -0.382 N 
ATOM     13  H2  UNL     1       3.784 -12.788  27.172  1.00  0.00     0.160 HD
BRANCH  12  14
HETATM   14  C4  UNL     1       5.098 -11.866  28.591  1.00  0.00     0.150 C 
BRANCH  14  15
HETATM   15  C3  UNL     1       5.903 -13.119  28.640  1.00  0.00     0.290 C 
BRANCH  15  16
HETATM   16  N1  UNL     1       5.027 -14.223  29.020  1.00  0.00     0.081 N 
HETATM   17  C1  UNL     1       5.045 -14.266  30.490  1.00  0.00     0.309 C 
HETATM   18  C2  UNL     1       5.573 -15.493  28.554  1.00  0.00     0.309 C 
ENDBRANCH  15  16
ENDBRANCH  14  15
ENDBRANCH  12  14
ENDBRANCH   5  12
ENDBRANCH   1   4
TORSDOF 5
ENDMDL
MODEL 3
REMARK VINA RESULT: -5.561722806      3.871      5.904
REMARK  5 active torsions:
REMARK  status: ('A' for Active; 'I' for Inactive)
REMARK    1  A    between atoms: N1_2  and  C3_4 
REMARK    2  A    between atoms: C3_4  and  C4_5 
REMARK    3  A    between atoms: C4_5  and  N2_6 
REMARK    4  A    between atoms: N2_6  and  C5_8 
REMARK    5  A    between atoms: C8_12  and  C9_13 
ROOT
HETATM    1  C9  UNL     1       4.805 -13.053  29.164  1.00  0.00     0.165 C 
HETATM    2  C10 UNL     1       4.082 -14.301  28.944  1.00  0.00     0.063 C 
HETATM    3  N3  UNL     1       3.506 -15.289  28.790  1.00  0.00    -0.197 NA
ENDROOT
BRANCH   1   4
HETATM    4  C8  UNL     1       4.930 -12.269  27.851  1.00  0.00    -0.004 A 
HETATM    5  C5  UNL     1       5.923 -12.605  26.960  1.00  0.00     0.078 A 
HETATM    6  S1  UNL     1       5.679 -11.497  25.680  1.00  0.00    -0.076 SA
HETATM    7  C6  UNL     1       4.346 -10.648  26.293  1.00  0.00    -0.008 A 
HETATM    8  C7  UNL     1       4.110 -11.244  27.492  1.00  0.00    -0.035 A 
HETATM    9  C13 UNL     1       3.364  -9.529  26.026  1.00  0.00     0.047 C 
HETATM   10  C11 UNL     1       2.908 -10.529  28.113  1.00  0.00     0.040 C 
HETATM   11  C12 UNL     1       2.971  -9.180  27.449  1.00  0.00     0.010 C 
BRANCH   5  12
HETATM   12  N2  UNL     1       6.909 -13.628  27.100  1.00  0.00    -0.382 N 
ATOM     13  H2  UNL     1       7.741 -13.475  27.670  1.00  0.00     0.160 HD
BRANCH  12  14
HETATM   14  C4  UNL     1       6.705 -14.877  26.423  1.00  0.00     0.150 C 
BRANCH  14  15
HETATM   15  C3  UNL     1       7.281 -14.898  25.049  1.00  0.00     0.290 C 
BRANCH  15  16
HETATM   16  N1  UNL     1       8.587 -15.549  25.100  1.00  0.00     0.081 N 
HETATM   17  C1  UNL     1       9.290 -15.139  23.874  1.00  0.00     0.309 C 
HETATM   18  C2  UNL     1       8.440 -16.999  25.038  1.00  0.00     0.309 C 
ENDBRANCH  15  16
ENDBRANCH  14  15
ENDBRANCH  12  14
ENDBRANCH   5  12
ENDBRANCH   1   4
TORSDOF 5
ENDMDL
MODEL 4
REMARK VINA RESULT: -5.515320047      3.233      5.096
REMARK  5 active torsions:
REMARK  status: ('A' for Active; 'I' for Inactive)
REMARK    1  A    between atoms: N1_2  and  C3_4 
REMARK    2  A    between atoms: C3_4  and  C4_5 
REMARK    3  A    between atoms: C4_5  and  N2_6 
REMARK    4  A    between atoms: N2_6  and  C5_8 
REMARK    5  A    between atoms: C8_12  and  C9_13 
ROOT
HETATM    1  C9  UNL     1       5.442 -11.068  25.253  1.00  0.00     0.165 C 
HETATM    2  C10 UNL     1       5.982 -12.424  25.226  1.00  0.00     0.063 C 
HETATM    3  N3  UNL     1       6.424 -13.489  25.193  1.00  0.00    -0.197 NA
ENDROOT
BRANCH   1   4
HETATM    4  C8  UNL     1       4.530 -10.880  26.472  1.00  0.00    -0.004 A 
HETATM    5  C5  UNL     1       4.808 -11.568  27.631  1.00  0.00     0.078 A 
HETATM    6  S1  UNL     1       3.564 -11.056  28.686  1.00  0.00    -0.076 SA
HETATM    7  C6  UNL     1       2.733 -10.001  27.652  1.00  0.00    -0.008 A 
HETATM    8  C7  UNL     1       3.443 -10.063  26.493  1.00  0.00    -0.035 A 
HETATM    9  C13 UNL     1       1.556  -9.059  27.532  1.00  0.00     0.047 C 
HETATM   10  C11 UNL     1       2.751  -9.127  25.500  1.00  0.00     0.040 C 
HETATM   11  C12 UNL     1       1.343  -9.094  26.030  1.00  0.00     0.010 C 
BRANCH   5  12
HETATM   12  N2  UNL     1       5.878 -12.484  27.865  1.00  0.00    -0.382 N 
ATOM     13  H2  UNL     1       6.699 -12.490  27.259  1.00  0.00     0.160 HD
BRANCH  12  14
HETATM   14  C4  UNL     1       5.775 -13.395  28.968  1.00  0.00     0.150 C 
BRANCH  14  15
HETATM   15  C3  UNL     1       5.141 -14.692  28.598  1.00  0.00     0.290 C 
BRANCH  15  16
HETATM   16  N1  UNL     1       3.949 -14.881  29.419  1.00  0.00     0.081 N 
HETATM   17  C1  UNL     1       4.318 -14.444  30.774  1.00  0.00     0.309 C 
HETATM   18  C2  UNL     1       3.609 -16.297  29.510  1.00  0.00     0.309 C 
ENDBRANCH  15  16
ENDBRANCH  14  15
ENDBRANCH  12  14
ENDBRANCH   5  12
ENDBRANCH   1   4
TORSDOF 5
ENDMDL
MODEL 5
REMARK VINA RESULT: -5.454432665      3.822      5.619
REMARK  5 active torsions:
REMARK  status: ('A' for Active; 'I' for Inactive)
REMARK    1  A    between atoms: N1_2  and  C3_4 
REMARK    2  A    between atoms: C3_4  and  C4_5 
REMARK    3  A    between atoms: C4_5  and  N2_6 
REMARK    4  A    between atoms: N2_6  and  C5_8 
REMARK    5  A    between atoms: C8_12  and  C9_13 
ROOT
HETATM    1  C9  UNL     1       4.780 -12.985  29.084  1.00  0.00     0.165 C 
HETATM    2  C10 UNL     1       4.070 -14.242  28.876  1.00  0.00     0.063 C 
HETATM    3  N3  UNL     1       3.503 -15.237  28.731  1.00  0.00    -0.197 NA
ENDROOT
BRANCH   1   4
HETATM    4  C8  UNL     1       4.875 -12.200  27.770  1.00  0.00    -0.004 A 
HETATM    5  C5  UNL     1       5.828 -12.555  26.842  1.00  0.00     0.078 A 
HETATM    6  S1  UNL     1       5.563 -11.439  25.575  1.00  0.00    -0.076 SA
HETATM    7  C6  UNL     1       4.272 -10.562  26.237  1.00  0.00    -0.008 A 
HETATM    8  C7  UNL     1       4.065 -11.157  27.443  1.00  0.00    -0.035 A 
HETATM    9  C13 UNL     1       3.305  -9.421  26.008  1.00  0.00     0.047 C 
HETATM   10  C11 UNL     1       2.903 -10.416  28.108  1.00  0.00     0.040 C 
HETATM   11  C12 UNL     1       2.971  -9.068  27.445  1.00  0.00     0.010 C 
BRANCH   5  12
HETATM   12  N2  UNL     1       6.795 -13.601  26.945  1.00  0.00    -0.382 N 
ATOM     13  H2  UNL     1       7.413 -13.660  27.754  1.00  0.00     0.160 HD
BRANCH  12  14
HETATM   14  C4  UNL     1       6.880 -14.566  25.886  1.00  0.00     0.150 C 
BRANCH  14  15
HETATM   15  C3  UNL     1       7.418 -15.880  26.336  1.00  0.00     0.290 C 
BRANCH  15  16
HETATM   16  N1  UNL     1       6.431 -16.519  27.201  1.00  0.00     0.081 N 
HETATM   17  C1  UNL     1       7.179 -17.480  28.027  1.00  0.00     0.309 C 
HETATM   18  C2  UNL     1       5.480 -17.292  26.410  1.00  0.00     0.309 C 
ENDBRANCH  15  16
ENDBRANCH  14  15
ENDBRANCH  12  14
ENDBRANCH   5  12
ENDBRANCH   1   4
TORSDOF 5
ENDMDL
