MODEL 1
REMARK VINA RESULT: -5.183103854      0.000      0.000
REMARK  3 active torsions:
REMARK  status: ('A' for Active; 'I' for Inactive)
REMARK    1  A    between atoms: C3_6  and  N3_7 
REMARK    2  A    between atoms: N3_7  and  N4_9 
REMARK    3  A    between atoms: C4_14  and  N6_15 
ROOT
HETATM    1  C1  UNL     1     -33.165 -28.731  -6.743  1.00  0.00     0.176 C 
HETATM    2  N1  UNL     1     -34.404 -28.260  -6.138  1.00  0.00    -0.183 N 
HETATM    3  C2  UNL     1     -34.405 -27.304  -5.192  1.00  0.00     0.218 A 
HETATM    4  N2  UNL     1     -35.562 -26.880  -4.642  1.00  0.00    -0.185 N 
ATOM      5  H2  UNL     1     -35.531 -26.154  -3.927  1.00  0.00     0.185 HD
HETATM    6  C3  UNL     1     -36.754 -27.385  -5.005  1.00  0.00     0.711 A 
HETATM    7  N5  UNL     1     -36.755 -28.342  -5.951  1.00  0.00    -0.021 N 
ATOM      8  H5  UNL     1     -37.638 -28.751  -6.256  1.00  0.00     0.203 HD
HETATM    9  C4  UNL     1     -35.597 -28.765  -6.500  1.00  0.00     0.693 A 
ENDROOT
BRANCH   6  10
HETATM   10  N3  UNL     1     -37.876 -26.994  -4.492  1.00  0.00    -0.138 N 
ATOM     11  H3  UNL     1     -38.505 -26.403  -5.035  1.00  0.00     0.205 HD
BRANCH  10  12
HETATM   12  N4  UNL     1     -38.227 -27.380  -3.196  1.00  0.00    -0.331 N 
ATOM     13  H42 UNL     1     -38.669 -28.289  -3.055  1.00  0.00     0.177 HD
ATOM     14  H41 UNL     1     -38.043 -26.759  -2.409  1.00  0.00     0.177 HD
ENDBRANCH  10  12
ENDBRANCH   6  10
BRANCH   9  15
HETATM   15  N6  UNL     1     -35.581 -29.683  -7.411  1.00  0.00    -0.234 N 
ATOM     16  H62 UNL     1     -34.855 -29.707  -8.127  1.00  0.00     0.174 HD
ATOM     17  H61 UNL     1     -36.329 -30.376  -7.370  1.00  0.00     0.174 HD
ENDBRANCH   9  15
TORSDOF 3
ENDMDL
MODEL 2
REMARK VINA RESULT: -5.108965741      1.975      3.435
REMARK  3 active torsions:
REMARK  status: ('A' for Active; 'I' for Inactive)
REMARK    1  A    between atoms: C3_6  and  N3_7 
REMARK    2  A    between atoms: N3_7  and  N4_9 
REMARK    3  A    between atoms: C4_14  and  N6_15 
ROOT
HETATM    1  C1  UNL     1     -33.444 -27.615  -4.588  1.00  0.00     0.176 C 
HETATM    2  N1  UNL     1     -34.251 -28.178  -5.662  1.00  0.00    -0.183 N 
HETATM    3  C2  UNL     1     -35.596 -28.154  -5.618  1.00  0.00     0.218 A 
HETATM    4  N2  UNL     1     -36.328 -28.681  -6.621  1.00  0.00    -0.185 N 
ATOM      5  H2  UNL     1     -37.345 -28.648  -6.560  1.00  0.00     0.185 HD
HETATM    6  C3  UNL     1     -35.759 -29.248  -7.701  1.00  0.00     0.711 A 
HETATM    7  N5  UNL     1     -34.415 -29.272  -7.746  1.00  0.00    -0.021 N 
ATOM      8  H5  UNL     1     -33.944 -29.692  -8.548  1.00  0.00     0.203 HD
HETATM    9  C4  UNL     1     -33.685 -28.746  -6.741  1.00  0.00     0.693 A 
ENDROOT
BRANCH   6  10
HETATM   10  N3  UNL     1     -36.441 -29.758  -8.675  1.00  0.00    -0.138 N 
ATOM     11  H3  UNL     1     -36.188 -29.544  -9.639  1.00  0.00     0.205 HD
BRANCH  10  12
HETATM   12  N4  UNL     1     -37.522 -30.602  -8.409  1.00  0.00    -0.331 N 
ATOM     13  H42 UNL     1     -38.236 -30.729  -9.126  1.00  0.00     0.177 HD
ATOM     14  H41 UNL     1     -37.590 -31.079  -7.510  1.00  0.00     0.177 HD
ENDBRANCH  10  12
ENDBRANCH   6  10
BRANCH   9  15
HETATM   15  N6  UNL     1     -32.391 -28.761  -6.771  1.00  0.00    -0.234 N 
ATOM     16  H62 UNL     1     -31.844 -27.975  -6.420  1.00  0.00     0.174 HD
ATOM     17  H61 UNL     1     -31.956 -29.597  -7.161  1.00  0.00     0.174 HD
ENDBRANCH   9  15
TORSDOF 3
ENDMDL
MODEL 3
REMARK VINA RESULT: -4.958864246      0.704      1.975
REMARK  3 active torsions:
REMARK  status: ('A' for Active; 'I' for Inactive)
REMARK    1  A    between atoms: C3_6  and  N3_7 
REMARK    2  A    between atoms: N3_7  and  N4_9 
REMARK    3  A    between atoms: C4_14  and  N6_15 
ROOT
HETATM    1  C1  UNL     1     -33.287 -29.088  -6.786  1.00  0.00     0.176 C 
HETATM    2  N1  UNL     1     -34.514 -28.569  -6.199  1.00  0.00    -0.183 N 
HETATM    3  C2  UNL     1     -35.719 -28.840  -6.733  1.00  0.00     0.218 A 
HETATM    4  N2  UNL     1     -36.846 -28.350  -6.176  1.00  0.00    -0.185 N 
ATOM      5  H2  UNL     1     -37.744 -28.573  -6.603  1.00  0.00     0.185 HD
HETATM    6  C3  UNL     1     -36.823 -27.576  -5.076  1.00  0.00     0.711 A 
HETATM    7  N5  UNL     1     -35.619 -27.304  -4.541  1.00  0.00    -0.021 N 
ATOM      8  H5  UNL     1     -35.557 -26.721  -3.706  1.00  0.00     0.203 HD
HETATM    9  C4  UNL     1     -34.493 -27.795  -5.099  1.00  0.00     0.693 A 
ENDROOT
BRANCH   6  10
HETATM   10  N3  UNL     1     -37.890 -27.095  -4.525  1.00  0.00    -0.138 N 
ATOM     11  H3  UNL     1     -38.516 -26.498  -5.065  1.00  0.00     0.205 HD
BRANCH  10  12
HETATM   12  N4  UNL     1     -38.187 -27.392  -3.193  1.00  0.00    -0.331 N 
ATOM     13  H42 UNL     1     -38.430 -26.630  -2.560  1.00  0.00     0.177 HD
ATOM     14  H41 UNL     1     -38.159 -28.358  -2.865  1.00  0.00     0.177 HD
ENDBRANCH  10  12
ENDBRANCH   6  10
BRANCH   9  15
HETATM   15  N6  UNL     1     -33.328 -27.542  -4.596  1.00  0.00    -0.234 N 
ATOM     16  H62 UNL     1     -32.891 -28.177  -3.928  1.00  0.00     0.174 HD
ATOM     17  H61 UNL     1     -32.878 -26.680  -4.903  1.00  0.00     0.174 HD
ENDBRANCH   9  15
TORSDOF 3
ENDMDL
MODEL 4
REMARK VINA RESULT: -4.953716850      1.421      4.227
REMARK  3 active torsions:
REMARK  status: ('A' for Active; 'I' for Inactive)
REMARK    1  A    between atoms: C3_6  and  N3_7 
REMARK    2  A    between atoms: N3_7  and  N4_9 
REMARK    3  A    between atoms: C4_14  and  N6_15 
ROOT
HETATM    1  C1  UNL     1     -37.930 -27.072  -4.790  1.00  0.00     0.176 C 
HETATM    2  N1  UNL     1     -36.731 -27.564  -5.453  1.00  0.00    -0.183 N 
HETATM    3  C2  UNL     1     -36.716 -28.747  -6.095  1.00  0.00     0.218 A 
HETATM    4  N2  UNL     1     -35.595 -29.187  -6.703  1.00  0.00    -0.185 N 
ATOM      5  H2  UNL     1     -35.615 -30.087  -7.181  1.00  0.00     0.185 HD
HETATM    6  C3  UNL     1     -34.452 -28.477  -6.699  1.00  0.00     0.711 A 
HETATM    7  N5  UNL     1     -34.465 -27.294  -6.059  1.00  0.00    -0.021 N 
ATOM      8  H5  UNL     1     -33.620 -26.724  -6.033  1.00  0.00     0.203 HD
HETATM    9  C4  UNL     1     -35.587 -26.856  -5.450  1.00  0.00     0.693 A 
ENDROOT
BRANCH   6  10
HETATM   10  N3  UNL     1     -33.366 -28.879  -7.276  1.00  0.00    -0.138 N 
ATOM     11  H3  UNL     1     -33.409 -29.300  -8.204  1.00  0.00     0.205 HD
BRANCH  10  12
HETATM   12  N4  UNL     1     -32.135 -28.736  -6.632  1.00  0.00    -0.331 N 
ATOM     13  H42 UNL     1     -31.407 -28.179  -7.078  1.00  0.00     0.177 HD
ATOM     14  H41 UNL     1     -31.974 -29.186  -5.730  1.00  0.00     0.177 HD
ENDBRANCH  10  12
ENDBRANCH   6  10
BRANCH   9  15
HETATM   15  N6  UNL     1     -35.615 -25.720  -4.830  1.00  0.00    -0.234 N 
ATOM     16  H62 UNL     1     -34.976 -24.965  -5.080  1.00  0.00     0.174 HD
ATOM     17  H61 UNL     1     -36.307 -25.626  -4.086  1.00  0.00     0.174 HD
ENDBRANCH   9  15
TORSDOF 3
ENDMDL
MODEL 5
REMARK VINA RESULT: -4.910986391      1.324      3.458
REMARK  3 active torsions:
REMARK  status: ('A' for Active; 'I' for Inactive)
REMARK    1  A    between atoms: C3_6  and  N3_7 
REMARK    2  A    between atoms: N3_7  and  N4_9 
REMARK    3  A    between atoms: C4_14  and  N6_15 
ROOT
HETATM    1  C1  UNL     1     -33.652 -27.203  -4.399  1.00  0.00     0.176 C 
HETATM    2  N1  UNL     1     -34.301 -27.832  -5.541  1.00  0.00    -0.183 N 
HETATM    3  C2  UNL     1     -33.588 -28.365  -6.550  1.00  0.00     0.218 A 
HETATM    4  N2  UNL     1     -34.206 -28.943  -7.601  1.00  0.00    -0.185 N 
ATOM      5  H2  UNL     1     -33.638 -29.338  -8.350  1.00  0.00     0.185 HD
HETATM    6  C3  UNL     1     -35.546 -29.014  -7.692  1.00  0.00     0.711 A 
HETATM    7  N5  UNL     1     -36.260 -28.483  -6.684  1.00  0.00    -0.021 N 
ATOM      8  H5  UNL     1     -37.279 -28.516  -6.714  1.00  0.00     0.203 HD
HETATM    9  C4  UNL     1     -35.641 -27.904  -5.634  1.00  0.00     0.693 A 
ENDROOT
BRANCH   6  10
HETATM   10  N3  UNL     1     -36.160 -29.564  -8.690  1.00  0.00    -0.138 N 
ATOM     11  H3  UNL     1     -35.880 -29.341  -9.644  1.00  0.00     0.205 HD
BRANCH  10  12
HETATM   12  N4  UNL     1     -37.204 -30.463  -8.462  1.00  0.00    -0.331 N 
ATOM     13  H42 UNL     1     -38.155 -30.188  -8.710  1.00  0.00     0.177 HD
ATOM     14  H41 UNL     1     -37.013 -31.378  -8.054  1.00  0.00     0.177 HD
ENDBRANCH  10  12
ENDBRANCH   6  10
BRANCH   9  15
HETATM   15  N6  UNL     1     -36.314 -27.389  -4.657  1.00  0.00    -0.234 N 
ATOM     16  H62 UNL     1     -37.067 -26.721  -4.827  1.00  0.00     0.174 HD
ATOM     17  H61 UNL     1     -36.052 -27.687  -3.717  1.00  0.00     0.174 HD
ENDBRANCH   9  15
TORSDOF 3
ENDMDL
