MODEL 1
REMARK VINA RESULT: -7.910236104      0.000      0.000
REMARK  4 active torsions:
REMARK  status: ('A' for Active; 'I' for Inactive)
REMARK    1  A    between atoms: C5_5  and  N1_6 
REMARK       I    between atoms: N1_6  and  C7_8 
REMARK       I    between atoms: C7_8  and  N2_10 
REMARK    2  A    between atoms: N2_10  and  N3_12 
REMARK       I    between atoms: N3_12  and  C8_14 
REMARK    3  A    between atoms: C8_14  and  C9_16 
REMARK    4  A    between atoms: C12_20  and  O3_21 
ROOT
HETATM    1  C1  UNL     1      32.533 -10.205 -19.785  1.00  0.00     0.011 C 
HETATM    2  C2  UNL     1      31.310 -11.143 -19.802  1.00  0.00    -0.007 C 
HETATM    3  C3  UNL     1      30.921 -11.323 -21.225  1.00  0.00     0.007 C 
HETATM    4  C4  UNL     1      30.190 -12.603 -21.540  1.00  0.00     0.026 C 
HETATM    5  C5  UNL     1      29.764 -13.197 -20.188  1.00  0.00     0.093 C 
HETATM    6  C10 UNL     1      30.944 -13.619 -19.402  1.00  0.00     0.022 A 
HETATM    7  C11 UNL     1      32.148 -14.157 -20.071  1.00  0.00     0.040 A 
HETATM    8  C12 UNL     1      32.979 -12.943 -19.687  1.00  0.00     0.127 A 
HETATM    9  C13 UNL     1      31.740 -12.372 -19.070  1.00  0.00    -0.009 A 
HETATM   10  C14 UNL     1      31.781 -12.175 -17.585  1.00  0.00     0.018 C 
ENDROOT
BRANCH   5  11
HETATM   11  N1  UNL     1      28.661 -14.075 -20.282  1.00  0.00    -0.332 N 
HETATM   12  C6  UNL     1      28.860 -15.512 -20.006  1.00  0.00     0.155 C 
HETATM   13  C7  UNL     1      27.304 -13.697 -20.629  1.00  0.00     0.337 C 
HETATM   14  O1  UNL     1      27.065 -12.511 -20.892  1.00  0.00    -0.245 OA
HETATM   15  N2  UNL     1      26.287 -14.666 -20.663  1.00  0.00    -0.249 N 
ATOM     16  H2  UNL     1      26.601 -15.609 -20.431  1.00  0.00     0.192 HD
BRANCH  15  17
HETATM   17  N3  UNL     1      24.959 -14.576 -20.949  1.00  0.00    -0.265 N 
HETATM   18  C8  UNL     1      23.836 -14.750 -20.133  1.00  0.00     0.249 C 
HETATM   19  O2  UNL     1      23.817 -15.030 -18.910  1.00  0.00    -0.271 OA
ATOM     20  H3  UNL     1      24.747 -14.344 -21.919  1.00  0.00     0.190 HD
BRANCH  18  21
HETATM   21  C9  UNL     1      22.441 -14.593 -20.745  1.00  0.00     0.219 C 
HETATM   22 CL1  UNL     1      22.628 -14.316 -22.461  1.00  0.00    -0.121 Cl
ENDBRANCH  18  21
ENDBRANCH  15  17
ENDBRANCH   5  11
BRANCH   8  23
HETATM   23  O3  UNL     1      34.046 -13.172 -18.859  1.00  0.00    -0.395 OA
ATOM     24  H3  UNL     1      33.941 -12.913 -17.951  1.00  0.00     0.210 HD
ENDBRANCH   8  23
TORSDOF 4
ENDMDL
MODEL 2
REMARK VINA RESULT: -7.876522743      1.908      2.507
REMARK  4 active torsions:
REMARK  status: ('A' for Active; 'I' for Inactive)
REMARK    1  A    between atoms: C5_5  and  N1_6 
REMARK       I    between atoms: N1_6  and  C7_8 
REMARK       I    between atoms: C7_8  and  N2_10 
REMARK    2  A    between atoms: N2_10  and  N3_12 
REMARK       I    between atoms: N3_12  and  C8_14 
REMARK    3  A    between atoms: C8_14  and  C9_16 
REMARK    4  A    between atoms: C12_20  and  O3_21 
ROOT
HETATM    1  C1  UNL     1      31.813 -10.021 -21.354  1.00  0.00     0.011 C 
HETATM    2  C2  UNL     1      30.614 -10.987 -21.394  1.00  0.00    -0.007 C 
HETATM    3  C3  UNL     1      31.155 -12.359 -21.209  1.00  0.00     0.007 C 
HETATM    4  C4  UNL     1      30.194 -13.362 -20.625  1.00  0.00     0.026 C 
HETATM    5  C5  UNL     1      28.800 -12.720 -20.711  1.00  0.00     0.093 C 
HETATM    6  C10 UNL     1      28.705 -11.543 -19.821  1.00  0.00     0.022 A 
HETATM    7  C11 UNL     1      29.429 -11.506 -18.532  1.00  0.00     0.040 A 
HETATM    8  C12 UNL     1      30.364 -10.409 -19.018  1.00  0.00     0.127 A 
HETATM    9  C13 UNL     1      29.672 -10.498 -20.343  1.00  0.00    -0.009 A 
HETATM   10  C14 UNL     1      28.917  -9.274 -20.768  1.00  0.00     0.018 C 
ENDROOT
BRANCH   5  11
HETATM   11  N1  UNL     1      27.746 -13.661 -20.707  1.00  0.00    -0.332 N 
HETATM   12  C6  UNL     1      28.050 -15.081 -20.442  1.00  0.00     0.155 C 
HETATM   13  C7  UNL     1      26.345 -13.365 -20.942  1.00  0.00     0.337 C 
HETATM   14  O1  UNL     1      26.016 -12.198 -21.190  1.00  0.00    -0.245 OA
HETATM   15  N2  UNL     1      25.387 -14.392 -20.884  1.00  0.00    -0.249 N 
ATOM     16  H2  UNL     1      25.773 -15.312 -20.674  1.00  0.00     0.192 HD
BRANCH  15  17
HETATM   17  N3  UNL     1      24.036 -14.381 -21.058  1.00  0.00    -0.265 N 
HETATM   18  C8  UNL     1      22.999 -14.693 -20.172  1.00  0.00     0.249 C 
HETATM   19  O2  UNL     1      23.101 -15.057 -18.976  1.00  0.00    -0.271 OA
ATOM     20  H3  UNL     1      23.729 -14.099 -21.990  1.00  0.00     0.190 HD
BRANCH  18  21
HETATM   21  C9  UNL     1      21.551 -14.598 -20.660  1.00  0.00     0.219 C 
HETATM   22 CL1  UNL     1      21.068 -16.175 -21.241  1.00  0.00    -0.121 Cl
ENDBRANCH  18  21
ENDBRANCH  15  17
ENDBRANCH   5  11
BRANCH   8  23
HETATM   23  O3  UNL     1      30.299  -9.214 -18.353  1.00  0.00    -0.395 OA
ATOM     24  H3  UNL     1      29.793  -8.525 -18.768  1.00  0.00     0.210 HD
ENDBRANCH   8  23
TORSDOF 4
ENDMDL
MODEL 3
REMARK VINA RESULT: -7.838465700      5.108      7.235
REMARK  4 active torsions:
REMARK  status: ('A' for Active; 'I' for Inactive)
REMARK    1  A    between atoms: C5_5  and  N1_6 
REMARK       I    between atoms: N1_6  and  C7_8 
REMARK       I    between atoms: C7_8  and  N2_10 
REMARK    2  A    between atoms: N2_10  and  N3_12 
REMARK       I    between atoms: N3_12  and  C8_14 
REMARK    3  A    between atoms: C8_14  and  C9_16 
REMARK    4  A    between atoms: C12_20  and  O3_21 
ROOT
HETATM    1  C1  UNL     1      31.860 -17.220 -23.463  1.00  0.00     0.011 C 
HETATM    2  C2  UNL     1      32.041 -15.847 -22.789  1.00  0.00    -0.007 C 
HETATM    3  C3  UNL     1      30.977 -14.957 -23.324  1.00  0.00     0.007 C 
HETATM    4  C4  UNL     1      30.573 -13.816 -22.425  1.00  0.00     0.026 C 
HETATM    5  C5  UNL     1      31.654 -13.725 -21.336  1.00  0.00     0.093 C 
HETATM    6  C10 UNL     1      31.627 -14.921 -20.465  1.00  0.00     0.022 A 
HETATM    7  C11 UNL     1      30.353 -15.603 -20.151  1.00  0.00     0.040 A 
HETATM    8  C12 UNL     1      30.746 -16.837 -20.949  1.00  0.00     0.127 A 
HETATM    9  C13 UNL     1      32.005 -16.115 -21.320  1.00  0.00    -0.009 A 
HETATM   10  C14 UNL     1      33.278 -16.722 -20.811  1.00  0.00     0.018 C 
ENDROOT
BRANCH   5  11
HETATM   11  N1  UNL     1      31.741 -12.450 -20.735  1.00  0.00    -0.332 N 
HETATM   12  C6  UNL     1      30.944 -11.338 -21.290  1.00  0.00     0.155 C 
HETATM   13  C7  UNL     1      32.559 -12.108 -19.587  1.00  0.00     0.337 C 
HETATM   14  O1  UNL     1      33.270 -12.986 -19.080  1.00  0.00    -0.245 OA
HETATM   15  N2  UNL     1      32.537 -10.803 -19.067  1.00  0.00    -0.249 N 
ATOM     16  H2  UNL     1      31.917 -10.165 -19.567  1.00  0.00     0.192 HD
BRANCH  15  17
HETATM   17  N3  UNL     1      33.193 -10.234 -18.018  1.00  0.00    -0.265 N 
HETATM   18  C8  UNL     1      32.723  -9.423 -16.979  1.00  0.00     0.249 C 
HETATM   19  O2  UNL     1      31.545  -9.038 -16.785  1.00  0.00    -0.271 OA
ATOM     20  H3  UNL     1      34.193 -10.433 -17.983  1.00  0.00     0.190 HD
BRANCH  18  21
HETATM   21  C9  UNL     1      33.713  -8.914 -15.928  1.00  0.00     0.219 C 
HETATM   22 CL1  UNL     1      33.201  -9.509 -14.365  1.00  0.00    -0.121 Cl
ENDBRANCH  18  21
ENDBRANCH  15  17
ENDBRANCH   5  11
BRANCH   8  23
HETATM   23  O3  UNL     1      30.874 -18.003 -20.243  1.00  0.00    -0.395 OA
ATOM     24  H3  UNL     1      31.406 -18.682 -20.640  1.00  0.00     0.210 HD
ENDBRANCH   8  23
TORSDOF 4
ENDMDL
MODEL 4
REMARK VINA RESULT: -7.803341083      4.040      5.704
REMARK  4 active torsions:
REMARK  status: ('A' for Active; 'I' for Inactive)
REMARK    1  A    between atoms: C5_5  and  N1_6 
REMARK       I    between atoms: N1_6  and  C7_8 
REMARK       I    between atoms: C7_8  and  N2_10 
REMARK    2  A    between atoms: N2_10  and  N3_12 
REMARK       I    between atoms: N3_12  and  C8_14 
REMARK    3  A    between atoms: C8_14  and  C9_16 
REMARK    4  A    between atoms: C12_20  and  O3_21 
ROOT
HETATM    1  C1  UNL     1      35.297  -7.826 -17.106  1.00  0.00     0.011 C 
HETATM    2  C2  UNL     1      34.374  -9.024 -17.400  1.00  0.00    -0.007 C 
HETATM    3  C3  UNL     1      33.284  -8.991 -16.389  1.00  0.00     0.007 C 
HETATM    4  C4  UNL     1      31.992  -9.645 -16.807  1.00  0.00     0.026 C 
HETATM    5  C5  UNL     1      32.315 -10.465 -18.066  1.00  0.00     0.093 C 
HETATM    6  C10 UNL     1      32.672  -9.579 -19.195  1.00  0.00     0.022 A 
HETATM    7  C11 UNL     1      32.036  -8.253 -19.350  1.00  0.00     0.040 A 
HETATM    8  C12 UNL     1      33.337  -7.525 -19.049  1.00  0.00     0.127 A 
HETATM    9  C13 UNL     1      33.960  -8.868 -18.827  1.00  0.00    -0.009 A 
HETATM   10  C14 UNL     1      35.045  -9.252 -19.788  1.00  0.00     0.018 C 
ENDROOT
BRANCH   5  11
HETATM   11  N1  UNL     1      31.409 -11.525 -18.295  1.00  0.00    -0.332 N 
HETATM   12  C6  UNL     1      29.982 -11.335 -17.964  1.00  0.00     0.155 C 
HETATM   13  C7  UNL     1      31.746 -12.824 -18.845  1.00  0.00     0.337 C 
HETATM   14  O1  UNL     1      32.927 -13.062 -19.129  1.00  0.00    -0.245 OA
HETATM   15  N2  UNL     1      30.743 -13.787 -19.048  1.00  0.00    -0.249 N 
ATOM     16  H2  UNL     1      29.809 -13.481 -18.776  1.00  0.00     0.192 HD
BRANCH  15  17
HETATM   17  N3  UNL     1      30.791 -15.055 -19.543  1.00  0.00    -0.265 N 
HETATM   18  C8  UNL     1      29.784 -15.865 -20.079  1.00  0.00     0.249 C 
HETATM   19  O2  UNL     1      28.572 -15.576 -20.230  1.00  0.00    -0.271 OA
ATOM     20  H3  UNL     1      31.715 -15.487 -19.518  1.00  0.00     0.190 HD
BRANCH  18  21
HETATM   21  C9  UNL     1      30.139 -17.276 -20.554  1.00  0.00     0.219 C 
HETATM   22 CL1  UNL     1      31.872 -17.358 -20.770  1.00  0.00    -0.121 Cl
ENDBRANCH  18  21
ENDBRANCH  15  17
ENDBRANCH   5  11
BRANCH   8  23
HETATM   23  O3  UNL     1      33.850  -6.752 -20.057  1.00  0.00    -0.395 OA
ATOM     24  H3  UNL     1      34.252  -5.932 -19.798  1.00  0.00     0.210 HD
ENDBRANCH   8  23
TORSDOF 4
ENDMDL
MODEL 5
REMARK VINA RESULT: -7.785578010      4.764      6.127
REMARK  4 active torsions:
REMARK  status: ('A' for Active; 'I' for Inactive)
REMARK    1  A    between atoms: C5_5  and  N1_6 
REMARK       I    between atoms: N1_6  and  C7_8 
REMARK       I    between atoms: C7_8  and  N2_10 
REMARK    2  A    between atoms: N2_10  and  N3_12 
REMARK       I    between atoms: N3_12  and  C8_14 
REMARK    3  A    between atoms: C8_14  and  C9_16 
REMARK    4  A    between atoms: C12_20  and  O3_21 
ROOT
HETATM    1  C1  UNL     1      35.255  -7.785 -17.103  1.00  0.00     0.011 C 
HETATM    2  C2  UNL     1      34.377  -9.015 -17.403  1.00  0.00    -0.007 C 
HETATM    3  C3  UNL     1      33.273  -9.014 -16.407  1.00  0.00     0.007 C 
HETATM    4  C4  UNL     1      32.009  -9.713 -16.838  1.00  0.00     0.026 C 
HETATM    5  C5  UNL     1      32.376 -10.527 -18.090  1.00  0.00     0.093 C 
HETATM    6  C10 UNL     1      32.719  -9.635 -19.218  1.00  0.00     0.022 A 
HETATM    7  C11 UNL     1      32.041  -8.332 -19.388  1.00  0.00     0.040 A 
HETATM    8  C12 UNL     1      33.313  -7.560 -19.073  1.00  0.00     0.127 A 
HETATM    9  C13 UNL     1      33.977  -8.880 -18.836  1.00  0.00    -0.009 A 
HETATM   10  C14 UNL     1      35.088  -9.231 -19.781  1.00  0.00     0.018 C 
ENDROOT
BRANCH   5  11
HETATM   11  N1  UNL     1      31.509 -11.618 -18.325  1.00  0.00    -0.332 N 
HETATM   12  C6  UNL     1      30.075 -11.478 -18.005  1.00  0.00     0.155 C 
HETATM   13  C7  UNL     1      31.896 -12.904 -18.872  1.00  0.00     0.337 C 
HETATM   14  O1  UNL     1      33.087 -13.101 -19.147  1.00  0.00    -0.245 OA
HETATM   15  N2  UNL     1      30.928 -13.902 -19.083  1.00  0.00    -0.249 N 
ATOM     16  H2  UNL     1      29.982 -13.628 -18.818  1.00  0.00     0.192 HD
BRANCH  15  17
HETATM   17  N3  UNL     1      31.025 -15.168 -19.577  1.00  0.00    -0.265 N 
HETATM   18  C8  UNL     1      31.501 -15.634 -20.806  1.00  0.00     0.249 C 
HETATM   19  O2  UNL     1      31.967 -14.953 -21.752  1.00  0.00    -0.271 OA
ATOM     20  H3  UNL     1      30.694 -15.897 -18.944  1.00  0.00     0.190 HD
BRANCH  18  21
HETATM   21  C9  UNL     1      31.477 -17.138 -21.091  1.00  0.00     0.219 C 
HETATM   22 CL1  UNL     1      32.359 -17.426 -22.574  1.00  0.00    -0.121 Cl
ENDBRANCH  18  21
ENDBRANCH  15  17
ENDBRANCH   5  11
BRANCH   8  23
HETATM   23  O3  UNL     1      33.813  -6.774 -20.078  1.00  0.00    -0.395 OA
ATOM     24  H3  UNL     1      34.695  -6.443 -19.957  1.00  0.00     0.210 HD
ENDBRANCH   8  23
TORSDOF 4
ENDMDL
