MODEL 1
REMARK VINA RESULT: -8.691024912      0.000      0.000
REMARK  6 active torsions:
REMARK  status: ('A' for Active; 'I' for Inactive)
REMARK    1  A    between atoms: C2_2  and  C3_3 
REMARK    2  A    between atoms: C7_7  and  O1_8 
REMARK    3  A    between atoms: C8_10  and  O2_11 
REMARK    4  A    between atoms: C9_13  and  C10_14 
REMARK    5  A    between atoms: C10_14  and  N1_15 
REMARK    6  A    between atoms: N1_15  and  C11_17 
ROOT
HETATM    1  C3  UNL     1      29.660 -13.913 -23.934  1.00  0.00     0.016 A 
HETATM    2  C4  UNL     1      30.944 -14.332 -23.352  1.00  0.00    -0.001 A 
HETATM    3  C5  UNL     1      31.024 -15.547 -22.473  1.00  0.00     0.013 C 
HETATM    4  C6  UNL     1      30.811 -14.999 -21.082  1.00  0.00     0.022 C 
HETATM    5  C7  UNL     1      30.144 -15.992 -20.167  1.00  0.00     0.151 C 
HETATM    6  C8  UNL     1      28.723 -15.517 -19.962  1.00  0.00     0.153 C 
HETATM    7  C9  UNL     1      28.487 -14.742 -21.266  1.00  0.00     0.040 C 
HETATM    8  C16 UNL     1      29.760 -13.932 -21.329  1.00  0.00     0.005 C 
HETATM    9  C17 UNL     1      30.041 -13.336 -22.650  1.00  0.00     0.003 A 
ENDROOT
BRANCH   7  10
HETATM   10  C10 UNL     1      27.263 -13.900 -21.048  1.00  0.00     0.128 C 
BRANCH  10  11
HETATM   11  N1  UNL     1      26.297 -14.699 -20.332  1.00  0.00    -0.376 N 
ATOM     12  H1  UNL     1      26.649 -15.315 -19.599  1.00  0.00     0.161 HD
BRANCH  11  13
HETATM   13  C11 UNL     1      25.052 -14.698 -20.539  1.00  0.00     0.100 A 
HETATM   14  C12 UNL     1      24.556 -14.262 -21.745  1.00  0.00     0.050 A 
HETATM   15  C13 UNL     1      23.180 -14.251 -21.998  1.00  0.00     0.029 A 
HETATM   16  C14 UNL     1      22.314 -14.689 -21.014  1.00  0.00     0.049 A 
HETATM   17 CL1  UNL     1      20.602 -14.664 -21.361  1.00  0.00    -0.083 Cl
HETATM   18  C15 UNL     1      22.844 -15.115 -19.829  1.00  0.00     0.113 A 
HETATM   19  N2  UNL     1      24.183 -15.116 -19.607  1.00  0.00    -0.351 N 
ATOM     20  H2  UNL     1      24.538 -15.442 -18.707  1.00  0.00     0.166 HD
ENDBRANCH  11  13
ENDBRANCH  10  11
ENDBRANCH   7  10
BRANCH   6  21
HETATM   21  O2  UNL     1      28.742 -14.573 -18.946  1.00  0.00    -0.393 OA
ATOM     22  H2  UNL     1      27.879 -14.176 -18.910  1.00  0.00     0.210 HD
ENDBRANCH   6  21
BRANCH   5  23
HETATM   23  O1  UNL     1      30.097 -17.274 -20.721  1.00  0.00    -0.393 OA
ATOM     24  H1  UNL     1      30.451 -17.933 -20.135  1.00  0.00     0.210 HD
ENDBRANCH   5  23
BRANCH   1  25
HETATM   25  C2  UNL     1      29.757 -12.972 -25.114  1.00  0.00    -0.031 C 
HETATM   26  C1  UNL     1      28.802 -12.886 -26.012  1.00  0.00     0.007 C 
ENDBRANCH   1  25
TORSDOF 6
ENDMDL
MODEL 2
REMARK VINA RESULT: -8.507313629      1.848      2.530
REMARK  6 active torsions:
REMARK  status: ('A' for Active; 'I' for Inactive)
REMARK    1  A    between atoms: C2_2  and  C3_3 
REMARK    2  A    between atoms: C7_7  and  O1_8 
REMARK    3  A    between atoms: C8_10  and  O2_11 
REMARK    4  A    between atoms: C9_13  and  C10_14 
REMARK    5  A    between atoms: C10_14  and  N1_15 
REMARK    6  A    between atoms: N1_15  and  C11_17 
ROOT
HETATM    1  C3  UNL     1      26.192 -13.252 -24.446  1.00  0.00     0.016 A 
HETATM    2  C4  UNL     1      27.438 -13.289 -25.228  1.00  0.00    -0.001 A 
HETATM    3  C5  UNL     1      28.445 -14.382 -25.010  1.00  0.00     0.013 C 
HETATM    4  C6  UNL     1      29.369 -13.814 -23.958  1.00  0.00     0.022 C 
HETATM    5  C7  UNL     1      29.964 -14.881 -23.078  1.00  0.00     0.151 C 
HETATM    6  C8  UNL     1      29.283 -14.773 -21.731  1.00  0.00     0.153 C 
HETATM    7  C9  UNL     1      27.930 -14.173 -22.140  1.00  0.00     0.040 C 
HETATM    8  C16 UNL     1      28.395 -13.071 -23.062  1.00  0.00     0.005 C 
HETATM    9  C17 UNL     1      27.338 -12.512 -23.929  1.00  0.00     0.003 A 
ENDROOT
BRANCH   7  10
HETATM   10  C10 UNL     1      27.293 -13.659 -20.882  1.00  0.00     0.128 C 
BRANCH  10  11
HETATM   11  N1  UNL     1      26.434 -14.698 -20.364  1.00  0.00    -0.376 N 
ATOM     12  H1  UNL     1      26.878 -15.462 -19.855  1.00  0.00     0.161 HD
BRANCH  11  13
HETATM   13  C11 UNL     1      25.179 -14.738 -20.489  1.00  0.00     0.100 A 
HETATM   14  C12 UNL     1      24.588 -14.278 -21.643  1.00  0.00     0.050 A 
HETATM   15  C13 UNL     1      23.198 -14.312 -21.804  1.00  0.00     0.029 A 
HETATM   16  C14 UNL     1      22.416 -14.817 -20.783  1.00  0.00     0.049 A 
HETATM   17 CL1  UNL     1      20.685 -14.845 -21.016  1.00  0.00    -0.083 Cl
HETATM   18  C15 UNL     1      23.039 -15.264 -19.652  1.00  0.00     0.113 A 
HETATM   19  N2  UNL     1      24.390 -15.221 -19.518  1.00  0.00    -0.351 N 
ATOM     20  H2  UNL     1      24.815 -15.564 -18.657  1.00  0.00     0.166 HD
ENDBRANCH  11  13
ENDBRANCH  10  11
ENDBRANCH   7  10
BRANCH   6  21
HETATM   21  O2  UNL     1      29.942 -13.789 -21.009  1.00  0.00    -0.393 OA
ATOM     22  H2  UNL     1      29.510 -12.964 -21.192  1.00  0.00     0.210 HD
ENDBRANCH   6  21
BRANCH   5  23
HETATM   23  O1  UNL     1      29.737 -16.167 -23.576  1.00  0.00    -0.393 OA
ATOM     24  H1  UNL     1      28.844 -16.281 -23.884  1.00  0.00     0.210 HD
ENDBRANCH   5  23
BRANCH   1  25
HETATM   25  C2  UNL     1      25.086 -12.399 -25.024  1.00  0.00    -0.031 C 
HETATM   26  C1  UNL     1      24.835 -12.369 -26.313  1.00  0.00     0.007 C 
ENDBRANCH   1  25
TORSDOF 6
ENDMDL
MODEL 3
REMARK VINA RESULT: -8.147882255      2.239      3.128
REMARK  6 active torsions:
REMARK  status: ('A' for Active; 'I' for Inactive)
REMARK    1  A    between atoms: C2_2  and  C3_3 
REMARK    2  A    between atoms: C7_7  and  O1_8 
REMARK    3  A    between atoms: C8_10  and  O2_11 
REMARK    4  A    between atoms: C9_13  and  C10_14 
REMARK    5  A    between atoms: C10_14  and  N1_15 
REMARK    6  A    between atoms: N1_15  and  C11_17 
ROOT
HETATM    1  C3  UNL     1      25.389 -13.505 -24.831  1.00  0.00     0.016 A 
HETATM    2  C4  UNL     1      26.735 -13.296 -25.386  1.00  0.00    -0.001 A 
HETATM    3  C5  UNL     1      27.915 -14.039 -24.830  1.00  0.00     0.013 C 
HETATM    4  C6  UNL     1      28.444 -13.120 -23.753  1.00  0.00     0.022 C 
HETATM    5  C7  UNL     1      29.096 -13.872 -22.623  1.00  0.00     0.151 C 
HETATM    6  C8  UNL     1      28.156 -13.793 -21.441  1.00  0.00     0.153 C 
HETATM    7  C9  UNL     1      26.806 -13.636 -22.155  1.00  0.00     0.040 C 
HETATM    8  C16 UNL     1      27.159 -12.568 -23.162  1.00  0.00     0.005 C 
HETATM    9  C17 UNL     1      26.192 -12.425 -24.268  1.00  0.00     0.003 A 
ENDROOT
BRANCH   7  10
HETATM   10  C10 UNL     1      25.826 -13.169 -21.119  1.00  0.00     0.128 C 
BRANCH  10  11
HETATM   11  N1  UNL     1      24.988 -14.290 -20.763  1.00  0.00    -0.376 N 
ATOM     12  H1  UNL     1      25.427 -15.062 -20.261  1.00  0.00     0.161 HD
BRANCH  11  13
HETATM   13  C11 UNL     1      23.757 -14.393 -21.022  1.00  0.00     0.100 A 
HETATM   14  C12 UNL     1      23.325 -14.364 -22.327  1.00  0.00     0.050 A 
HETATM   15  C13 UNL     1      21.964 -14.476 -22.639  1.00  0.00     0.029 A 
HETATM   16  C14 UNL     1      21.051 -14.618 -21.612  1.00  0.00     0.049 A 
HETATM   17 CL1  UNL     1      19.361 -14.755 -22.034  1.00  0.00    -0.083 Cl
HETATM   18  C15 UNL     1      21.519 -14.642 -20.328  1.00  0.00     0.113 A 
HETATM   19  N2  UNL     1      22.843 -14.531 -20.051  1.00  0.00    -0.351 N 
ATOM     20  H2  UNL     1      23.150 -14.554 -19.078  1.00  0.00     0.166 HD
ENDBRANCH  11  13
ENDBRANCH  10  11
ENDBRANCH   7  10
BRANCH   6  21
HETATM   21  O2  UNL     1      28.397 -12.588 -20.797  1.00  0.00    -0.393 OA
ATOM     22  H2  UNL     1      28.242 -12.724 -19.870  1.00  0.00     0.210 HD
ENDBRANCH   6  21
BRANCH   5  23
HETATM   23  O1  UNL     1      29.295 -15.221 -22.930  1.00  0.00    -0.393 OA
ATOM     24  H1  UNL     1      29.618 -15.345 -23.815  1.00  0.00     0.210 HD
ENDBRANCH   5  23
BRANCH   1  25
HETATM   25  C2  UNL     1      24.244 -13.060 -25.712  1.00  0.00    -0.031 C 
HETATM   26  C1  UNL     1      24.418 -12.209 -26.697  1.00  0.00     0.007 C 
ENDBRANCH   1  25
TORSDOF 6
ENDMDL
MODEL 4
REMARK VINA RESULT: -8.145198350      1.836      2.523
REMARK  6 active torsions:
REMARK  status: ('A' for Active; 'I' for Inactive)
REMARK    1  A    between atoms: C2_2  and  C3_3 
REMARK    2  A    between atoms: C7_7  and  O1_8 
REMARK    3  A    between atoms: C8_10  and  O2_11 
REMARK    4  A    between atoms: C9_13  and  C10_14 
REMARK    5  A    between atoms: C10_14  and  N1_15 
REMARK    6  A    between atoms: N1_15  and  C11_17 
ROOT
HETATM    1  C3  UNL     1      31.021 -15.893 -22.175  1.00  0.00     0.016 A 
HETATM    2  C4  UNL     1      32.000 -14.873 -21.768  1.00  0.00    -0.001 A 
HETATM    3  C5  UNL     1      31.923 -14.239 -20.409  1.00  0.00     0.013 C 
HETATM    4  C6  UNL     1      31.058 -13.020 -20.630  1.00  0.00     0.022 C 
HETATM    5  C7  UNL     1      30.260 -12.650 -19.409  1.00  0.00     0.151 C 
HETATM    6  C8  UNL     1      28.822 -13.025 -19.691  1.00  0.00     0.153 C 
HETATM    7  C9  UNL     1      29.015 -14.169 -20.696  1.00  0.00     0.040 C 
HETATM    8  C16 UNL     1      30.034 -13.545 -21.619  1.00  0.00     0.005 C 
HETATM    9  C17 UNL     1      30.726 -14.503 -22.504  1.00  0.00     0.003 A 
ENDROOT
BRANCH   7  10
HETATM   10  C10 UNL     1      27.683 -14.391 -21.352  1.00  0.00     0.128 C 
BRANCH  10  11
HETATM   11  N1  UNL     1      26.727 -14.712 -20.318  1.00  0.00    -0.376 N 
ATOM     12  H1  UNL     1      27.096 -14.960 -19.400  1.00  0.00     0.161 HD
BRANCH  11  13
HETATM   13  C11 UNL     1      25.473 -14.709 -20.457  1.00  0.00     0.100 A 
HETATM   14  C12 UNL     1      24.909 -14.200 -21.603  1.00  0.00     0.050 A 
HETATM   15  C13 UNL     1      23.521 -14.186 -21.780  1.00  0.00     0.029 A 
HETATM   16  C14 UNL     1      22.713 -14.695 -20.781  1.00  0.00     0.049 A 
HETATM   17 CL1  UNL     1      20.984 -14.663 -21.033  1.00  0.00    -0.083 Cl
HETATM   18  C15 UNL     1      23.309 -15.192 -19.657  1.00  0.00     0.113 A 
HETATM   19  N2  UNL     1      24.659 -15.194 -19.508  1.00  0.00    -0.351 N 
ATOM     20  H2  UNL     1      25.063 -15.574 -18.652  1.00  0.00     0.166 HD
ENDBRANCH  11  13
ENDBRANCH  10  11
ENDBRANCH   7  10
BRANCH   6  21
HETATM   21  O2  UNL     1      28.250 -11.978 -20.399  1.00  0.00    -0.393 OA
ATOM     22  H2  UNL     1      28.624 -11.986 -21.272  1.00  0.00     0.210 HD
ENDBRANCH   6  21
BRANCH   5  23
HETATM   23  O1  UNL     1      30.675 -13.350 -18.273  1.00  0.00    -0.393 OA
ATOM     24  H1  UNL     1      29.942 -13.690 -17.771  1.00  0.00     0.210 HD
ENDBRANCH   5  23
BRANCH   1  25
HETATM   25  C2  UNL     1      31.429 -16.757 -23.347  1.00  0.00    -0.031 C 
HETATM   26  C1  UNL     1      32.545 -17.450 -23.341  1.00  0.00     0.007 C 
ENDBRANCH   1  25
TORSDOF 6
ENDMDL
MODEL 5
REMARK VINA RESULT: -8.068224969      3.025      4.532
REMARK  6 active torsions:
REMARK  status: ('A' for Active; 'I' for Inactive)
REMARK    1  A    between atoms: C2_2  and  C3_3 
REMARK    2  A    between atoms: C7_7  and  O1_8 
REMARK    3  A    between atoms: C8_10  and  O2_11 
REMARK    4  A    between atoms: C9_13  and  C10_14 
REMARK    5  A    between atoms: C10_14  and  N1_15 
REMARK    6  A    between atoms: N1_15  and  C11_17 
ROOT
HETATM    1  C3  UNL     1      29.492 -12.332 -18.855  1.00  0.00     0.016 A 
HETATM    2  C4  UNL     1      29.729 -10.965 -19.344  1.00  0.00    -0.001 A 
HETATM    3  C5  UNL     1      28.581 -10.098 -19.774  1.00  0.00     0.013 C 
HETATM    4  C6  UNL     1      28.451 -10.379 -21.252  1.00  0.00     0.022 C 
HETATM    5  C7  UNL     1      27.034 -10.241 -21.743  1.00  0.00     0.151 C 
HETATM    6  C8  UNL     1      26.520 -11.639 -22.005  1.00  0.00     0.153 C 
HETATM    7  C9  UNL     1      27.374 -12.450 -21.020  1.00  0.00     0.040 C 
HETATM    8  C16 UNL     1      28.737 -11.869 -21.307  1.00  0.00     0.005 C 
HETATM    9  C17 UNL     1      29.756 -12.159 -20.279  1.00  0.00     0.003 A 
ENDROOT
BRANCH   7  10
HETATM   10  C10 UNL     1      27.248 -13.889 -21.428  1.00  0.00     0.128 C 
BRANCH  10  11
HETATM   11  N1  UNL     1      26.405 -14.552 -20.462  1.00  0.00    -0.376 N 
ATOM     12  H1  UNL     1      26.858 -14.953 -19.641  1.00  0.00     0.161 HD
BRANCH  11  13
HETATM   13  C11 UNL     1      25.152 -14.676 -20.550  1.00  0.00     0.100 A 
HETATM   14  C12 UNL     1      24.505 -14.313 -21.708  1.00  0.00     0.050 A 
HETATM   15  C13 UNL     1      23.116 -14.441 -21.828  1.00  0.00     0.029 A 
HETATM   16  C14 UNL     1      22.394 -14.942 -20.762  1.00  0.00     0.049 A 
HETATM   17 CL1  UNL     1      20.663 -15.090 -20.944  1.00  0.00    -0.083 Cl
HETATM   18  C15 UNL     1      23.072 -15.291 -19.628  1.00  0.00     0.113 A 
HETATM   19  N2  UNL     1      24.420 -15.158 -19.535  1.00  0.00    -0.351 N 
ATOM     20  H2  UNL     1      24.887 -15.430 -18.670  1.00  0.00     0.166 HD
ENDBRANCH  11  13
ENDBRANCH  10  11
ENDBRANCH   7  10
BRANCH   6  21
HETATM   21  O2  UNL     1      26.939 -12.005 -23.276  1.00  0.00    -0.393 OA
ATOM     22  H2  UNL     1      26.258 -11.746 -23.886  1.00  0.00     0.210 HD
ENDBRANCH   6  21
BRANCH   5  23
HETATM   23  O1  UNL     1      26.200  -9.644 -20.793  1.00  0.00    -0.393 OA
ATOM     24  H1  UNL     1      25.296  -9.602 -21.083  1.00  0.00     0.210 HD
ENDBRANCH   5  23
BRANCH   1  25
HETATM   25  C2  UNL     1      30.624 -12.946 -18.063  1.00  0.00    -0.031 C 
HETATM   26  C1  UNL     1      31.409 -12.219 -17.300  1.00  0.00     0.007 C 
ENDBRANCH   1  25
TORSDOF 6
ENDMDL
