MODEL 1
REMARK VINA RESULT: -6.157417083      0.000      0.000
REMARK  7 active torsions:
REMARK  status: ('A' for Active; 'I' for Inactive)
REMARK    1  A    between atoms: N1_4  and  N2_6 
REMARK    2  A    between atoms: C4_8  and  C5_9 
REMARK    3  A    between atoms: C4_8  and  N3_11 
REMARK    4  A    between atoms: N3_11  and  N4_13 
REMARK    5  A    between atoms: N4_13  and  C6_15 
REMARK    6  A    between atoms: C6_15  and  N5_17 
REMARK    7  A    between atoms: N5_17  and  C7_19 
ROOT
HETATM    1  N3  UNL     1      30.307 -12.424 -23.957  1.00  0.00    -0.285 N 
ATOM      2  H3  UNL     1      31.257 -12.590 -23.626  1.00  0.00     0.188 HD
ENDROOT
BRANCH   1   3
HETATM    3  C4  UNL     1      29.989 -12.681 -25.304  1.00  0.00     0.120 C 
HETATM    4  N2  UNL     1      30.676 -12.143 -26.232  1.00  0.00    -0.287 N 
ATOM      5  H2  UNL     1      30.416 -12.353 -27.196  1.00  0.00     0.188 HD
BRANCH   4   6
HETATM    6  N1  UNL     1      31.755 -11.290 -26.027  1.00  0.00    -0.308 N 
HETATM    7  C2  UNL     1      32.337 -10.767 -27.032  1.00  0.00    -0.004 C 
HETATM    8  C1  UNL     1      31.867 -11.067 -28.395  1.00  0.00     0.064 C 
HETATM    9  C3  UNL     1      33.486  -9.858 -26.846  1.00  0.00     0.064 C 
ATOM     10  H1  UNL     1      32.077 -11.085 -25.082  1.00  0.00     0.186 HD
ENDBRANCH   4   6
BRANCH   3  11
HETATM   11  C5  UNL     1      28.865 -13.570 -25.636  1.00  0.00     0.164 C 
HETATM   12 BR1  UNL     1      27.946 -12.865 -27.197  1.00  0.00    -0.088 Br
ENDBRANCH   3  11
ENDBRANCH   1   3
BRANCH   1  13
HETATM   13  N4  UNL     1      29.331 -11.937 -23.054  1.00  0.00    -0.275 N 
ATOM     14  H4  UNL     1      29.045 -10.958 -23.080  1.00  0.00     0.189 HD
BRANCH  13  15
HETATM   15  C6  UNL     1      28.754 -12.830 -22.110  1.00  0.00     0.187 C 
HETATM   16  S1  UNL     1      29.564 -13.003 -20.682  1.00  0.00    -0.040 SA
BRANCH  15  17
HETATM   17  N5  UNL     1      27.561 -13.526 -22.376  1.00  0.00    -0.358 N 
ATOM     18  H5  UNL     1      27.608 -14.516 -22.618  1.00  0.00     0.162 HD
BRANCH  17  19
HETATM   19  C7  UNL     1      26.284 -12.884 -22.316  1.00  0.00     0.021 C 
HETATM   20  C8  UNL     1      25.869 -12.408 -23.704  1.00  0.00     0.037 C 
HETATM   21  C9  UNL     1      26.270 -11.668 -21.425  1.00  0.00     0.037 C 
HETATM   22  C10 UNL     1      25.188 -13.863 -21.873  1.00  0.00     0.037 C 
ENDBRANCH  17  19
ENDBRANCH  15  17
ENDBRANCH  13  15
ENDBRANCH   1  13
TORSDOF 7
ENDMDL
MODEL 2
REMARK VINA RESULT: -6.070568405      5.260      6.764
REMARK  7 active torsions:
REMARK  status: ('A' for Active; 'I' for Inactive)
REMARK    1  A    between atoms: N1_4  and  N2_6 
REMARK    2  A    between atoms: C4_8  and  C5_9 
REMARK    3  A    between atoms: C4_8  and  N3_11 
REMARK    4  A    between atoms: N3_11  and  N4_13 
REMARK    5  A    between atoms: N4_13  and  C6_15 
REMARK    6  A    between atoms: C6_15  and  N5_17 
REMARK    7  A    between atoms: N5_17  and  C7_19 
ROOT
HETATM    1  N3  UNL     1      26.342 -13.945 -20.787  1.00  0.00    -0.285 N 
ATOM      2  H3  UNL     1      26.686 -13.042 -21.111  1.00  0.00     0.188 HD
ENDROOT
BRANCH   1   3
HETATM    3  C4  UNL     1      25.005 -14.307 -21.036  1.00  0.00     0.120 C 
HETATM    4  N2  UNL     1      24.484 -14.066 -22.174  1.00  0.00    -0.287 N 
ATOM      5  H2  UNL     1      23.513 -14.343 -22.318  1.00  0.00     0.188 HD
BRANCH   4   6
HETATM    6  N1  UNL     1      25.144 -13.453 -23.234  1.00  0.00    -0.308 N 
HETATM    7  C2  UNL     1      24.527 -13.274 -24.334  1.00  0.00    -0.004 C 
HETATM    8  C1  UNL     1      23.128 -13.715 -24.474  1.00  0.00     0.064 C 
HETATM    9  C3  UNL     1      25.201 -12.627 -25.477  1.00  0.00     0.064 C 
ATOM     10  H1  UNL     1      26.112 -13.150 -23.131  1.00  0.00     0.186 HD
ENDBRANCH   4   6
BRANCH   3  11
HETATM   11  C5  UNL     1      24.212 -14.962 -19.984  1.00  0.00     0.164 C 
HETATM   12 BR1  UNL     1      22.328 -14.826 -20.440  1.00  0.00    -0.088 Br
ENDBRANCH   3  11
ENDBRANCH   1   3
BRANCH   1  13
HETATM   13  N4  UNL     1      27.218 -14.815 -20.093  1.00  0.00    -0.275 N 
ATOM     14  H4  UNL     1      26.886 -15.716 -19.749  1.00  0.00     0.189 HD
BRANCH  13  15
HETATM   15  C6  UNL     1      28.567 -14.417 -19.880  1.00  0.00     0.187 C 
HETATM   16  S1  UNL     1      28.872 -12.798 -19.985  1.00  0.00    -0.040 SA
BRANCH  15  17
HETATM   17  N5  UNL     1      29.583 -15.347 -19.597  1.00  0.00    -0.358 N 
ATOM     18  H5  UNL     1      29.702 -15.675 -18.639  1.00  0.00     0.162 HD
BRANCH  17  19
HETATM   19  C7  UNL     1      30.453 -15.847 -20.618  1.00  0.00     0.021 C 
HETATM   20  C8  UNL     1      30.949 -17.241 -20.249  1.00  0.00     0.037 C 
HETATM   21  C9  UNL     1      31.680 -14.996 -20.822  1.00  0.00     0.037 C 
HETATM   22  C10 UNL     1      29.711 -16.014 -21.951  1.00  0.00     0.037 C 
ENDBRANCH  17  19
ENDBRANCH  15  17
ENDBRANCH  13  15
ENDBRANCH   1  13
TORSDOF 7
ENDMDL
MODEL 3
REMARK VINA RESULT: -6.054374295      2.858      3.711
REMARK  7 active torsions:
REMARK  status: ('A' for Active; 'I' for Inactive)
REMARK    1  A    between atoms: N1_4  and  N2_6 
REMARK    2  A    between atoms: C4_8  and  C5_9 
REMARK    3  A    between atoms: C4_8  and  N3_11 
REMARK    4  A    between atoms: N3_11  and  N4_13 
REMARK    5  A    between atoms: N4_13  and  C6_15 
REMARK    6  A    between atoms: C6_15  and  N5_17 
REMARK    7  A    between atoms: N5_17  and  C7_19 
ROOT
HETATM    1  N3  UNL     1      30.993 -13.306 -23.257  1.00  0.00    -0.285 N 
ATOM      2  H3  UNL     1      31.668 -13.856 -23.789  1.00  0.00     0.188 HD
ENDROOT
BRANCH   1   3
HETATM    3  C4  UNL     1      29.743 -13.004 -23.829  1.00  0.00     0.120 C 
HETATM    4  N2  UNL     1      29.684 -12.513 -25.003  1.00  0.00    -0.287 N 
ATOM      5  H2  UNL     1      28.760 -12.308 -25.384  1.00  0.00     0.188 HD
BRANCH   4   6
HETATM    6  N1  UNL     1      30.787 -12.236 -25.803  1.00  0.00    -0.308 N 
HETATM    7  C2  UNL     1      30.629 -12.093 -27.058  1.00  0.00    -0.004 C 
HETATM    8  C1  UNL     1      29.287 -12.223 -27.651  1.00  0.00     0.064 C 
HETATM    9  C3  UNL     1      31.782 -11.799 -27.932  1.00  0.00     0.064 C 
ATOM     10  H1  UNL     1      31.714 -12.147 -25.387  1.00  0.00     0.186 HD
ENDBRANCH   4   6
BRANCH   3  11
HETATM   11  C5  UNL     1      28.508 -13.258 -23.070  1.00  0.00     0.164 C 
HETATM   12 BR1  UNL     1      27.002 -13.249 -24.300  1.00  0.00    -0.088 Br
ENDBRANCH   3  11
ENDBRANCH   1   3
BRANCH   1  13
HETATM   13  N4  UNL     1      31.330 -12.860 -21.956  1.00  0.00    -0.275 N 
ATOM     14  H4  UNL     1      31.255 -11.872 -21.714  1.00  0.00     0.189 HD
BRANCH  13  15
HETATM   15  C6  UNL     1      31.774 -13.805 -20.992  1.00  0.00     0.187 C 
HETATM   16  S1  UNL     1      32.339 -13.184 -19.570  1.00  0.00    -0.040 SA
BRANCH  15  17
HETATM   17  N5  UNL     1      31.736 -15.190 -21.234  1.00  0.00    -0.358 N 
ATOM     18  H5  UNL     1      32.534 -15.637 -21.686  1.00  0.00     0.162 HD
BRANCH  17  19
HETATM   19  C7  UNL     1      30.608 -15.989 -20.863  1.00  0.00     0.021 C 
HETATM   20  C8  UNL     1      29.896 -16.504 -22.109  1.00  0.00     0.037 C 
HETATM   21  C9  UNL     1      29.579 -15.231 -20.064  1.00  0.00     0.037 C 
HETATM   22  C10 UNL     1      31.042 -17.243 -20.092  1.00  0.00     0.037 C 
ENDBRANCH  17  19
ENDBRANCH  15  17
ENDBRANCH  13  15
ENDBRANCH   1  13
TORSDOF 7
ENDMDL
MODEL 4
REMARK VINA RESULT: -6.024024044      2.853      3.712
REMARK  7 active torsions:
REMARK  status: ('A' for Active; 'I' for Inactive)
REMARK    1  A    between atoms: N1_4  and  N2_6 
REMARK    2  A    between atoms: C4_8  and  C5_9 
REMARK    3  A    between atoms: C4_8  and  N3_11 
REMARK    4  A    between atoms: N3_11  and  N4_13 
REMARK    5  A    between atoms: N4_13  and  C6_15 
REMARK    6  A    between atoms: C6_15  and  N5_17 
REMARK    7  A    between atoms: N5_17  and  C7_19 
ROOT
HETATM    1  N3  UNL     1      30.330 -12.166 -22.903  1.00  0.00    -0.285 N 
ATOM      2  H3  UNL     1      30.373 -11.157 -22.762  1.00  0.00     0.188 HD
ENDROOT
BRANCH   1   3
HETATM    3  C4  UNL     1      29.353 -12.705 -23.761  1.00  0.00     0.120 C 
HETATM    4  N2  UNL     1      29.562 -12.739 -25.017  1.00  0.00    -0.287 N 
ATOM      5  H2  UNL     1      28.831 -13.138 -25.607  1.00  0.00     0.188 HD
BRANCH   4   6
HETATM    6  N1  UNL     1      30.713 -12.274 -25.643  1.00  0.00    -0.308 N 
HETATM    7  C2  UNL     1      30.688 -12.021 -26.891  1.00  0.00    -0.004 C 
HETATM    8  C1  UNL     1      29.446 -12.222 -27.658  1.00  0.00     0.064 C 
HETATM    9  C3  UNL     1      31.895 -11.527 -27.582  1.00  0.00     0.064 C 
ATOM     10  H1  UNL     1      31.570 -12.137 -25.107  1.00  0.00     0.186 HD
ENDBRANCH   4   6
BRANCH   3  11
HETATM   11  C5  UNL     1      28.095 -13.226 -23.206  1.00  0.00     0.164 C 
HETATM   12 BR1  UNL     1      27.155 -11.779 -22.311  1.00  0.00    -0.088 Br
ENDBRANCH   3  11
ENDBRANCH   1   3
BRANCH   1  13
HETATM   13  N4  UNL     1      31.255 -13.002 -22.231  1.00  0.00    -0.275 N 
ATOM     14  H4  UNL     1      32.134 -13.264 -22.677  1.00  0.00     0.189 HD
BRANCH  13  15
HETATM   15  C6  UNL     1      30.944 -13.472 -20.925  1.00  0.00     0.187 C 
HETATM   16  S1  UNL     1      30.260 -12.373 -19.900  1.00  0.00    -0.040 SA
BRANCH  15  17
HETATM   17  N5  UNL     1      31.204 -14.796 -20.528  1.00  0.00    -0.358 N 
ATOM     18  H5  UNL     1      32.033 -14.992 -19.968  1.00  0.00     0.162 HD
BRANCH  17  19
HETATM   19  C7  UNL     1      30.336 -15.875 -20.888  1.00  0.00     0.021 C 
HETATM   20  C8  UNL     1      30.801 -17.167 -20.225  1.00  0.00     0.037 C 
HETATM   21  C9  UNL     1      30.302 -16.143 -22.371  1.00  0.00     0.037 C 
HETATM   22  C10 UNL     1      28.910 -15.640 -20.372  1.00  0.00     0.037 C 
ENDBRANCH  17  19
ENDBRANCH  15  17
ENDBRANCH  13  15
ENDBRANCH   1  13
TORSDOF 7
ENDMDL
MODEL 5
REMARK VINA RESULT: -5.949623771      4.909      7.432
REMARK  7 active torsions:
REMARK  status: ('A' for Active; 'I' for Inactive)
REMARK    1  A    between atoms: N1_4  and  N2_6 
REMARK    2  A    between atoms: C4_8  and  C5_9 
REMARK    3  A    between atoms: C4_8  and  N3_11 
REMARK    4  A    between atoms: N3_11  and  N4_13 
REMARK    5  A    between atoms: N4_13  and  C6_15 
REMARK    6  A    between atoms: C6_15  and  N5_17 
REMARK    7  A    between atoms: N5_17  and  C7_19 
ROOT
HETATM    1  N3  UNL     1      26.209 -13.985 -20.703  1.00  0.00    -0.285 N 
ATOM      2  H3  UNL     1      25.842 -13.378 -19.971  1.00  0.00     0.188 HD
ENDROOT
BRANCH   1   3
HETATM    3  C4  UNL     1      25.716 -13.864 -22.015  1.00  0.00     0.120 C 
HETATM    4  N2  UNL     1      24.479 -14.061 -22.249  1.00  0.00    -0.287 N 
ATOM      5  H2  UNL     1      24.158 -13.963 -23.212  1.00  0.00     0.188 HD
BRANCH   4   6
HETATM    6  N1  UNL     1      23.534 -14.400 -21.286  1.00  0.00    -0.308 N 
HETATM    7  C2  UNL     1      22.320 -14.565 -21.633  1.00  0.00    -0.004 C 
HETATM    8  C1  UNL     1      21.927 -14.396 -23.043  1.00  0.00     0.064 C 
HETATM    9  C3  UNL     1      21.295 -14.924 -20.633  1.00  0.00     0.064 C 
ATOM     10  H1  UNL     1      23.812 -14.516 -20.312  1.00  0.00     0.186 HD
ENDBRANCH   4   6
BRANCH   3  11
HETATM   11  C5  UNL     1      26.628 -13.509 -23.114  1.00  0.00     0.164 C 
HETATM   12 BR1  UNL     1      25.608 -12.646 -24.525  1.00  0.00    -0.088 Br
ENDBRANCH   3  11
ENDBRANCH   1   3
BRANCH   1  13
HETATM   13  N4  UNL     1      27.207 -14.938 -20.381  1.00  0.00    -0.275 N 
ATOM     14  H4  UNL     1      27.004 -15.936 -20.434  1.00  0.00     0.189 HD
BRANCH  13  15
HETATM   15  C6  UNL     1      28.495 -14.486 -19.985  1.00  0.00     0.187 C 
HETATM   16  S1  UNL     1      28.713 -12.849 -19.948  1.00  0.00    -0.040 SA
BRANCH  15  17
HETATM   17  N5  UNL     1      29.526 -15.379 -19.643  1.00  0.00    -0.358 N 
ATOM     18  H5  UNL     1      29.597 -15.710 -18.681  1.00  0.00     0.162 HD
BRANCH  17  19
HETATM   19  C7  UNL     1      30.477 -15.838 -20.609  1.00  0.00     0.021 C 
HETATM   20  C8  UNL     1      30.958 -17.239 -20.248  1.00  0.00     0.037 C 
HETATM   21  C9  UNL     1      31.707 -14.971 -20.691  1.00  0.00     0.037 C 
HETATM   22  C10 UNL     1      29.842 -15.968 -21.999  1.00  0.00     0.037 C 
ENDBRANCH  17  19
ENDBRANCH  15  17
ENDBRANCH  13  15
ENDBRANCH   1  13
TORSDOF 7
ENDMDL
