MODEL 1
REMARK VINA RESULT: -7.752625070      0.000      0.000
REMARK  6 active torsions:
REMARK  status: ('A' for Active; 'I' for Inactive)
REMARK       I    between atoms: C2_2  and  N1_4 
REMARK    1  A    between atoms: N1_4  and  C3_6 
REMARK    2  A    between atoms: C7_10  and  O2_11 
REMARK    3  A    between atoms: C7_10  and  C8_13 
REMARK    4  A    between atoms: C9_14  and  C10_15 
REMARK    5  A    between atoms: C10_15  and  C11_16 
REMARK       I    between atoms: C11_16  and  N2_18 
REMARK    6  A    between atoms: N2_18  and  C12_20 
ROOT
HETATM    1  C3  UNL     1      29.298 -14.697 -20.719  1.00  0.00     0.088 C 
HETATM    2  C4  UNL     1      29.717 -13.325 -20.346  1.00  0.00     0.025 C 
HETATM    3  C5  UNL     1      29.008 -12.278 -21.182  1.00  0.00     0.006 C 
HETATM    4  C6  UNL     1      27.536 -12.464 -20.857  1.00  0.00     0.051 C 
HETATM    5  C7  UNL     1      27.105 -13.729 -21.527  1.00  0.00     0.123 C 
HETATM    6  C16 UNL     1      28.112 -14.793 -21.618  1.00  0.00     0.076 C 
ENDROOT
BRANCH   5   7
HETATM    7  O2  UNL     1      26.667 -13.361 -22.825  1.00  0.00    -0.377 OA
ATOM      8  H2  UNL     1      25.799 -12.989 -22.716  1.00  0.00     0.211 HD
ENDBRANCH   5   7
BRANCH   5   9
HETATM    9  C8  UNL     1      25.888 -14.250 -20.861  1.00  0.00    -0.068 C 
HETATM   10  C9  UNL     1      24.886 -14.656 -20.314  1.00  0.00    -0.094 C 
BRANCH  10  11
HETATM   11  C10 UNL     1      23.669 -15.120 -19.650  1.00  0.00     0.196 C 
BRANCH  11  12
HETATM   12  C11 UNL     1      22.519 -14.928 -20.534  1.00  0.00     0.229 C 
HETATM   13  O3  UNL     1      21.358 -14.994 -20.055  1.00  0.00    -0.273 OA
HETATM   14  N2  UNL     1      22.619 -14.665 -21.926  1.00  0.00    -0.352 N 
ATOM     15  H2  UNL     1      23.554 -14.607 -22.331  1.00  0.00     0.163 HD
BRANCH  14  16
HETATM   16  C12 UNL     1      21.509 -14.476 -22.800  1.00  0.00     0.022 C 
HETATM   17  C13 UNL     1      20.485 -13.506 -22.282  1.00  0.00     0.037 C 
HETATM   18  C14 UNL     1      20.819 -15.803 -23.036  1.00  0.00     0.037 C 
HETATM   19  C15 UNL     1      22.018 -14.020 -24.172  1.00  0.00     0.037 C 
ENDBRANCH  14  16
ENDBRANCH  11  12
ENDBRANCH  10  11
ENDBRANCH   5   9
BRANCH   1  20
HETATM   20  N1  UNL     1      30.436 -15.383 -21.303  1.00  0.00    -0.357 N 
HETATM   21  C2  UNL     1      31.224 -16.324 -20.576  1.00  0.00     0.213 C 
HETATM   22  C1  UNL     1      32.372 -17.005 -21.187  1.00  0.00     0.117 C 
HETATM   23  O1  UNL     1      30.944 -16.589 -19.379  1.00  0.00    -0.274 OA
ATOM     24  H1  UNL     1      30.682 -15.184 -22.273  1.00  0.00     0.162 HD
ENDBRANCH   1  20
TORSDOF 6
ENDMDL
MODEL 2
REMARK VINA RESULT: -7.711284081      2.122      2.273
REMARK  6 active torsions:
REMARK  status: ('A' for Active; 'I' for Inactive)
REMARK       I    between atoms: C2_2  and  N1_4 
REMARK    1  A    between atoms: N1_4  and  C3_6 
REMARK    2  A    between atoms: C7_10  and  O2_11 
REMARK    3  A    between atoms: C7_10  and  C8_13 
REMARK    4  A    between atoms: C9_14  and  C10_15 
REMARK    5  A    between atoms: C10_15  and  C11_16 
REMARK       I    between atoms: C11_16  and  N2_18 
REMARK    6  A    between atoms: N2_18  and  C12_20 
ROOT
HETATM    1  C3  UNL     1      28.539 -12.146 -19.868  1.00  0.00     0.088 C 
HETATM    2  C4  UNL     1      28.324 -10.893 -20.630  1.00  0.00     0.025 C 
HETATM    3  C5  UNL     1      27.957 -11.174 -22.074  1.00  0.00     0.006 C 
HETATM    4  C6  UNL     1      26.654 -11.949 -21.992  1.00  0.00     0.051 C 
HETATM    5  C7  UNL     1      26.997 -13.316 -21.497  1.00  0.00     0.123 C 
HETATM    6  C16 UNL     1      28.115 -13.403 -20.549  1.00  0.00     0.076 C 
ENDROOT
BRANCH   5   7
HETATM    7  O2  UNL     1      27.271 -14.098 -22.647  1.00  0.00    -0.377 OA
ATOM      8  H2  UNL     1      27.753 -14.859 -22.342  1.00  0.00     0.211 HD
ENDBRANCH   5   7
BRANCH   5   9
HETATM    9  C8  UNL     1      25.793 -13.943 -20.903  1.00  0.00    -0.068 C 
HETATM   10  C9  UNL     1      24.817 -14.453 -20.397  1.00  0.00    -0.094 C 
BRANCH  10  11
HETATM   11  C10 UNL     1      23.650 -15.063 -19.762  1.00  0.00     0.196 C 
BRANCH  11  12
HETATM   12  C11 UNL     1      22.480 -14.913 -20.628  1.00  0.00     0.229 C 
HETATM   13  O3  UNL     1      21.331 -15.065 -20.140  1.00  0.00    -0.273 OA
HETATM   14  N2  UNL     1      22.547 -14.601 -22.012  1.00  0.00    -0.352 N 
ATOM     15  H2  UNL     1      23.472 -14.473 -22.423  1.00  0.00     0.163 HD
BRANCH  14  16
HETATM   16  C12 UNL     1      21.418 -14.452 -22.869  1.00  0.00     0.022 C 
HETATM   17  C13 UNL     1      20.404 -13.462 -22.371  1.00  0.00     0.037 C 
HETATM   18  C14 UNL     1      20.726 -15.789 -23.031  1.00  0.00     0.037 C 
HETATM   19  C15 UNL     1      21.895 -14.056 -24.270  1.00  0.00     0.037 C 
ENDBRANCH  14  16
ENDBRANCH  11  12
ENDBRANCH  10  11
ENDBRANCH   5   9
BRANCH   1  20
HETATM   20  N1  UNL     1      29.939 -12.219 -19.491  1.00  0.00    -0.357 N 
HETATM   21  C2  UNL     1      30.367 -12.641 -18.197  1.00  0.00     0.213 C 
HETATM   22  C1  UNL     1      31.789 -12.707 -17.837  1.00  0.00     0.117 C 
HETATM   23  O1  UNL     1      29.519 -12.969 -17.328  1.00  0.00    -0.274 OA
ATOM     24  H1  UNL     1      30.646 -11.959 -20.180  1.00  0.00     0.162 HD
ENDBRANCH   1  20
TORSDOF 6
ENDMDL
MODEL 3
REMARK VINA RESULT: -7.438540503      1.697      7.852
REMARK  6 active torsions:
REMARK  status: ('A' for Active; 'I' for Inactive)
REMARK       I    between atoms: C2_2  and  N1_4 
REMARK    1  A    between atoms: N1_4  and  C3_6 
REMARK    2  A    between atoms: C7_10  and  O2_11 
REMARK    3  A    between atoms: C7_10  and  C8_13 
REMARK    4  A    between atoms: C9_14  and  C10_15 
REMARK    5  A    between atoms: C10_15  and  C11_16 
REMARK       I    between atoms: C11_16  and  N2_18 
REMARK    6  A    between atoms: N2_18  and  C12_20 
ROOT
HETATM    1  C3  UNL     1      24.495 -14.148 -22.533  1.00  0.00     0.088 C 
HETATM    2  C4  UNL     1      24.898 -13.534 -23.820  1.00  0.00     0.025 C 
HETATM    3  C5  UNL     1      25.837 -12.363 -23.610  1.00  0.00     0.006 C 
HETATM    4  C6  UNL     1      27.055 -12.968 -22.932  1.00  0.00     0.051 C 
HETATM    5  C7  UNL     1      26.652 -13.288 -21.529  1.00  0.00     0.123 C 
HETATM    6  C16 UNL     1      25.258 -13.702 -21.331  1.00  0.00     0.076 C 
ENDROOT
BRANCH   5   7
HETATM    7  O2  UNL     1      26.929 -12.128 -20.763  1.00  0.00    -0.377 OA
ATOM      8  H2  UNL     1      26.086 -11.762 -20.520  1.00  0.00     0.211 HD
ENDBRANCH   5   7
BRANCH   5   9
HETATM    9  C8  UNL     1      27.560 -14.320 -20.978  1.00  0.00    -0.068 C 
HETATM   10  C9  UNL     1      28.288 -15.181 -20.532  1.00  0.00    -0.094 C 
BRANCH  10  11
HETATM   11  C10 UNL     1      29.148 -16.237 -20.002  1.00  0.00     0.196 C 
BRANCH  11  12
HETATM   12  C11 UNL     1      30.520 -16.042 -20.473  1.00  0.00     0.229 C 
HETATM   13  O3  UNL     1      31.303 -15.323 -19.803  1.00  0.00    -0.273 OA
HETATM   14  N2  UNL     1      31.045 -16.620 -21.660  1.00  0.00    -0.352 N 
ATOM     15  H2  UNL     1      30.422 -17.207 -22.216  1.00  0.00     0.163 HD
BRANCH  14  16
HETATM   16  C12 UNL     1      32.377 -16.439 -22.133  1.00  0.00     0.022 C 
HETATM   17  C13 UNL     1      33.424 -16.570 -21.063  1.00  0.00     0.037 C 
HETATM   18  C14 UNL     1      32.512 -15.065 -22.754  1.00  0.00     0.037 C 
HETATM   19  C15 UNL     1      32.652 -17.437 -23.262  1.00  0.00     0.037 C 
ENDBRANCH  14  16
ENDBRANCH  11  12
ENDBRANCH  10  11
ENDBRANCH   5   9
BRANCH   1  20
HETATM   20  N1  UNL     1      23.073 -13.927 -22.344  1.00  0.00    -0.357 N 
HETATM   21  C2  UNL     1      22.314 -14.606 -21.343  1.00  0.00     0.213 C 
HETATM   22  C1  UNL     1      20.876 -14.366 -21.171  1.00  0.00     0.117 C 
HETATM   23  O1  UNL     1      22.874 -15.434 -20.581  1.00  0.00    -0.274 OA
ATOM     24  H1  UNL     1      22.597 -13.259 -22.950  1.00  0.00     0.162 HD
ENDBRANCH   1  20
TORSDOF 6
ENDMDL
MODEL 4
REMARK VINA RESULT: -7.433277125      3.701      5.591
REMARK  6 active torsions:
REMARK  status: ('A' for Active; 'I' for Inactive)
REMARK       I    between atoms: C2_2  and  N1_4 
REMARK    1  A    between atoms: N1_4  and  C3_6 
REMARK    2  A    between atoms: C7_10  and  O2_11 
REMARK    3  A    between atoms: C7_10  and  C8_13 
REMARK    4  A    between atoms: C9_14  and  C10_15 
REMARK    5  A    between atoms: C10_15  and  C11_16 
REMARK       I    between atoms: C11_16  and  N2_18 
REMARK    6  A    between atoms: N2_18  and  C12_20 
ROOT
HETATM    1  C3  UNL     1      25.408 -13.927 -25.982  1.00  0.00     0.088 C 
HETATM    2  C4  UNL     1      26.828 -14.233 -26.276  1.00  0.00     0.025 C 
HETATM    3  C5  UNL     1      27.763 -13.255 -25.594  1.00  0.00     0.006 C 
HETATM    4  C6  UNL     1      27.499 -13.446 -24.110  1.00  0.00     0.051 C 
HETATM    5  C7  UNL     1      26.164 -12.835 -23.829  1.00  0.00     0.123 C 
HETATM    6  C16 UNL     1      25.168 -12.926 -24.903  1.00  0.00     0.076 C 
ENDROOT
BRANCH   5   7
HETATM    7  O2  UNL     1      26.410 -11.477 -23.506  1.00  0.00    -0.377 OA
ATOM      8  H2  UNL     1      25.607 -11.008 -23.701  1.00  0.00     0.211 HD
ENDBRANCH   5   7
BRANCH   5   9
HETATM    9  C8  UNL     1      25.607 -13.416 -22.585  1.00  0.00    -0.068 C 
HETATM   10  C9  UNL     1      25.132 -13.890 -21.576  1.00  0.00    -0.094 C 
BRANCH  10  11
HETATM   11  C10 UNL     1      24.533 -14.460 -20.371  1.00  0.00     0.196 C 
BRANCH  11  12
HETATM   12  C11 UNL     1      23.137 -14.813 -20.631  1.00  0.00     0.229 C 
HETATM   13  O3  UNL     1      22.434 -15.271 -19.694  1.00  0.00    -0.273 OA
HETATM   14  N2  UNL     1      22.501 -14.672 -21.893  1.00  0.00    -0.352 N 
ATOM     15  H2  UNL     1      23.056 -14.300 -22.664  1.00  0.00     0.163 HD
BRANCH  14  16
HETATM   16  C12 UNL     1      21.143 -15.011 -22.162  1.00  0.00     0.022 C 
HETATM   17  C13 UNL     1      20.649 -16.202 -21.391  1.00  0.00     0.037 C 
HETATM   18  C14 UNL     1      20.978 -15.309 -23.637  1.00  0.00     0.037 C 
HETATM   19  C15 UNL     1      20.253 -13.796 -21.880  1.00  0.00     0.037 C 
ENDBRANCH  14  16
ENDBRANCH  11  12
ENDBRANCH  10  11
ENDBRANCH   5   9
BRANCH   1  20
HETATM   20  N1  UNL     1      24.763 -13.511 -27.215  1.00  0.00    -0.357 N 
HETATM   21  C2  UNL     1      23.432 -13.897 -27.556  1.00  0.00     0.213 C 
HETATM   22  C1  UNL     1      22.801 -13.465 -28.808  1.00  0.00     0.117 C 
HETATM   23  O1  UNL     1      22.768 -14.626 -26.776  1.00  0.00    -0.274 OA
ATOM     24  H1  UNL     1      25.283 -12.919 -27.863  1.00  0.00     0.162 HD
ENDBRANCH   1  20
TORSDOF 6
ENDMDL
MODEL 5
REMARK VINA RESULT: -7.393666416      5.671      8.369
REMARK  6 active torsions:
REMARK  status: ('A' for Active; 'I' for Inactive)
REMARK       I    between atoms: C2_2  and  N1_4 
REMARK    1  A    between atoms: N1_4  and  C3_6 
REMARK    2  A    between atoms: C7_10  and  O2_11 
REMARK    3  A    between atoms: C7_10  and  C8_13 
REMARK    4  A    between atoms: C9_14  and  C10_15 
REMARK    5  A    between atoms: C10_15  and  C11_16 
REMARK       I    between atoms: C11_16  and  N2_18 
REMARK    6  A    between atoms: N2_18  and  C12_20 
ROOT
HETATM    1  C3  UNL     1      32.936  -9.441 -17.652  1.00  0.00     0.088 C 
HETATM    2  C4  UNL     1      33.061  -9.505 -16.177  1.00  0.00     0.025 C 
HETATM    3  C5  UNL     1      31.742  -9.213 -15.491  1.00  0.00     0.006 C 
HETATM    4  C6  UNL     1      30.811 -10.314 -15.970  1.00  0.00     0.051 C 
HETATM    5  C7  UNL     1      30.485 -10.010 -17.396  1.00  0.00     0.123 C 
HETATM    6  C16 UNL     1      31.545  -9.371 -18.184  1.00  0.00     0.076 C 
ENDROOT
BRANCH   5   7
HETATM    7  O2  UNL     1      29.331  -9.186 -17.373  1.00  0.00    -0.377 OA
ATOM      8  H2  UNL     1      29.015  -9.146 -18.268  1.00  0.00     0.211 HD
ENDBRANCH   5   7
BRANCH   5   9
HETATM    9  C8  UNL     1      30.039 -11.249 -18.076  1.00  0.00    -0.068 C 
HETATM   10  C9  UNL     1      29.659 -12.251 -18.642  1.00  0.00    -0.094 C 
BRANCH  10  11
HETATM   11  C10 UNL     1      29.180 -13.445 -19.336  1.00  0.00     0.196 C 
BRANCH  11  12
HETATM   12  C11 UNL     1      30.316 -14.284 -19.718  1.00  0.00     0.229 C 
HETATM   13  O3  UNL     1      31.311 -14.358 -18.953  1.00  0.00    -0.273 OA
HETATM   14  N2  UNL     1      30.381 -15.040 -20.919  1.00  0.00    -0.352 N 
ATOM     15  H2  UNL     1      29.582 -14.993 -21.551  1.00  0.00     0.163 HD
BRANCH  14  16
HETATM   16  C12 UNL     1      31.480 -15.861 -21.306  1.00  0.00     0.022 C 
HETATM   17  C13 UNL     1      32.815 -15.182 -21.193  1.00  0.00     0.037 C 
HETATM   18  C14 UNL     1      31.301 -16.303 -22.743  1.00  0.00     0.037 C 
HETATM   19  C15 UNL     1      31.471 -17.145 -20.470  1.00  0.00     0.037 C 
ENDBRANCH  14  16
ENDBRANCH  11  12
ENDBRANCH  10  11
ENDBRANCH   5   9
BRANCH   1  20
HETATM   20  N1  UNL     1      33.722  -8.318 -18.131  1.00  0.00    -0.357 N 
HETATM   21  C2  UNL     1      35.075  -8.453 -18.562  1.00  0.00     0.213 C 
HETATM   22  C1  UNL     1      35.851  -7.304 -19.042  1.00  0.00     0.117 C 
HETATM   23  O1  UNL     1      35.635  -9.579 -18.537  1.00  0.00    -0.274 OA
ATOM     24  H1  UNL     1      33.288  -7.395 -18.160  1.00  0.00     0.162 HD
ENDBRANCH   1  20
TORSDOF 6
ENDMDL
