MODEL 1
REMARK VINA RESULT: -7.964522983      0.000      0.000
REMARK  4 active torsions:
REMARK  status: ('A' for Active; 'I' for Inactive)
REMARK    1  A    between atoms: S1_2  and  C2_4 
REMARK    2  A    between atoms: C8_11  and  N1_12 
REMARK       I    between atoms: N1_12  and  C9_14 
REMARK    3  A    between atoms: C9_14  and  C10_16 
REMARK    4  A    between atoms: C16_24  and  O3_25 
ROOT
HETATM    1  N1  UNL     1      -4.502  -6.453  15.387  1.00  0.00    -0.324 N 
ATOM      2  H1  UNL     1      -5.226  -5.801  15.086  1.00  0.00     0.169 HD
HETATM    3  C9  UNL     1      -3.288  -5.840  15.252  1.00  0.00     0.271 C 
HETATM    4  O2  UNL     1      -2.197  -6.393  15.454  1.00  0.00    -0.266 OA
ENDROOT
BRANCH   1   5
HETATM    5  C8  UNL     1      -5.111  -7.630  15.779  1.00  0.00     0.030 C 
HETATM    6  C7  UNL     1      -5.538  -7.922  16.968  1.00  0.00     0.035 C 
HETATM    7  C6  UNL     1      -6.223  -9.212  17.417  1.00  0.00     0.058 C 
HETATM    8 CL1  UNL     1      -5.374  -6.749  18.308  1.00  0.00    -0.087 Cl
HETATM    9  C5  UNL     1      -6.465  -9.967  16.166  1.00  0.00    -0.004 C 
HETATM   10  C4  UNL     1      -6.853 -11.365  16.203  1.00  0.00     0.006 C 
HETATM   11  C18 UNL     1      -5.020  -9.971  15.560  1.00  0.00     0.012 C 
HETATM   12  C3  UNL     1      -6.128 -11.992  14.998  1.00  0.00     0.018 C 
HETATM   13  C2  UNL     1      -4.761 -11.328  15.224  1.00  0.00     0.083 C 
HETATM   14  C17 UNL     1      -5.103  -8.792  14.689  1.00  0.00     0.065 C 
BRANCH  13  15
HETATM   15  S1  UNL     1      -3.464 -11.872  14.200  1.00  0.00     0.015 S 
HETATM   16  C1  UNL     1      -3.910 -11.410  12.485  1.00  0.00     0.127 C 
HETATM   17  O1  UNL     1      -3.509 -13.418  14.170  1.00  0.00    -0.258 OA
ENDBRANCH  13  15
ENDBRANCH   1   5
BRANCH   3  18
HETATM   18  C10 UNL     1      -3.185  -4.385  14.821  1.00  0.00     0.106 C 
HETATM   19  N2  UNL     1      -2.421  -3.535  15.554  1.00  0.00    -0.366 N 
HETATM   20  C11 UNL     1      -2.951  -2.613  16.460  1.00  0.00     0.061 C 
ATOM     21  H2  UNL     1      -1.408  -3.572  15.437  1.00  0.00     0.165 HD
HETATM   22  C12 UNL     1      -3.416  -1.293  15.960  1.00  0.00     0.044 C 
HETATM   23  C13 UNL     1      -3.303  -1.031  14.507  1.00  0.00     0.005 C 
HETATM   24  C14 UNL     1      -4.135  -1.932  13.649  1.00  0.00     0.003 C 
HETATM   25  C15 UNL     1      -3.257  -2.843  12.823  1.00  0.00     0.038 C 
HETATM   26  C16 UNL     1      -3.199  -4.238  13.340  1.00  0.00     0.173 C 
BRANCH  26  27
HETATM   27  O3  UNL     1      -4.400  -4.849  12.824  1.00  0.00    -0.389 OA
ATOM     28  H3  UNL     1      -4.504  -4.598  11.914  1.00  0.00     0.210 HD
ENDBRANCH  26  27
ENDBRANCH   3  18
TORSDOF 4
ENDMDL
MODEL 2
REMARK VINA RESULT: -7.601308680      1.485      1.764
REMARK  4 active torsions:
REMARK  status: ('A' for Active; 'I' for Inactive)
REMARK    1  A    between atoms: S1_2  and  C2_4 
REMARK    2  A    between atoms: C8_11  and  N1_12 
REMARK       I    between atoms: N1_12  and  C9_14 
REMARK    3  A    between atoms: C9_14  and  C10_16 
REMARK    4  A    between atoms: C16_24  and  O3_25 
ROOT
HETATM    1  N1  UNL     1      -4.841  -6.858  16.065  1.00  0.00    -0.324 N 
ATOM      2  H1  UNL     1      -5.103  -5.928  16.390  1.00  0.00     0.169 HD
HETATM    3  C9  UNL     1      -4.035  -6.720  14.970  1.00  0.00     0.271 C 
HETATM    4  O2  UNL     1      -3.613  -7.664  14.286  1.00  0.00    -0.266 OA
ENDROOT
BRANCH   1   5
HETATM    5  C8  UNL     1      -5.432  -7.792  16.894  1.00  0.00     0.030 C 
HETATM    6  C7  UNL     1      -5.664  -7.665  18.163  1.00  0.00     0.035 C 
HETATM    7  C6  UNL     1      -6.326  -8.681  19.093  1.00  0.00     0.058 C 
HETATM    8 CL1  UNL     1      -5.218  -6.161  19.024  1.00  0.00    -0.087 Cl
HETATM    9  C5  UNL     1      -6.814  -9.753  18.195  1.00  0.00    -0.004 C 
HETATM   10  C4  UNL     1      -7.258 -11.027  18.729  1.00  0.00     0.006 C 
HETATM   11  C18 UNL     1      -5.495 -10.086  17.417  1.00  0.00     0.012 C 
HETATM   12  C3  UNL     1      -6.780 -12.061  17.692  1.00  0.00     0.018 C 
HETATM   13  C2  UNL     1      -5.364 -11.500  17.494  1.00  0.00     0.083 C 
HETATM   14  C17 UNL     1      -5.666  -9.226  16.239  1.00  0.00     0.065 C 
BRANCH  13  15
HETATM   15  S1  UNL     1      -4.288 -12.457  16.518  1.00  0.00     0.015 S 
HETATM   16  C1  UNL     1      -4.872 -12.316  14.787  1.00  0.00     0.127 C 
HETATM   17  O1  UNL     1      -4.547 -13.943  16.856  1.00  0.00    -0.258 OA
ENDBRANCH  13  15
ENDBRANCH   1   5
BRANCH   3  18
HETATM   18  C10 UNL     1      -3.590  -5.347  14.489  1.00  0.00     0.106 C 
HETATM   19  N2  UNL     1      -2.610  -4.699  15.170  1.00  0.00    -0.366 N 
HETATM   20  C11 UNL     1      -2.859  -3.652  16.062  1.00  0.00     0.061 C 
ATOM     21  H2  UNL     1      -1.644  -4.991  15.023  1.00  0.00     0.165 HD
HETATM   22  C12 UNL     1      -3.000  -2.271  15.535  1.00  0.00     0.044 C 
HETATM   23  C13 UNL     1      -2.881  -2.078  14.071  1.00  0.00     0.005 C 
HETATM   24  C14 UNL     1      -3.944  -2.763  13.269  1.00  0.00     0.003 C 
HETATM   25  C15 UNL     1      -3.352  -3.883  12.446  1.00  0.00     0.038 C 
HETATM   26  C16 UNL     1      -3.624  -5.236  13.005  1.00  0.00     0.173 C 
BRANCH  26  27
HETATM   27  O3  UNL     1      -4.958  -5.539  12.547  1.00  0.00    -0.389 OA
ATOM     28  H3  UNL     1      -5.133  -5.036  11.761  1.00  0.00     0.210 HD
ENDBRANCH  26  27
ENDBRANCH   3  18
TORSDOF 4
ENDMDL
MODEL 3
REMARK VINA RESULT: -7.418490266      5.406      7.613
REMARK  4 active torsions:
REMARK  status: ('A' for Active; 'I' for Inactive)
REMARK    1  A    between atoms: S1_2  and  C2_4 
REMARK    2  A    between atoms: C8_11  and  N1_12 
REMARK       I    between atoms: N1_12  and  C9_14 
REMARK    3  A    between atoms: C9_14  and  C10_16 
REMARK    4  A    between atoms: C16_24  and  O3_25 
ROOT
HETATM    1  N1  UNL     1      -4.641 -12.131  15.182  1.00  0.00    -0.324 N 
ATOM      2  H1  UNL     1      -4.796 -13.065  14.805  1.00  0.00     0.169 HD
HETATM    3  C9  UNL     1      -3.764 -11.477  14.361  1.00  0.00     0.271 C 
HETATM    4  O2  UNL     1      -3.303 -10.349  14.585  1.00  0.00    -0.266 OA
ENDROOT
BRANCH   1   5
HETATM    5  C8  UNL     1      -5.393 -11.994  16.332  1.00  0.00     0.030 C 
HETATM    6  C7  UNL     1      -6.516 -12.584  16.599  1.00  0.00     0.035 C 
HETATM    7  C6  UNL     1      -7.355 -12.453  17.869  1.00  0.00     0.058 C 
HETATM    8 CL1  UNL     1      -7.249 -13.718  15.425  1.00  0.00    -0.087 Cl
HETATM    9  C5  UNL     1      -6.516 -11.662  18.797  1.00  0.00    -0.004 C 
HETATM   10  C4  UNL     1      -7.076 -11.097  20.010  1.00  0.00     0.006 C 
HETATM   11  C18 UNL     1      -6.192 -10.424  17.894  1.00  0.00     0.012 C 
HETATM   12  C3  UNL     1      -6.369  -9.736  20.156  1.00  0.00     0.018 C 
HETATM   13  C2  UNL     1      -6.499  -9.289  18.693  1.00  0.00     0.083 C 
HETATM   14  C17 UNL     1      -4.906 -10.847  17.327  1.00  0.00     0.065 C 
BRANCH  13  15
HETATM   15  S1  UNL     1      -6.006  -7.658  18.341  1.00  0.00     0.015 S 
HETATM   16  C1  UNL     1      -5.713  -6.832  19.949  1.00  0.00     0.127 C 
HETATM   17  O1  UNL     1      -7.237  -6.908  17.780  1.00  0.00    -0.258 OA
ENDBRANCH  13  15
ENDBRANCH   1   5
BRANCH   3  18
HETATM   18  C10 UNL     1      -3.268 -12.115  13.072  1.00  0.00     0.106 C 
HETATM   19  N2  UNL     1      -3.034 -13.452  13.049  1.00  0.00    -0.366 N 
HETATM   20  C11 UNL     1      -1.753 -14.008  13.121  1.00  0.00     0.061 C 
ATOM     21  H2  UNL     1      -3.832 -14.082  12.975  1.00  0.00     0.165 HD
HETATM   22  C12 UNL     1      -0.953 -14.144  11.877  1.00  0.00     0.044 C 
HETATM   23  C13 UNL     1      -1.559 -13.663  10.614  1.00  0.00     0.005 C 
HETATM   24  C14 UNL     1      -1.830 -12.191  10.579  1.00  0.00     0.003 C 
HETATM   25  C15 UNL     1      -3.317 -11.923  10.555  1.00  0.00     0.038 C 
HETATM   26  C16 UNL     1      -3.857 -11.471  11.867  1.00  0.00     0.173 C 
BRANCH  26  27
HETATM   27  O3  UNL     1      -3.555 -10.061  11.899  1.00  0.00    -0.389 OA
ATOM     28  H3  UNL     1      -4.323  -9.590  12.198  1.00  0.00     0.210 HD
ENDBRANCH  26  27
ENDBRANCH   3  18
TORSDOF 4
ENDMDL
MODEL 4
REMARK VINA RESULT: -7.348633498      5.284      8.072
REMARK  4 active torsions:
REMARK  status: ('A' for Active; 'I' for Inactive)
REMARK    1  A    between atoms: S1_2  and  C2_4 
REMARK    2  A    between atoms: C8_11  and  N1_12 
REMARK       I    between atoms: N1_12  and  C9_14 
REMARK    3  A    between atoms: C9_14  and  C10_16 
REMARK    4  A    between atoms: C16_24  and  O3_25 
ROOT
HETATM    1  N1  UNL     1      -4.738 -12.314  15.615  1.00  0.00    -0.324 N 
ATOM      2  H1  UNL     1      -3.754 -12.451  15.843  1.00  0.00     0.169 HD
HETATM    3  C9  UNL     1      -4.895 -12.485  14.268  1.00  0.00     0.271 C 
HETATM    4  O2  UNL     1      -5.960 -12.304  13.658  1.00  0.00    -0.266 OA
ENDROOT
BRANCH   1   5
HETATM    5  C8  UNL     1      -5.419 -12.025  16.781  1.00  0.00     0.030 C 
HETATM    6  C7  UNL     1      -6.479 -12.622  17.229  1.00  0.00     0.035 C 
HETATM    7  C6  UNL     1      -7.238 -12.323  18.521  1.00  0.00     0.058 C 
HETATM    8 CL1  UNL     1      -7.213 -13.976  16.319  1.00  0.00    -0.087 Cl
HETATM    9  C5  UNL     1      -6.392 -11.342  19.238  1.00  0.00    -0.004 C 
HETATM   10  C4  UNL     1      -6.906 -10.610  20.380  1.00  0.00     0.006 C 
HETATM   11  C18 UNL     1      -6.214 -10.259  18.120  1.00  0.00     0.012 C 
HETATM   12  C3  UNL     1      -6.283  -9.208  20.244  1.00  0.00     0.018 C 
HETATM   13  C2  UNL     1      -6.541  -9.023  18.742  1.00  0.00     0.083 C 
HETATM   14  C17 UNL     1      -4.943 -10.702  17.532  1.00  0.00     0.065 C 
BRANCH  13  15
HETATM   15  S1  UNL     1      -6.182  -7.451  18.088  1.00  0.00     0.015 S 
HETATM   16  C1  UNL     1      -5.954  -6.322  19.512  1.00  0.00     0.127 C 
HETATM   17  O1  UNL     1      -7.471  -6.917  17.420  1.00  0.00    -0.258 OA
ENDBRANCH  13  15
ENDBRANCH   1   5
BRANCH   3  18
HETATM   18  C10 UNL     1      -3.732 -12.916  13.388  1.00  0.00     0.106 C 
HETATM   19  N2  UNL     1      -3.758 -14.151  12.824  1.00  0.00    -0.366 N 
HETATM   20  C11 UNL     1      -3.020 -15.233  13.311  1.00  0.00     0.061 C 
ATOM     21  H2  UNL     1      -4.346 -14.296  12.003  1.00  0.00     0.165 HD
HETATM   22  C12 UNL     1      -1.605 -15.392  12.888  1.00  0.00     0.044 C 
HETATM   23  C13 UNL     1      -1.043 -14.373  11.971  1.00  0.00     0.005 C 
HETATM   24  C14 UNL     1      -0.980 -12.992  12.546  1.00  0.00     0.003 C 
HETATM   25  C15 UNL     1      -1.937 -12.071  11.827  1.00  0.00     0.038 C 
HETATM   26  C16 UNL     1      -3.175 -11.782  12.602  1.00  0.00     0.173 C 
BRANCH  26  27
HETATM   27  O3  UNL     1      -2.777 -10.736  13.513  1.00  0.00    -0.389 OA
ATOM     28  H3  UNL     1      -2.393 -10.026  13.014  1.00  0.00     0.210 HD
ENDBRANCH  26  27
ENDBRANCH   3  18
TORSDOF 4
ENDMDL
MODEL 5
REMARK VINA RESULT: -7.262553942      5.492      9.503
REMARK  4 active torsions:
REMARK  status: ('A' for Active; 'I' for Inactive)
REMARK    1  A    between atoms: S1_2  and  C2_4 
REMARK    2  A    between atoms: C8_11  and  N1_12 
REMARK       I    between atoms: N1_12  and  C9_14 
REMARK    3  A    between atoms: C9_14  and  C10_16 
REMARK    4  A    between atoms: C16_24  and  O3_25 
ROOT
HETATM    1  N1  UNL     1      -5.828 -13.440  16.917  1.00  0.00    -0.324 N 
ATOM      2  H1  UNL     1      -4.893 -13.807  17.096  1.00  0.00     0.169 HD
HETATM    3  C9  UNL     1      -6.334 -14.070  15.815  1.00  0.00     0.271 C 
HETATM    4  O2  UNL     1      -7.419 -13.791  15.285  1.00  0.00    -0.266 OA
ENDROOT
BRANCH   1   5
HETATM    5  C8  UNL     1      -6.114 -12.490  17.879  1.00  0.00     0.030 C 
HETATM    6  C7  UNL     1      -6.942 -12.615  18.869  1.00  0.00     0.035 C 
HETATM    7  C6  UNL     1      -7.262 -11.581  19.948  1.00  0.00     0.058 C 
HETATM    8 CL1  UNL     1      -7.854 -14.135  19.107  1.00  0.00    -0.087 Cl
HETATM    9  C5  UNL     1      -6.285 -10.490  19.728  1.00  0.00    -0.004 C 
HETATM   10  C4  UNL     1      -6.444  -9.204  20.381  1.00  0.00     0.006 C 
HETATM   11  C18 UNL     1      -6.532 -10.197  18.208  1.00  0.00     0.012 C 
HETATM   12  C3  UNL     1      -5.973  -8.183  19.329  1.00  0.00     0.018 C 
HETATM   13  C2  UNL     1      -6.708  -8.789  18.124  1.00  0.00     0.083 C 
HETATM   14  C17 UNL     1      -5.494 -11.047  17.610  1.00  0.00     0.065 C 
BRANCH  13  15
HETATM   15  S1  UNL     1      -6.662  -7.864  16.651  1.00  0.00     0.015 S 
HETATM   16  C1  UNL     1      -7.016  -9.027  15.281  1.00  0.00     0.127 C 
HETATM   17  O1  UNL     1      -5.191  -7.461  16.398  1.00  0.00    -0.258 OA
ENDBRANCH  13  15
ENDBRANCH   1   5
BRANCH   3  18
HETATM   18  C10 UNL     1      -5.570 -15.192  15.130  1.00  0.00     0.106 C 
HETATM   19  N2  UNL     1      -6.224 -16.343  14.828  1.00  0.00    -0.366 N 
HETATM   20  C11 UNL     1      -6.100 -17.516  15.579  1.00  0.00     0.061 C 
ATOM     21  H2  UNL     1      -6.837 -16.353  14.013  1.00  0.00     0.165 HD
HETATM   22  C12 UNL     1      -4.965 -18.434  15.303  1.00  0.00     0.044 C 
HETATM   23  C13 UNL     1      -4.008 -18.044  14.242  1.00  0.00     0.005 C 
HETATM   24  C14 UNL     1      -3.248 -16.786  14.527  1.00  0.00     0.003 C 
HETATM   25  C15 UNL     1      -3.651 -15.691  13.566  1.00  0.00     0.038 C 
HETATM   26  C16 UNL     1      -4.554 -14.675  14.172  1.00  0.00     0.173 C 
BRANCH  26  27
HETATM   27  O3  UNL     1      -3.658 -13.792  14.878  1.00  0.00    -0.389 OA
ATOM     28  H3  UNL     1      -3.463 -14.169  15.727  1.00  0.00     0.210 HD
ENDBRANCH  26  27
ENDBRANCH   3  18
TORSDOF 4
ENDMDL
