MODEL 1
REMARK VINA RESULT: -8.443806069      0.000      0.000
REMARK  7 active torsions:
REMARK  status: ('A' for Active; 'I' for Inactive)
REMARK    1  A    between atoms: N1_1  and  C1_5 
REMARK    2  A    between atoms: C6_10  and  N2_11 
REMARK    3  A    between atoms: N2_11  and  C7_13 
REMARK    4  A    between atoms: C9_15  and  O1_16 
REMARK    5  A    between atoms: O1_16  and  C10_17 
REMARK    6  A    between atoms: C16_25  and  N4_26 
REMARK       I    between atoms: N4_26  and  C17_28 
REMARK    7  A    between atoms: C17_28  and  O3_30 
ROOT
HETATM    1  C7  UNL     1      -5.937  -9.586  15.087  1.00  0.00     0.121 A 
HETATM    2  C8  UNL     1      -6.370  -9.106  16.303  1.00  0.00     0.105 A 
HETATM    3  C9  UNL     1      -5.925  -7.871  16.781  1.00  0.00     0.161 A 
HETATM    4  N3  UNL     1      -5.068  -7.200  15.998  1.00  0.00    -0.170 N 
ATOM      5  H3  UNL     1      -4.722  -6.294  16.315  1.00  0.00     0.186 HD
HETATM    6  C16 UNL     1      -4.645  -7.675  14.806  1.00  0.00     0.690 A 
HETATM    7  N5  UNL     1      -5.084  -8.859  14.368  1.00  0.00    -0.176 N 
ATOM      8  H5  UNL     1      -4.760  -9.213  13.468  1.00  0.00     0.186 HD
ENDROOT
BRANCH   1   9
HETATM    9  N2  UNL     1      -6.389 -10.735  14.708  1.00  0.00    -0.369 N 
ATOM     10  H2  UNL     1      -7.389 -10.821  14.528  1.00  0.00     0.161 HD
BRANCH   9  11
HETATM   11  C6  UNL     1      -5.560 -11.907  14.523  1.00  0.00     0.113 C 
HETATM   12  C1  UNL     1      -6.418 -13.136  14.572  1.00  0.00     0.206 C 
HETATM   13  C2  UNL     1      -6.684 -13.658  15.936  1.00  0.00     0.035 C 
HETATM   14  C3  UNL     1      -5.322 -13.942  16.585  1.00  0.00     0.002 C 
HETATM   15  C4  UNL     1      -4.686 -12.585  16.782  1.00  0.00     0.002 C 
HETATM   16  C5  UNL     1      -4.417 -11.906  15.471  1.00  0.00     0.027 C 
BRANCH  12  17
HETATM   17  N1  UNL     1      -5.866 -14.180  13.747  1.00  0.00    -0.073 N 
ATOM     18  H13 UNL     1      -5.084 -13.849  13.182  1.00  0.00     0.274 HD
ATOM     19  H12 UNL     1      -5.365 -14.878  14.297  1.00  0.00     0.274 HD
ATOM     20  H11 UNL     1      -6.601 -14.598  13.177  1.00  0.00     0.274 HD
ENDBRANCH  12  17
ENDBRANCH   9  11
ENDBRANCH   1   9
BRANCH   3  21
HETATM   21  O1  UNL     1      -6.355  -7.384  17.999  1.00  0.00    -0.329 OA
BRANCH  21  22
HETATM   22  C10 UNL     1      -5.765  -7.562  19.237  1.00  0.00     0.135 C 
HETATM   23  C11 UNL     1      -6.484  -8.654  20.059  1.00  0.00     0.037 C 
HETATM   24  C12 UNL     1      -6.849  -7.869  21.261  1.00  0.00    -0.011 C 
HETATM   25  C13 UNL     1      -7.380  -6.570  20.653  1.00  0.00     0.012 C 
HETATM   26  C15 UNL     1      -5.568  -7.062  21.516  1.00  0.00     0.012 C 
HETATM   27  C14 UNL     1      -5.953  -6.408  20.180  1.00  0.00     0.016 C 
ENDBRANCH  21  22
ENDBRANCH   3  21
BRANCH   6  28
HETATM   28  N4  UNL     1      -3.817  -6.991  14.084  1.00  0.00    -0.134 N 
HETATM   29  C17 UNL     1      -3.171  -5.855  14.600  1.00  0.00     0.396 C 
HETATM   30  O2  UNL     1      -3.520  -4.707  14.162  1.00  0.00    -0.236 OA
ATOM     31  H4  UNL     1      -3.629  -7.282  13.125  1.00  0.00     0.189 HD
BRANCH  29  32
HETATM   32  O3  UNL     1      -2.173  -5.870  15.553  1.00  0.00    -0.185 OA
HETATM   33 CL1  UNL     1      -1.927  -4.602  16.679  1.00  0.00     0.072 Cl
ENDBRANCH  29  32
ENDBRANCH   6  28
TORSDOF 7
ENDMDL
MODEL 2
REMARK VINA RESULT: -8.325070455      3.418      6.284
REMARK  7 active torsions:
REMARK  status: ('A' for Active; 'I' for Inactive)
REMARK    1  A    between atoms: N1_1  and  C1_5 
REMARK    2  A    between atoms: C6_10  and  N2_11 
REMARK    3  A    between atoms: N2_11  and  C7_13 
REMARK    4  A    between atoms: C9_15  and  O1_16 
REMARK    5  A    between atoms: O1_16  and  C10_17 
REMARK    6  A    between atoms: C16_25  and  N4_26 
REMARK       I    between atoms: N4_26  and  C17_28 
REMARK    7  A    between atoms: C17_28  and  O3_30 
ROOT
HETATM    1  C7  UNL     1      -4.764  -7.490  15.665  1.00  0.00     0.121 A 
HETATM    2  C8  UNL     1      -5.493  -7.902  16.758  1.00  0.00     0.105 A 
HETATM    3  C9  UNL     1      -5.960  -9.216  16.850  1.00  0.00     0.161 A 
HETATM    4  N3  UNL     1      -5.658 -10.030  15.828  1.00  0.00    -0.170 N 
ATOM      5  H3  UNL     1      -5.982 -10.997  15.861  1.00  0.00     0.186 HD
HETATM    6  C16 UNL     1      -4.943  -9.622  14.758  1.00  0.00     0.690 A 
HETATM    7  N5  UNL     1      -4.507  -8.360  14.691  1.00  0.00    -0.176 N 
ATOM      8  H5  UNL     1      -3.968  -8.058  13.879  1.00  0.00     0.186 HD
ENDROOT
BRANCH   1   9
HETATM    9  N2  UNL     1      -4.366  -6.262  15.647  1.00  0.00    -0.369 N 
ATOM     10  H2  UNL     1      -4.988  -5.550  16.030  1.00  0.00     0.161 HD
BRANCH   9  11
HETATM   11  C6  UNL     1      -3.089  -5.836  15.114  1.00  0.00     0.113 C 
HETATM   12  C1  UNL     1      -2.376  -5.002  16.137  1.00  0.00     0.206 C 
HETATM   13  C2  UNL     1      -2.746  -3.565  16.138  1.00  0.00     0.035 C 
HETATM   14  C3  UNL     1      -2.463  -3.024  14.730  1.00  0.00     0.002 C 
HETATM   15  C4  UNL     1      -3.471  -3.706  13.833  1.00  0.00     0.002 C 
HETATM   16  C5  UNL     1      -3.254  -5.190  13.788  1.00  0.00     0.027 C 
BRANCH  12  17
HETATM   17  N1  UNL     1      -0.948  -5.140  16.007  1.00  0.00    -0.073 N 
ATOM     18  H13 UNL     1      -0.651  -5.143  15.031  1.00  0.00     0.274 HD
ATOM     19  H12 UNL     1      -0.453  -4.302  16.310  1.00  0.00     0.274 HD
ATOM     20  H11 UNL     1      -0.633  -5.973  16.505  1.00  0.00     0.274 HD
ENDBRANCH  12  17
ENDBRANCH   9  11
ENDBRANCH   1   9
BRANCH   3  21
HETATM   21  O1  UNL     1      -6.692  -9.635  17.943  1.00  0.00    -0.329 OA
BRANCH  21  22
HETATM   22  C10 UNL     1      -6.270 -10.442  18.984  1.00  0.00     0.135 C 
HETATM   23  C11 UNL     1      -7.239 -11.623  19.215  1.00  0.00     0.037 C 
HETATM   24  C12 UNL     1      -7.596 -11.385  20.633  1.00  0.00    -0.011 C 
HETATM   25  C13 UNL     1      -7.844  -9.876  20.658  1.00  0.00     0.012 C 
HETATM   26  C15 UNL     1      -6.236 -11.031  21.249  1.00  0.00     0.012 C 
HETATM   27  C14 UNL     1      -6.368  -9.801  20.338  1.00  0.00     0.016 C 
ENDBRANCH  21  22
ENDBRANCH   3  21
BRANCH   6  28
HETATM   28  N4  UNL     1      -4.676 -10.445  13.795  1.00  0.00    -0.134 N 
HETATM   29  C17 UNL     1      -4.927 -11.821  13.926  1.00  0.00     0.396 C 
HETATM   30  O2  UNL     1      -3.930 -12.612  14.035  1.00  0.00    -0.236 OA
ATOM     31  H4  UNL     1      -4.277 -10.089  12.927  1.00  0.00     0.189 HD
BRANCH  29  32
HETATM   32  O3  UNL     1      -6.178 -12.404  13.944  1.00  0.00    -0.185 OA
HETATM   33 CL1  UNL     1      -6.798 -13.258  15.295  1.00  0.00     0.072 Cl
ENDBRANCH  29  32
ENDBRANCH   6  28
TORSDOF 7
ENDMDL
MODEL 3
REMARK VINA RESULT: -8.246346224      0.952      1.504
REMARK  7 active torsions:
REMARK  status: ('A' for Active; 'I' for Inactive)
REMARK    1  A    between atoms: N1_1  and  C1_5 
REMARK    2  A    between atoms: C6_10  and  N2_11 
REMARK    3  A    between atoms: N2_11  and  C7_13 
REMARK    4  A    between atoms: C9_15  and  O1_16 
REMARK    5  A    between atoms: O1_16  and  C10_17 
REMARK    6  A    between atoms: C16_25  and  N4_26 
REMARK       I    between atoms: N4_26  and  C17_28 
REMARK    7  A    between atoms: C17_28  and  O3_30 
ROOT
HETATM    1  C7  UNL     1      -5.860  -9.600  15.067  1.00  0.00     0.121 A 
HETATM    2  C8  UNL     1      -6.314  -9.135  16.281  1.00  0.00     0.105 A 
HETATM    3  C9  UNL     1      -5.904  -7.891  16.766  1.00  0.00     0.161 A 
HETATM    4  N3  UNL     1      -5.059  -7.196  15.992  1.00  0.00    -0.170 N 
ATOM      5  H3  UNL     1      -4.738  -6.282  16.314  1.00  0.00     0.186 HD
HETATM    6  C16 UNL     1      -4.615  -7.655  14.802  1.00  0.00     0.690 A 
HETATM    7  N5  UNL     1      -5.021  -8.850  14.357  1.00  0.00    -0.176 N 
ATOM      8  H5  UNL     1      -4.681  -9.192  13.458  1.00  0.00     0.186 HD
ENDROOT
BRANCH   1   9
HETATM    9  N2  UNL     1      -6.279 -10.759  14.681  1.00  0.00    -0.369 N 
ATOM     10  H2  UNL     1      -6.869 -10.803  13.850  1.00  0.00     0.161 HD
BRANCH   9  11
HETATM   11  C6  UNL     1      -5.963 -11.998  15.359  1.00  0.00     0.113 C 
HETATM   12  C1  UNL     1      -4.474 -12.131  15.484  1.00  0.00     0.206 C 
HETATM   13  C2  UNL     1      -3.799 -12.719  14.300  1.00  0.00     0.035 C 
HETATM   14  C3  UNL     1      -4.431 -14.096  14.056  1.00  0.00     0.002 C 
HETATM   15  C4  UNL     1      -5.850 -13.810  13.618  1.00  0.00     0.002 C 
HETATM   16  C5  UNL     1      -6.640 -13.148  14.709  1.00  0.00     0.027 C 
BRANCH  12  17
HETATM   17  N1  UNL     1      -4.124 -12.875  16.667  1.00  0.00    -0.073 N 
ATOM     18  H13 UNL     1      -4.671 -13.731  16.758  1.00  0.00     0.274 HD
ATOM     19  H12 UNL     1      -3.199 -13.298  16.594  1.00  0.00     0.274 HD
ATOM     20  H11 UNL     1      -4.208 -12.278  17.490  1.00  0.00     0.274 HD
ENDBRANCH  12  17
ENDBRANCH   9  11
ENDBRANCH   1   9
BRANCH   3  21
HETATM   21  O1  UNL     1      -6.355  -7.419  17.983  1.00  0.00    -0.329 OA
BRANCH  21  22
HETATM   22  C10 UNL     1      -5.764  -7.577  19.223  1.00  0.00     0.135 C 
HETATM   23  C11 UNL     1      -6.473  -8.668  20.056  1.00  0.00     0.037 C 
HETATM   24  C12 UNL     1      -6.847  -7.874  21.249  1.00  0.00    -0.011 C 
HETATM   25  C13 UNL     1      -7.392  -6.587  20.627  1.00  0.00     0.012 C 
HETATM   26  C15 UNL     1      -5.576  -7.051  21.497  1.00  0.00     0.012 C 
HETATM   27  C14 UNL     1      -5.966  -6.416  20.153  1.00  0.00     0.016 C 
ENDBRANCH  21  22
ENDBRANCH   3  21
BRANCH   6  28
HETATM   28  N4  UNL     1      -3.799  -6.948  14.088  1.00  0.00    -0.134 N 
HETATM   29  C17 UNL     1      -3.146  -5.829  14.628  1.00  0.00     0.396 C 
HETATM   30  O2  UNL     1      -3.503  -4.668  14.233  1.00  0.00    -0.236 OA
ATOM     31  H4  UNL     1      -3.628  -7.208  13.117  1.00  0.00     0.189 HD
BRANCH  29  32
HETATM   32  O3  UNL     1      -2.132  -5.873  15.564  1.00  0.00    -0.185 OA
HETATM   33 CL1  UNL     1      -1.836  -4.616  16.691  1.00  0.00     0.072 Cl
ENDBRANCH  29  32
ENDBRANCH   6  28
TORSDOF 7
ENDMDL
MODEL 4
REMARK VINA RESULT: -8.148741826      1.691      2.117
REMARK  7 active torsions:
REMARK  status: ('A' for Active; 'I' for Inactive)
REMARK    1  A    between atoms: N1_1  and  C1_5 
REMARK    2  A    between atoms: C6_10  and  N2_11 
REMARK    3  A    between atoms: N2_11  and  C7_13 
REMARK    4  A    between atoms: C9_15  and  O1_16 
REMARK    5  A    between atoms: O1_16  and  C10_17 
REMARK    6  A    between atoms: C16_25  and  N4_26 
REMARK       I    between atoms: N4_26  and  C17_28 
REMARK    7  A    between atoms: C17_28  and  O3_30 
ROOT
HETATM    1  C7  UNL     1      -4.865  -9.149  14.650  1.00  0.00     0.121 A 
HETATM    2  C8  UNL     1      -5.538  -9.073  15.849  1.00  0.00     0.105 A 
HETATM    3  C9  UNL     1      -5.532  -7.892  16.596  1.00  0.00     0.161 A 
HETATM    4  N3  UNL     1      -4.844  -6.862  16.082  1.00  0.00    -0.170 N 
ATOM      5  H3  UNL     1      -4.818  -5.984  16.600  1.00  0.00     0.186 HD
HETATM    6  C16 UNL     1      -4.185  -6.941  14.906  1.00  0.00     0.690 A 
HETATM    7  N5  UNL     1      -4.204  -8.081  14.207  1.00  0.00    -0.176 N 
ATOM      8  H5  UNL     1      -3.704  -8.135  13.320  1.00  0.00     0.186 HD
ENDROOT
BRANCH   1   9
HETATM    9  N2  UNL     1      -4.913 -10.271  14.013  1.00  0.00    -0.369 N 
ATOM     10  H2  UNL     1      -5.803 -10.551  13.601  1.00  0.00     0.161 HD
BRANCH   9  11
HETATM   11  C6  UNL     1      -3.779 -11.156  13.851  1.00  0.00     0.113 C 
HETATM   12  C1  UNL     1      -3.477 -11.314  12.390  1.00  0.00     0.206 C 
HETATM   13  C2  UNL     1      -4.270 -12.362  11.699  1.00  0.00     0.035 C 
HETATM   14  C3  UNL     1      -4.013 -13.684  12.436  1.00  0.00     0.002 C 
HETATM   15  C4  UNL     1      -4.655 -13.513  13.794  1.00  0.00     0.002 C 
HETATM   16  C5  UNL     1      -3.986 -12.428  14.587  1.00  0.00     0.027 C 
BRANCH  12  17
HETATM   17  N1  UNL     1      -2.071 -11.546  12.180  1.00  0.00    -0.073 N 
ATOM     18  H13 UNL     1      -1.902 -12.318  11.536  1.00  0.00     0.274 HD
ATOM     19  H12 UNL     1      -1.637 -10.801  11.635  1.00  0.00     0.274 HD
ATOM     20  H11 UNL     1      -1.604 -11.687  13.076  1.00  0.00     0.274 HD
ENDBRANCH  12  17
ENDBRANCH   9  11
ENDBRANCH   1   9
BRANCH   3  21
HETATM   21  O1  UNL     1      -6.204  -7.810  17.799  1.00  0.00    -0.329 OA
BRANCH  21  22
HETATM   22  C10 UNL     1      -5.672  -7.896  19.073  1.00  0.00     0.135 C 
HETATM   23  C11 UNL     1      -6.556  -8.758  20.001  1.00  0.00     0.037 C 
HETATM   24  C12 UNL     1      -6.832  -7.774  21.073  1.00  0.00    -0.011 C 
HETATM   25  C13 UNL     1      -7.162  -6.509  20.279  1.00  0.00     0.012 C 
HETATM   26  C15 UNL     1      -5.457  -7.124  21.272  1.00  0.00     0.012 C 
HETATM   27  C14 UNL     1      -5.716  -6.611  19.847  1.00  0.00     0.016 C 
ENDBRANCH  21  22
ENDBRANCH   3  21
BRANCH   6  28
HETATM   28  N4  UNL     1      -3.534  -5.920  14.449  1.00  0.00    -0.134 N 
HETATM   29  C17 UNL     1      -2.715  -5.147  15.287  1.00  0.00     0.396 C 
HETATM   30  O2  UNL     1      -3.101  -3.969  15.594  1.00  0.00    -0.236 OA
ATOM     31  H4  UNL     1      -3.618  -5.673  13.462  1.00  0.00     0.189 HD
BRANCH  29  32
HETATM   32  O3  UNL     1      -1.507  -5.555  15.816  1.00  0.00    -0.185 OA
HETATM   33 CL1  UNL     1      -0.756  -4.784  17.151  1.00  0.00     0.072 Cl
ENDBRANCH  29  32
ENDBRANCH   6  28
TORSDOF 7
ENDMDL
MODEL 5
REMARK VINA RESULT: -8.036064235      3.327      6.334
REMARK  7 active torsions:
REMARK  status: ('A' for Active; 'I' for Inactive)
REMARK    1  A    between atoms: N1_1  and  C1_5 
REMARK    2  A    between atoms: C6_10  and  N2_11 
REMARK    3  A    between atoms: N2_11  and  C7_13 
REMARK    4  A    between atoms: C9_15  and  O1_16 
REMARK    5  A    between atoms: O1_16  and  C10_17 
REMARK    6  A    between atoms: C16_25  and  N4_26 
REMARK       I    between atoms: N4_26  and  C17_28 
REMARK    7  A    between atoms: C17_28  and  O3_30 
ROOT
HETATM    1  C7  UNL     1      -4.585  -7.672  15.483  1.00  0.00     0.121 A 
HETATM    2  C8  UNL     1      -4.899  -8.153  16.735  1.00  0.00     0.105 A 
HETATM    3  C9  UNL     1      -5.154  -9.512  16.932  1.00  0.00     0.161 A 
HETATM    4  N3  UNL     1      -5.076 -10.299  15.849  1.00  0.00    -0.170 N 
ATOM      5  H3  UNL     1      -5.256 -11.298  15.955  1.00  0.00     0.186 HD
HETATM    6  C16 UNL     1      -4.768  -9.823  14.623  1.00  0.00     0.690 A 
HETATM    7  N5  UNL     1      -4.528  -8.518  14.457  1.00  0.00    -0.176 N 
ATOM      8  H5  UNL     1      -4.298  -8.164  13.528  1.00  0.00     0.186 HD
ENDROOT
BRANCH   1   9
HETATM    9  N2  UNL     1      -4.363  -6.405  15.374  1.00  0.00    -0.369 N 
ATOM     10  H2  UNL     1      -5.121  -5.762  15.604  1.00  0.00     0.161 HD
BRANCH   9  11
HETATM   11  C6  UNL     1      -3.100  -5.841  14.945  1.00  0.00     0.113 C 
HETATM   12  C1  UNL     1      -2.468  -5.107  16.089  1.00  0.00     0.206 C 
HETATM   13  C2  UNL     1      -2.925  -3.705  16.260  1.00  0.00     0.035 C 
HETATM   14  C3  UNL     1      -2.637  -2.972  14.942  1.00  0.00     0.002 C 
HETATM   15  C4  UNL     1      -3.577  -3.590  13.931  1.00  0.00     0.002 C 
HETATM   16  C5  UNL     1      -3.268  -5.040  13.706  1.00  0.00     0.027 C 
BRANCH  12  17
HETATM   17  N1  UNL     1      -1.031  -5.145  15.991  1.00  0.00    -0.073 N 
ATOM     18  H13 UNL     1      -0.715  -5.717  15.209  1.00  0.00     0.274 HD
ATOM     19  H12 UNL     1      -0.643  -4.252  15.687  1.00  0.00     0.274 HD
ATOM     20  H11 UNL     1      -0.631  -5.454  16.878  1.00  0.00     0.274 HD
ENDBRANCH  12  17
ENDBRANCH   9  11
ENDBRANCH   1   9
BRANCH   3  21
HETATM   21  O1  UNL     1      -5.469 -10.002  18.184  1.00  0.00    -0.329 OA
BRANCH  21  22
HETATM   22  C10 UNL     1      -6.696  -9.966  18.821  1.00  0.00     0.135 C 
HETATM   23  C11 UNL     1      -6.719  -8.913  19.952  1.00  0.00     0.037 C 
HETATM   24  C12 UNL     1      -7.071  -9.780  21.099  1.00  0.00    -0.011 C 
HETATM   25  C13 UNL     1      -6.161 -10.991  20.886  1.00  0.00     0.012 C 
HETATM   26  C15 UNL     1      -8.166 -10.673  20.500  1.00  0.00     0.012 C 
HETATM   27  C14 UNL     1      -6.999 -11.186  19.642  1.00  0.00     0.016 C 
ENDBRANCH  21  22
ENDBRANCH   3  21
BRANCH   6  28
HETATM   28  N4  UNL     1      -4.704 -10.621  13.606  1.00  0.00    -0.134 N 
HETATM   29  C17 UNL     1      -5.062 -11.974  13.722  1.00  0.00     0.396 C 
HETATM   30  O2  UNL     1      -4.138 -12.853  13.672  1.00  0.00    -0.236 OA
ATOM     31  H4  UNL     1      -4.388 -10.261  12.705  1.00  0.00     0.189 HD
BRANCH  29  32
HETATM   32  O3  UNL     1      -6.350 -12.446  13.885  1.00  0.00    -0.185 OA
HETATM   33 CL1  UNL     1      -6.890 -13.234  15.308  1.00  0.00     0.072 Cl
ENDBRANCH  29  32
ENDBRANCH   6  28
TORSDOF 7
ENDMDL
