MODEL 1
REMARK VINA RESULT: -8.491021107      0.000      0.000
REMARK  5 active torsions:
REMARK  status: ('A' for Active; 'I' for Inactive)
REMARK    1  A    between atoms: C2_3  and  C3_4 
REMARK       I    between atoms: C3_4  and  N2_6 
REMARK    2  A    between atoms: N2_6  and  C4_8 
REMARK    3  A    between atoms: C15_20  and  O2_21 
REMARK    4  A    between atoms: C16_23  and  N3_24 
REMARK    5  A    between atoms: N3_24  and  C17_26 
ROOT
HETATM    1  N1  UNL     1      -1.290  -3.206  14.560  1.00  0.00    -0.197 NA
HETATM    2  C1  UNL     1      -2.258  -3.789  14.283  1.00  0.00     0.068 C 
HETATM    3  C2  UNL     1      -3.483  -4.520  13.958  1.00  0.00     0.226 C 
ENDROOT
BRANCH   3   4
HETATM    4  C3  UNL     1      -3.439  -5.803  14.656  1.00  0.00     0.231 C 
HETATM    5  O1  UNL     1      -2.366  -6.285  15.155  1.00  0.00    -0.273 OA
HETATM    6  N2  UNL     1      -4.589  -6.620  14.835  1.00  0.00    -0.355 N 
ATOM      7  H2  UNL     1      -5.478  -6.292  14.457  1.00  0.00     0.162 HD
BRANCH   6   8
HETATM    8  C4  UNL     1      -4.566  -7.894  15.526  1.00  0.00     0.089 C 
HETATM    9  C5  UNL     1      -4.809  -7.672  16.969  1.00  0.00     0.030 C 
HETATM   10  C6  UNL     1      -6.044  -8.366  17.500  1.00  0.00     0.041 C 
HETATM   11  C7  UNL     1      -6.134  -9.757  17.014  1.00  0.00    -0.049 A 
HETATM   12  C8  UNL     1      -6.450 -10.772  17.867  1.00  0.00     0.045 A 
HETATM   13  C12 UNL     1      -5.874  -9.990  15.683  1.00  0.00    -0.049 A 
HETATM   14  C9  UNL     1      -6.514 -12.076  17.396  1.00  0.00     0.079 A 
HETATM   15  C10 UNL     1      -6.247 -12.286  16.050  1.00  0.00     0.012 A 
HETATM   16  O3  UNL     1      -6.846 -13.012  18.366  1.00  0.00    -0.345 OA
HETATM   17  C11 UNL     1      -5.925 -11.254  15.175  1.00  0.00     0.020 A 
HETATM   18  C14 UNL     1      -6.268 -13.633  15.431  1.00  0.00     0.240 C 
HETATM   19  F1  UNL     1      -7.492 -14.176  15.254  1.00  0.00    -0.241 F 
HETATM   20  C15 UNL     1      -5.270 -14.515  16.164  1.00  0.00     0.204 C 
HETATM   21  C16 UNL     1      -5.610 -14.942  17.512  1.00  0.00     0.039 C 
HETATM   22  C23 UNL     1      -6.905 -14.403  18.111  1.00  0.00     0.230 C 
HETATM   23  C13 UNL     1      -5.542  -8.833  14.853  1.00  0.00     0.064 C 
BRANCH  20  24
HETATM   24  O2  UNL     1      -4.063 -13.770  16.094  1.00  0.00    -0.387 OA
ATOM     25  H2  UNL     1      -3.393 -14.443  16.067  1.00  0.00     0.210 HD
ENDBRANCH  20  24
BRANCH  21  26
HETATM   26  N3  UNL     1      -5.524 -16.288  17.882  1.00  0.00    -0.388 N 
ATOM     27  H3  UNL     1      -4.984 -16.901  17.271  1.00  0.00     0.159 HD
BRANCH  26  28
HETATM   28  C17 UNL     1      -6.103 -16.873  19.002  1.00  0.00     0.081 C 
HETATM   29  C18 UNL     1      -5.271 -17.012  20.220  1.00  0.00     0.025 C 
HETATM   30  C19 UNL     1      -4.273 -18.140  19.969  1.00  0.00     0.002 C 
HETATM   31  C20 UNL     1      -5.048 -19.433  20.062  1.00  0.00     0.000 C 
HETATM   32  C21 UNL     1      -6.480 -19.263  19.675  1.00  0.00     0.002 C 
HETATM   33  C22 UNL     1      -6.732 -18.229  18.630  1.00  0.00     0.025 C 
ENDBRANCH  26  28
ENDBRANCH  21  26
ENDBRANCH   6   8
ENDBRANCH   3   4
TORSDOF 5
ENDMDL
MODEL 2
REMARK VINA RESULT: -8.154731501      1.597      2.001
REMARK  5 active torsions:
REMARK  status: ('A' for Active; 'I' for Inactive)
REMARK    1  A    between atoms: C2_3  and  C3_4 
REMARK       I    between atoms: C3_4  and  N2_6 
REMARK    2  A    between atoms: N2_6  and  C4_8 
REMARK    3  A    between atoms: C15_20  and  O2_21 
REMARK    4  A    between atoms: C16_23  and  N3_24 
REMARK    5  A    between atoms: N3_24  and  C17_26 
ROOT
HETATM    1  N1  UNL     1      -0.476  -3.636  16.308  1.00  0.00    -0.197 NA
HETATM    2  C1  UNL     1      -1.419  -3.978  15.718  1.00  0.00     0.068 C 
HETATM    3  C2  UNL     1      -2.616  -4.409  14.997  1.00  0.00     0.226 C 
ENDROOT
BRANCH   3   4
HETATM    4  C3  UNL     1      -2.895  -5.793  15.375  1.00  0.00     0.231 C 
HETATM    5  O1  UNL     1      -1.980  -6.678  15.488  1.00  0.00    -0.273 OA
HETATM    6  N2  UNL     1      -4.207  -6.266  15.647  1.00  0.00    -0.355 N 
ATOM      7  H2  UNL     1      -4.983  -5.608  15.573  1.00  0.00     0.162 HD
BRANCH   6   8
HETATM    8  C4  UNL     1      -4.502  -7.635  16.025  1.00  0.00     0.089 C 
HETATM    9  C5  UNL     1      -5.659  -7.648  16.949  1.00  0.00     0.030 C 
HETATM   10  C6  UNL     1      -6.850  -8.427  16.434  1.00  0.00     0.041 C 
HETATM   11  C7  UNL     1      -6.440  -9.723  15.858  1.00  0.00    -0.049 A 
HETATM   12  C8  UNL     1      -7.123 -10.864  16.157  1.00  0.00     0.045 A 
HETATM   13  C12 UNL     1      -5.344  -9.738  15.027  1.00  0.00    -0.049 A 
HETATM   14  C9  UNL     1      -6.714 -12.075  15.619  1.00  0.00     0.079 A 
HETATM   15  C10 UNL     1      -5.605 -12.065  14.784  1.00  0.00     0.012 A 
HETATM   16  O3  UNL     1      -7.495 -13.157  16.004  1.00  0.00    -0.345 OA
HETATM   17  C11 UNL     1      -4.905 -10.904  14.475  1.00  0.00     0.020 A 
HETATM   18  C14 UNL     1      -5.061 -13.296  14.161  1.00  0.00     0.240 C 
HETATM   19  F1  UNL     1      -5.795 -13.813  13.152  1.00  0.00    -0.241 F 
HETATM   20  C15 UNL     1      -4.704 -14.277  15.266  1.00  0.00     0.204 C 
HETATM   21  C16 UNL     1      -5.796 -14.917  15.981  1.00  0.00     0.039 C 
HETATM   22  C23 UNL     1      -7.214 -14.490  15.617  1.00  0.00     0.230 C 
HETATM   23  C13 UNL     1      -4.680  -8.460  14.771  1.00  0.00     0.064 C 
BRANCH  20  24
HETATM   24  O2  UNL     1      -3.843 -13.522  16.107  1.00  0.00    -0.387 OA
ATOM     25  H2  UNL     1      -3.057 -14.054  16.149  1.00  0.00     0.210 HD
ENDBRANCH  20  24
BRANCH  21  26
HETATM   26  N3  UNL     1      -5.825 -16.304  16.157  1.00  0.00    -0.388 N 
ATOM     27  H3  UNL     1      -5.885 -16.874  15.312  1.00  0.00     0.159 HD
BRANCH  26  28
HETATM   28  C17 UNL     1      -5.781 -16.982  17.369  1.00  0.00     0.081 C 
HETATM   29  C18 UNL     1      -6.798 -18.031  17.614  1.00  0.00     0.025 C 
HETATM   30  C19 UNL     1      -8.126 -17.328  17.891  1.00  0.00     0.002 C 
HETATM   31  C20 UNL     1      -8.030 -16.758  19.286  1.00  0.00     0.000 C 
HETATM   32  C21 UNL     1      -6.626 -16.423  19.666  1.00  0.00     0.002 C 
HETATM   33  C22 UNL     1      -5.757 -15.980  18.538  1.00  0.00     0.025 C 
ENDBRANCH  26  28
ENDBRANCH  21  26
ENDBRANCH   6   8
ENDBRANCH   3   4
TORSDOF 5
ENDMDL
MODEL 3
REMARK VINA RESULT: -8.086036643      0.986      1.399
REMARK  5 active torsions:
REMARK  status: ('A' for Active; 'I' for Inactive)
REMARK    1  A    between atoms: C2_3  and  C3_4 
REMARK       I    between atoms: C3_4  and  N2_6 
REMARK    2  A    between atoms: N2_6  and  C4_8 
REMARK    3  A    between atoms: C15_20  and  O2_21 
REMARK    4  A    between atoms: C16_23  and  N3_24 
REMARK    5  A    between atoms: N3_24  and  C17_26 
ROOT
HETATM    1  N1  UNL     1      -1.247  -3.215  14.547  1.00  0.00    -0.197 NA
HETATM    2  C1  UNL     1      -2.213  -3.796  14.258  1.00  0.00     0.068 C 
HETATM    3  C2  UNL     1      -3.435  -4.524  13.918  1.00  0.00     0.226 C 
ENDROOT
BRANCH   3   4
HETATM    4  C3  UNL     1      -3.421  -5.791  14.645  1.00  0.00     0.231 C 
HETATM    5  O1  UNL     1      -2.379  -6.242  15.233  1.00  0.00    -0.273 OA
HETATM    6  N2  UNL     1      -4.566  -6.626  14.758  1.00  0.00    -0.355 N 
ATOM      7  H2  UNL     1      -5.430  -6.323  14.309  1.00  0.00     0.162 HD
BRANCH   6   8
HETATM    8  C4  UNL     1      -4.571  -7.885  15.476  1.00  0.00     0.089 C 
HETATM    9  C5  UNL     1      -4.856  -7.631  16.907  1.00  0.00     0.030 C 
HETATM   10  C6  UNL     1      -6.111  -8.307  17.415  1.00  0.00     0.041 C 
HETATM   11  C7  UNL     1      -6.194  -9.708  16.956  1.00  0.00    -0.049 A 
HETATM   12  C8  UNL     1      -6.542 -10.702  17.821  1.00  0.00     0.045 A 
HETATM   13  C12 UNL     1      -5.896  -9.970  15.639  1.00  0.00    -0.049 A 
HETATM   14  C9  UNL     1      -6.600 -12.015  17.376  1.00  0.00     0.079 A 
HETATM   15  C10 UNL     1      -6.294 -12.256  16.043  1.00  0.00     0.012 A 
HETATM   16  O3  UNL     1      -6.966 -12.928  18.356  1.00  0.00    -0.345 OA
HETATM   17  C11 UNL     1      -5.939 -11.244  15.157  1.00  0.00     0.020 A 
HETATM   18  C14 UNL     1      -6.305 -13.616  15.453  1.00  0.00     0.240 C 
HETATM   19  F1  UNL     1      -7.526 -14.156  15.252  1.00  0.00    -0.241 F 
HETATM   20  C15 UNL     1      -5.335 -14.487  16.235  1.00  0.00     0.204 C 
HETATM   21  C16 UNL     1      -5.717 -14.883  17.581  1.00  0.00     0.039 C 
HETATM   22  C23 UNL     1      -7.026 -14.324  18.129  1.00  0.00     0.230 C 
HETATM   23  C13 UNL     1      -5.532  -8.833  14.795  1.00  0.00     0.064 C 
BRANCH  20  24
HETATM   24  O2  UNL     1      -4.122 -13.750  16.185  1.00  0.00    -0.387 OA
ATOM     25  H2  UNL     1      -3.516 -14.354  15.772  1.00  0.00     0.210 HD
ENDBRANCH  20  24
BRANCH  21  26
HETATM   26  N3  UNL     1      -5.651 -16.221  17.982  1.00  0.00    -0.388 N 
ATOM     27  H3  UNL     1      -5.372 -16.400  18.947  1.00  0.00     0.159 HD
BRANCH  26  28
HETATM   28  C17 UNL     1      -5.928 -17.332  17.195  1.00  0.00     0.081 C 
HETATM   29  C18 UNL     1      -7.306 -17.484  16.670  1.00  0.00     0.025 C 
HETATM   30  C19 UNL     1      -8.198 -17.908  17.836  1.00  0.00     0.002 C 
HETATM   31  C20 UNL     1      -7.887 -19.359  18.113  1.00  0.00     0.000 C 
HETATM   32  C21 UNL     1      -6.484 -19.718  17.748  1.00  0.00     0.002 C 
HETATM   33  C22 UNL     1      -5.489 -18.620  17.918  1.00  0.00     0.025 C 
ENDBRANCH  26  28
ENDBRANCH  21  26
ENDBRANCH   6   8
ENDBRANCH   3   4
TORSDOF 5
ENDMDL
MODEL 4
REMARK VINA RESULT: -8.056435208      1.703      2.120
REMARK  5 active torsions:
REMARK  status: ('A' for Active; 'I' for Inactive)
REMARK    1  A    between atoms: C2_3  and  C3_4 
REMARK       I    between atoms: C3_4  and  N2_6 
REMARK    2  A    between atoms: N2_6  and  C4_8 
REMARK    3  A    between atoms: C15_20  and  O2_21 
REMARK    4  A    between atoms: C16_23  and  N3_24 
REMARK    5  A    between atoms: N3_24  and  C17_26 
ROOT
HETATM    1  N1  UNL     1      -3.837  -3.520  13.024  1.00  0.00    -0.197 NA
HETATM    2  C1  UNL     1      -3.150  -3.784  13.925  1.00  0.00     0.068 C 
HETATM    3  C2  UNL     1      -2.275  -4.133  15.044  1.00  0.00     0.226 C 
ENDROOT
BRANCH   3   4
HETATM    4  C3  UNL     1      -2.588  -5.501  15.451  1.00  0.00     0.231 C 
HETATM    5  O1  UNL     1      -1.693  -6.341  15.806  1.00  0.00    -0.273 OA
HETATM    6  N2  UNL     1      -3.916  -6.009  15.484  1.00  0.00    -0.355 N 
ATOM      7  H2  UNL     1      -4.677  -5.388  15.209  1.00  0.00     0.162 HD
BRANCH   6   8
HETATM    8  C4  UNL     1      -4.245  -7.362  15.886  1.00  0.00     0.089 C 
HETATM    9  C5  UNL     1      -5.373  -7.327  16.845  1.00  0.00     0.030 C 
HETATM   10  C6  UNL     1      -6.605  -8.070  16.375  1.00  0.00     0.041 C 
HETATM   11  C7  UNL     1      -6.257  -9.385  15.801  1.00  0.00    -0.049 A 
HETATM   12  C8  UNL     1      -6.969 -10.498  16.135  1.00  0.00     0.045 A 
HETATM   13  C12 UNL     1      -5.188  -9.446  14.938  1.00  0.00    -0.049 A 
HETATM   14  C9  UNL     1      -6.618 -11.729  15.598  1.00  0.00     0.079 A 
HETATM   15  C10 UNL     1      -5.536 -11.765  14.730  1.00  0.00     0.012 A 
HETATM   16  O3  UNL     1      -7.424 -12.779  16.019  1.00  0.00    -0.345 OA
HETATM   17  C11 UNL     1      -4.806 -10.632  14.386  1.00  0.00     0.020 A 
HETATM   18  C14 UNL     1      -5.054 -13.021  14.104  1.00  0.00     0.240 C 
HETATM   19  F1  UNL     1      -5.835 -13.522  13.124  1.00  0.00    -0.241 F 
HETATM   20  C15 UNL     1      -4.696 -14.002  15.209  1.00  0.00     0.204 C 
HETATM   21  C16 UNL     1      -5.787 -14.596  15.965  1.00  0.00     0.039 C 
HETATM   22  C23 UNL     1      -7.201 -14.124  15.639  1.00  0.00     0.230 C 
HETATM   23  C13 UNL     1      -4.489  -8.195  14.647  1.00  0.00     0.064 C 
BRANCH  20  24
HETATM   24  O2  UNL     1      -3.785 -13.268  16.015  1.00  0.00    -0.387 OA
ATOM     25  H2  UNL     1      -4.045 -13.494  16.900  1.00  0.00     0.210 HD
ENDBRANCH  20  24
BRANCH  21  26
HETATM   26  N3  UNL     1      -5.858 -15.980  16.157  1.00  0.00    -0.388 N 
ATOM     27  H3  UNL     1      -5.921 -16.559  15.319  1.00  0.00     0.159 HD
BRANCH  26  28
HETATM   28  C17 UNL     1      -5.851 -16.643  17.377  1.00  0.00     0.081 C 
HETATM   29  C18 UNL     1      -6.683 -17.862  17.510  1.00  0.00     0.025 C 
HETATM   30  C19 UNL     1      -8.141 -17.416  17.597  1.00  0.00     0.002 C 
HETATM   31  C20 UNL     1      -8.336 -16.844  18.981  1.00  0.00     0.000 C 
HETATM   32  C21 UNL     1      -7.079 -16.258  19.534  1.00  0.00     0.002 C 
HETATM   33  C22 UNL     1      -6.164 -15.658  18.520  1.00  0.00     0.025 C 
ENDBRANCH  26  28
ENDBRANCH  21  26
ENDBRANCH   6   8
ENDBRANCH   3   4
TORSDOF 5
ENDMDL
MODEL 5
REMARK VINA RESULT: -8.050294958      1.297      1.457
REMARK  5 active torsions:
REMARK  status: ('A' for Active; 'I' for Inactive)
REMARK    1  A    between atoms: C2_3  and  C3_4 
REMARK       I    between atoms: C3_4  and  N2_6 
REMARK    2  A    between atoms: N2_6  and  C4_8 
REMARK    3  A    between atoms: C15_20  and  O2_21 
REMARK    4  A    between atoms: C16_23  and  N3_24 
REMARK    5  A    between atoms: N3_24  and  C17_26 
ROOT
HETATM    1  N1  UNL     1      -0.377  -3.603  16.263  1.00  0.00    -0.197 NA
HETATM    2  C1  UNL     1      -1.288  -3.977  15.644  1.00  0.00     0.068 C 
HETATM    3  C2  UNL     1      -2.448  -4.446  14.886  1.00  0.00     0.226 C 
ENDROOT
BRANCH   3   4
HETATM    4  C3  UNL     1      -2.780  -5.789  15.357  1.00  0.00     0.231 C 
HETATM    5  O1  UNL     1      -1.895  -6.626  15.745  1.00  0.00    -0.273 OA
HETATM    6  N2  UNL     1      -4.114  -6.274  15.421  1.00  0.00    -0.355 N 
ATOM      7  H2  UNL     1      -4.868  -5.654  15.123  1.00  0.00     0.162 HD
BRANCH   6   8
HETATM    8  C4  UNL     1      -4.463  -7.602  15.887  1.00  0.00     0.089 C 
HETATM    9  C5  UNL     1      -5.698  -7.527  16.700  1.00  0.00     0.030 C 
HETATM   10  C6  UNL     1      -6.849  -8.340  16.148  1.00  0.00     0.041 C 
HETATM   11  C7  UNL     1      -6.408  -9.684  15.725  1.00  0.00    -0.049 A 
HETATM   12  C8  UNL     1      -7.132 -10.789  16.058  1.00  0.00     0.045 A 
HETATM   13  C12 UNL     1      -5.241  -9.779  15.002  1.00  0.00    -0.049 A 
HETATM   14  C9  UNL     1      -6.694 -12.046  15.666  1.00  0.00     0.079 A 
HETATM   15  C10 UNL     1      -5.514 -12.117  14.938  1.00  0.00     0.012 A 
HETATM   16  O3  UNL     1      -7.523 -13.085  16.070  1.00  0.00    -0.345 OA
HETATM   17  C11 UNL     1      -4.772 -10.992  14.595  1.00  0.00     0.020 A 
HETATM   18  C14 UNL     1      -4.935 -13.401  14.476  1.00  0.00     0.240 C 
HETATM   19  F1  UNL     1      -5.582 -13.998  13.452  1.00  0.00    -0.241 F 
HETATM   20  C15 UNL     1      -4.693 -14.284  15.690  1.00  0.00     0.204 C 
HETATM   21  C16 UNL     1      -5.855 -14.851  16.355  1.00  0.00     0.039 C 
HETATM   22  C23 UNL     1      -7.228 -14.448  15.827  1.00  0.00     0.230 C 
HETATM   23  C13 UNL     1      -4.538  -8.533  14.698  1.00  0.00     0.064 C 
BRANCH  20  24
HETATM   24  O2  UNL     1      -3.901 -13.464  16.537  1.00  0.00    -0.387 OA
ATOM     25  H2  UNL     1      -3.147 -14.010  16.726  1.00  0.00     0.210 HD
ENDBRANCH  20  24
BRANCH  21  26
HETATM   26  N3  UNL     1      -5.920 -16.218  16.646  1.00  0.00    -0.388 N 
ATOM     27  H3  UNL     1      -5.357 -16.840  16.065  1.00  0.00     0.159 HD
BRANCH  26  28
HETATM   28  C17 UNL     1      -6.677 -16.811  17.649  1.00  0.00     0.081 C 
HETATM   29  C18 UNL     1      -6.396 -16.423  19.051  1.00  0.00     0.025 C 
HETATM   30  C19 UNL     1      -5.079 -17.084  19.455  1.00  0.00     0.002 C 
HETATM   31  C20 UNL     1      -5.377 -18.548  19.669  1.00  0.00     0.000 C 
HETATM   32  C21 UNL     1      -6.513 -19.024  18.825  1.00  0.00     0.002 C 
HETATM   33  C22 UNL     1      -6.645 -18.344  17.504  1.00  0.00     0.025 C 
ENDBRANCH  26  28
ENDBRANCH  21  26
ENDBRANCH   6   8
ENDBRANCH   3   4
TORSDOF 5
ENDMDL
