MODEL 1
REMARK VINA RESULT: -6.198211650      0.000      0.000
REMARK  7 active torsions:
REMARK  status: ('A' for Active; 'I' for Inactive)
REMARK    1  A    between atoms: C4_6  and  C5_7 
REMARK    2  A    between atoms: C6_8  and  C7_9 
REMARK    3  A    between atoms: C8_12  and  O4_13 
REMARK    4  A    between atoms: C8_12  and  C9_15 
REMARK    5  A    between atoms: C9_15  and  C10_16 
REMARK    6  A    between atoms: C16_24  and  C17_25 
REMARK    7  A    between atoms: C17_25  and  O6_26 
ROOT
HETATM    1  C5  UNL     1      -4.557 -10.854  15.751  1.00  0.00     0.162 C 
HETATM    2  C6  UNL     1      -4.097 -12.284  15.630  1.00  0.00     0.160 C 
HETATM    3  C8  UNL     1      -3.835 -12.179  14.069  1.00  0.00     0.154 C 
HETATM    4  C14 UNL     1      -5.318 -12.049  13.801  1.00  0.00     0.255 C 
HETATM    5  O5  UNL     1      -6.082 -12.650  13.054  1.00  0.00    -0.270 OA
HETATM    6  N1  UNL     1      -5.660 -10.961  14.719  1.00  0.00    -0.342 N 
HETATM    7  C15 UNL     1      -6.818 -10.144  14.643  1.00  0.00     0.153 C 
ENDROOT
BRANCH   1   8
HETATM    8  C4  UNL     1      -5.170 -10.457  17.023  1.00  0.00     0.087 A 
HETATM    9  O1  UNL     1      -5.597 -11.194  17.998  1.00  0.00    -0.304 OA
HETATM   10  C3  UNL     1      -6.112 -10.467  18.974  1.00  0.00     0.128 A 
HETATM   11  C2  UNL     1      -6.016  -9.152  18.617  1.00  0.00    -0.010 A 
HETATM   12 BR1  UNL     1      -6.880 -11.084  20.631  1.00  0.00    -0.022 Br
HETATM   13  C1  UNL     1      -6.458  -7.985  19.459  1.00  0.00     0.052 C 
HETATM   14  C16 UNL     1      -5.426  -9.139  17.388  1.00  0.00     0.006 A 
BRANCH  14  15
HETATM   15  C17 UNL     1      -5.011  -7.891  16.677  1.00  0.00     0.206 C 
BRANCH  15  16
HETATM   16  O6  UNL     1      -5.995  -7.242  15.991  1.00  0.00    -0.396 OA
ATOM     17  H6  UNL     1      -5.824  -7.086  15.070  1.00  0.00     0.209 HD
ENDBRANCH  15  16
ENDBRANCH  14  15
ENDBRANCH   1   8
BRANCH   2  18
HETATM   18  C7  UNL     1      -5.071 -13.265  15.865  1.00  0.00     0.183 C 
HETATM   19  O2  UNL     1      -4.750 -14.563  15.794  1.00  0.00    -0.648 OA
HETATM   20  O3  UNL     1      -6.412 -13.164  16.173  1.00  0.00    -0.648 OA
ENDBRANCH   2  18
BRANCH   3  21
HETATM   21  O4  UNL     1      -3.305 -10.946  13.823  1.00  0.00    -0.379 OA
ATOM     22  H4  UNL     1      -3.669 -10.636  13.002  1.00  0.00     0.211 HD
ENDBRANCH   3  21
BRANCH   3  23
HETATM   23  C9  UNL     1      -3.111 -13.319  13.548  1.00  0.00     0.057 C 
BRANCH  23  24
HETATM   24  C10 UNL     1      -2.492 -13.283  12.204  1.00  0.00    -0.048 C 
HETATM   25  C11 UNL     1      -2.345 -14.788  11.819  1.00  0.00     0.014 C 
HETATM   26  C12 UNL     1      -1.070 -12.763  12.195  1.00  0.00     0.014 C 
HETATM   27  C13 UNL     1      -3.285 -12.679  11.089  1.00  0.00     0.014 C 
ENDBRANCH  23  24
ENDBRANCH   3  23
TORSDOF 7
ENDMDL
MODEL 2
REMARK VINA RESULT: -6.067191312      2.560      3.950
REMARK  7 active torsions:
REMARK  status: ('A' for Active; 'I' for Inactive)
REMARK    1  A    between atoms: C4_6  and  C5_7 
REMARK    2  A    between atoms: C6_8  and  C7_9 
REMARK    3  A    between atoms: C8_12  and  O4_13 
REMARK    4  A    between atoms: C8_12  and  C9_15 
REMARK    5  A    between atoms: C9_15  and  C10_16 
REMARK    6  A    between atoms: C16_24  and  C17_25 
REMARK    7  A    between atoms: C17_25  and  O6_26 
ROOT
HETATM    1  C5  UNL     1      -4.948 -11.595  17.551  1.00  0.00     0.162 C 
HETATM    2  C6  UNL     1      -5.900 -12.653  17.052  1.00  0.00     0.160 C 
HETATM    3  C8  UNL     1      -4.798 -13.382  16.175  1.00  0.00     0.154 C 
HETATM    4  C14 UNL     1      -4.731 -12.203  15.228  1.00  0.00     0.255 C 
HETATM    5  O5  UNL     1      -4.822 -12.113  14.010  1.00  0.00    -0.270 OA
HETATM    6  N1  UNL     1      -4.527 -11.110  16.180  1.00  0.00    -0.342 N 
HETATM    7  C15 UNL     1      -4.014  -9.824  15.869  1.00  0.00     0.153 C 
ENDROOT
BRANCH   1   8
HETATM    8  C4  UNL     1      -5.532 -10.459  18.270  1.00  0.00     0.087 A 
HETATM    9  O1  UNL     1      -5.474  -9.194  18.000  1.00  0.00    -0.304 OA
HETATM   10  C3  UNL     1      -6.111  -8.469  18.903  1.00  0.00     0.128 A 
HETATM   11  C2  UNL     1      -6.630  -9.320  19.837  1.00  0.00    -0.010 A 
HETATM   12 BR1  UNL     1      -6.312  -6.553  18.956  1.00  0.00    -0.022 Br
HETATM   13  C1  UNL     1      -7.459  -8.909  21.026  1.00  0.00     0.052 C 
HETATM   14  C16 UNL     1      -6.268 -10.574  19.445  1.00  0.00     0.006 A 
BRANCH  14  15
HETATM   15  C17 UNL     1      -6.738 -11.825  20.117  1.00  0.00     0.206 C 
BRANCH  15  16
HETATM   16  O6  UNL     1      -8.024 -12.193  19.856  1.00  0.00    -0.396 OA
ATOM     17  H6  UNL     1      -8.695 -11.590  20.150  1.00  0.00     0.209 HD
ENDBRANCH  15  16
ENDBRANCH  14  15
ENDBRANCH   1   8
BRANCH   2  18
HETATM   18  C7  UNL     1      -6.930 -12.204  16.212  1.00  0.00     0.183 C 
HETATM   19  O2  UNL     1      -7.752 -13.084  15.627  1.00  0.00    -0.648 OA
HETATM   20  O3  UNL     1      -7.299 -10.934  15.819  1.00  0.00    -0.648 OA
ENDBRANCH   2  18
BRANCH   3  21
HETATM   21  O4  UNL     1      -3.629 -13.357  16.879  1.00  0.00    -0.379 OA
ATOM     22  H4  UNL     1      -3.748 -12.764  17.611  1.00  0.00     0.211 HD
ENDBRANCH   3  21
BRANCH   3  23
HETATM   23  C9  UNL     1      -5.239 -14.670  15.683  1.00  0.00     0.057 C 
BRANCH  23  24
HETATM   24  C10 UNL     1      -5.439 -15.812  16.603  1.00  0.00    -0.048 C 
HETATM   25  C11 UNL     1      -6.389 -16.766  15.814  1.00  0.00     0.014 C 
HETATM   26  C12 UNL     1      -6.223 -15.468  17.852  1.00  0.00     0.014 C 
HETATM   27  C13 UNL     1      -4.247 -16.651  16.939  1.00  0.00     0.014 C 
ENDBRANCH  23  24
ENDBRANCH   3  23
TORSDOF 7
ENDMDL
MODEL 3
REMARK VINA RESULT: -5.652992422      2.861      5.684
REMARK  7 active torsions:
REMARK  status: ('A' for Active; 'I' for Inactive)
REMARK    1  A    between atoms: C4_6  and  C5_7 
REMARK    2  A    between atoms: C6_8  and  C7_9 
REMARK    3  A    between atoms: C8_12  and  O4_13 
REMARK    4  A    between atoms: C8_12  and  C9_15 
REMARK    5  A    between atoms: C9_15  and  C10_16 
REMARK    6  A    between atoms: C16_24  and  C17_25 
REMARK    7  A    between atoms: C17_25  and  O6_26 
ROOT
HETATM    1  C5  UNL     1      -6.751 -12.402  15.958  1.00  0.00     0.162 C 
HETATM    2  C6  UNL     1      -5.791 -11.558  16.758  1.00  0.00     0.160 C 
HETATM    3  C8  UNL     1      -5.849 -10.340  15.743  1.00  0.00     0.154 C 
HETATM    4  C14 UNL     1      -5.129 -11.150  14.687  1.00  0.00     0.255 C 
HETATM    5  O5  UNL     1      -4.134 -10.928  14.007  1.00  0.00    -0.270 OA
HETATM    6  N1  UNL     1      -5.955 -12.359  14.671  1.00  0.00    -0.342 N 
HETATM    7  C15 UNL     1      -6.004 -13.316  13.624  1.00  0.00     0.153 C 
ENDROOT
BRANCH   1   8
HETATM    8  C4  UNL     1      -6.891 -13.806  16.353  1.00  0.00     0.087 A 
HETATM    9  O1  UNL     1      -6.800 -14.879  15.633  1.00  0.00    -0.304 OA
HETATM   10  C3  UNL     1      -7.013 -15.970  16.348  1.00  0.00     0.128 A 
HETATM   11  C2  UNL     1      -7.262 -15.589  17.636  1.00  0.00    -0.010 A 
HETATM   12 BR1  UNL     1      -6.993 -17.802  15.747  1.00  0.00    -0.022 Br
HETATM   13  C1  UNL     1      -7.526 -16.524  18.787  1.00  0.00     0.052 C 
HETATM   14  C16 UNL     1      -7.188 -14.228  17.646  1.00  0.00     0.006 A 
BRANCH  14  15
HETATM   15  C17 UNL     1      -7.269 -13.398  18.887  1.00  0.00     0.206 C 
BRANCH  15  16
HETATM   16  O6  UNL     1      -8.465 -12.786  19.116  1.00  0.00    -0.396 OA
ATOM     17  H6  UNL     1      -9.234 -13.340  19.050  1.00  0.00     0.209 HD
ENDBRANCH  15  16
ENDBRANCH  14  15
ENDBRANCH   1   8
BRANCH   2  18
HETATM   18  C7  UNL     1      -4.473 -12.030  16.831  1.00  0.00     0.183 C 
HETATM   19  O2  UNL     1      -3.492 -11.225  17.260  1.00  0.00    -0.648 OA
HETATM   20  O3  UNL     1      -3.923 -13.256  16.516  1.00  0.00    -0.648 OA
ENDBRANCH   2  18
BRANCH   3  21
HETATM   21  O4  UNL     1      -7.138 -10.228  15.308  1.00  0.00    -0.379 OA
ATOM     22  H4  UNL     1      -7.359 -11.033  14.855  1.00  0.00     0.211 HD
ENDBRANCH   3  21
BRANCH   3  23
HETATM   23  C9  UNL     1      -5.230  -9.144  16.272  1.00  0.00     0.057 C 
BRANCH  23  24
HETATM   24  C10 UNL     1      -5.991  -8.201  17.122  1.00  0.00    -0.048 C 
HETATM   25  C11 UNL     1      -4.995  -7.024  17.359  1.00  0.00     0.014 C 
HETATM   26  C12 UNL     1      -6.279  -8.722  18.514  1.00  0.00     0.014 C 
HETATM   27  C13 UNL     1      -7.207  -7.560  16.533  1.00  0.00     0.014 C 
ENDBRANCH  23  24
ENDBRANCH   3  23
TORSDOF 7
ENDMDL
MODEL 4
REMARK VINA RESULT: -5.644948099      1.352      1.856
REMARK  7 active torsions:
REMARK  status: ('A' for Active; 'I' for Inactive)
REMARK    1  A    between atoms: C4_6  and  C5_7 
REMARK    2  A    between atoms: C6_8  and  C7_9 
REMARK    3  A    between atoms: C8_12  and  O4_13 
REMARK    4  A    between atoms: C8_12  and  C9_15 
REMARK    5  A    between atoms: C9_15  and  C10_16 
REMARK    6  A    between atoms: C16_24  and  C17_25 
REMARK    7  A    between atoms: C17_25  and  O6_26 
ROOT
HETATM    1  C5  UNL     1      -5.859 -10.843  15.614  1.00  0.00     0.162 C 
HETATM    2  C6  UNL     1      -4.491 -11.417  15.341  1.00  0.00     0.160 C 
HETATM    3  C8  UNL     1      -4.995 -12.326  14.142  1.00  0.00     0.154 C 
HETATM    4  C14 UNL     1      -5.782 -13.197  15.097  1.00  0.00     0.255 C 
HETATM    5  O5  UNL     1      -5.816 -14.409  15.277  1.00  0.00    -0.270 OA
HETATM    6  N1  UNL     1      -6.545 -12.177  15.819  1.00  0.00    -0.342 N 
HETATM    7  C15 UNL     1      -7.727 -12.404  16.571  1.00  0.00     0.153 C 
ENDROOT
BRANCH   1   8
HETATM    8  C4  UNL     1      -6.019 -10.062  16.844  1.00  0.00     0.087 A 
HETATM    9  O1  UNL     1      -6.375 -10.450  18.027  1.00  0.00    -0.304 OA
HETATM   10  C3  UNL     1      -6.430  -9.440  18.879  1.00  0.00     0.128 A 
HETATM   11  C2  UNL     1      -6.082  -8.303  18.208  1.00  0.00    -0.010 A 
HETATM   12 BR1  UNL     1      -6.907  -9.492  20.746  1.00  0.00    -0.022 Br
HETATM   13  C1  UNL     1      -5.985  -6.928  18.815  1.00  0.00     0.052 C 
HETATM   14  C16 UNL     1      -5.824  -8.687  16.926  1.00  0.00     0.006 A 
BRANCH  14  15
HETATM   15  C17 UNL     1      -5.281  -7.771  15.876  1.00  0.00     0.206 C 
BRANCH  15  16
HETATM   16  O6  UNL     1      -6.057  -7.613  14.766  1.00  0.00    -0.396 OA
ATOM     17  H6  UNL     1      -5.706  -7.041  14.094  1.00  0.00     0.209 HD
ENDBRANCH  15  16
ENDBRANCH  14  15
ENDBRANCH   1   8
BRANCH   2  18
HETATM   18  C7  UNL     1      -3.958 -12.238  16.345  1.00  0.00     0.183 C 
HETATM   19  O2  UNL     1      -3.296 -11.698  17.375  1.00  0.00    -0.648 OA
HETATM   20  O3  UNL     1      -3.965 -13.609  16.502  1.00  0.00    -0.648 OA
ENDBRANCH   2  18
BRANCH   3  21
HETATM   21  O4  UNL     1      -5.923 -11.609  13.445  1.00  0.00    -0.379 OA
ATOM     22  H4  UNL     1      -5.460 -11.093  12.796  1.00  0.00     0.211 HD
ENDBRANCH   3  21
BRANCH   3  23
HETATM   23  C9  UNL     1      -3.905 -12.900  13.383  1.00  0.00     0.057 C 
BRANCH  23  24
HETATM   24  C10 UNL     1      -3.995 -13.057  11.914  1.00  0.00    -0.048 C 
HETATM   25  C11 UNL     1      -2.900 -14.117  11.583  1.00  0.00     0.014 C 
HETATM   26  C12 UNL     1      -3.566 -11.832  11.135  1.00  0.00     0.014 C 
HETATM   27  C13 UNL     1      -5.260 -13.626  11.353  1.00  0.00     0.014 C 
ENDBRANCH  23  24
ENDBRANCH   3  23
TORSDOF 7
ENDMDL
MODEL 5
REMARK VINA RESULT: -5.587357320      1.908      3.526
REMARK  7 active torsions:
REMARK  status: ('A' for Active; 'I' for Inactive)
REMARK    1  A    between atoms: C4_6  and  C5_7 
REMARK    2  A    between atoms: C6_8  and  C7_9 
REMARK    3  A    between atoms: C8_12  and  O4_13 
REMARK    4  A    between atoms: C8_12  and  C9_15 
REMARK    5  A    between atoms: C9_15  and  C10_16 
REMARK    6  A    between atoms: C16_24  and  C17_25 
REMARK    7  A    between atoms: C17_25  and  O6_26 
ROOT
HETATM    1  C5  UNL     1      -5.836 -11.767  16.597  1.00  0.00     0.162 C 
HETATM    2  C6  UNL     1      -6.323 -11.236  15.272  1.00  0.00     0.160 C 
HETATM    3  C8  UNL     1      -5.474 -12.273  14.423  1.00  0.00     0.154 C 
HETATM    4  C14 UNL     1      -4.184 -11.606  14.848  1.00  0.00     0.255 C 
HETATM    5  O5  UNL     1      -3.226 -11.175  14.217  1.00  0.00    -0.270 OA
HETATM    6  N1  UNL     1      -4.362 -11.583  16.301  1.00  0.00    -0.342 N 
HETATM    7  C15 UNL     1      -3.329 -11.428  17.262  1.00  0.00     0.153 C 
ENDROOT
BRANCH   1   8
HETATM    8  C4  UNL     1      -6.157 -10.977  17.789  1.00  0.00     0.087 A 
HETATM    9  O1  UNL     1      -5.985  -9.714  18.013  1.00  0.00    -0.304 OA
HETATM   10  C3  UNL     1      -6.380  -9.371  19.227  1.00  0.00     0.128 A 
HETATM   11  C2  UNL     1      -6.849 -10.492  19.850  1.00  0.00    -0.010 A 
HETATM   12 BR1  UNL     1      -6.331  -7.623  20.038  1.00  0.00    -0.022 Br
HETATM   13  C1  UNL     1      -7.426 -10.540  21.240  1.00  0.00     0.052 C 
HETATM   14  C16 UNL     1      -6.710 -11.508  18.951  1.00  0.00     0.006 A 
BRANCH  14  15
HETATM   15  C17 UNL     1      -7.221 -12.895  19.176  1.00  0.00     0.206 C 
BRANCH  15  16
HETATM   16  O6  UNL     1      -8.525 -13.109  18.843  1.00  0.00    -0.396 OA
ATOM     17  H6  UNL     1      -8.889 -12.521  18.192  1.00  0.00     0.209 HD
ENDBRANCH  15  16
ENDBRANCH  14  15
ENDBRANCH   1   8
BRANCH   2  18
HETATM   18  C7  UNL     1      -5.916  -9.934  14.945  1.00  0.00     0.183 C 
HETATM   19  O2  UNL     1      -6.770  -8.911  15.069  1.00  0.00    -0.648 OA
HETATM   20  O3  UNL     1      -4.716  -9.446  14.470  1.00  0.00    -0.648 OA
ENDBRANCH   2  18
BRANCH   3  21
HETATM   21  O4  UNL     1      -5.507 -13.468  15.081  1.00  0.00    -0.379 OA
ATOM     22  H4  UNL     1      -4.616 -13.795  15.127  1.00  0.00     0.211 HD
ENDBRANCH   3  21
BRANCH   3  23
HETATM   23  C9  UNL     1      -5.846 -12.284  13.024  1.00  0.00     0.057 C 
BRANCH  23  24
HETATM   24  C10 UNL     1      -5.075 -13.069  12.034  1.00  0.00    -0.048 C 
HETATM   25  C11 UNL     1      -6.072 -13.260  10.850  1.00  0.00     0.014 C 
HETATM   26  C12 UNL     1      -4.760 -14.482  12.479  1.00  0.00     0.014 C 
HETATM   27  C13 UNL     1      -3.872 -12.425  11.421  1.00  0.00     0.014 C 
ENDBRANCH  23  24
ENDBRANCH   3  23
TORSDOF 7
ENDMDL
