MODEL 1
REMARK VINA RESULT: -8.591020659      0.000      0.000
REMARK  4 active torsions:
REMARK  status: ('A' for Active; 'I' for Inactive)
REMARK    1  A    between atoms: C6_8  and  N2_9 
REMARK    2  A    between atoms: N3_12  and  C9_13 
REMARK    3  A    between atoms: C9_13  and  C10_14 
REMARK    4  A    between atoms: C18_22  and  C19_23 
ROOT
HETATM    1  N1  UNL     1      -4.458  -7.011  15.530  1.00  0.00    -0.191 NA
HETATM    2  C1  UNL     1      -4.859  -7.962  16.118  1.00  0.00     0.101 C 
HETATM    3  C2  UNL     1      -5.356  -9.081  16.875  1.00  0.00     0.068 A 
HETATM    4  C3  UNL     1      -5.817  -8.832  18.179  1.00  0.00    -0.016 A 
HETATM    5  C4  UNL     1      -6.296  -9.878  18.928  1.00  0.00     0.080 A 
HETATM    6  C5  UNL     1      -6.326 -11.158  18.414  1.00  0.00     0.160 A 
HETATM    7  F1  UNL     1      -6.803 -12.186  19.136  1.00  0.00    -0.203 F 
HETATM    8  C6  UNL     1      -5.866 -11.422  17.105  1.00  0.00     0.085 A 
HETATM    9  C18 UNL     1      -5.387 -10.387  16.349  1.00  0.00     0.056 A 
HETATM   10  C20 UNL     1      -6.774  -9.603  20.279  1.00  0.00     0.255 C 
HETATM   11  O1  UNL     1      -7.214 -10.567  20.966  1.00  0.00    -0.268 OA
HETATM   12  N6  UNL     1      -6.720  -8.277  20.741  1.00  0.00    -0.356 N 
ATOM     13  H6  UNL     1      -6.825  -8.111  21.742  1.00  0.00     0.162 HD
HETATM   14  C21 UNL     1      -6.523  -7.140  19.879  1.00  0.00     0.127 C 
HETATM   15  C22 UNL     1      -5.747  -7.441  18.654  1.00  0.00     0.061 C 
ENDROOT
BRANCH   9  16
HETATM   16  C19 UNL     1      -4.917 -10.590  15.007  1.00  0.00     0.124 C 
HETATM   17  N4  UNL     1      -5.783 -10.661  14.049  1.00  0.00    -0.387 N 
ATOM     18  H42 UNL     1      -6.743 -10.552  14.374  1.00  0.00     0.157 HD
ATOM     19  H41 UNL     1      -5.450 -10.805  13.095  1.00  0.00     0.157 HD
HETATM   20  N5  UNL     1      -3.595 -10.740  14.558  1.00  0.00    -0.082 NA
ENDBRANCH   9  16
BRANCH   8  21
HETATM   21  N2  UNL     1      -5.936 -12.752  16.701  1.00  0.00    -0.374 N 
HETATM   22  C7  UNL     1      -4.931 -13.763  16.738  1.00  0.00     0.142 C 
HETATM   23  C8  UNL     1      -5.517 -15.047  17.351  1.00  0.00     0.136 C 
HETATM   24  N3  UNL     1      -6.480 -15.553  16.443  1.00  0.00    -0.409 N 
HETATM   25  C16 UNL     1      -7.098 -14.614  15.581  1.00  0.00     0.136 C 
HETATM   26  C17 UNL     1      -7.241 -13.256  16.218  1.00  0.00     0.142 C 
BRANCH  24  27
HETATM   27  C9  UNL     1      -6.229 -16.830  15.886  1.00  0.00     0.121 C 
BRANCH  27  28
HETATM   28  C10 UNL     1      -6.994 -17.960  16.529  1.00  0.00     0.003 C 
HETATM   29  C11 UNL     1      -7.671 -18.725  15.396  1.00  0.00     0.006 C 
HETATM   30  C12 UNL     1      -9.002 -18.058  15.079  1.00  0.00     0.000 C 
HETATM   31  C13 UNL     1      -9.970 -18.440  16.181  1.00  0.00     0.000 C 
HETATM   32  C14 UNL     1      -9.245 -18.439  17.510  1.00  0.00     0.000 C 
HETATM   33  C15 UNL     1      -8.057 -17.471  17.470  1.00  0.00     0.006 C 
ENDBRANCH  27  28
ENDBRANCH  24  27
ENDBRANCH   8  21
TORSDOF 4
ENDMDL
MODEL 2
REMARK VINA RESULT: -8.360897032      0.600      1.372
REMARK  4 active torsions:
REMARK  status: ('A' for Active; 'I' for Inactive)
REMARK    1  A    between atoms: C6_8  and  N2_9 
REMARK    2  A    between atoms: N3_12  and  C9_13 
REMARK    3  A    between atoms: C9_13  and  C10_14 
REMARK    4  A    between atoms: C18_22  and  C19_23 
ROOT
HETATM    1  N1  UNL     1      -4.464  -6.979  15.331  1.00  0.00    -0.191 NA
HETATM    2  C1  UNL     1      -4.873  -7.880  15.990  1.00  0.00     0.101 C 
HETATM    3  C2  UNL     1      -5.378  -8.933  16.830  1.00  0.00     0.068 A 
HETATM    4  C3  UNL     1      -5.829  -8.583  18.114  1.00  0.00    -0.016 A 
HETATM    5  C4  UNL     1      -6.316  -9.565  18.941  1.00  0.00     0.080 A 
HETATM    6  C5  UNL     1      -6.364 -10.879  18.522  1.00  0.00     0.160 A 
HETATM    7  F1  UNL     1      -6.850 -11.846  19.321  1.00  0.00    -0.203 F 
HETATM    8  C6  UNL     1      -5.915 -11.244  17.234  1.00  0.00     0.085 A 
HETATM    9  C18 UNL     1      -5.428 -10.274  16.401  1.00  0.00     0.056 A 
HETATM   10  C20 UNL     1      -6.784  -9.186  20.270  1.00  0.00     0.255 C 
HETATM   11  O1  UNL     1      -7.231 -10.091  21.028  1.00  0.00    -0.268 OA
HETATM   12  N6  UNL     1      -6.711  -7.830  20.633  1.00  0.00    -0.356 N 
ATOM     13  H6  UNL     1      -6.808  -7.590  21.619  1.00  0.00     0.162 HD
HETATM   14  C21 UNL     1      -6.506  -6.762  19.688  1.00  0.00     0.127 C 
HETATM   15  C22 UNL     1      -5.740  -7.162  18.485  1.00  0.00     0.061 C 
ENDROOT
BRANCH   9  16
HETATM   16  C19 UNL     1      -4.969 -10.581  15.076  1.00  0.00     0.124 C 
HETATM   17  N4  UNL     1      -5.843 -10.738  14.135  1.00  0.00    -0.387 N 
ATOM     18  H42 UNL     1      -6.801 -10.612  14.460  1.00  0.00     0.157 HD
ATOM     19  H41 UNL     1      -5.517 -10.956  13.193  1.00  0.00     0.157 HD
HETATM   20  N5  UNL     1      -3.649 -10.754  14.628  1.00  0.00    -0.082 NA
ENDBRANCH   9  16
BRANCH   8  21
HETATM   21  N2  UNL     1      -6.003 -12.599  16.929  1.00  0.00    -0.374 N 
HETATM   22  C7  UNL     1      -7.151 -13.379  16.595  1.00  0.00     0.142 C 
HETATM   23  C8  UNL     1      -6.851 -14.224  15.344  1.00  0.00     0.136 C 
HETATM   24  N3  UNL     1      -5.874 -15.186  15.703  1.00  0.00    -0.409 N 
HETATM   25  C16 UNL     1      -5.017 -14.853  16.781  1.00  0.00     0.136 C 
HETATM   26  C17 UNL     1      -4.743 -13.373  16.862  1.00  0.00     0.142 C 
BRANCH  24  27
HETATM   27  C9  UNL     1      -6.250 -16.548  15.613  1.00  0.00     0.121 C 
BRANCH  27  28
HETATM   28  C10 UNL     1      -7.664 -16.842  16.046  1.00  0.00     0.003 C 
HETATM   29  C11 UNL     1      -7.593 -17.243  17.516  1.00  0.00     0.006 C 
HETATM   30  C12 UNL     1      -7.299 -18.733  17.606  1.00  0.00     0.000 C 
HETATM   31  C13 UNL     1      -8.580 -19.466  17.263  1.00  0.00     0.000 C 
HETATM   32  C14 UNL     1      -9.287 -18.744  16.137  1.00  0.00     0.000 C 
HETATM   33  C15 UNL     1      -8.276 -17.977  15.276  1.00  0.00     0.006 C 
ENDBRANCH  27  28
ENDBRANCH  24  27
ENDBRANCH   8  21
TORSDOF 4
ENDMDL
MODEL 3
REMARK VINA RESULT: -8.236477158      0.622      1.116
REMARK  4 active torsions:
REMARK  status: ('A' for Active; 'I' for Inactive)
REMARK    1  A    between atoms: C6_8  and  N2_9 
REMARK    2  A    between atoms: N3_12  and  C9_13 
REMARK    3  A    between atoms: C9_13  and  C10_14 
REMARK    4  A    between atoms: C18_22  and  C19_23 
ROOT
HETATM    1  N1  UNL     1      -4.424  -6.956  15.558  1.00  0.00    -0.191 NA
HETATM    2  C1  UNL     1      -4.842  -7.896  16.153  1.00  0.00     0.101 C 
HETATM    3  C2  UNL     1      -5.359  -9.000  16.917  1.00  0.00     0.068 A 
HETATM    4  C3  UNL     1      -5.833  -8.731  18.212  1.00  0.00    -0.016 A 
HETATM    5  C4  UNL     1      -6.332  -9.762  18.968  1.00  0.00     0.080 A 
HETATM    6  C5  UNL     1      -6.370 -11.048  18.469  1.00  0.00     0.160 A 
HETATM    7  F1  UNL     1      -6.867 -12.062  19.198  1.00  0.00    -0.203 F 
HETATM    8  C6  UNL     1      -5.898 -11.332  17.169  1.00  0.00     0.085 A 
HETATM    9  C18 UNL     1      -5.399 -10.312  16.406  1.00  0.00     0.056 A 
HETATM   10  C20 UNL     1      -6.823  -9.466  20.310  1.00  0.00     0.255 C 
HETATM   11  O1  UNL     1      -7.281 -10.417  21.003  1.00  0.00    -0.268 OA
HETATM   12  N6  UNL     1      -6.759  -8.135  20.757  1.00  0.00    -0.356 N 
ATOM     13  H6  UNL     1      -6.874  -7.956  21.755  1.00  0.00     0.162 HD
HETATM   14  C21 UNL     1      -6.540  -7.011  19.884  1.00  0.00     0.127 C 
HETATM   15  C22 UNL     1      -5.754  -7.335  18.672  1.00  0.00     0.061 C 
ENDROOT
BRANCH   9  16
HETATM   16  C19 UNL     1      -4.916 -10.536  15.072  1.00  0.00     0.124 C 
HETATM   17  N4  UNL     1      -5.769 -10.576  14.100  1.00  0.00    -0.387 N 
ATOM     18  H42 UNL     1      -6.729 -10.431  14.410  1.00  0.00     0.157 HD
ATOM     19  H41 UNL     1      -5.426 -10.735  13.153  1.00  0.00     0.157 HD
HETATM   20  N5  UNL     1      -3.593 -10.736  14.645  1.00  0.00    -0.082 NA
ENDBRANCH   9  16
BRANCH   8  21
HETATM   21  N2  UNL     1      -5.978 -12.666  16.779  1.00  0.00    -0.374 N 
HETATM   22  C7  UNL     1      -5.013 -13.708  16.916  1.00  0.00     0.142 C 
HETATM   23  C8  UNL     1      -5.692 -14.962  17.496  1.00  0.00     0.136 C 
HETATM   24  N3  UNL     1      -6.591 -15.453  16.517  1.00  0.00    -0.409 N 
HETATM   25  C16 UNL     1      -7.102 -14.509  15.592  1.00  0.00     0.136 C 
HETATM   26  C17 UNL     1      -7.253 -13.136  16.194  1.00  0.00     0.142 C 
BRANCH  24  27
HETATM   27  C9  UNL     1      -6.337 -16.746  16.002  1.00  0.00     0.121 C 
BRANCH  27  28
HETATM   28  C10 UNL     1      -7.569 -17.524  15.614  1.00  0.00     0.003 C 
HETATM   29  C11 UNL     1      -8.316 -17.828  16.908  1.00  0.00     0.006 C 
HETATM   30  C12 UNL     1      -7.750 -19.104  17.515  1.00  0.00     0.000 C 
HETATM   31  C13 UNL     1      -8.286 -20.266  16.701  1.00  0.00     0.000 C 
HETATM   32  C14 UNL     1      -8.307 -19.885  15.237  1.00  0.00     0.000 C 
HETATM   33  C15 UNL     1      -7.237 -18.827  14.943  1.00  0.00     0.006 C 
ENDBRANCH  27  28
ENDBRANCH  24  27
ENDBRANCH   8  21
TORSDOF 4
ENDMDL
MODEL 4
REMARK VINA RESULT: -8.235900993      3.786      5.390
REMARK  4 active torsions:
REMARK  status: ('A' for Active; 'I' for Inactive)
REMARK    1  A    between atoms: C6_8  and  N2_9 
REMARK    2  A    between atoms: N3_12  and  C9_13 
REMARK    3  A    between atoms: C9_13  and  C10_14 
REMARK    4  A    between atoms: C18_22  and  C19_23 
ROOT
HETATM    1  N1  UNL     1      -6.281  -5.839  18.731  1.00  0.00    -0.191 NA
HETATM    2  C1  UNL     1      -6.215  -6.999  18.484  1.00  0.00     0.101 C 
HETATM    3  C2  UNL     1      -6.154  -8.416  18.238  1.00  0.00     0.068 A 
HETATM    4  C3  UNL     1      -6.569  -9.275  19.270  1.00  0.00    -0.016 A 
HETATM    5  C4  UNL     1      -6.522 -10.632  19.068  1.00  0.00     0.080 A 
HETATM    6  C5  UNL     1      -6.075 -11.151  17.870  1.00  0.00     0.160 A 
HETATM    7  F1  UNL     1      -6.036 -12.478  17.659  1.00  0.00    -0.203 F 
HETATM    8  C6  UNL     1      -5.656 -10.299  16.825  1.00  0.00     0.085 A 
HETATM    9  C18 UNL     1      -5.699  -8.944  17.015  1.00  0.00     0.056 A 
HETATM   10  C20 UNL     1      -6.960 -11.511  20.147  1.00  0.00     0.255 C 
HETATM   11  O1  UNL     1      -6.916 -12.758  19.958  1.00  0.00    -0.268 OA
HETATM   12  N6  UNL     1      -7.407 -10.918  21.340  1.00  0.00    -0.356 N 
ATOM     13  H6  UNL     1      -7.489 -11.506  22.169  1.00  0.00     0.162 HD
HETATM   14  C21 UNL     1      -7.757  -9.526  21.456  1.00  0.00     0.127 C 
HETATM   15  C22 UNL     1      -7.028  -8.643  20.517  1.00  0.00     0.061 C 
ENDROOT
BRANCH   9  16
HETATM   16  C19 UNL     1      -5.298  -8.027  15.985  1.00  0.00     0.124 C 
HETATM   17  N4  UNL     1      -6.144  -7.729  15.054  1.00  0.00    -0.387 N 
ATOM     18  H42 UNL     1      -7.042  -8.199  15.169  1.00  0.00     0.157 HD
ATOM     19  H41 UNL     1      -5.860  -7.077  14.322  1.00  0.00     0.157 HD
HETATM   20  N5  UNL     1      -4.061  -7.380  15.825  1.00  0.00    -0.082 NA
ENDBRANCH   9  16
BRANCH   8  21
HETATM   21  N2  UNL     1      -5.216 -10.938  15.669  1.00  0.00    -0.374 N 
HETATM   22  C7  UNL     1      -3.894 -11.325  15.296  1.00  0.00     0.142 C 
HETATM   23  C8  UNL     1      -3.908 -12.781  14.798  1.00  0.00     0.136 C 
HETATM   24  N3  UNL     1      -4.631 -12.809  13.579  1.00  0.00    -0.409 N 
HETATM   25  C16 UNL     1      -5.599 -11.792  13.390  1.00  0.00     0.136 C 
HETATM   26  C17 UNL     1      -6.238 -11.357  14.684  1.00  0.00     0.142 C 
BRANCH  24  27
HETATM   27  C9  UNL     1      -3.922 -13.209  12.420  1.00  0.00     0.121 C 
BRANCH  27  28
HETATM   28  C10 UNL     1      -3.198 -12.094  11.708  1.00  0.00     0.003 C 
HETATM   29  C11 UNL     1      -3.570 -12.209  10.233  1.00  0.00     0.006 C 
HETATM   30  C12 UNL     1      -2.626 -13.197   9.563  1.00  0.00     0.000 C 
HETATM   31  C13 UNL     1      -1.296 -12.493   9.377  1.00  0.00     0.000 C 
HETATM   32  C14 UNL     1      -1.007 -11.637  10.591  1.00  0.00     0.000 C 
HETATM   33  C15 UNL     1      -1.706 -12.211  11.829  1.00  0.00     0.006 C 
ENDBRANCH  27  28
ENDBRANCH  24  27
ENDBRANCH   8  21
TORSDOF 4
ENDMDL
MODEL 5
REMARK VINA RESULT: -8.088716975      1.409      2.275
REMARK  4 active torsions:
REMARK  status: ('A' for Active; 'I' for Inactive)
REMARK    1  A    between atoms: C6_8  and  N2_9 
REMARK    2  A    between atoms: N3_12  and  C9_13 
REMARK    3  A    between atoms: C9_13  and  C10_14 
REMARK    4  A    between atoms: C18_22  and  C19_23 
ROOT
HETATM    1  N1  UNL     1      -4.495  -7.012  15.576  1.00  0.00    -0.191 NA
HETATM    2  C1  UNL     1      -4.888  -7.973  16.154  1.00  0.00     0.101 C 
HETATM    3  C2  UNL     1      -5.374  -9.105  16.898  1.00  0.00     0.068 A 
HETATM    4  C3  UNL     1      -5.847  -8.873  18.201  1.00  0.00    -0.016 A 
HETATM    5  C4  UNL     1      -6.317  -9.931  18.938  1.00  0.00     0.080 A 
HETATM    6  C5  UNL     1      -6.327 -11.207  18.413  1.00  0.00     0.160 A 
HETATM    7  F1  UNL     1      -6.796 -12.248  19.123  1.00  0.00    -0.203 F 
HETATM    8  C6  UNL     1      -5.856 -11.453  17.105  1.00  0.00     0.085 A 
HETATM    9  C18 UNL     1      -5.386 -10.406  16.360  1.00  0.00     0.056 A 
HETATM   10  C20 UNL     1      -6.807  -9.674  20.289  1.00  0.00     0.255 C 
HETATM   11  O1  UNL     1      -7.239 -10.649  20.964  1.00  0.00    -0.268 OA
HETATM   12  N6  UNL     1      -6.772  -8.352  20.762  1.00  0.00    -0.356 N 
ATOM     13  H6  UNL     1      -6.885  -8.196  21.764  1.00  0.00     0.162 HD
HETATM   14  C21 UNL     1      -6.585  -7.205  19.912  1.00  0.00     0.127 C 
HETATM   15  C22 UNL     1      -5.798  -7.486  18.689  1.00  0.00     0.061 C 
ENDROOT
BRANCH   9  16
HETATM   16  C19 UNL     1      -4.906 -10.592  15.020  1.00  0.00     0.124 C 
HETATM   17  N4  UNL     1      -5.765 -10.675  14.057  1.00  0.00    -0.387 N 
ATOM     18  H42 UNL     1      -6.729 -10.588  14.378  1.00  0.00     0.157 HD
ATOM     19  H41 UNL     1      -5.424 -10.806  13.104  1.00  0.00     0.157 HD
HETATM   20  N5  UNL     1      -3.578 -10.711  14.577  1.00  0.00    -0.082 NA
ENDBRANCH   9  16
BRANCH   8  21
HETATM   21  N2  UNL     1      -5.907 -12.781  16.688  1.00  0.00    -0.374 N 
HETATM   22  C7  UNL     1      -4.861 -13.749  16.621  1.00  0.00     0.142 C 
HETATM   23  C8  UNL     1      -5.336 -15.063  17.265  1.00  0.00     0.136 C 
HETATM   24  N3  UNL     1      -6.355 -15.600  16.439  1.00  0.00    -0.409 N 
HETATM   25  C16 UNL     1      -7.086 -14.678  15.648  1.00  0.00     0.136 C 
HETATM   26  C17 UNL     1      -7.228 -13.335  16.316  1.00  0.00     0.142 C 
BRANCH  24  27
HETATM   27  C9  UNL     1      -6.102 -16.859  15.842  1.00  0.00     0.121 C 
BRANCH  27  28
HETATM   28  C10 UNL     1      -4.688 -17.054  15.356  1.00  0.00     0.003 C 
HETATM   29  C11 UNL     1      -4.682 -16.679  13.878  1.00  0.00     0.006 C 
HETATM   30  C12 UNL     1      -5.089 -17.895  13.059  1.00  0.00     0.000 C 
HETATM   31  C13 UNL     1      -3.900 -18.835  13.028  1.00  0.00     0.000 C 
HETATM   32  C14 UNL     1      -3.223 -18.833  14.382  1.00  0.00     0.000 C 
HETATM   33  C15 UNL     1      -4.230 -18.479  15.483  1.00  0.00     0.006 C 
ENDBRANCH  27  28
ENDBRANCH  24  27
ENDBRANCH   8  21
TORSDOF 4
ENDMDL
