MODEL 1
REMARK VINA RESULT: -7.457884127      0.000      0.000
REMARK  5 active torsions:
REMARK  status: ('A' for Active; 'I' for Inactive)
REMARK    1  A    between atoms: C2_2  and  C11_24 
REMARK    2  A    between atoms: N1_3  and  N2_5 
REMARK       I    between atoms: C3_7  and  N4_9 
REMARK    3  A    between atoms: N4_9  and  N5_11 
REMARK       I    between atoms: N5_11  and  C4_13 
REMARK    4  A    between atoms: C4_13  and  C5_15 
REMARK    5  A    between atoms: C8_18  and  N6_19 
ROOT
HETATM    1  N2  UNL     1      -6.048 -13.876  17.042  1.00  0.00    -0.272 N 
ATOM      2  H2  UNL     1      -6.060 -14.721  17.612  1.00  0.00     0.189 HD
HETATM    3  C3  UNL     1      -5.965 -14.014  15.768  1.00  0.00     0.222 C 
HETATM    4  N3  UNL     1      -5.946 -12.871  14.940  1.00  0.00    -0.061 NA
HETATM    5  N4  UNL     1      -5.882 -15.294  15.209  1.00  0.00    -0.270 N 
ATOM      6  H4  UNL     1      -5.005 -15.610  14.793  1.00  0.00     0.190 HD
ENDROOT
BRANCH   1   7
HETATM    7  N1  UNL     1      -6.121 -12.661  17.689  1.00  0.00    -0.302 N 
HETATM    8  C2  UNL     1      -6.858 -12.521  18.727  1.00  0.00     0.032 C 
HETATM    9  C1  UNL     1      -7.626 -13.692  19.215  1.00  0.00     0.070 C 
ATOM     10  H1  UNL     1      -5.584 -11.868  17.338  1.00  0.00     0.186 HD
BRANCH   8  11
HETATM   11  C11 UNL     1      -6.936 -11.221  19.424  1.00  0.00    -0.013 A 
HETATM   12  C12 UNL     1      -7.653 -11.043  20.582  1.00  0.00     0.015 A 
HETATM   13  C13 UNL     1      -7.696  -9.789  21.207  1.00  0.00     0.020 A 
HETATM   14  C14 UNL     1      -7.025  -8.705  20.682  1.00  0.00     0.011 A 
HETATM   15 BR1  UNL     1      -7.090  -6.996  21.543  1.00  0.00    -0.051 Br
HETATM   16  C15 UNL     1      -6.306  -8.890  19.518  1.00  0.00     0.020 A 
HETATM   17  C16 UNL     1      -6.271 -10.131  18.910  1.00  0.00     0.015 A 
ENDBRANCH   8  11
ENDBRANCH   1   7
BRANCH   5  18
HETATM   18  N5  UNL     1      -6.987 -16.137  15.216  1.00  0.00    -0.263 N 
HETATM   19  C4  UNL     1      -7.390 -16.954  16.288  1.00  0.00     0.270 C 
HETATM   20  O1  UNL     1      -6.720 -16.951  17.346  1.00  0.00    -0.266 OA
ATOM     21  H5  UNL     1      -7.556 -16.165  14.370  1.00  0.00     0.190 HD
BRANCH  19  22
HETATM   22  C5  UNL     1      -8.575 -17.790  16.161  1.00  0.00     0.033 A 
HETATM   23  C6  UNL     1      -9.276 -18.198  17.267  1.00  0.00     0.019 A 
HETATM   24  C7  UNL     1     -10.414 -18.989  17.157  1.00  0.00     0.037 A 
HETATM   25  C8  UNL     1     -10.841 -19.369  15.902  1.00  0.00     0.102 A 
HETATM   26  C9  UNL     1     -10.124 -18.949  14.801  1.00  0.00     0.037 A 
HETATM   27  C10 UNL     1      -9.003 -18.171  14.890  1.00  0.00     0.019 A 
BRANCH  25  28
HETATM   28  N6  UNL     1     -12.003 -20.177  15.771  1.00  0.00    -0.116 N 
HETATM   29  O2  UNL     1     -12.365 -20.566  14.661  1.00  0.00    -0.532 OA
HETATM   30  O3  UNL     1     -12.715 -20.515  16.907  1.00  0.00    -0.532 OA
ENDBRANCH  25  28
ENDBRANCH  19  22
ENDBRANCH   5  18
TORSDOF 5
ENDMDL
MODEL 2
REMARK VINA RESULT: -7.455527238      1.483      2.055
REMARK  5 active torsions:
REMARK  status: ('A' for Active; 'I' for Inactive)
REMARK    1  A    between atoms: C2_2  and  C11_24 
REMARK    2  A    between atoms: N1_3  and  N2_5 
REMARK       I    between atoms: C3_7  and  N4_9 
REMARK    3  A    between atoms: N4_9  and  N5_11 
REMARK       I    between atoms: N5_11  and  C4_13 
REMARK    4  A    between atoms: C4_13  and  C5_15 
REMARK    5  A    between atoms: C8_18  and  N6_19 
ROOT
HETATM    1  N2  UNL     1      -5.993 -14.593  16.939  1.00  0.00    -0.272 N 
ATOM      2  H2  UNL     1      -6.490 -15.339  17.425  1.00  0.00     0.189 HD
HETATM    3  C3  UNL     1      -5.361 -14.897  15.863  1.00  0.00     0.222 C 
HETATM    4  N3  UNL     1      -4.661 -13.894  15.158  1.00  0.00    -0.061 NA
HETATM    5  N4  UNL     1      -5.361 -16.217  15.402  1.00  0.00    -0.270 N 
ATOM      6  H4  UNL     1      -4.508 -16.774  15.459  1.00  0.00     0.190 HD
ENDROOT
BRANCH   1   7
HETATM    7  N1  UNL     1      -6.043 -13.327  17.481  1.00  0.00    -0.302 N 
HETATM    8  C2  UNL     1      -6.753 -13.093  18.520  1.00  0.00     0.032 C 
HETATM    9  C1  UNL     1      -7.516 -14.212  19.125  1.00  0.00     0.070 C 
ATOM     10  H1  UNL     1      -5.510 -12.572  17.050  1.00  0.00     0.186 HD
BRANCH   8  11
HETATM   11  C11 UNL     1      -6.807 -11.737  19.105  1.00  0.00    -0.013 A 
HETATM   12  C12 UNL     1      -6.203 -10.652  18.518  1.00  0.00     0.015 A 
HETATM   13  C13 UNL     1      -6.284  -9.385  19.112  1.00  0.00     0.020 A 
HETATM   14  C14 UNL     1      -6.967  -9.191  20.293  1.00  0.00     0.011 A 
HETATM   15 BR1  UNL     1      -7.071  -7.456  21.097  1.00  0.00    -0.051 Br
HETATM   16  C15 UNL     1      -7.572 -10.285  20.879  1.00  0.00     0.020 A 
HETATM   17  C16 UNL     1      -7.486 -11.530  20.285  1.00  0.00     0.015 A 
ENDBRANCH   8  11
ENDBRANCH   1   7
BRANCH   5  18
HETATM   18  N5  UNL     1      -6.516 -16.775  14.866  1.00  0.00    -0.263 N 
HETATM   19  C4  UNL     1      -7.189 -17.906  15.363  1.00  0.00     0.270 C 
HETATM   20  O1  UNL     1      -6.739 -18.491  16.374  1.00  0.00    -0.266 OA
ATOM     21  H5  UNL     1      -6.911 -16.324  14.040  1.00  0.00     0.190 HD
BRANCH  19  22
HETATM   22  C5  UNL     1      -8.396 -18.384  14.703  1.00  0.00     0.033 A 
HETATM   23  C6  UNL     1      -9.631 -17.895  15.042  1.00  0.00     0.019 A 
HETATM   24  C7  UNL     1     -10.788 -18.337  14.413  1.00  0.00     0.037 A 
HETATM   25  C8  UNL     1     -10.683 -19.292  13.424  1.00  0.00     0.102 A 
HETATM   26  C9  UNL     1      -9.433 -19.774  13.095  1.00  0.00     0.037 A 
HETATM   27  C10 UNL     1      -8.284 -19.350  13.703  1.00  0.00     0.019 A 
BRANCH  25  28
HETATM   28  N6  UNL     1     -11.856 -19.756  12.768  1.00  0.00    -0.116 N 
HETATM   29  O2  UNL     1     -12.808 -20.176  13.424  1.00  0.00    -0.532 OA
HETATM   30  O3  UNL     1     -11.906 -19.728  11.386  1.00  0.00    -0.532 OA
ENDBRANCH  25  28
ENDBRANCH  19  22
ENDBRANCH   5  18
TORSDOF 5
ENDMDL
MODEL 3
REMARK VINA RESULT: -7.455292399      0.829      1.581
REMARK  5 active torsions:
REMARK  status: ('A' for Active; 'I' for Inactive)
REMARK    1  A    between atoms: C2_2  and  C11_24 
REMARK    2  A    between atoms: N1_3  and  N2_5 
REMARK       I    between atoms: C3_7  and  N4_9 
REMARK    3  A    between atoms: N4_9  and  N5_11 
REMARK       I    between atoms: N5_11  and  C4_13 
REMARK    4  A    between atoms: C4_13  and  C5_15 
REMARK    5  A    between atoms: C8_18  and  N6_19 
ROOT
HETATM    1  N2  UNL     1      -5.907 -13.918  16.656  1.00  0.00    -0.272 N 
ATOM      2  H2  UNL     1      -5.856 -14.688  17.323  1.00  0.00     0.189 HD
HETATM    3  C3  UNL     1      -6.014 -14.211  15.411  1.00  0.00     0.222 C 
HETATM    4  N3  UNL     1      -6.089 -13.176  14.454  1.00  0.00    -0.061 NA
HETATM    5  N4  UNL     1      -6.043 -15.550  15.008  1.00  0.00    -0.270 N 
ATOM      6  H4  UNL     1      -5.244 -15.949  14.515  1.00  0.00     0.190 HD
ENDROOT
BRANCH   1   7
HETATM    7  N1  UNL     1      -5.857 -12.633  17.152  1.00  0.00    -0.302 N 
HETATM    8  C2  UNL     1      -6.506 -12.319  18.211  1.00  0.00     0.032 C 
HETATM    9  C1  UNL     1      -7.307 -13.367  18.889  1.00  0.00     0.070 C 
ATOM     10  H1  UNL     1      -5.300 -11.927  16.672  1.00  0.00     0.186 HD
BRANCH   8  11
HETATM   11  C11 UNL     1      -6.452 -10.943  18.746  1.00  0.00    -0.013 A 
HETATM   12  C12 UNL     1      -5.981  -9.881  18.014  1.00  0.00     0.015 A 
HETATM   13  C13 UNL     1      -5.952  -8.593  18.567  1.00  0.00     0.020 A 
HETATM   14  C14 UNL     1      -6.391  -8.356  19.852  1.00  0.00     0.011 A 
HETATM   15 BR1  UNL     1      -6.345  -6.593  20.598  1.00  0.00    -0.051 Br
HETATM   16  C15 UNL     1      -6.862  -9.428  20.583  1.00  0.00     0.020 A 
HETATM   17  C16 UNL     1      -6.887 -10.694  20.028  1.00  0.00     0.015 A 
ENDBRANCH   8  11
ENDBRANCH   1   7
BRANCH   5  18
HETATM   18  N5  UNL     1      -7.155 -16.340  15.276  1.00  0.00    -0.263 N 
HETATM   19  C4  UNL     1      -7.410 -17.019  16.481  1.00  0.00     0.270 C 
HETATM   20  O1  UNL     1      -6.585 -16.930  17.420  1.00  0.00    -0.266 OA
ATOM     21  H5  UNL     1      -7.848 -16.436  14.533  1.00  0.00     0.190 HD
BRANCH  19  22
HETATM   22  C5  UNL     1      -8.620 -17.814  16.629  1.00  0.00     0.033 A 
HETATM   23  C6  UNL     1      -9.363 -18.183  15.537  1.00  0.00     0.019 A 
HETATM   24  C7  UNL     1     -10.515 -18.949  15.665  1.00  0.00     0.037 A 
HETATM   25  C8  UNL     1     -10.915 -19.343  16.925  1.00  0.00     0.102 A 
HETATM   26  C9  UNL     1     -10.156 -18.963  18.012  1.00  0.00     0.037 A 
HETATM   27  C10 UNL     1      -9.020 -18.210  17.904  1.00  0.00     0.019 A 
BRANCH  25  28
HETATM   28  N6  UNL     1     -12.091 -20.128  17.075  1.00  0.00    -0.116 N 
HETATM   29  O2  UNL     1     -12.166 -21.239  16.552  1.00  0.00    -0.532 OA
HETATM   30  O3  UNL     1     -13.143 -19.622  17.815  1.00  0.00    -0.532 OA
ENDBRANCH  25  28
ENDBRANCH  19  22
ENDBRANCH   5  18
TORSDOF 5
ENDMDL
MODEL 4
REMARK VINA RESULT: -7.381753029      0.565      1.085
REMARK  5 active torsions:
REMARK  status: ('A' for Active; 'I' for Inactive)
REMARK    1  A    between atoms: C2_2  and  C11_24 
REMARK    2  A    between atoms: N1_3  and  N2_5 
REMARK       I    between atoms: C3_7  and  N4_9 
REMARK    3  A    between atoms: N4_9  and  N5_11 
REMARK       I    between atoms: N5_11  and  C4_13 
REMARK    4  A    between atoms: C4_13  and  C5_15 
REMARK    5  A    between atoms: C8_18  and  N6_19 
ROOT
HETATM    1  N2  UNL     1      -6.125 -13.904  16.941  1.00  0.00    -0.272 N 
ATOM      2  H2  UNL     1      -6.020 -14.733  17.526  1.00  0.00     0.189 HD
HETATM    3  C3  UNL     1      -6.223 -14.076  15.672  1.00  0.00     0.222 C 
HETATM    4  N3  UNL     1      -6.372 -12.957  14.825  1.00  0.00    -0.061 NA
HETATM    5  N4  UNL     1      -6.171 -15.367  15.136  1.00  0.00    -0.270 N 
ATOM      6  H4  UNL     1      -5.352 -15.663  14.604  1.00  0.00     0.190 HD
ENDROOT
BRANCH   1   7
HETATM    7  N1  UNL     1      -6.152 -12.675  17.563  1.00  0.00    -0.302 N 
HETATM    8  C2  UNL     1      -6.834 -12.504  18.634  1.00  0.00     0.032 C 
HETATM    9  C1  UNL     1      -7.589 -13.655  19.186  1.00  0.00     0.070 C 
ATOM     10  H1  UNL     1      -5.626 -11.897  17.168  1.00  0.00     0.186 HD
BRANCH   8  11
HETATM   11  C11 UNL     1      -6.863 -11.188  19.306  1.00  0.00    -0.013 A 
HETATM   12  C12 UNL     1      -6.246 -10.077  18.786  1.00  0.00     0.015 A 
HETATM   13  C13 UNL     1      -6.303  -8.850  19.461  1.00  0.00     0.020 A 
HETATM   14  C14 UNL     1      -6.976  -8.722  20.657  1.00  0.00     0.011 A 
HETATM   15 BR1  UNL     1      -7.048  -7.041  21.572  1.00  0.00    -0.051 Br
HETATM   16  C15 UNL     1      -7.595  -9.843  21.175  1.00  0.00     0.020 A 
HETATM   17  C16 UNL     1      -7.531 -11.048  20.501  1.00  0.00     0.015 A 
ENDBRANCH   8  11
ENDBRANCH   1   7
BRANCH   5  18
HETATM   18  N5  UNL     1      -7.228 -16.250  15.325  1.00  0.00    -0.263 N 
HETATM   19  C4  UNL     1      -7.479 -16.994  16.492  1.00  0.00     0.270 C 
HETATM   20  O1  UNL     1      -6.703 -16.881  17.468  1.00  0.00    -0.266 OA
ATOM     21  H5  UNL     1      -7.880 -16.368  14.549  1.00  0.00     0.190 HD
BRANCH  19  22
HETATM   22  C5  UNL     1      -8.630 -17.884  16.556  1.00  0.00     0.033 A 
HETATM   23  C6  UNL     1      -9.074 -18.383  17.753  1.00  0.00     0.019 A 
HETATM   24  C7  UNL     1     -10.176 -19.226  17.826  1.00  0.00     0.037 A 
HETATM   25  C8  UNL     1     -10.834 -19.563  16.663  1.00  0.00     0.102 A 
HETATM   26  C9  UNL     1     -10.374 -19.051  15.467  1.00  0.00     0.037 A 
HETATM   27  C10 UNL     1      -9.292 -18.222  15.376  1.00  0.00     0.019 A 
BRANCH  25  28
HETATM   28  N6  UNL     1     -11.965 -20.423  16.719  1.00  0.00    -0.116 N 
HETATM   29  O2  UNL     1     -11.911 -21.551  16.231  1.00  0.00    -0.532 OA
HETATM   30  O3  UNL     1     -13.121 -19.970  17.328  1.00  0.00    -0.532 OA
ENDBRANCH  25  28
ENDBRANCH  19  22
ENDBRANCH   5  18
TORSDOF 5
ENDMDL
MODEL 5
REMARK VINA RESULT: -7.326222641      5.532      9.575
REMARK  5 active torsions:
REMARK  status: ('A' for Active; 'I' for Inactive)
REMARK    1  A    between atoms: C2_2  and  C11_24 
REMARK    2  A    between atoms: N1_3  and  N2_5 
REMARK       I    between atoms: C3_7  and  N4_9 
REMARK    3  A    between atoms: N4_9  and  N5_11 
REMARK       I    between atoms: N5_11  and  C4_13 
REMARK    4  A    between atoms: C4_13  and  C5_15 
REMARK    5  A    between atoms: C8_18  and  N6_19 
ROOT
HETATM    1  N2  UNL     1      -6.702 -14.976  18.038  1.00  0.00    -0.272 N 
ATOM      2  H2  UNL     1      -7.616 -14.583  18.261  1.00  0.00     0.189 HD
HETATM    3  C3  UNL     1      -6.032 -14.431  17.087  1.00  0.00     0.222 C 
HETATM    4  N3  UNL     1      -4.761 -14.941  16.746  1.00  0.00    -0.061 NA
HETATM    5  N4  UNL     1      -6.569 -13.343  16.390  1.00  0.00    -0.270 N 
ATOM      6  H4  UNL     1      -6.877 -13.462  15.425  1.00  0.00     0.190 HD
ENDROOT
BRANCH   1   7
HETATM    7  N1  UNL     1      -6.268 -16.056  18.774  1.00  0.00    -0.302 N 
HETATM    8  C2  UNL     1      -7.058 -16.645  19.593  1.00  0.00     0.032 C 
HETATM    9  C1  UNL     1      -8.445 -16.138  19.728  1.00  0.00     0.070 C 
ATOM     10  H1  UNL     1      -5.310 -16.390  18.667  1.00  0.00     0.186 HD
BRANCH   8  11
HETATM   11  C11 UNL     1      -6.596 -17.805  20.383  1.00  0.00    -0.013 A 
HETATM   12  C12 UNL     1      -7.438 -18.815  20.779  1.00  0.00     0.015 A 
HETATM   13  C13 UNL     1      -6.951 -19.895  21.526  1.00  0.00     0.020 A 
HETATM   14  C14 UNL     1      -5.622 -19.977  21.884  1.00  0.00     0.011 A 
HETATM   15 BR1  UNL     1      -4.967 -21.458  22.907  1.00  0.00    -0.051 Br
HETATM   16  C15 UNL     1      -4.780 -18.959  21.484  1.00  0.00     0.020 A 
HETATM   17  C16 UNL     1      -5.271 -17.897  20.747  1.00  0.00     0.015 A 
ENDBRANCH   8  11
ENDBRANCH   1   7
BRANCH   5  18
HETATM   18  N5  UNL     1      -6.684 -12.102  17.005  1.00  0.00    -0.263 N 
HETATM   19  C4  UNL     1      -5.616 -11.250  17.342  1.00  0.00     0.270 C 
HETATM   20  O1  UNL     1      -4.444 -11.606  17.084  1.00  0.00    -0.266 OA
ATOM     21  H5  UNL     1      -7.625 -11.780  17.231  1.00  0.00     0.190 HD
BRANCH  19  22
HETATM   22  C5  UNL     1      -5.880  -9.970  17.984  1.00  0.00     0.033 A 
HETATM   23  C6  UNL     1      -5.760  -8.793  17.293  1.00  0.00     0.019 A 
HETATM   24  C7  UNL     1      -6.018  -7.566  17.893  1.00  0.00     0.037 A 
HETATM   25  C8  UNL     1      -6.403  -7.541  19.217  1.00  0.00     0.102 A 
HETATM   26  C9  UNL     1      -6.518  -8.736  19.897  1.00  0.00     0.037 A 
HETATM   27  C10 UNL     1      -6.269  -9.951  19.323  1.00  0.00     0.019 A 
BRANCH  25  28
HETATM   28  N6  UNL     1      -6.672  -6.296  19.847  1.00  0.00    -0.116 N 
HETATM   29  O2  UNL     1      -6.029  -5.293  19.538  1.00  0.00    -0.532 OA
HETATM   30  O3  UNL     1      -7.663  -6.233  20.809  1.00  0.00    -0.532 OA
ENDBRANCH  25  28
ENDBRANCH  19  22
ENDBRANCH   5  18
TORSDOF 5
ENDMDL
