MODEL 1
REMARK VINA RESULT: -5.744173171      0.000      0.000
REMARK  4 active torsions:
REMARK  status: ('A' for Active; 'I' for Inactive)
REMARK    1  A    between atoms: C2_3  and  C3_4 
REMARK    2  A    between atoms: C3_4  and  N2_5 
REMARK    3  A    between atoms: C3_4  and  C14_17 
REMARK    4  A    between atoms: N2_5  and  C4_7 
REMARK       I    between atoms: C14_17  and  N3_19 
ROOT
HETATM    1  N1  UNL     1      11.971  -7.926  -1.309  1.00  0.00    -0.197 NA
HETATM    2  C1  UNL     1      11.165  -7.256  -1.793  1.00  0.00     0.061 C 
HETATM    3  C2  UNL     1      10.139  -6.386  -2.437  1.00  0.00     0.158 C 
ENDROOT
BRANCH   3   4
HETATM    4  C3  UNL     1      10.417  -4.934  -2.060  1.00  0.00     0.183 C 
BRANCH   4   5
HETATM    5  N2  UNL     1      11.586  -4.789  -1.293  1.00  0.00    -0.400 N 
ATOM      6  H2  UNL     1      11.597  -5.173  -0.348  1.00  0.00     0.154 HD
BRANCH   5   7
HETATM    7  C4  UNL     1      12.738  -4.142  -1.766  1.00  0.00     0.027 C 
HETATM    8  C5  UNL     1      12.715  -2.766  -1.022  1.00  0.00     0.035 C 
HETATM    9  C6  UNL     1      13.926  -1.978  -1.350  1.00  0.00    -0.012 C 
HETATM   10  C7  UNL     1      15.170  -2.717  -0.851  1.00  0.00     0.009 C 
HETATM   11  C11 UNL     1      14.126  -1.739  -2.823  1.00  0.00     0.009 C 
HETATM   12  C8  UNL     1      15.253  -4.016  -1.581  1.00  0.00    -0.012 C 
HETATM   13  C9  UNL     1      15.287  -3.876  -3.081  1.00  0.00     0.009 C 
HETATM   14  C13 UNL     1      13.983  -4.823  -1.280  1.00  0.00     0.035 C 
HETATM   15  C10 UNL     1      14.099  -3.091  -3.526  1.00  0.00    -0.012 C 
HETATM   16  C12 UNL     1      12.769  -3.748  -3.214  1.00  0.00     0.035 C 
ENDBRANCH   5   7
ENDBRANCH   4   5
BRANCH   4  17
HETATM   17  C14 UNL     1       9.274  -4.427  -1.249  1.00  0.00     0.243 C 
HETATM   18  O1  UNL     1       8.985  -5.089  -0.198  1.00  0.00    -0.271 OA
HETATM   19  N3  UNL     1       8.489  -3.302  -1.522  1.00  0.00    -0.349 N 
HETATM   20  C15 UNL     1       7.344  -2.946  -0.703  1.00  0.00     0.136 C 
HETATM   21  C18 UNL     1       8.814  -2.425  -2.613  1.00  0.00     0.136 C 
HETATM   22  C16 UNL     1       7.468  -1.664   0.037  1.00  0.00     0.093 C 
HETATM   23  S1  UNL     1       8.517  -0.455  -0.811  1.00  0.00    -0.166 SA
HETATM   24  C17 UNL     1       9.620  -1.260  -2.000  1.00  0.00     0.093 C 
ENDBRANCH   4  17
ENDBRANCH   3   4
TORSDOF 4
ENDMDL
MODEL 2
REMARK VINA RESULT: -5.665295173      0.136      1.532
REMARK  4 active torsions:
REMARK  status: ('A' for Active; 'I' for Inactive)
REMARK    1  A    between atoms: C2_3  and  C3_4 
REMARK    2  A    between atoms: C3_4  and  N2_5 
REMARK    3  A    between atoms: C3_4  and  C14_17 
REMARK    4  A    between atoms: N2_5  and  C4_7 
REMARK       I    between atoms: C14_17  and  N3_19 
ROOT
HETATM    1  N1  UNL     1      12.002  -7.866  -1.365  1.00  0.00    -0.197 NA
HETATM    2  C1  UNL     1      11.213  -7.192  -1.868  1.00  0.00     0.061 C 
HETATM    3  C2  UNL     1      10.208  -6.314  -2.538  1.00  0.00     0.158 C 
ENDROOT
BRANCH   3   4
HETATM    4  C3  UNL     1      10.468  -4.867  -2.130  1.00  0.00     0.183 C 
BRANCH   4   5
HETATM    5  N2  UNL     1      11.615  -4.729  -1.329  1.00  0.00    -0.400 N 
ATOM      6  H2  UNL     1      11.668  -5.262  -0.460  1.00  0.00     0.154 HD
BRANCH   5   7
HETATM    7  C4  UNL     1      12.691  -3.894  -1.667  1.00  0.00     0.027 C 
HETATM    8  C5  UNL     1      13.945  -4.713  -1.214  1.00  0.00     0.035 C 
HETATM    9  C6  UNL     1      15.191  -3.999  -1.580  1.00  0.00    -0.012 C 
HETATM   10  C7  UNL     1      15.284  -3.874  -3.102  1.00  0.00     0.009 C 
HETATM   11  C11 UNL     1      15.286  -2.603  -1.024  1.00  0.00     0.009 C 
HETATM   12  C8  UNL     1      14.128  -3.051  -3.565  1.00  0.00    -0.012 C 
HETATM   13  C9  UNL     1      14.051  -1.688  -2.926  1.00  0.00     0.009 C 
HETATM   14  C13 UNL     1      12.832  -3.763  -3.155  1.00  0.00     0.035 C 
HETATM   15  C10 UNL     1      14.033  -1.843  -1.443  1.00  0.00    -0.012 C 
HETATM   16  C12 UNL     1      12.834  -2.605  -0.913  1.00  0.00     0.035 C 
ENDBRANCH   5   7
ENDBRANCH   4   5
BRANCH   4  17
HETATM   17  C14 UNL     1       9.301  -4.379  -1.343  1.00  0.00     0.243 C 
HETATM   18  O1  UNL     1       8.970  -5.075  -0.326  1.00  0.00    -0.271 OA
HETATM   19  N3  UNL     1       8.534  -3.239  -1.603  1.00  0.00    -0.349 N 
HETATM   20  C15 UNL     1       7.364  -2.902  -0.813  1.00  0.00     0.136 C 
HETATM   21  C18 UNL     1       8.904  -2.328  -2.652  1.00  0.00     0.136 C 
HETATM   22  C16 UNL     1       7.471  -1.648  -0.026  1.00  0.00     0.093 C 
HETATM   23  S1  UNL     1       8.557  -0.419  -0.794  1.00  0.00    -0.166 SA
HETATM   24  C17 UNL     1       9.696  -1.191  -1.971  1.00  0.00     0.093 C 
ENDBRANCH   4  17
ENDBRANCH   3   4
TORSDOF 4
ENDMDL
MODEL 3
REMARK VINA RESULT: -5.596416499      0.224      1.533
REMARK  4 active torsions:
REMARK  status: ('A' for Active; 'I' for Inactive)
REMARK    1  A    between atoms: C2_3  and  C3_4 
REMARK    2  A    between atoms: C3_4  and  N2_5 
REMARK    3  A    between atoms: C3_4  and  C14_17 
REMARK    4  A    between atoms: N2_5  and  C4_7 
REMARK       I    between atoms: C14_17  and  N3_19 
ROOT
HETATM    1  N1  UNL     1      11.954  -7.902  -1.367  1.00  0.00    -0.197 NA
HETATM    2  C1  UNL     1      11.201  -7.195  -1.882  1.00  0.00     0.061 C 
HETATM    3  C2  UNL     1      10.245  -6.275  -2.566  1.00  0.00     0.158 C 
ENDROOT
BRANCH   3   4
HETATM    4  C3  UNL     1      10.505  -4.850  -2.087  1.00  0.00     0.183 C 
BRANCH   4   5
HETATM    5  N2  UNL     1      11.616  -4.761  -1.232  1.00  0.00    -0.400 N 
ATOM      6  H2  UNL     1      11.580  -5.249  -0.336  1.00  0.00     0.154 HD
BRANCH   5   7
HETATM    7  C4  UNL     1      12.774  -4.034  -1.550  1.00  0.00     0.027 C 
HETATM    8  C5  UNL     1      12.651  -3.809  -3.093  1.00  0.00     0.035 C 
HETATM    9  C6  UNL     1      13.769  -2.972  -3.587  1.00  0.00    -0.012 C 
HETATM   10  C7  UNL     1      13.698  -1.586  -2.942  1.00  0.00     0.009 C 
HETATM   11  C11 UNL     1      15.135  -3.525  -3.277  1.00  0.00     0.009 C 
HETATM   12  C8  UNL     1      13.866  -1.759  -1.469  1.00  0.00    -0.012 C 
HETATM   13  C9  UNL     1      15.140  -2.461  -1.075  1.00  0.00     0.009 C 
HETATM   14  C13 UNL     1      12.734  -2.658  -0.954  1.00  0.00     0.035 C 
HETATM   15  C10 UNL     1      15.211  -3.776  -1.776  1.00  0.00    -0.012 C 
HETATM   16  C12 UNL     1      14.094  -4.734  -1.411  1.00  0.00     0.035 C 
ENDBRANCH   5   7
ENDBRANCH   4   5
BRANCH   4  17
HETATM   17  C14 UNL     1       9.310  -4.377  -1.333  1.00  0.00     0.243 C 
HETATM   18  O1  UNL     1       8.959  -5.078  -0.327  1.00  0.00    -0.271 OA
HETATM   19  N3  UNL     1       8.537  -3.246  -1.614  1.00  0.00    -0.349 N 
HETATM   20  C15 UNL     1       7.341  -2.924  -0.858  1.00  0.00     0.136 C 
HETATM   21  C18 UNL     1       8.925  -2.329  -2.651  1.00  0.00     0.136 C 
HETATM   22  C16 UNL     1       7.410  -1.670  -0.066  1.00  0.00     0.093 C 
HETATM   23  S1  UNL     1       8.503  -0.427  -0.802  1.00  0.00    -0.166 SA
HETATM   24  C17 UNL     1       9.683  -1.183  -1.947  1.00  0.00     0.093 C 
ENDBRANCH   4  17
ENDBRANCH   3   4
TORSDOF 4
ENDMDL
MODEL 4
REMARK VINA RESULT: -5.318767772      3.521      6.781
REMARK  4 active torsions:
REMARK  status: ('A' for Active; 'I' for Inactive)
REMARK    1  A    between atoms: C2_3  and  C3_4 
REMARK    2  A    between atoms: C3_4  and  N2_5 
REMARK    3  A    between atoms: C3_4  and  C14_17 
REMARK    4  A    between atoms: N2_5  and  C4_7 
REMARK       I    between atoms: C14_17  and  N3_19 
ROOT
HETATM    1  N1  UNL     1      12.463  -1.438  -0.910  1.00  0.00    -0.197 NA
HETATM    2  C1  UNL     1      13.437  -2.057  -0.944  1.00  0.00     0.061 C 
HETATM    3  C2  UNL     1      14.699  -2.851  -1.012  1.00  0.00     0.158 C 
ENDROOT
BRANCH   3   4
HETATM    4  C3  UNL     1      14.389  -4.219  -1.614  1.00  0.00     0.183 C 
BRANCH   4   5
HETATM    5  N2  UNL     1      13.190  -4.765  -1.125  1.00  0.00    -0.400 N 
ATOM      6  H2  UNL     1      13.056  -4.817  -0.115  1.00  0.00     0.154 HD
BRANCH   5   7
HETATM    7  C4  UNL     1      12.169  -5.243  -1.961  1.00  0.00     0.027 C 
HETATM    8  C5  UNL     1      10.860  -4.794  -1.230  1.00  0.00     0.035 C 
HETATM    9  C6  UNL     1       9.667  -5.153  -2.033  1.00  0.00    -0.012 C 
HETATM   10  C7  UNL     1       9.698  -4.398  -3.364  1.00  0.00     0.009 C 
HETATM   11  C11 UNL     1       9.568  -6.618  -2.367  1.00  0.00     0.009 C 
HETATM   12  C8  UNL     1      10.910  -4.843  -4.113  1.00  0.00    -0.012 C 
HETATM   13  C9  UNL     1      10.975  -6.331  -4.347  1.00  0.00     0.009 C 
HETATM   14  C13 UNL     1      12.149  -4.512  -3.271  1.00  0.00     0.035 C 
HETATM   15  C10 UNL     1      10.871  -7.037  -3.037  1.00  0.00    -0.012 C 
HETATM   16  C12 UNL     1      12.003  -6.730  -2.075  1.00  0.00     0.035 C 
ENDBRANCH   5   7
ENDBRANCH   4   5
BRANCH   4  17
HETATM   17  C14 UNL     1      15.493  -5.154  -1.261  1.00  0.00     0.243 C 
HETATM   18  O1  UNL     1      15.230  -6.038  -0.380  1.00  0.00    -0.271 OA
HETATM   19  N3  UNL     1      16.786  -5.162  -1.795  1.00  0.00    -0.349 N 
HETATM   20  C15 UNL     1      17.810  -6.072  -1.317  1.00  0.00     0.136 C 
HETATM   21  C18 UNL     1      17.139  -4.286  -2.879  1.00  0.00     0.136 C 
HETATM   22  C16 UNL     1      18.279  -7.076  -2.306  1.00  0.00     0.093 C 
HETATM   23  S1  UNL     1      18.169  -6.491  -4.016  1.00  0.00    -0.166 SA
HETATM   24  C17 UNL     1      16.995  -5.121  -4.169  1.00  0.00     0.093 C 
ENDBRANCH   4  17
ENDBRANCH   3   4
TORSDOF 4
ENDMDL
MODEL 5
REMARK VINA RESULT: -5.248008888      3.542      6.829
REMARK  4 active torsions:
REMARK  status: ('A' for Active; 'I' for Inactive)
REMARK    1  A    between atoms: C2_3  and  C3_4 
REMARK    2  A    between atoms: C3_4  and  N2_5 
REMARK    3  A    between atoms: C3_4  and  C14_17 
REMARK    4  A    between atoms: N2_5  and  C4_7 
REMARK       I    between atoms: C14_17  and  N3_19 
ROOT
HETATM    1  N1  UNL     1      12.766  -1.247  -0.632  1.00  0.00    -0.197 NA
HETATM    2  C1  UNL     1      13.724  -1.871  -0.790  1.00  0.00     0.061 C 
HETATM    3  C2  UNL     1      14.964  -2.670  -1.019  1.00  0.00     0.158 C 
ENDROOT
BRANCH   3   4
HETATM    4  C3  UNL     1      14.579  -4.013  -1.631  1.00  0.00     0.183 C 
BRANCH   4   5
HETATM    5  N2  UNL     1      13.362  -4.506  -1.130  1.00  0.00    -0.400 N 
ATOM      6  H2  UNL     1      13.285  -4.682  -0.128  1.00  0.00     0.154 HD
BRANCH   5   7
HETATM    7  C4  UNL     1      12.248  -4.769  -1.943  1.00  0.00     0.027 C 
HETATM    8  C5  UNL     1      12.264  -6.326  -2.093  1.00  0.00     0.035 C 
HETATM    9  C6  UNL     1      11.087  -6.786  -2.866  1.00  0.00    -0.012 C 
HETATM   10  C7  UNL     1       9.805  -6.438  -2.106  1.00  0.00     0.009 C 
HETATM   11  C11 UNL     1      10.964  -6.160  -4.231  1.00  0.00     0.009 C 
HETATM   12  C8  UNL     1       9.730  -4.952  -1.991  1.00  0.00    -0.012 C 
HETATM   13  C9  UNL     1       9.772  -4.232  -3.314  1.00  0.00     0.009 C 
HETATM   14  C13 UNL     1      10.966  -4.462  -1.226  1.00  0.00     0.035 C 
HETATM   15  C10 UNL     1      10.996  -4.646  -4.059  1.00  0.00    -0.012 C 
HETATM   16  C12 UNL     1      12.296  -4.288  -3.364  1.00  0.00     0.035 C 
ENDBRANCH   5   7
ENDBRANCH   4   5
BRANCH   4  17
HETATM   17  C14 UNL     1      15.641  -5.006  -1.306  1.00  0.00     0.243 C 
HETATM   18  O1  UNL     1      15.350  -5.882  -0.426  1.00  0.00    -0.271 OA
HETATM   19  N3  UNL     1      16.921  -5.075  -1.865  1.00  0.00    -0.349 N 
HETATM   20  C15 UNL     1      17.908  -6.039  -1.413  1.00  0.00     0.136 C 
HETATM   21  C18 UNL     1      17.297  -4.209  -2.949  1.00  0.00     0.136 C 
HETATM   22  C16 UNL     1      18.306  -7.057  -2.418  1.00  0.00     0.093 C 
HETATM   23  S1  UNL     1      18.194  -6.453  -4.122  1.00  0.00    -0.166 SA
HETATM   24  C17 UNL     1      17.087  -5.025  -4.242  1.00  0.00     0.093 C 
ENDBRANCH   4  17
ENDBRANCH   3   4
TORSDOF 4
ENDMDL
