MODEL 1
REMARK VINA RESULT: -6.027301824      0.000      0.000
REMARK  5 active torsions:
REMARK  status: ('A' for Active; 'I' for Inactive)
REMARK    1  A    between atoms: O1_1  and  C1_3 
REMARK    2  A    between atoms: N1_9  and  C7_10 
REMARK    3  A    between atoms: C7_10  and  C8_11 
REMARK    4  A    between atoms: N2_16  and  C13_17 
REMARK    5  A    between atoms: C13_17  and  C14_18 
ROOT
HETATM    1  C1  UNL     1      16.012  -5.085  -2.295  1.00  0.00     0.156 C 
HETATM    2  C2  UNL     1      16.897  -5.256  -3.497  1.00  0.00     0.039 C 
HETATM    3  C3  UNL     1      17.931  -6.339  -3.300  1.00  0.00     0.034 C 
HETATM    4  C4  UNL     1      18.391  -6.459  -1.869  1.00  0.00     0.039 C 
HETATM    5  C5  UNL     1      19.289  -5.296  -1.557  1.00  0.00     0.061 C 
HETATM    6  C6  UNL     1      20.500  -5.261  -2.407  1.00  0.00     0.275 C 
HETATM    7  N1  UNL     1      21.183  -6.510  -2.561  1.00  0.00     0.088 N 
HETATM    8  C11 UNL     1      20.342  -7.637  -2.769  1.00  0.00     0.275 C 
HETATM    9  C12 UNL     1      19.206  -7.737  -1.772  1.00  0.00     0.061 C 
HETATM   10  N2  UNL     1      17.287  -6.596  -0.979  1.00  0.00    -0.361 N 
HETATM   11  C19 UNL     1      16.015  -6.402  -1.545  1.00  0.00     0.095 C 
ENDROOT
BRANCH  10  12
HETATM   12  C13 UNL     1      17.460  -7.460   0.111  1.00  0.00     0.069 C 
BRANCH  12  13
HETATM   13  C14 UNL     1      16.352  -8.450   0.381  1.00  0.00     0.028 C 
HETATM   14  C15 UNL     1      15.200  -7.852   1.126  1.00  0.00     0.036 C 
HETATM   15  C16 UNL     1      15.123  -8.129   2.570  1.00  0.00     0.168 C 
HETATM   16  O2  UNL     1      16.061  -8.984   3.087  1.00  0.00    -0.391 OA
HETATM   17  C17 UNL     1      16.091 -10.116   2.241  1.00  0.00     0.168 C 
HETATM   18  C18 UNL     1      16.893  -9.704   1.043  1.00  0.00     0.036 C 
ENDBRANCH  12  13
ENDBRANCH  10  12
BRANCH   1  19
HETATM   19  O1  UNL     1      14.699  -4.834  -2.734  1.00  0.00    -0.390 OA
ATOM     20  H1  UNL     1      14.575  -3.895  -2.802  1.00  0.00     0.210 HD
ENDBRANCH   1  19
BRANCH   7  21
HETATM   21  C7  UNL     1      22.049  -6.378  -3.723  1.00  0.00     0.277 C 
BRANCH  21  22
HETATM   22  C8  UNL     1      21.568  -5.370  -4.701  1.00  0.00     0.014 A 
HETATM   23  C9  UNL     1      21.101  -5.883  -6.070  1.00  0.00     0.007 A 
HETATM   24  C10 UNL     1      22.418  -5.205  -5.943  1.00  0.00     0.007 A 
ENDBRANCH  21  22
ENDBRANCH   7  21
TORSDOF 5
ENDMDL
MODEL 2
REMARK VINA RESULT: -5.946203604      2.975      5.728
REMARK  5 active torsions:
REMARK  status: ('A' for Active; 'I' for Inactive)
REMARK    1  A    between atoms: O1_1  and  C1_3 
REMARK    2  A    between atoms: N1_9  and  C7_10 
REMARK    3  A    between atoms: C7_10  and  C8_11 
REMARK    4  A    between atoms: N2_16  and  C13_17 
REMARK    5  A    between atoms: C13_17  and  C14_18 
ROOT
HETATM    1  C1  UNL     1      17.561  -6.085  -4.254  1.00  0.00     0.156 C 
HETATM    2  C2  UNL     1      17.211  -4.631  -4.389  1.00  0.00     0.039 C 
HETATM    3  C3  UNL     1      16.915  -3.984  -3.057  1.00  0.00     0.034 C 
HETATM    4  C4  UNL     1      16.280  -4.933  -2.071  1.00  0.00     0.039 C 
HETATM    5  C5  UNL     1      14.854  -5.163  -2.479  1.00  0.00     0.061 C 
HETATM    6  C6  UNL     1      14.048  -3.922  -2.475  1.00  0.00     0.275 C 
HETATM    7  N1  UNL     1      14.205  -3.087  -1.323  1.00  0.00     0.088 N 
HETATM    8  C11 UNL     1      15.543  -2.929  -0.869  1.00  0.00     0.275 C 
HETATM    9  C12 UNL     1      16.290  -4.238  -0.720  1.00  0.00     0.061 C 
HETATM   10  N2  UNL     1      17.047  -6.127  -1.935  1.00  0.00    -0.361 N 
HETATM   11  C19 UNL     1      18.101  -6.287  -2.851  1.00  0.00     0.095 C 
ENDROOT
BRANCH  10  12
HETATM   12  C13 UNL     1      17.125  -6.682  -0.650  1.00  0.00     0.069 C 
BRANCH  12  13
HETATM   13  C14 UNL     1      16.297  -7.919  -0.390  1.00  0.00     0.028 C 
HETATM   14  C15 UNL     1      15.184  -7.685   0.583  1.00  0.00     0.036 C 
HETATM   15  C16 UNL     1      15.398  -8.142   1.966  1.00  0.00     0.168 C 
HETATM   16  O2  UNL     1      16.560  -8.824   2.219  1.00  0.00    -0.391 OA
HETATM   17  C17 UNL     1      16.681  -9.811   1.215  1.00  0.00     0.168 C 
HETATM   18  C18 UNL     1      17.179  -9.091  -0.003  1.00  0.00     0.036 C 
ENDBRANCH  12  13
ENDBRANCH  10  12
BRANCH   1  19
HETATM   19  O1  UNL     1      18.588  -6.388  -5.166  1.00  0.00    -0.390 OA
ATOM     20  H1  UNL     1      19.016  -7.189  -4.887  1.00  0.00     0.210 HD
ENDBRANCH   1  19
BRANCH   7  21
HETATM   21  C7  UNL     1      13.697  -1.771  -1.681  1.00  0.00     0.277 C 
BRANCH  21  22
HETATM   22  C8  UNL     1      12.967  -1.105  -0.572  1.00  0.00     0.014 A 
HETATM   23  C9  UNL     1      11.748  -0.249  -0.944  1.00  0.00     0.007 A 
HETATM   24  C10 UNL     1      13.027   0.409  -0.566  1.00  0.00     0.007 A 
ENDBRANCH  21  22
ENDBRANCH   7  21
TORSDOF 5
ENDMDL
MODEL 3
REMARK VINA RESULT: -5.831708965      4.621      7.855
REMARK  5 active torsions:
REMARK  status: ('A' for Active; 'I' for Inactive)
REMARK    1  A    between atoms: O1_1  and  C1_3 
REMARK    2  A    between atoms: N1_9  and  C7_10 
REMARK    3  A    between atoms: C7_10  and  C8_11 
REMARK    4  A    between atoms: N2_16  and  C13_17 
REMARK    5  A    between atoms: C13_17  and  C14_18 
ROOT
HETATM    1  C1  UNL     1      14.574  -2.261  -1.650  1.00  0.00     0.156 C 
HETATM    2  C2  UNL     1      13.107  -2.078  -1.388  1.00  0.00     0.039 C 
HETATM    3  C3  UNL     1      12.395  -3.391  -1.166  1.00  0.00     0.034 C 
HETATM    4  C4  UNL     1      12.993  -4.526  -1.960  1.00  0.00     0.039 C 
HETATM    5  C5  UNL     1      12.607  -4.356  -3.401  1.00  0.00     0.061 C 
HETATM    6  C6  UNL     1      11.143  -4.395  -3.612  1.00  0.00     0.275 C 
HETATM    7  N1  UNL     1      10.449  -5.449  -2.936  1.00  0.00     0.088 N 
HETATM    8  C11 UNL     1      10.864  -5.683  -1.596  1.00  0.00     0.275 C 
HETATM    9  C12 UNL     1      12.365  -5.808  -1.440  1.00  0.00     0.061 C 
HETATM   10  N2  UNL     1      14.397  -4.628  -1.741  1.00  0.00    -0.361 N 
HETATM   11  C19 UNL     1      14.983  -3.576  -1.016  1.00  0.00     0.095 C 
ENDROOT
BRANCH  10  12
HETATM   12  C13 UNL     1      14.934  -5.921  -1.685  1.00  0.00     0.069 C 
BRANCH  12  13
HETATM   13  C14 UNL     1      15.954  -6.191  -0.605  1.00  0.00     0.028 C 
HETATM   14  C15 UNL     1      17.253  -6.705  -1.140  1.00  0.00     0.036 C 
HETATM   15  C16 UNL     1      17.493  -8.154  -1.034  1.00  0.00     0.168 C 
HETATM   16  O2  UNL     1      16.545  -8.891  -0.373  1.00  0.00    -0.391 OA
HETATM   17  C17 UNL     1      16.280  -8.217   0.841  1.00  0.00     0.168 C 
HETATM   18  C18 UNL     1      15.374  -7.077   0.482  1.00  0.00     0.036 C 
ENDBRANCH  12  13
ENDBRANCH  10  12
BRANCH   1  19
HETATM   19  O1  UNL     1      15.279  -1.227  -1.006  1.00  0.00    -0.390 OA
ATOM     20  H1  UNL     1      16.165  -1.204  -1.347  1.00  0.00     0.210 HD
ENDBRANCH   1  19
BRANCH   7  21
HETATM   21  C7  UNL     1       9.041  -5.081  -2.910  1.00  0.00     0.277 C 
BRANCH  21  22
HETATM   22  C8  UNL     1       8.802  -3.723  -2.360  1.00  0.00     0.014 A 
HETATM   23  C9  UNL     1       7.906  -3.613  -1.118  1.00  0.00     0.007 A 
HETATM   24  C10 UNL     1       7.375  -3.222  -2.451  1.00  0.00     0.007 A 
ENDBRANCH  21  22
ENDBRANCH   7  21
TORSDOF 5
ENDMDL
MODEL 4
REMARK VINA RESULT: -5.830945614      2.152      4.427
REMARK  5 active torsions:
REMARK  status: ('A' for Active; 'I' for Inactive)
REMARK    1  A    between atoms: O1_1  and  C1_3 
REMARK    2  A    between atoms: N1_9  and  C7_10 
REMARK    3  A    between atoms: C7_10  and  C8_11 
REMARK    4  A    between atoms: N2_16  and  C13_17 
REMARK    5  A    between atoms: C13_17  and  C14_18 
ROOT
HETATM    1  C1  UNL     1      16.192  -8.204   0.126  1.00  0.00     0.156 C 
HETATM    2  C2  UNL     1      17.667  -8.177  -0.155  1.00  0.00     0.039 C 
HETATM    3  C3  UNL     1      18.123  -6.848  -0.707  1.00  0.00     0.034 C 
HETATM    4  C4  UNL     1      17.073  -6.171  -1.554  1.00  0.00     0.039 C 
HETATM    5  C5  UNL     1      16.985  -6.890  -2.869  1.00  0.00     0.061 C 
HETATM    6  C6  UNL     1      18.253  -6.854  -3.630  1.00  0.00     0.275 C 
HETATM    7  N1  UNL     1      18.898  -5.577  -3.697  1.00  0.00     0.088 N 
HETATM    8  C11 UNL     1      18.912  -4.843  -2.479  1.00  0.00     0.275 C 
HETATM    9  C12 UNL     1      17.557  -4.754  -1.809  1.00  0.00     0.061 C 
HETATM   10  N2  UNL     1      15.833  -6.073  -0.859  1.00  0.00    -0.361 N 
HETATM   11  C19 UNL     1      15.754  -6.772   0.358  1.00  0.00     0.095 C 
ENDROOT
BRANCH  10  12
HETATM   12  C13 UNL     1      15.089  -4.903  -1.062  1.00  0.00     0.069 C 
BRANCH  12  13
HETATM   13  C14 UNL     1      14.009  -4.955  -2.118  1.00  0.00     0.028 C 
HETATM   14  C15 UNL     1      13.463  -3.605  -2.464  1.00  0.00     0.036 C 
HETATM   15  C16 UNL     1      12.168  -3.235  -1.868  1.00  0.00     0.168 C 
HETATM   16  O2  UNL     1      11.534  -4.195  -1.122  1.00  0.00    -0.391 OA
HETATM   17  C17 UNL     1      11.546  -5.381  -1.890  1.00  0.00     0.168 C 
HETATM   18  C18 UNL     1      12.926  -5.947  -1.739  1.00  0.00     0.036 C 
ENDBRANCH  12  13
ENDBRANCH  10  12
BRANCH   1  19
HETATM   19  O1  UNL     1      15.973  -8.926   1.313  1.00  0.00    -0.390 OA
ATOM     20  H1  UNL     1      16.268  -9.820   1.185  1.00  0.00     0.210 HD
ENDBRANCH   1  19
BRANCH   7  21
HETATM   21  C7  UNL     1      20.277  -5.818  -4.090  1.00  0.00     0.277 C 
BRANCH  21  22
HETATM   22  C8  UNL     1      21.183  -6.048  -2.936  1.00  0.00     0.014 A 
HETATM   23  C9  UNL     1      22.593  -6.573  -3.239  1.00  0.00     0.007 A 
HETATM   24  C10 UNL     1      21.566  -7.491  -2.681  1.00  0.00     0.007 A 
ENDBRANCH  21  22
ENDBRANCH   7  21
TORSDOF 5
ENDMDL
MODEL 5
REMARK VINA RESULT: -5.760278047      6.374      9.249
REMARK  5 active torsions:
REMARK  status: ('A' for Active; 'I' for Inactive)
REMARK    1  A    between atoms: O1_1  and  C1_3 
REMARK    2  A    between atoms: N1_9  and  C7_10 
REMARK    3  A    between atoms: C7_10  and  C8_11 
REMARK    4  A    between atoms: N2_16  and  C13_17 
REMARK    5  A    between atoms: C13_17  and  C14_18 
ROOT
HETATM    1  C1  UNL     1       9.884  -2.838  -2.046  1.00  0.00     0.156 C 
HETATM    2  C2  UNL     1       8.763  -3.769  -2.414  1.00  0.00     0.039 C 
HETATM    3  C3  UNL     1       9.260  -5.135  -2.822  1.00  0.00     0.034 C 
HETATM    4  C4  UNL     1      10.602  -5.091  -3.509  1.00  0.00     0.039 C 
HETATM    5  C5  UNL     1      10.411  -4.549  -4.897  1.00  0.00     0.061 C 
HETATM    6  C6  UNL     1       9.520  -5.391  -5.725  1.00  0.00     0.275 C 
HETATM    7  N1  UNL     1       9.776  -6.799  -5.671  1.00  0.00     0.088 N 
HETATM    8  C11 UNL     1      10.047  -7.315  -4.374  1.00  0.00     0.275 C 
HETATM    9  C12 UNL     1      11.092  -6.525  -3.615  1.00  0.00     0.061 C 
HETATM   10  N2  UNL     1      11.559  -4.376  -2.732  1.00  0.00    -0.361 N 
HETATM   11  C19 UNL     1      11.054  -3.697  -1.609  1.00  0.00     0.095 C 
ENDROOT
BRANCH  10  12
HETATM   12  C13 UNL     1      12.871  -4.869  -2.739  1.00  0.00     0.069 C 
BRANCH  12  13
HETATM   13  C14 UNL     1      13.565  -4.985  -1.402  1.00  0.00     0.028 C 
HETATM   14  C15 UNL     1      14.742  -4.071  -1.271  1.00  0.00     0.036 C 
HETATM   15  C16 UNL     1      16.075  -4.668  -1.453  1.00  0.00     0.168 C 
HETATM   16  O2  UNL     1      16.125  -6.026  -1.637  1.00  0.00    -0.391 OA
HETATM   17  C17 UNL     1      15.321  -6.603  -0.628  1.00  0.00     0.168 C 
HETATM   18  C18 UNL     1      13.905  -6.431  -1.091  1.00  0.00     0.036 C 
ENDBRANCH  12  13
ENDBRANCH  10  12
BRANCH   1  19
HETATM   19  O1  UNL     1       9.479  -2.058  -0.947  1.00  0.00    -0.390 OA
ATOM     20  H1  UNL     1       8.547  -1.893  -1.018  1.00  0.00     0.210 HD
ENDBRANCH   1  19
BRANCH   7  21
HETATM   21  C7  UNL     1       8.586  -7.465  -6.177  1.00  0.00     0.277 C 
BRANCH  21  22
HETATM   22  C8  UNL     1       7.673  -7.929  -5.101  1.00  0.00     0.014 A 
HETATM   23  C9  UNL     1       6.353  -8.584  -5.530  1.00  0.00     0.007 A 
HETATM   24  C10 UNL     1       6.352  -7.195  -5.001  1.00  0.00     0.007 A 
ENDBRANCH  21  22
ENDBRANCH   7  21
TORSDOF 5
ENDMDL
