MODEL 1
REMARK VINA RESULT: -6.014822798      0.000      0.000
REMARK  7 active torsions:
REMARK  status: ('A' for Active; 'I' for Inactive)
REMARK    1  A    between atoms: N1_2  and  C2_3 
REMARK    2  A    between atoms: C3_4  and  C4_5 
REMARK    3  A    between atoms: C4_5  and  C5_6 
REMARK    4  A    between atoms: C10_13  and  N3_14 
REMARK    5  A    between atoms: N3_14  and  C11_16 
REMARK    6  A    between atoms: C11_16  and  C12_17 
REMARK    7  A    between atoms: N4_22  and  C16_23 
ROOT
HETATM    1  C2  UNL     1      13.676  -4.569  -2.409  1.00  0.00     0.203 A 
HETATM    2  C3  UNL     1      12.482  -5.310  -2.263  1.00  0.00     0.024 A 
HETATM    3  C8  UNL     1      12.464  -6.517  -1.606  1.00  0.00     0.034 A 
HETATM    4  C9  UNL     1      11.267  -7.378  -1.471  1.00  0.00     0.069 C 
HETATM    5  N2  UNL     1      13.632  -6.951  -1.105  1.00  0.00    -0.195 N 
ATOM      6  H2  UNL     1      13.657  -7.842  -0.610  1.00  0.00     0.184 HD
HETATM    7  C10 UNL     1      14.769  -6.245  -1.235  1.00  0.00     0.683 A 
HETATM    8  N4  UNL     1      14.850  -5.075  -1.863  1.00  0.00    -0.146 N 
ENDROOT
BRANCH   7   9
HETATM    9  N3  UNL     1      15.837  -6.758  -0.718  1.00  0.00    -0.223 N 
ATOM     10  H3  UNL     1      16.625  -6.121  -0.595  1.00  0.00     0.177 HD
BRANCH   9  11
HETATM   11  C11 UNL     1      16.047  -8.096  -0.299  1.00  0.00     0.170 C 
BRANCH  11  12
HETATM   12  C12 UNL     1      16.408  -8.134   1.192  1.00  0.00     0.139 C 
HETATM   13  C13 UNL     1      15.153  -8.079   1.990  1.00  0.00     0.035 C 
HETATM   14  C14 UNL     1      15.337  -9.209   2.976  1.00  0.00     0.029 C 
HETATM   15  C15 UNL     1      16.337 -10.082   2.285  1.00  0.00     0.168 C 
HETATM   16  O1  UNL     1      17.100  -9.279   1.461  1.00  0.00    -0.384 OA
ENDBRANCH  11  12
ENDBRANCH   9  11
ENDBRANCH   7   9
BRANCH   8  17
HETATM   17  C16 UNL     1      16.031  -4.270  -2.029  1.00  0.00     0.046 C 
HETATM   18  C17 UNL     1      16.321  -3.905  -3.472  1.00  0.00     0.039 C 
HETATM   19  C18 UNL     1      17.314  -4.905  -1.531  1.00  0.00     0.039 C 
HETATM   20  C19 UNL     1      15.944  -2.971  -1.219  1.00  0.00     0.039 C 
ENDBRANCH   8  17
BRANCH   1  21
HETATM   21  N1  UNL     1      13.749  -3.576  -3.097  1.00  0.00    -0.410 NA
HETATM   22  C1  UNL     1      13.521  -2.509  -3.879  1.00  0.00     0.231 C 
ENDBRANCH   1  21
BRANCH   2  23
HETATM   23  C4  UNL     1      11.190  -4.774  -2.718  1.00  0.00     0.049 C 
BRANCH  23  24
HETATM   24  C5  UNL     1      10.385  -3.952  -1.797  1.00  0.00    -0.018 C 
HETATM   25  C6  UNL     1       9.036  -4.403  -1.382  1.00  0.00     0.010 C 
HETATM   26  C7  UNL     1      10.267  -2.471  -2.140  1.00  0.00     0.010 C 
ENDBRANCH  23  24
ENDBRANCH   2  23
TORSDOF 7
ENDMDL
MODEL 2
REMARK VINA RESULT: -6.011883854      1.620      3.651
REMARK  7 active torsions:
REMARK  status: ('A' for Active; 'I' for Inactive)
REMARK    1  A    between atoms: N1_2  and  C2_3 
REMARK    2  A    between atoms: C3_4  and  C4_5 
REMARK    3  A    between atoms: C4_5  and  C5_6 
REMARK    4  A    between atoms: C10_13  and  N3_14 
REMARK    5  A    between atoms: N3_14  and  C11_16 
REMARK    6  A    between atoms: C11_16  and  C12_17 
REMARK    7  A    between atoms: N4_22  and  C16_23 
ROOT
HETATM    1  C2  UNL     1      12.942  -3.886  -2.046  1.00  0.00     0.203 A 
HETATM    2  C3  UNL     1      14.068  -3.049  -1.876  1.00  0.00     0.024 A 
HETATM    3  C8  UNL     1      15.210  -3.501  -1.260  1.00  0.00     0.034 A 
HETATM    4  C9  UNL     1      16.402  -2.665  -0.990  1.00  0.00     0.069 C 
HETATM    5  N2  UNL     1      15.205  -4.775  -0.837  1.00  0.00    -0.195 N 
ATOM      6  H2  UNL     1      16.036  -5.146  -0.376  1.00  0.00     0.184 HD
HETATM    7  C10 UNL     1      14.139  -5.577  -1.002  1.00  0.00     0.683 A 
HETATM    8  N4  UNL     1      13.006  -5.196  -1.585  1.00  0.00    -0.146 N 
ENDROOT
BRANCH   7   9
HETATM    9  N3  UNL     1      14.241  -6.785  -0.553  1.00  0.00    -0.223 N 
ATOM     10  H3  UNL     1      13.388  -7.195  -0.173  1.00  0.00     0.177 HD
BRANCH   9  11
HETATM   11  C11 UNL     1      15.395  -7.610  -0.524  1.00  0.00     0.170 C 
BRANCH  11  12
HETATM   12  C12 UNL     1      15.989  -7.638   0.891  1.00  0.00     0.139 C 
HETATM   13  C13 UNL     1      14.889  -7.867   1.867  1.00  0.00     0.035 C 
HETATM   14  C14 UNL     1      15.439  -8.978   2.731  1.00  0.00     0.029 C 
HETATM   15  C15 UNL     1      16.463  -9.605   1.838  1.00  0.00     0.168 C 
HETATM   16  O1  UNL     1      16.919  -8.634   0.970  1.00  0.00    -0.384 OA
ENDBRANCH  11  12
ENDBRANCH   9  11
ENDBRANCH   7   9
BRANCH   8  17
HETATM   17  C16 UNL     1      11.836  -6.006  -1.799  1.00  0.00     0.046 C 
HETATM   18  C17 UNL     1      10.617  -5.530  -1.033  1.00  0.00     0.039 C 
HETATM   19  C18 UNL     1      11.986  -7.463  -1.409  1.00  0.00     0.039 C 
HETATM   20  C19 UNL     1      11.465  -6.076  -3.286  1.00  0.00     0.039 C 
ENDBRANCH   8  17
BRANCH   1  21
HETATM   21  N1  UNL     1      11.880  -3.477  -2.458  1.00  0.00    -0.410 NA
HETATM   22  C1  UNL     1      10.846  -2.748  -2.906  1.00  0.00     0.231 C 
ENDBRANCH   1  21
BRANCH   2  23
HETATM   23  C4  UNL     1      14.103  -1.691  -2.442  1.00  0.00     0.049 C 
BRANCH  23  24
HETATM   24  C5  UNL     1      13.655  -0.554  -1.619  1.00  0.00    -0.018 C 
HETATM   25  C6  UNL     1      13.113  -0.787  -0.260  1.00  0.00     0.010 C 
HETATM   26  C7  UNL     1      12.727   0.448  -2.296  1.00  0.00     0.010 C 
ENDBRANCH  23  24
ENDBRANCH   2  23
TORSDOF 7
ENDMDL
MODEL 3
REMARK VINA RESULT: -5.956711083      0.896      1.395
REMARK  7 active torsions:
REMARK  status: ('A' for Active; 'I' for Inactive)
REMARK    1  A    between atoms: N1_2  and  C2_3 
REMARK    2  A    between atoms: C3_4  and  C4_5 
REMARK    3  A    between atoms: C4_5  and  C5_6 
REMARK    4  A    between atoms: C10_13  and  N3_14 
REMARK    5  A    between atoms: N3_14  and  C11_16 
REMARK    6  A    between atoms: C11_16  and  C12_17 
REMARK    7  A    between atoms: N4_22  and  C16_23 
ROOT
HETATM    1  C2  UNL     1      13.587  -4.509  -2.526  1.00  0.00     0.203 A 
HETATM    2  C3  UNL     1      12.399  -5.264  -2.413  1.00  0.00     0.024 A 
HETATM    3  C8  UNL     1      12.358  -6.431  -1.687  1.00  0.00     0.034 A 
HETATM    4  C9  UNL     1      11.170  -7.307  -1.577  1.00  0.00     0.069 C 
HETATM    5  N2  UNL     1      13.498  -6.810  -1.087  1.00  0.00    -0.195 N 
ATOM      6  H2  UNL     1      13.506  -7.670  -0.539  1.00  0.00     0.184 HD
HETATM    7  C10 UNL     1      14.630  -6.090  -1.187  1.00  0.00     0.683 A 
HETATM    8  N4  UNL     1      14.731  -4.958  -1.877  1.00  0.00    -0.146 N 
ENDROOT
BRANCH   7   9
HETATM    9  N3  UNL     1      15.670  -6.550  -0.572  1.00  0.00    -0.223 N 
ATOM     10  H3  UNL     1      16.357  -5.856  -0.276  1.00  0.00     0.177 HD
BRANCH   9  11
HETATM   11  C11 UNL     1      15.973  -7.899  -0.260  1.00  0.00     0.170 C 
BRANCH  11  12
HETATM   12  C12 UNL     1      16.346  -8.028   1.224  1.00  0.00     0.139 C 
HETATM   13  C13 UNL     1      15.097  -8.035   2.032  1.00  0.00     0.035 C 
HETATM   14  C14 UNL     1      15.299  -9.224   2.944  1.00  0.00     0.029 C 
HETATM   15  C15 UNL     1      16.301 -10.042   2.191  1.00  0.00     0.168 C 
HETATM   16  O1  UNL     1      17.050  -9.182   1.414  1.00  0.00    -0.384 OA
ENDBRANCH  11  12
ENDBRANCH   9  11
ENDBRANCH   7   9
BRANCH   8  17
HETATM   17  C16 UNL     1      15.907  -4.140  -2.015  1.00  0.00     0.046 C 
HETATM   18  C17 UNL     1      16.249  -3.803  -3.453  1.00  0.00     0.039 C 
HETATM   19  C18 UNL     1      17.178  -4.746  -1.453  1.00  0.00     0.039 C 
HETATM   20  C19 UNL     1      15.771  -2.825  -1.239  1.00  0.00     0.039 C 
ENDBRANCH   8  17
BRANCH   1  21
HETATM   21  N1  UNL     1      13.688  -3.556  -3.266  1.00  0.00    -0.410 NA
HETATM   22  C1  UNL     1      13.498  -2.463  -4.021  1.00  0.00     0.231 C 
ENDBRANCH   1  21
BRANCH   2  23
HETATM   23  C4  UNL     1      11.130  -4.782  -2.980  1.00  0.00     0.049 C 
BRANCH  23  24
HETATM   24  C5  UNL     1      10.865  -4.969  -4.418  1.00  0.00    -0.018 C 
HETATM   25  C6  UNL     1      10.245  -3.881  -5.209  1.00  0.00     0.010 C 
HETATM   26  C7  UNL     1      10.153  -6.259  -4.813  1.00  0.00     0.010 C 
ENDBRANCH  23  24
ENDBRANCH   2  23
TORSDOF 7
ENDMDL
MODEL 4
REMARK VINA RESULT: -5.849906047      2.224      5.841
REMARK  7 active torsions:
REMARK  status: ('A' for Active; 'I' for Inactive)
REMARK    1  A    between atoms: N1_2  and  C2_3 
REMARK    2  A    between atoms: C3_4  and  C4_5 
REMARK    3  A    between atoms: C4_5  and  C5_6 
REMARK    4  A    between atoms: C10_13  and  N3_14 
REMARK    5  A    between atoms: N3_14  and  C11_16 
REMARK    6  A    between atoms: C11_16  and  C12_17 
REMARK    7  A    between atoms: N4_22  and  C16_23 
ROOT
HETATM    1  C2  UNL     1      16.322  -5.015  -1.635  1.00  0.00     0.203 A 
HETATM    2  C3  UNL     1      16.203  -6.110  -0.749  1.00  0.00     0.024 A 
HETATM    3  C8  UNL     1      14.974  -6.571  -0.342  1.00  0.00     0.034 A 
HETATM    4  C9  UNL     1      14.774  -7.669   0.632  1.00  0.00     0.069 C 
HETATM    5  N2  UNL     1      13.897  -5.936  -0.831  1.00  0.00    -0.195 N 
ATOM      6  H2  UNL     1      12.968  -6.251  -0.551  1.00  0.00     0.184 HD
HETATM    7  C10 UNL     1      14.005  -4.898  -1.678  1.00  0.00     0.683 A 
HETATM    8  N4  UNL     1      15.165  -4.405  -2.104  1.00  0.00    -0.146 N 
ENDROOT
BRANCH   7   9
HETATM    9  N3  UNL     1      12.903  -4.358  -2.084  1.00  0.00    -0.223 N 
ATOM     10  H3  UNL     1      12.922  -3.951  -3.020  1.00  0.00     0.177 HD
BRANCH   9  11
HETATM   11  C11 UNL     1      11.671  -4.262  -1.388  1.00  0.00     0.170 C 
BRANCH  11  12
HETATM   12  C12 UNL     1      10.620  -5.165  -2.048  1.00  0.00     0.139 C 
HETATM   13  C13 UNL     1      10.897  -5.233  -3.509  1.00  0.00     0.035 C 
HETATM   14  C14 UNL     1      10.843  -6.717  -3.788  1.00  0.00     0.029 C 
HETATM   15  C15 UNL     1      11.111  -7.309  -2.439  1.00  0.00     0.168 C 
HETATM   16  O1  UNL     1      10.677  -6.408  -1.489  1.00  0.00    -0.384 OA
ENDBRANCH  11  12
ENDBRANCH   9  11
ENDBRANCH   7   9
BRANCH   8  17
HETATM   17  C16 UNL     1      15.347  -3.305  -3.014  1.00  0.00     0.046 C 
HETATM   18  C17 UNL     1      15.865  -2.045  -2.350  1.00  0.00     0.039 C 
HETATM   19  C18 UNL     1      14.094  -2.864  -3.744  1.00  0.00     0.039 C 
HETATM   20  C19 UNL     1      16.307  -3.671  -4.153  1.00  0.00     0.039 C 
ENDBRANCH   8  17
BRANCH   1  21
HETATM   21  N1  UNL     1      17.386  -4.503  -1.901  1.00  0.00    -0.410 NA
HETATM   22  C1  UNL     1      18.674  -4.139  -1.988  1.00  0.00     0.231 C 
ENDBRANCH   1  21
BRANCH   2  23
HETATM   23  C4  UNL     1      17.385  -6.868  -0.308  1.00  0.00     0.049 C 
BRANCH  23  24
HETATM   24  C5  UNL     1      17.844  -8.018  -1.106  1.00  0.00    -0.018 C 
HETATM   25  C6  UNL     1      17.877  -9.373  -0.508  1.00  0.00     0.010 C 
HETATM   26  C7  UNL     1      19.157  -7.838  -1.860  1.00  0.00     0.010 C 
ENDBRANCH  23  24
ENDBRANCH   2  23
TORSDOF 7
ENDMDL
MODEL 5
REMARK VINA RESULT: -5.832209385      1.680      2.567
REMARK  7 active torsions:
REMARK  status: ('A' for Active; 'I' for Inactive)
REMARK    1  A    between atoms: N1_2  and  C2_3 
REMARK    2  A    between atoms: C3_4  and  C4_5 
REMARK    3  A    between atoms: C4_5  and  C5_6 
REMARK    4  A    between atoms: C10_13  and  N3_14 
REMARK    5  A    between atoms: N3_14  and  C11_16 
REMARK    6  A    between atoms: C11_16  and  C12_17 
REMARK    7  A    between atoms: N4_22  and  C16_23 
ROOT
HETATM    1  C2  UNL     1      16.102  -4.825  -2.729  1.00  0.00     0.203 A 
HETATM    2  C3  UNL     1      14.722  -4.763  -2.430  1.00  0.00     0.024 A 
HETATM    3  C8  UNL     1      14.115  -5.718  -1.650  1.00  0.00     0.034 A 
HETATM    4  C9  UNL     1      12.666  -5.755  -1.349  1.00  0.00     0.069 C 
HETATM    5  N2  UNL     1      14.898  -6.705  -1.183  1.00  0.00    -0.195 N 
ATOM      6  H2  UNL     1      14.483  -7.431  -0.601  1.00  0.00     0.184 HD
HETATM    7  C10 UNL     1      16.212  -6.763  -1.460  1.00  0.00     0.683 A 
HETATM    8  N4  UNL     1      16.853  -5.872  -2.211  1.00  0.00    -0.146 N 
ENDROOT
BRANCH   7   9
HETATM    9  N3  UNL     1      16.870  -7.758  -0.962  1.00  0.00    -0.223 N 
ATOM     10  H3  UNL     1      17.880  -7.745  -1.107  1.00  0.00     0.177 HD
BRANCH   9  11
HETATM   11  C11 UNL     1      16.360  -8.866  -0.238  1.00  0.00     0.170 C 
BRANCH  11  12
HETATM   12  C12 UNL     1      16.580  -8.661   1.267  1.00  0.00     0.139 C 
HETATM   13  C13 UNL     1      15.289  -8.261   1.889  1.00  0.00     0.035 C 
HETATM   14  C14 UNL     1      15.193  -9.187   3.079  1.00  0.00     0.029 C 
HETATM   15  C15 UNL     1      16.085 -10.321   2.679  1.00  0.00     0.168 C 
HETATM   16  O1  UNL     1      17.041  -9.822   1.818  1.00  0.00    -0.384 OA
ENDBRANCH  11  12
ENDBRANCH   9  11
ENDBRANCH   7   9
BRANCH   8  17
HETATM   17  C16 UNL     1      18.255  -5.874  -2.536  1.00  0.00     0.046 C 
HETATM   18  C17 UNL     1      18.540  -6.157  -3.998  1.00  0.00     0.039 C 
HETATM   19  C18 UNL     1      19.086  -6.894  -1.782  1.00  0.00     0.039 C 
HETATM   20  C19 UNL     1      18.919  -4.541  -2.172  1.00  0.00     0.039 C 
ENDBRANCH   8  17
BRANCH   1  21
HETATM   21  N1  UNL     1      16.632  -4.078  -3.521  1.00  0.00    -0.410 NA
HETATM   22  C1  UNL     1      16.928  -3.165  -4.459  1.00  0.00     0.231 C 
ENDBRANCH   1  21
BRANCH   2  23
HETATM   23  C4  UNL     1      13.898  -3.620  -2.853  1.00  0.00     0.049 C 
BRANCH  23  24
HETATM   24  C5  UNL     1      13.830  -2.423  -1.997  1.00  0.00    -0.018 C 
HETATM   25  C6  UNL     1      14.856  -2.195  -0.952  1.00  0.00     0.010 C 
HETATM   26  C7  UNL     1      12.478  -2.123  -1.359  1.00  0.00     0.010 C 
ENDBRANCH  23  24
ENDBRANCH   2  23
TORSDOF 7
ENDMDL
