MODEL 1
REMARK VINA RESULT: -7.360423555      0.000      0.000
REMARK  7 active torsions:
REMARK  status: ('A' for Active; 'I' for Inactive)
REMARK    1  A    between atoms: C3_3  and  C4_4 
REMARK    2  A    between atoms: C5_5  and  C6_6 
REMARK    3  A    between atoms: C7_7  and  C8_8 
REMARK    4  A    between atoms: C10_10  and  C11_11 
REMARK       I    between atoms: C11_11  and  N1_13 
REMARK    5  A    between atoms: N1_13  and  C12_14 
REMARK    6  A    between atoms: C12_14  and  C13_15 
REMARK    7  A    between atoms: C14_20  and  C15_21 
ROOT
HETATM    1  C1  UNL     1       6.578  -2.963  -2.092  1.00  0.00     0.113 C 
HETATM    2  C2  UNL     1       7.945  -3.458  -1.929  1.00  0.00    -0.097 C 
HETATM    3  C3  UNL     1       9.078  -3.890  -1.803  1.00  0.00    -0.015 C 
ENDROOT
BRANCH   3   4
HETATM    4  C4  UNL     1      10.402  -4.402  -1.685  1.00  0.00    -0.001 C 
HETATM    5  C5  UNL     1      11.529  -4.815  -1.573  1.00  0.00    -0.001 C 
BRANCH   5   6
HETATM    6  C6  UNL     1      12.871  -5.276  -1.429  1.00  0.00    -0.009 C 
HETATM    7  C7  UNL     1      14.019  -5.666  -1.331  1.00  0.00    -0.052 C 
BRANCH   7   8
HETATM    8  C8  UNL     1      15.373  -6.113  -1.244  1.00  0.00     0.025 A 
HETATM    9  C9  UNL     1      15.620  -7.386  -0.760  1.00  0.00     0.039 A 
HETATM   10  C10 UNL     1      16.919  -7.833  -0.681  1.00  0.00     0.048 A 
HETATM   11  C17 UNL     1      17.992  -7.061  -1.065  1.00  0.00     0.019 A 
HETATM   12  C18 UNL     1      17.739  -5.795  -1.545  1.00  0.00     0.009 A 
HETATM   13  C19 UNL     1      16.456  -5.353  -1.623  1.00  0.00    -0.043 A 
HETATM   14  C20 UNL     1      16.190  -3.987  -2.138  1.00  0.00     0.049 C 
BRANCH  10  15
HETATM   15  C11 UNL     1      17.112  -9.222  -0.147  1.00  0.00     0.325 C 
HETATM   16  O1  UNL     1      17.390 -10.047  -1.047  1.00  0.00    -0.251 OA
HETATM   17  N1  UNL     1      16.961  -9.369   1.188  1.00  0.00    -0.375 NA
BRANCH  17  18
HETATM   18  C12 UNL     1      16.809  -9.522   2.535  1.00  0.00     0.244 C 
BRANCH  18  19
HETATM   19  C13 UNL     1      15.461 -10.062   2.961  1.00  0.00     0.193 A 
HETATM   20  N2  UNL     1      15.273 -11.304   3.404  1.00  0.00    -0.276 N 
HETATM   21  N3  UNL     1      13.967 -11.416   3.681  1.00  0.00    -0.281 N 
ATOM     22  H2  UNL     1      15.983 -12.028   3.512  1.00  0.00     0.189 HD
HETATM   23  C14 UNL     1      13.361 -10.224   3.397  1.00  0.00     0.140 A 
ATOM     24  H3  UNL     1      13.503 -12.250   4.042  1.00  0.00     0.189 HD
HETATM   25  O2  UNL     1      14.328  -9.440   2.963  1.00  0.00    -0.276 OA
BRANCH  23  26
HETATM   26  C15 UNL     1      11.915  -9.922   3.563  1.00  0.00     0.081 C 
HETATM   27  C16 UNL     1      11.308  -9.436   2.252  1.00  0.00     0.013 C 
ENDBRANCH  23  26
ENDBRANCH  18  19
ENDBRANCH  17  18
ENDBRANCH  10  15
ENDBRANCH   7   8
ENDBRANCH   5   6
ENDBRANCH   3   4
TORSDOF 7
ENDMDL
MODEL 2
REMARK VINA RESULT: -7.206440450      6.586      9.560
REMARK  7 active torsions:
REMARK  status: ('A' for Active; 'I' for Inactive)
REMARK    1  A    between atoms: C3_3  and  C4_4 
REMARK    2  A    between atoms: C5_5  and  C6_6 
REMARK    3  A    between atoms: C7_7  and  C8_8 
REMARK    4  A    between atoms: C10_10  and  C11_11 
REMARK       I    between atoms: C11_11  and  N1_13 
REMARK    5  A    between atoms: N1_13  and  C12_14 
REMARK    6  A    between atoms: C12_14  and  C13_15 
REMARK    7  A    between atoms: C14_20  and  C15_21 
ROOT
HETATM    1  C1  UNL     1      14.181 -10.840   4.243  1.00  0.00     0.113 C 
HETATM    2  C2  UNL     1      15.061 -10.296   3.208  1.00  0.00    -0.097 C 
HETATM    3  C3  UNL     1      15.777  -9.844   2.331  1.00  0.00    -0.015 C 
ENDROOT
BRANCH   3   4
HETATM    4  C4  UNL     1      16.593  -9.297   1.299  1.00  0.00    -0.001 C 
HETATM    5  C5  UNL     1      17.268  -8.815   0.425  1.00  0.00    -0.001 C 
BRANCH   5   6
HETATM    6  C6  UNL     1      18.045  -8.222  -0.614  1.00  0.00    -0.009 C 
HETATM    7  C7  UNL     1      18.730  -7.720  -1.485  1.00  0.00    -0.052 C 
BRANCH   7   8
HETATM    8  C8  UNL     1      19.558  -7.141  -2.495  1.00  0.00     0.025 A 
HETATM    9  C9  UNL     1      20.930  -7.157  -2.315  1.00  0.00     0.039 A 
HETATM   10  C10 UNL     1      21.740  -6.612  -3.284  1.00  0.00     0.048 A 
HETATM   11  C17 UNL     1      21.240  -6.048  -4.436  1.00  0.00     0.019 A 
HETATM   12  C18 UNL     1      19.873  -6.036  -4.608  1.00  0.00     0.009 A 
HETATM   13  C19 UNL     1      19.072  -6.573  -3.651  1.00  0.00    -0.043 A 
HETATM   14  C20 UNL     1      17.601  -6.554  -3.842  1.00  0.00     0.049 C 
BRANCH  10  15
HETATM   15  C11 UNL     1      23.217  -6.664  -3.023  1.00  0.00     0.325 C 
HETATM   16  O1  UNL     1      23.768  -5.549  -3.163  1.00  0.00    -0.251 OA
HETATM   17  N1  UNL     1      23.715  -7.874  -2.684  1.00  0.00    -0.375 NA
BRANCH  17  18
HETATM   18  C12 UNL     1      24.222  -9.094  -2.342  1.00  0.00     0.244 C 
BRANCH  18  19
HETATM   19  C13 UNL     1      24.365 -10.064  -3.495  1.00  0.00     0.193 A 
HETATM   20  N2  UNL     1      24.791 -11.318  -3.352  1.00  0.00    -0.276 N 
HETATM   21  N3  UNL     1      24.787 -11.863  -4.575  1.00  0.00    -0.281 N 
ATOM     22  H2  UNL     1      25.066 -11.774  -2.482  1.00  0.00     0.189 HD
HETATM   23  C14 UNL     1      24.355 -10.921  -5.467  1.00  0.00     0.140 A 
ATOM     24  H3  UNL     1      25.060 -12.819  -4.804  1.00  0.00     0.189 HD
HETATM   25  O2  UNL     1      24.113  -9.846  -4.744  1.00  0.00    -0.276 OA
BRANCH  23  26
HETATM   26  C15 UNL     1      24.203 -11.116  -6.933  1.00  0.00     0.081 C 
HETATM   27  C16 UNL     1      23.828  -9.808  -7.619  1.00  0.00     0.013 C 
ENDBRANCH  23  26
ENDBRANCH  18  19
ENDBRANCH  17  18
ENDBRANCH  10  15
ENDBRANCH   7   8
ENDBRANCH   5   6
ENDBRANCH   3   4
TORSDOF 7
ENDMDL
MODEL 3
REMARK VINA RESULT: -7.194481324      4.345      7.464
REMARK  7 active torsions:
REMARK  status: ('A' for Active; 'I' for Inactive)
REMARK    1  A    between atoms: C3_3  and  C4_4 
REMARK    2  A    between atoms: C5_5  and  C6_6 
REMARK    3  A    between atoms: C7_7  and  C8_8 
REMARK    4  A    between atoms: C10_10  and  C11_11 
REMARK       I    between atoms: C11_11  and  N1_13 
REMARK    5  A    between atoms: N1_13  and  C12_14 
REMARK    6  A    between atoms: C12_14  and  C13_15 
REMARK    7  A    between atoms: C14_20  and  C15_21 
ROOT
HETATM    1  C1  UNL     1      14.273 -10.876   4.602  1.00  0.00     0.113 C 
HETATM    2  C2  UNL     1      14.582  -9.909   3.548  1.00  0.00    -0.097 C 
HETATM    3  C3  UNL     1      14.841  -9.120   2.656  1.00  0.00    -0.015 C 
ENDROOT
BRANCH   3   4
HETATM    4  C4  UNL     1      15.124  -8.211   1.596  1.00  0.00    -0.001 C 
HETATM    5  C5  UNL     1      15.351  -7.457   0.684  1.00  0.00    -0.001 C 
BRANCH   5   6
HETATM    6  C6  UNL     1      15.608  -6.584  -0.415  1.00  0.00    -0.009 C 
HETATM    7  C7  UNL     1      15.813  -5.855  -1.368  1.00  0.00    -0.052 C 
BRANCH   7   8
HETATM    8  C8  UNL     1      16.030  -5.013  -2.500  1.00  0.00     0.025 A 
HETATM    9  C9  UNL     1      15.306  -3.837  -2.598  1.00  0.00     0.039 A 
HETATM   10  C10 UNL     1      15.513  -3.011  -3.678  1.00  0.00     0.048 A 
HETATM   11  C17 UNL     1      16.417  -3.306  -4.674  1.00  0.00     0.019 A 
HETATM   12  C18 UNL     1      17.133  -4.478  -4.570  1.00  0.00     0.009 A 
HETATM   13  C19 UNL     1      16.929  -5.295  -3.503  1.00  0.00    -0.043 A 
HETATM   14  C20 UNL     1      17.702  -6.557  -3.399  1.00  0.00     0.049 C 
BRANCH  10  15
HETATM   15  C11 UNL     1      14.694  -1.754  -3.720  1.00  0.00     0.325 C 
HETATM   16  O1  UNL     1      15.390  -0.735  -3.933  1.00  0.00    -0.251 OA
HETATM   17  N1  UNL     1      13.366  -1.907  -3.526  1.00  0.00    -0.375 NA
BRANCH  17  18
HETATM   18  C12 UNL     1      12.024  -2.057  -3.330  1.00  0.00     0.244 C 
BRANCH  18  19
HETATM   19  C13 UNL     1      11.633  -3.302  -2.563  1.00  0.00     0.193 A 
HETATM   20  N2  UNL     1      11.255  -3.291  -1.286  1.00  0.00    -0.276 N 
HETATM   21  N3  UNL     1      10.991  -4.562  -0.956  1.00  0.00    -0.281 N 
ATOM     22  H2  UNL     1      11.180  -2.475  -0.678  1.00  0.00     0.189 HD
HETATM   23  C14 UNL     1      11.217  -5.349  -2.051  1.00  0.00     0.140 A 
ATOM     24  H3  UNL     1      10.676  -4.888  -0.042  1.00  0.00     0.189 HD
HETATM   25  O2  UNL     1      11.606  -4.519  -2.998  1.00  0.00    -0.276 OA
BRANCH  23  26
HETATM   26  C15 UNL     1      11.044  -6.825  -2.112  1.00  0.00     0.081 C 
HETATM   27  C16 UNL     1      12.208  -7.536  -1.432  1.00  0.00     0.013 C 
ENDBRANCH  23  26
ENDBRANCH  18  19
ENDBRANCH  17  18
ENDBRANCH  10  15
ENDBRANCH   7   8
ENDBRANCH   5   6
ENDBRANCH   3   4
TORSDOF 7
ENDMDL
MODEL 4
REMARK VINA RESULT: -7.187587890      4.668      7.724
REMARK  7 active torsions:
REMARK  status: ('A' for Active; 'I' for Inactive)
REMARK    1  A    between atoms: C3_3  and  C4_4 
REMARK    2  A    between atoms: C5_5  and  C6_6 
REMARK    3  A    between atoms: C7_7  and  C8_8 
REMARK    4  A    between atoms: C10_10  and  C11_11 
REMARK       I    between atoms: C11_11  and  N1_13 
REMARK    5  A    between atoms: N1_13  and  C12_14 
REMARK    6  A    between atoms: C12_14  and  C13_15 
REMARK    7  A    between atoms: C14_20  and  C15_21 
ROOT
HETATM    1  C1  UNL     1      14.252 -11.551   4.608  1.00  0.00     0.113 C 
HETATM    2  C2  UNL     1      14.596 -10.463   3.692  1.00  0.00    -0.097 C 
HETATM    3  C3  UNL     1      14.878  -9.570   2.912  1.00  0.00    -0.015 C 
ENDROOT
BRANCH   3   4
HETATM    4  C4  UNL     1      15.182  -8.531   1.985  1.00  0.00    -0.001 C 
HETATM    5  C5  UNL     1      15.432  -7.667   1.184  1.00  0.00    -0.001 C 
BRANCH   5   6
HETATM    6  C6  UNL     1      15.722  -6.664   0.212  1.00  0.00    -0.009 C 
HETATM    7  C7  UNL     1      15.945  -5.798  -0.613  1.00  0.00    -0.052 C 
BRANCH   7   8
HETATM    8  C8  UNL     1      16.185  -4.765  -1.570  1.00  0.00     0.025 A 
HETATM    9  C9  UNL     1      15.823  -3.469  -1.249  1.00  0.00     0.039 A 
HETATM   10  C10 UNL     1      16.058  -2.462  -2.157  1.00  0.00     0.048 A 
HETATM   11  C17 UNL     1      16.643  -2.692  -3.382  1.00  0.00     0.019 A 
HETATM   12  C18 UNL     1      17.000  -3.985  -3.695  1.00  0.00     0.009 A 
HETATM   13  C19 UNL     1      16.768  -4.980  -2.799  1.00  0.00    -0.043 A 
HETATM   14  C20 UNL     1      17.152  -6.371  -3.143  1.00  0.00     0.049 C 
BRANCH  10  15
HETATM   15  C11 UNL     1      15.640  -1.082  -1.743  1.00  0.00     0.325 C 
HETATM   16  O1  UNL     1      16.533  -0.229  -1.946  1.00  0.00    -0.251 OA
HETATM   17  N1  UNL     1      14.396  -0.971  -1.227  1.00  0.00    -0.375 NA
BRANCH  17  18
HETATM   18  C12 UNL     1      13.140  -0.855  -0.705  1.00  0.00     0.244 C 
BRANCH  18  19
HETATM   19  C13 UNL     1      12.181  -1.950  -1.118  1.00  0.00     0.193 A 
HETATM   20  N2  UNL     1      10.858  -1.795  -1.150  1.00  0.00    -0.276 N 
HETATM   21  N3  UNL     1      10.348  -2.965  -1.558  1.00  0.00    -0.281 N 
ATOM     22  H2  UNL     1      10.336  -0.952  -0.911  1.00  0.00     0.189 HD
HETATM   23  C14 UNL     1      11.380  -3.836  -1.772  1.00  0.00     0.140 A 
ATOM     24  H3  UNL     1       9.357  -3.171  -1.688  1.00  0.00     0.189 HD
HETATM   25  O2  UNL     1      12.471  -3.155  -1.486  1.00  0.00    -0.276 OA
BRANCH  23  26
HETATM   26  C15 UNL     1      11.248  -5.243  -2.233  1.00  0.00     0.081 C 
HETATM   27  C16 UNL     1      12.434  -6.080  -1.765  1.00  0.00     0.013 C 
ENDBRANCH  23  26
ENDBRANCH  18  19
ENDBRANCH  17  18
ENDBRANCH  10  15
ENDBRANCH   7   8
ENDBRANCH   5   6
ENDBRANCH   3   4
TORSDOF 7
ENDMDL
MODEL 5
REMARK VINA RESULT: -7.082250825      6.466      8.853
REMARK  7 active torsions:
REMARK  status: ('A' for Active; 'I' for Inactive)
REMARK    1  A    between atoms: C3_3  and  C4_4 
REMARK    2  A    between atoms: C5_5  and  C6_6 
REMARK    3  A    between atoms: C7_7  and  C8_8 
REMARK    4  A    between atoms: C10_10  and  C11_11 
REMARK       I    between atoms: C11_11  and  N1_13 
REMARK    5  A    between atoms: N1_13  and  C12_14 
REMARK    6  A    between atoms: C12_14  and  C13_15 
REMARK    7  A    between atoms: C14_20  and  C15_21 
ROOT
HETATM    1  C1  UNL     1      14.085 -10.837   4.257  1.00  0.00     0.113 C 
HETATM    2  C2  UNL     1      14.959 -10.260   3.234  1.00  0.00    -0.097 C 
HETATM    3  C3  UNL     1      15.685  -9.798   2.370  1.00  0.00    -0.015 C 
ENDROOT
BRANCH   3   4
HETATM    4  C4  UNL     1      16.513  -9.267   1.341  1.00  0.00    -0.001 C 
HETATM    5  C5  UNL     1      17.194  -8.813   0.456  1.00  0.00    -0.001 C 
BRANCH   5   6
HETATM    6  C6  UNL     1      17.976  -8.274  -0.608  1.00  0.00    -0.009 C 
HETATM    7  C7  UNL     1      18.645  -7.792  -1.503  1.00  0.00    -0.052 C 
BRANCH   7   8
HETATM    8  C8  UNL     1      19.442  -7.206  -2.533  1.00  0.00     0.025 A 
HETATM    9  C9  UNL     1      20.812  -7.399  -2.501  1.00  0.00     0.039 A 
HETATM   10  C10 UNL     1      21.590  -6.849  -3.493  1.00  0.00     0.048 A 
HETATM   11  C17 UNL     1      21.060  -6.109  -4.526  1.00  0.00     0.019 A 
HETATM   12  C18 UNL     1      19.696  -5.921  -4.551  1.00  0.00     0.009 A 
HETATM   13  C19 UNL     1      18.926  -6.464  -3.571  1.00  0.00    -0.043 A 
HETATM   14  C20 UNL     1      17.458  -6.256  -3.603  1.00  0.00     0.049 C 
BRANCH  10  15
HETATM   15  C11 UNL     1      23.067  -7.098  -3.395  1.00  0.00     0.325 C 
HETATM   16  O1  UNL     1      23.421  -8.132  -4.005  1.00  0.00    -0.251 OA
HETATM   17  N1  UNL     1      23.773  -6.193  -2.681  1.00  0.00    -0.375 NA
BRANCH  17  18
HETATM   18  C12 UNL     1      24.489  -5.282  -1.961  1.00  0.00     0.244 C 
BRANCH  18  19
HETATM   19  C13 UNL     1      23.665  -4.164  -1.360  1.00  0.00     0.193 A 
HETATM   20  N2  UNL     1      24.192  -3.038  -0.878  1.00  0.00    -0.276 N 
HETATM   21  N3  UNL     1      23.167  -2.297  -0.435  1.00  0.00    -0.281 N 
ATOM     22  H2  UNL     1      25.180  -2.790  -0.852  1.00  0.00     0.189 HD
HETATM   23  C14 UNL     1      22.008  -2.989  -0.652  1.00  0.00     0.140 A 
ATOM     24  H3  UNL     1      23.240  -1.374  -0.009  1.00  0.00     0.189 HD
HETATM   25  O2  UNL     1      22.381  -4.119  -1.219  1.00  0.00    -0.276 OA
BRANCH  23  26
HETATM   26  C15 UNL     1      20.639  -2.522  -0.306  1.00  0.00     0.081 C 
HETATM   27  C16 UNL     1      19.626  -2.997  -1.341  1.00  0.00     0.013 C 
ENDBRANCH  23  26
ENDBRANCH  18  19
ENDBRANCH  17  18
ENDBRANCH  10  15
ENDBRANCH   7   8
ENDBRANCH   5   6
ENDBRANCH   3   4
TORSDOF 7
ENDMDL
