MODEL 1
REMARK VINA RESULT: -6.845504604      0.000      0.000
REMARK  4 active torsions:
REMARK  status: ('A' for Active; 'I' for Inactive)
REMARK    1  A    between atoms: N1_7  and  C7_8 
REMARK    2  A    between atoms: C7_8  and  C8_9 
REMARK    3  A    between atoms: C9_10  and  C10_11 
REMARK    4  A    between atoms: C10_11  and  N2_12 
ROOT
HETATM    1  N2  UNL     1      12.585  -5.076  -2.661  1.00  0.00     0.117 N 
HETATM    2  C11 UNL     1      12.075  -6.101  -1.774  1.00  0.00     0.441 C 
HETATM    3  O1  UNL     1      10.892  -6.562  -2.349  1.00  0.00    -0.349 OA
HETATM    4  C12 UNL     1      10.431  -5.596  -3.221  1.00  0.00     0.091 C 
HETATM    5  C13 UNL     1       8.991  -5.294  -3.000  1.00  0.00     0.041 C 
HETATM    6  C14 UNL     1       8.158  -5.273  -4.257  1.00  0.00     0.030 C 
HETATM    7  C15 UNL     1       8.101  -6.641  -4.889  1.00  0.00     0.232 C 
HETATM    8  N3  UNL     1       8.960  -7.568  -4.214  1.00  0.00    -0.075 N 
ATOM      9  H31 UNL     1       8.584  -8.515  -4.264  1.00  0.00     0.277 HD
ATOM     10  H32 UNL     1       8.926  -7.428  -3.204  1.00  0.00     0.277 HD
HETATM   11  C16 UNL     1      10.331  -7.526  -4.699  1.00  0.00     0.235 C 
HETATM   12  C17 UNL     1      10.746  -6.058  -4.627  1.00  0.00     0.067 C 
HETATM   13  C18 UNL     1      11.331  -4.376  -2.973  1.00  0.00     0.313 C 
ENDROOT
BRANCH   1  14
HETATM   14  C10 UNL     1      13.492  -4.234  -1.902  1.00  0.00     0.302 C 
BRANCH  14  15
HETATM   15  C9  UNL     1      14.864  -4.610  -2.272  1.00  0.00     0.005 C 
HETATM   16  C8  UNL     1      15.724  -5.288  -1.575  1.00  0.00     0.015 C 
BRANCH  16  17
HETATM   17  C7  UNL     1      15.441  -5.806  -0.252  1.00  0.00     0.095 C 
BRANCH  17  18
HETATM   18  N1  UNL     1      15.537  -7.215  -0.087  1.00  0.00    -0.350 N 
HETATM   19  C6  UNL     1      16.112  -7.976  -1.116  1.00  0.00     0.072 C 
HETATM   20  C4  UNL     1      17.274  -8.842  -0.768  1.00  0.00     0.021 C 
HETATM   21  C3  UNL     1      17.373  -9.025   0.735  1.00  0.00     0.019 C 
HETATM   22  C5  UNL     1      18.555  -8.384  -1.390  1.00  0.00     0.015 C 
HETATM   23  C2  UNL     1      15.959  -9.108   1.307  1.00  0.00     0.021 C 
HETATM   24  C1  UNL     1      16.064  -9.539   2.744  1.00  0.00     0.015 C 
HETATM   25  C19 UNL     1      15.279  -7.765   1.164  1.00  0.00     0.072 C 
ENDBRANCH  17  18
ENDBRANCH  16  17
ENDBRANCH  14  15
ENDBRANCH   1  14
TORSDOF 4
ENDMDL
MODEL 2
REMARK VINA RESULT: -6.572482361      1.120      1.730
REMARK  4 active torsions:
REMARK  status: ('A' for Active; 'I' for Inactive)
REMARK    1  A    between atoms: N1_7  and  C7_8 
REMARK    2  A    between atoms: C7_8  and  C8_9 
REMARK    3  A    between atoms: C9_10  and  C10_11 
REMARK    4  A    between atoms: C10_11  and  N2_12 
ROOT
HETATM    1  N2  UNL     1      11.512  -4.727  -2.331  1.00  0.00     0.117 N 
HETATM    2  C11 UNL     1      11.809  -3.988  -3.542  1.00  0.00     0.441 C 
HETATM    3  O1  UNL     1      10.924  -4.456  -4.511  1.00  0.00    -0.349 OA
HETATM    4  C12 UNL     1      10.471  -5.700  -4.118  1.00  0.00     0.091 C 
HETATM    5  C13 UNL     1      10.578  -6.699  -5.215  1.00  0.00     0.041 C 
HETATM    6  C14 UNL     1       9.333  -7.521  -5.433  1.00  0.00     0.030 C 
HETATM    7  C15 UNL     1       8.191  -6.656  -5.903  1.00  0.00     0.232 C 
HETATM    8  N3  UNL     1       8.543  -5.267  -5.888  1.00  0.00    -0.075 N 
ATOM      9  H31 UNL     1       8.050  -4.759  -6.622  1.00  0.00     0.277 HD
ATOM     10  H32 UNL     1       9.502  -5.130  -6.206  1.00  0.00     0.277 HD
HETATM   11  C16 UNL     1       8.331  -4.644  -4.591  1.00  0.00     0.235 C 
HETATM   12  C17 UNL     1       9.064  -5.529  -3.586  1.00  0.00     0.067 C 
HETATM   13  C18 UNL     1      11.334  -6.069  -2.901  1.00  0.00     0.313 C 
ENDROOT
BRANCH   1  14
HETATM   14  C10 UNL     1      12.679  -4.664  -1.469  1.00  0.00     0.302 C 
BRANCH  14  15
HETATM   15  C9  UNL     1      13.870  -4.806  -2.319  1.00  0.00     0.005 C 
HETATM   16  C8  UNL     1      15.061  -5.184  -1.970  1.00  0.00     0.015 C 
BRANCH  16  17
HETATM   17  C7  UNL     1      15.415  -5.543  -0.612  1.00  0.00     0.095 C 
BRANCH  17  18
HETATM   18  N1  UNL     1      15.505  -6.932  -0.324  1.00  0.00    -0.350 N 
HETATM   19  C6  UNL     1      16.127  -7.775  -1.259  1.00  0.00     0.072 C 
HETATM   20  C4  UNL     1      17.273  -8.603  -0.786  1.00  0.00     0.021 C 
HETATM   21  C3  UNL     1      17.303  -8.658   0.730  1.00  0.00     0.019 C 
HETATM   22  C5  UNL     1      18.580  -8.192  -1.385  1.00  0.00     0.015 C 
HETATM   23  C2  UNL     1      15.864  -8.700   1.241  1.00  0.00     0.021 C 
HETATM   24  C1  UNL     1      15.904  -9.008   2.714  1.00  0.00     0.015 C 
HETATM   25  C19 UNL     1      15.191  -7.376   0.955  1.00  0.00     0.072 C 
ENDBRANCH  17  18
ENDBRANCH  16  17
ENDBRANCH  14  15
ENDBRANCH   1  14
TORSDOF 4
ENDMDL
MODEL 3
REMARK VINA RESULT: -6.482774523      1.099      2.116
REMARK  4 active torsions:
REMARK  status: ('A' for Active; 'I' for Inactive)
REMARK    1  A    between atoms: N1_7  and  C7_8 
REMARK    2  A    between atoms: C7_8  and  C8_9 
REMARK    3  A    between atoms: C9_10  and  C10_11 
REMARK    4  A    between atoms: C10_11  and  N2_12 
ROOT
HETATM    1  N2  UNL     1      11.427  -5.371  -2.554  1.00  0.00     0.117 N 
HETATM    2  C11 UNL     1      10.646  -6.459  -2.004  1.00  0.00     0.441 C 
HETATM    3  O1  UNL     1       9.713  -6.804  -2.981  1.00  0.00    -0.349 OA
HETATM    4  C12 UNL     1       9.572  -5.731  -3.839  1.00  0.00     0.091 C 
HETATM    5  C13 UNL     1       8.142  -5.389  -4.065  1.00  0.00     0.041 C 
HETATM    6  C14 UNL     1       7.768  -5.198  -5.513  1.00  0.00     0.030 C 
HETATM    7  C15 UNL     1       7.910  -6.488  -6.282  1.00  0.00     0.232 C 
HETATM    8  N3  UNL     1       8.492  -7.519  -5.475  1.00  0.00    -0.075 N 
ATOM      9  H31 UNL     1       8.146  -8.438  -5.752  1.00  0.00     0.277 HD
ATOM     10  H32 UNL     1       8.130  -7.485  -4.522  1.00  0.00     0.277 HD
HETATM   11  C16 UNL     1       9.946  -7.489  -5.479  1.00  0.00     0.235 C 
HETATM   12  C17 UNL     1      10.327  -6.057  -5.109  1.00  0.00     0.067 C 
HETATM   13  C18 UNL     1      10.351  -4.586  -3.174  1.00  0.00     0.313 C 
ENDROOT
BRANCH   1  14
HETATM   14  C10 UNL     1      12.042  -4.655  -1.450  1.00  0.00     0.302 C 
BRANCH  14  15
HETATM   15  C9  UNL     1      13.469  -4.492  -1.764  1.00  0.00     0.005 C 
HETATM   16  C8  UNL     1      14.450  -5.287  -1.465  1.00  0.00     0.015 C 
BRANCH  16  17
HETATM   17  C7  UNL     1      14.274  -6.527  -0.735  1.00  0.00     0.095 C 
BRANCH  17  18
HETATM   18  N1  UNL     1      15.390  -6.987   0.015  1.00  0.00    -0.350 N 
HETATM   19  C6  UNL     1      15.297  -7.011   1.415  1.00  0.00     0.072 C 
HETATM   20  C4  UNL     1      15.546  -8.312   2.100  1.00  0.00     0.021 C 
HETATM   21  C3  UNL     1      16.234  -9.287   1.163  1.00  0.00     0.019 C 
HETATM   22  C5  UNL     1      14.320  -8.880   2.742  1.00  0.00     0.015 C 
HETATM   23  C2  UNL     1      17.212  -8.507   0.287  1.00  0.00     0.021 C 
HETATM   24  C1  UNL     1      18.065  -9.501  -0.454  1.00  0.00     0.015 C 
HETATM   25  C19 UNL     1      16.439  -7.610  -0.653  1.00  0.00     0.072 C 
ENDBRANCH  17  18
ENDBRANCH  16  17
ENDBRANCH  14  15
ENDBRANCH   1  14
TORSDOF 4
ENDMDL
MODEL 4
REMARK VINA RESULT: -6.424662140      1.572      2.864
REMARK  4 active torsions:
REMARK  status: ('A' for Active; 'I' for Inactive)
REMARK    1  A    between atoms: N1_7  and  C7_8 
REMARK    2  A    between atoms: C7_8  and  C8_9 
REMARK    3  A    between atoms: C9_10  and  C10_11 
REMARK    4  A    between atoms: C10_11  and  N2_12 
ROOT
HETATM    1  N2  UNL     1      10.353  -5.525  -2.498  1.00  0.00     0.117 N 
HETATM    2  C11 UNL     1      11.056  -4.693  -3.452  1.00  0.00     0.441 C 
HETATM    3  O1  UNL     1      10.425  -4.886  -4.679  1.00  0.00    -0.349 OA
HETATM    4  C12 UNL     1       9.738  -6.082  -4.628  1.00  0.00     0.091 C 
HETATM    5  C13 UNL     1      10.026  -6.936  -5.812  1.00  0.00     0.041 C 
HETATM    6  C14 UNL     1       8.802  -7.516  -6.474  1.00  0.00     0.030 C 
HETATM    7  C15 UNL     1       7.944  -6.429  -7.069  1.00  0.00     0.232 C 
HETATM    8  N3  UNL     1       8.439  -5.126  -6.733  1.00  0.00    -0.075 N 
ATOM      9  H31 UNL     1       8.232  -4.456  -7.474  1.00  0.00     0.277 HD
ATOM     10  H32 UNL     1       9.458  -5.103  -6.768  1.00  0.00     0.277 HD
HETATM   11  C16 UNL     1       7.952  -4.649  -5.448  1.00  0.00     0.235 C 
HETATM   12  C17 UNL     1       8.270  -5.762  -4.452  1.00  0.00     0.067 C 
HETATM   13  C18 UNL     1      10.182  -6.737  -3.310  1.00  0.00     0.313 C 
ENDROOT
BRANCH   1  14
HETATM   14  C10 UNL     1      11.234  -5.759  -1.368  1.00  0.00     0.302 C 
BRANCH  14  15
HETATM   15  C9  UNL     1      12.555  -5.213  -1.714  1.00  0.00     0.005 C 
HETATM   16  C8  UNL     1      13.720  -5.752  -1.518  1.00  0.00     0.015 C 
BRANCH  16  17
HETATM   17  C7  UNL     1      13.900  -7.047  -0.893  1.00  0.00     0.095 C 
BRANCH  17  18
HETATM   18  N1  UNL     1      15.127  -7.256  -0.206  1.00  0.00    -0.350 N 
HETATM   19  C6  UNL     1      15.150  -7.113   1.190  1.00  0.00     0.072 C 
HETATM   20  C4  UNL     1      15.636  -8.271   1.994  1.00  0.00     0.021 C 
HETATM   21  C3  UNL     1      16.380  -9.258   1.114  1.00  0.00     0.019 C 
HETATM   22  C5  UNL     1      14.559  -8.910   2.813  1.00  0.00     0.015 C 
HETATM   23  C2  UNL     1      17.164  -8.474   0.063  1.00  0.00     0.021 C 
HETATM   24  C1  UNL     1      18.089  -9.432  -0.636  1.00  0.00     0.015 C 
HETATM   25  C19 UNL     1      16.198  -7.815  -0.895  1.00  0.00     0.072 C 
ENDBRANCH  17  18
ENDBRANCH  16  17
ENDBRANCH  14  15
ENDBRANCH   1  14
TORSDOF 4
ENDMDL
MODEL 5
REMARK VINA RESULT: -6.372933922      1.818      7.970
REMARK  4 active torsions:
REMARK  status: ('A' for Active; 'I' for Inactive)
REMARK    1  A    between atoms: N1_7  and  C7_8 
REMARK    2  A    between atoms: C7_8  and  C8_9 
REMARK    3  A    between atoms: C9_10  and  C10_11 
REMARK    4  A    between atoms: C10_11  and  N2_12 
ROOT
HETATM    1  N2  UNL     1      14.108  -5.682  -1.740  1.00  0.00     0.117 N 
HETATM    2  C11 UNL     1      15.022  -4.832  -1.004  1.00  0.00     0.441 C 
HETATM    3  O1  UNL     1      16.027  -5.666  -0.520  1.00  0.00    -0.349 OA
HETATM    4  C12 UNL     1      15.544  -6.960  -0.503  1.00  0.00     0.091 C 
HETATM    5  C13 UNL     1      15.790  -7.625   0.804  1.00  0.00     0.041 C 
HETATM    6  C14 UNL     1      16.382  -9.008   0.699  1.00  0.00     0.030 C 
HETATM    7  C15 UNL     1      17.766  -8.958   0.103  1.00  0.00     0.232 C 
HETATM    8  N3  UNL     1      18.104  -7.635  -0.333  1.00  0.00    -0.075 N 
ATOM      9  H31 UNL     1      19.107  -7.469  -0.250  1.00  0.00     0.277 HD
ATOM     10  H32 UNL     1      17.764  -6.935   0.328  1.00  0.00     0.277 HD
HETATM   11  C16 UNL     1      17.638  -7.347  -1.680  1.00  0.00     0.235 C 
HETATM   12  C17 UNL     1      16.150  -7.691  -1.681  1.00  0.00     0.067 C 
HETATM   13  C18 UNL     1      14.046  -6.827  -0.821  1.00  0.00     0.313 C 
ENDROOT
BRANCH   1  14
HETATM   14  C10 UNL     1      12.829  -4.999  -1.827  1.00  0.00     0.302 C 
BRANCH  14  15
HETATM   15  C9  UNL     1      11.777  -5.985  -1.544  1.00  0.00     0.005 C 
HETATM   16  C8  UNL     1      10.493  -5.846  -1.673  1.00  0.00     0.015 C 
BRANCH  16  17
HETATM   17  C7  UNL     1       9.871  -4.625  -2.144  1.00  0.00     0.095 C 
BRANCH  17  18
HETATM   18  N1  UNL     1       9.298  -4.664  -3.445  1.00  0.00    -0.350 N 
HETATM   19  C6  UNL     1      10.123  -4.981  -4.535  1.00  0.00     0.072 C 
HETATM   20  C4  UNL     1       9.721  -6.133  -5.392  1.00  0.00     0.021 C 
HETATM   21  C3  UNL     1       8.273  -6.508  -5.139  1.00  0.00     0.019 C 
HETATM   22  C5  UNL     1      10.657  -7.295  -5.288  1.00  0.00     0.015 C 
HETATM   23  C2  UNL     1       7.479  -5.228  -4.885  1.00  0.00     0.021 C 
HETATM   24  C1  UNL     1       6.016  -5.583  -4.887  1.00  0.00     0.015 C 
HETATM   25  C19 UNL     1       7.914  -4.619  -3.572  1.00  0.00     0.072 C 
ENDBRANCH  17  18
ENDBRANCH  16  17
ENDBRANCH  14  15
ENDBRANCH   1  14
TORSDOF 4
ENDMDL
