MODEL 1
REMARK VINA RESULT: -5.877806453      0.000      0.000
REMARK  4 active torsions:
REMARK  status: ('A' for Active; 'I' for Inactive)
REMARK    1  A    between atoms: C2_2  and  C3_3 
REMARK    2  A    between atoms: C3_3  and  N1_6 
REMARK       I    between atoms: N1_6  and  C6_8 
REMARK    3  A    between atoms: C6_8  and  C7_10 
REMARK    4  A    between atoms: N2_15  and  C12_16 
ROOT
HETATM    1  C7  UNL     1      20.510  -6.997  -3.253  1.00  0.00     0.177 C 
HETATM    2  C8  UNL     1      19.392  -7.096  -2.215  1.00  0.00     0.047 C 
HETATM    3  C9  UNL     1      18.130  -6.462  -2.723  1.00  0.00    -0.006 C 
HETATM    4  C10 UNL     1      18.076  -6.425  -4.248  1.00  0.00     0.032 C 
HETATM    5  C11 UNL     1      19.240  -5.781  -4.913  1.00  0.00     0.125 C 
HETATM    6  N2  UNL     1      20.376  -5.782  -3.974  1.00  0.00    -0.364 N 
HETATM    7  C13 UNL     1      18.006  -5.026  -2.253  1.00  0.00     0.181 C 
HETATM    8  O2  UNL     1      16.909  -4.961  -1.398  1.00  0.00    -0.360 OA
HETATM    9  C14 UNL     1      15.986  -5.897  -1.772  1.00  0.00     0.264 C 
HETATM   10  O3  UNL     1      15.258  -6.427  -0.719  1.00  0.00    -0.360 OA
HETATM   11  C15 UNL     1      15.321  -7.818  -0.808  1.00  0.00     0.175 C 
HETATM   12  C16 UNL     1      16.823  -7.972  -1.141  1.00  0.00     0.015 C 
HETATM   13  C17 UNL     1      17.535  -7.622   0.100  1.00  0.00     0.012 C 
HETATM   14  C18 UNL     1      16.874  -7.048  -2.273  1.00  0.00     0.057 C 
ENDROOT
BRANCH   1  15
HETATM   15  C6  UNL     1      21.829  -7.335  -2.709  1.00  0.00     0.241 C 
HETATM   16  N1  UNL     1      22.715  -8.272  -3.244  1.00  0.00    -0.351 N 
ATOM     17  H1  UNL     1      22.418  -8.776  -4.079  1.00  0.00     0.163 HD
HETATM   18  O1  UNL     1      22.243  -6.735  -1.640  1.00  0.00    -0.271 OA
BRANCH  16  19
HETATM   19  C3  UNL     1      24.021  -8.586  -2.708  1.00  0.00     0.025 C 
HETATM   20  C4  UNL     1      24.604  -9.733  -3.540  1.00  0.00     0.038 C 
HETATM   21  C5  UNL     1      24.963  -7.402  -2.906  1.00  0.00     0.038 C 
BRANCH  19  22
HETATM   22  C2  UNL     1      23.964  -8.993  -1.266  1.00  0.00     0.026 C 
HETATM   23  C1  UNL     1      25.140  -8.431  -0.496  1.00  0.00     0.007 C 
ENDBRANCH  19  22
ENDBRANCH  16  19
ENDBRANCH   1  15
BRANCH   6  24
HETATM   24  C12 UNL     1      21.111  -4.601  -3.915  1.00  0.00     0.172 C 
HETATM   25  N3  UNL     1      21.296  -3.955  -2.815  1.00  0.00    -0.395 N 
ATOM     26  H32 UNL     1      20.881  -4.337  -1.965  1.00  0.00     0.156 HD
ATOM     27  H31 UNL     1      21.834  -3.091  -2.772  1.00  0.00     0.156 HD
ENDBRANCH   6  24
TORSDOF 4
ENDMDL
MODEL 2
REMARK VINA RESULT: -5.741864737      4.584      8.628
REMARK  4 active torsions:
REMARK  status: ('A' for Active; 'I' for Inactive)
REMARK    1  A    between atoms: C2_2  and  C3_3 
REMARK    2  A    between atoms: C3_3  and  N1_6 
REMARK       I    between atoms: N1_6  and  C6_8 
REMARK    3  A    between atoms: C6_8  and  C7_10 
REMARK    4  A    between atoms: N2_15  and  C12_16 
ROOT
HETATM    1  C7  UNL     1      13.963  -3.998  -1.641  1.00  0.00     0.177 C 
HETATM    2  C8  UNL     1      14.727  -5.318  -1.557  1.00  0.00     0.047 C 
HETATM    3  C9  UNL     1      16.197  -5.102  -1.769  1.00  0.00    -0.006 C 
HETATM    4  C10 UNL     1      16.626  -3.676  -1.430  1.00  0.00     0.032 C 
HETATM    5  C11 UNL     1      15.875  -2.600  -2.129  1.00  0.00     0.125 C 
HETATM    6  N2  UNL     1      14.589  -3.152  -2.593  1.00  0.00    -0.364 N 
HETATM    7  C13 UNL     1      16.587  -5.335  -3.216  1.00  0.00     0.181 C 
HETATM    8  O2  UNL     1      17.420  -6.450  -3.247  1.00  0.00    -0.360 OA
HETATM    9  C14 UNL     1      18.119  -6.528  -2.076  1.00  0.00     0.264 C 
HETATM   10  O3  UNL     1      18.401  -7.822  -1.670  1.00  0.00    -0.360 OA
HETATM   11  C15 UNL     1      17.989  -7.957  -0.342  1.00  0.00     0.175 C 
HETATM   12  C16 UNL     1      16.627  -7.231  -0.436  1.00  0.00     0.015 C 
HETATM   13  C17 UNL     1      15.759  -8.130  -1.214  1.00  0.00     0.012 C 
HETATM   14  C18 UNL     1      17.102  -5.993  -1.054  1.00  0.00     0.057 C 
ENDROOT
BRANCH   1  15
HETATM   15  C6  UNL     1      12.510  -4.181  -1.730  1.00  0.00     0.241 C 
HETATM   16  N1  UNL     1      11.860  -5.326  -2.194  1.00  0.00    -0.351 N 
ATOM     17  H1  UNL     1      12.443  -6.101  -2.508  1.00  0.00     0.163 HD
HETATM   18  O1  UNL     1      11.729  -3.217  -1.360  1.00  0.00    -0.271 OA
BRANCH  16  19
HETATM   19  C3  UNL     1      10.426  -5.500  -2.263  1.00  0.00     0.025 C 
HETATM   20  C4  UNL     1      10.151  -6.957  -2.652  1.00  0.00     0.038 C 
HETATM   21  C5  UNL     1       9.811  -5.312  -0.880  1.00  0.00     0.038 C 
BRANCH  19  22
HETATM   22  C2  UNL     1       9.787  -4.586  -3.265  1.00  0.00     0.026 C 
HETATM   23  C1  UNL     1      10.327  -4.843  -4.656  1.00  0.00     0.007 C 
ENDBRANCH  19  22
ENDBRANCH  16  19
ENDBRANCH   1  15
BRANCH   6  24
HETATM   24  C12 UNL     1      14.207  -2.791  -3.882  1.00  0.00     0.172 C 
HETATM   25  N3  UNL     1      15.053  -2.389  -4.767  1.00  0.00    -0.395 N 
ATOM     26  H32 UNL     1      16.035  -2.340  -4.497  1.00  0.00     0.156 HD
ATOM     27  H31 UNL     1      14.774  -2.125  -5.711  1.00  0.00     0.156 HD
ENDBRANCH   6  24
TORSDOF 4
ENDMDL
MODEL 3
REMARK VINA RESULT: -5.709920876      4.127      7.658
REMARK  4 active torsions:
REMARK  status: ('A' for Active; 'I' for Inactive)
REMARK    1  A    between atoms: C2_2  and  C3_3 
REMARK    2  A    between atoms: C3_3  and  N1_6 
REMARK       I    between atoms: N1_6  and  C6_8 
REMARK    3  A    between atoms: C6_8  and  C7_10 
REMARK    4  A    between atoms: N2_15  and  C12_16 
ROOT
HETATM    1  C7  UNL     1      16.144  -5.157  -1.225  1.00  0.00     0.177 C 
HETATM    2  C8  UNL     1      15.715  -6.358  -0.384  1.00  0.00     0.047 C 
HETATM    3  C9  UNL     1      16.840  -7.341  -0.237  1.00  0.00    -0.006 C 
HETATM    4  C10 UNL     1      18.207  -6.684  -0.417  1.00  0.00     0.032 C 
HETATM    5  C11 UNL     1      18.390  -5.927  -1.683  1.00  0.00     0.125 C 
HETATM    6  N2  UNL     1      17.061  -5.584  -2.221  1.00  0.00    -0.364 N 
HETATM    7  C13 UNL     1      16.752  -8.441  -1.276  1.00  0.00     0.181 C 
HETATM    8  O2  UNL     1      16.503  -9.633  -0.600  1.00  0.00    -0.360 OA
HETATM    9  C14 UNL     1      17.068  -9.576   0.642  1.00  0.00     0.264 C 
HETATM   10  O3  UNL     1      16.372 -10.277   1.613  1.00  0.00    -0.360 OA
HETATM   11  C15 UNL     1      16.163  -9.421   2.697  1.00  0.00     0.175 C 
HETATM   12  C16 UNL     1      15.756  -8.146   1.923  1.00  0.00     0.015 C 
HETATM   13  C17 UNL     1      14.418  -8.430   1.379  1.00  0.00     0.012 C 
HETATM   14  C18 UNL     1      16.897  -8.092   1.010  1.00  0.00     0.057 C 
ENDROOT
BRANCH   1  15
HETATM   15  C6  UNL     1      15.017  -4.316  -1.641  1.00  0.00     0.241 C 
HETATM   16  N1  UNL     1      13.666  -4.632  -1.491  1.00  0.00    -0.351 N 
ATOM     17  H1  UNL     1      13.438  -5.530  -1.066  1.00  0.00     0.163 HD
HETATM   18  O1  UNL     1      15.256  -3.174  -2.203  1.00  0.00    -0.271 OA
BRANCH  16  19
HETATM   19  C3  UNL     1      12.562  -3.787  -1.892  1.00  0.00     0.025 C 
HETATM   20  C4  UNL     1      11.269  -4.436  -1.385  1.00  0.00     0.038 C 
HETATM   21  C5  UNL     1      12.658  -2.437  -1.188  1.00  0.00     0.038 C 
BRANCH  19  22
HETATM   22  C2  UNL     1      12.485  -3.614  -3.379  1.00  0.00     0.026 C 
HETATM   23  C1  UNL     1      11.269  -4.315  -3.944  1.00  0.00     0.007 C 
ENDBRANCH  19  22
ENDBRANCH  16  19
ENDBRANCH   1  15
BRANCH   6  24
HETATM   24  C12 UNL     1      16.902  -5.759  -3.593  1.00  0.00     0.172 C 
HETATM   25  N3  UNL     1      17.844  -6.211  -4.347  1.00  0.00    -0.395 N 
ATOM     26  H32 UNL     1      18.733  -6.444  -3.906  1.00  0.00     0.156 HD
ATOM     27  H31 UNL     1      17.727  -6.339  -5.352  1.00  0.00     0.156 HD
ENDBRANCH   6  24
TORSDOF 4
ENDMDL
MODEL 4
REMARK VINA RESULT: -5.678471670      4.854      8.770
REMARK  4 active torsions:
REMARK  status: ('A' for Active; 'I' for Inactive)
REMARK    1  A    between atoms: C2_2  and  C3_3 
REMARK    2  A    between atoms: C3_3  and  N1_6 
REMARK       I    between atoms: N1_6  and  C6_8 
REMARK    3  A    between atoms: C6_8  and  C7_10 
REMARK    4  A    between atoms: N2_15  and  C12_16 
ROOT
HETATM    1  C7  UNL     1      13.317  -4.411  -1.753  1.00  0.00     0.177 C 
HETATM    2  C8  UNL     1      14.288  -5.585  -1.627  1.00  0.00     0.047 C 
HETATM    3  C9  UNL     1      15.698  -5.099  -1.460  1.00  0.00    -0.006 C 
HETATM    4  C10 UNL     1      15.757  -3.688  -0.881  1.00  0.00     0.032 C 
HETATM    5  C11 UNL     1      14.979  -2.660  -1.622  1.00  0.00     0.125 C 
HETATM    6  N2  UNL     1      13.956  -3.343  -2.434  1.00  0.00    -0.364 N 
HETATM    7  C13 UNL     1      16.427  -5.050  -2.788  1.00  0.00     0.181 C 
HETATM    8  O2  UNL     1      17.449  -5.995  -2.736  1.00  0.00    -0.360 OA
HETATM    9  C14 UNL     1      17.881  -6.127  -1.447  1.00  0.00     0.264 C 
HETATM   10  O3  UNL     1      18.315  -7.401  -1.123  1.00  0.00    -0.360 OA
HETATM   11  C15 UNL     1      17.662  -7.795   0.046  1.00  0.00     0.175 C 
HETATM   12  C16 UNL     1      16.237  -7.299  -0.293  1.00  0.00     0.015 C 
HETATM   13  C17 UNL     1      15.749  -8.206  -1.345  1.00  0.00     0.012 C 
HETATM   14  C18 UNL     1      16.584  -5.923  -0.646  1.00  0.00     0.057 C 
ENDROOT
BRANCH   1  15
HETATM   15  C6  UNL     1      11.982  -4.817  -2.204  1.00  0.00     0.241 C 
HETATM   16  N1  UNL     1      11.709  -5.694  -3.255  1.00  0.00    -0.351 N 
ATOM     17  H1  UNL     1      12.504  -6.080  -3.763  1.00  0.00     0.163 HD
HETATM   18  O1  UNL     1      10.940  -4.339  -1.603  1.00  0.00    -0.271 OA
BRANCH  16  19
HETATM   19  C3  UNL     1      10.387  -6.099  -3.682  1.00  0.00     0.025 C 
HETATM   20  C4  UNL     1      10.554  -7.203  -4.733  1.00  0.00     0.038 C 
HETATM   21  C5  UNL     1       9.637  -6.737  -2.518  1.00  0.00     0.038 C 
BRANCH  19  22
HETATM   22  C2  UNL     1       9.604  -4.964  -4.270  1.00  0.00     0.026 C 
HETATM   23  C1  UNL     1      10.273  -4.433  -5.520  1.00  0.00     0.007 C 
ENDBRANCH  19  22
ENDBRANCH  16  19
ENDBRANCH   1  15
BRANCH   6  24
HETATM   24  C12 UNL     1      13.798  -2.865  -3.732  1.00  0.00     0.172 C 
HETATM   25  N3  UNL     1      14.726  -2.220  -4.350  1.00  0.00    -0.395 N 
ATOM     26  H32 UNL     1      15.603  -2.061  -3.855  1.00  0.00     0.156 HD
ATOM     27  H31 UNL     1      14.611  -1.870  -5.300  1.00  0.00     0.156 HD
ENDBRANCH   6  24
TORSDOF 4
ENDMDL
MODEL 5
REMARK VINA RESULT: -5.632764284      4.786      6.781
REMARK  4 active torsions:
REMARK  status: ('A' for Active; 'I' for Inactive)
REMARK    1  A    between atoms: C2_2  and  C3_3 
REMARK    2  A    between atoms: C3_3  and  N1_6 
REMARK       I    between atoms: N1_6  and  C6_8 
REMARK    3  A    between atoms: C6_8  and  C7_10 
REMARK    4  A    between atoms: N2_15  and  C12_16 
ROOT
HETATM    1  C7  UNL     1      14.883  -4.952  -2.324  1.00  0.00     0.177 C 
HETATM    2  C8  UNL     1      13.452  -5.483  -2.255  1.00  0.00     0.047 C 
HETATM    3  C9  UNL     1      12.470  -4.437  -2.697  1.00  0.00    -0.006 C 
HETATM    4  C10 UNL     1      13.107  -3.400  -3.618  1.00  0.00     0.032 C 
HETATM    5  C11 UNL     1      14.318  -2.725  -3.080  1.00  0.00     0.125 C 
HETATM    6  N2  UNL     1      14.887  -3.567  -2.012  1.00  0.00    -0.364 N 
HETATM    7  C13 UNL     1      11.905  -3.674  -1.515  1.00  0.00     0.181 C 
HETATM    8  O2  UNL     1      10.547  -3.971  -1.439  1.00  0.00    -0.360 OA
HETATM    9  C14 UNL     1      10.066  -4.224  -2.693  1.00  0.00     0.264 C 
HETATM   10  O3  UNL     1       9.042  -5.156  -2.729  1.00  0.00    -0.360 OA
HETATM   11  C15 UNL     1       9.373  -6.124  -3.679  1.00  0.00     0.175 C 
HETATM   12  C16 UNL     1      10.865  -6.316  -3.320  1.00  0.00     0.015 C 
HETATM   13  C17 UNL     1      10.866  -7.015  -2.024  1.00  0.00     0.012 C 
HETATM   14  C18 UNL     1      11.265  -4.910  -3.368  1.00  0.00     0.057 C 
ENDROOT
BRANCH   1  15
HETATM   15  C6  UNL     1      15.849  -5.816  -1.638  1.00  0.00     0.241 C 
HETATM   16  N1  UNL     1      15.534  -6.917  -0.840  1.00  0.00    -0.351 N 
ATOM     17  H1  UNL     1      14.547  -7.137  -0.712  1.00  0.00     0.163 HD
HETATM   18  O1  UNL     1      17.114  -5.566  -1.755  1.00  0.00    -0.271 OA
BRANCH  16  19
HETATM   19  C3  UNL     1      16.497  -7.772  -0.180  1.00  0.00     0.025 C 
HETATM   20  C4  UNL     1      16.644  -9.045  -1.022  1.00  0.00     0.038 C 
HETATM   21  C5  UNL     1      17.869  -7.107  -0.180  1.00  0.00     0.038 C 
BRANCH  19  22
HETATM   22  C2  UNL     1      16.076  -8.139   1.211  1.00  0.00     0.026 C 
HETATM   23  C1  UNL     1      16.476  -9.561   1.542  1.00  0.00     0.007 C 
ENDBRANCH  19  22
ENDBRANCH  16  19
ENDBRANCH   1  15
BRANCH   6  24
HETATM   24  C12 UNL     1      15.304  -2.892  -0.868  1.00  0.00     0.172 C 
HETATM   25  N3  UNL     1      16.526  -2.525  -0.688  1.00  0.00    -0.395 N 
ATOM     26  H32 UNL     1      17.200  -2.747  -1.420  1.00  0.00     0.156 HD
ATOM     27  H31 UNL     1      16.831  -2.030   0.149  1.00  0.00     0.156 HD
ENDBRANCH   6  24
TORSDOF 4
ENDMDL
