MODEL 1
REMARK VINA RESULT: -7.405147778      0.000      0.000
REMARK  10 active torsions:
REMARK  status: ('A' for Active; 'I' for Inactive)
REMARK    1  A    between atoms: C2_2  and  O1_3 
REMARK    2  A    between atoms: O1_3  and  C3_4 
REMARK    3  A    between atoms: C3_4  and  C4_5 
REMARK       I    between atoms: C4_5  and  N1_7 
REMARK    4  A    between atoms: N1_7  and  C5_9 
REMARK    5  A    between atoms: C5_9  and  C6_10 
REMARK    6  A    between atoms: C5_9  and  C13_17 
REMARK    7  A    between atoms: C6_10  and  C7_11 
REMARK    8  A    between atoms: C13_17  and  O3_18 
REMARK    9  A    between atoms: C13_17  and  N2_20 
REMARK   10  A    between atoms: N2_20  and  C15_22 
ROOT
HETATM    1  C5  UNL     1      -5.545   8.060 -18.765  1.00  0.00     0.048 C 
ENDROOT
BRANCH   1   2
HETATM    2  N1  UNL     1      -6.403   7.885 -17.662  1.00  0.00    -0.328 N 
HETATM    3  C4  UNL     1      -6.739   8.664 -16.565  1.00  0.00     0.245 C 
HETATM    4  O2  UNL     1      -6.261   9.796 -16.415  1.00  0.00    -0.271 OA
ATOM      5  H1  UNL     1      -6.885   6.986 -17.673  1.00  0.00     0.168 HD
BRANCH   3   6
HETATM    6  C3  UNL     1      -7.680   8.178 -15.535  1.00  0.00     0.270 C 
BRANCH   6   7
HETATM    7  O1  UNL     1      -7.220   8.171 -14.257  1.00  0.00    -0.382 OA
BRANCH   7   8
HETATM    8  C2  UNL     1      -6.575   7.071 -13.797  1.00  0.00     0.163 C 
HETATM    9  C1  UNL     1      -6.942   5.802 -14.558  1.00  0.00     0.033 C 
ENDBRANCH   7   8
ENDBRANCH   6   7
ENDBRANCH   3   6
ENDBRANCH   1   2
BRANCH   1  10
HETATM   10  C6  UNL     1      -5.863   7.188 -19.954  1.00  0.00     0.061 C 
BRANCH  10  11
HETATM   11  C7  UNL     1      -5.784   7.814 -21.300  1.00  0.00    -0.009 C 
HETATM   12  C8  UNL     1      -4.527   7.519 -22.083  1.00  0.00     0.005 C 
HETATM   13  C9  UNL     1      -4.617   6.227 -22.866  1.00  0.00     0.000 C 
HETATM   14  C10 UNL     1      -5.540   6.522 -24.047  1.00  0.00     0.000 C 
HETATM   15  C11 UNL     1      -6.625   7.497 -23.575  1.00  0.00     0.000 C 
HETATM   16  C12 UNL     1      -6.914   7.153 -22.137  1.00  0.00     0.005 C 
ENDBRANCH  10  11
ENDBRANCH   1  10
BRANCH   1  17
HETATM   17  C13 UNL     1      -4.100   8.251 -18.524  1.00  0.00     0.403 C 
BRANCH  17  18
HETATM   18  O3  UNL     1      -3.790   9.587 -18.261  1.00  0.00    -0.363 OA
ATOM     19  H3  UNL     1      -3.239   9.961 -18.938  1.00  0.00     0.212 HD
ENDBRANCH  17  18
BRANCH  17  20
HETATM   20  N2  UNL     1      -3.464   7.322 -17.627  1.00  0.00     0.123 N 
HETATM   21  C14 UNL     1      -2.935   7.909 -16.447  1.00  0.00     0.314 C 
BRANCH  20  22
HETATM   22  C15 UNL     1      -2.387   6.698 -18.390  1.00  0.00     0.226 C 
HETATM   23  C16 UNL     1      -2.837   5.361 -18.954  1.00  0.00     0.036 C 
HETATM   24  C17 UNL     1      -1.579   4.564 -19.143  1.00  0.00     0.002 C 
HETATM   25  C18 UNL     1      -0.467   5.337 -18.486  1.00  0.00     0.002 C 
HETATM   26  C19 UNL     1      -1.210   6.315 -17.566  1.00  0.00     0.036 C 
ENDBRANCH  20  22
ENDBRANCH  17  20
ENDBRANCH   1  17
TORSDOF 10
ENDMDL
MODEL 2
REMARK VINA RESULT: -7.381805231      1.763      4.660
REMARK  10 active torsions:
REMARK  status: ('A' for Active; 'I' for Inactive)
REMARK    1  A    between atoms: C2_2  and  O1_3 
REMARK    2  A    between atoms: O1_3  and  C3_4 
REMARK    3  A    between atoms: C3_4  and  C4_5 
REMARK       I    between atoms: C4_5  and  N1_7 
REMARK    4  A    between atoms: N1_7  and  C5_9 
REMARK    5  A    between atoms: C5_9  and  C6_10 
REMARK    6  A    between atoms: C5_9  and  C13_17 
REMARK    7  A    between atoms: C6_10  and  C7_11 
REMARK    8  A    between atoms: C13_17  and  O3_18 
REMARK    9  A    between atoms: C13_17  and  N2_20 
REMARK   10  A    between atoms: N2_20  and  C15_22 
ROOT
HETATM    1  C5  UNL     1      -4.946   7.332 -18.069  1.00  0.00     0.048 C 
ENDROOT
BRANCH   1   2
HETATM    2  N1  UNL     1      -5.372   7.411 -16.729  1.00  0.00    -0.328 N 
HETATM    3  C4  UNL     1      -5.610   6.476 -15.734  1.00  0.00     0.245 C 
HETATM    4  O2  UNL     1      -5.428   5.268 -15.936  1.00  0.00    -0.271 OA
ATOM      5  H1  UNL     1      -5.542   8.369 -16.423  1.00  0.00     0.168 HD
BRANCH   3   6
HETATM    6  C3  UNL     1      -6.089   6.880 -14.397  1.00  0.00     0.270 C 
BRANCH   6   7
HETATM    7  O1  UNL     1      -5.145   6.978 -13.425  1.00  0.00    -0.382 OA
BRANCH   7   8
HETATM    8  C2  UNL     1      -3.990   7.636 -13.694  1.00  0.00     0.163 C 
HETATM    9  C1  UNL     1      -4.149   9.152 -13.669  1.00  0.00     0.033 C 
ENDBRANCH   7   8
ENDBRANCH   6   7
ENDBRANCH   3   6
ENDBRANCH   1   2
BRANCH   1  10
HETATM   10  C6  UNL     1      -3.451   7.240 -18.250  1.00  0.00     0.061 C 
BRANCH  10  11
HETATM   11  C7  UNL     1      -2.821   5.907 -18.061  1.00  0.00    -0.009 C 
HETATM   12  C8  UNL     1      -3.413   4.785 -18.879  1.00  0.00     0.005 C 
HETATM   13  C9  UNL     1      -2.815   4.693 -20.266  1.00  0.00     0.000 C 
HETATM   14  C10 UNL     1      -1.417   4.104 -20.074  1.00  0.00     0.000 C 
HETATM   15  C11 UNL     1      -0.846   4.643 -18.759  1.00  0.00     0.000 C 
HETATM   16  C12 UNL     1      -1.372   6.047 -18.607  1.00  0.00     0.005 C 
ENDBRANCH  10  11
ENDBRANCH   1  10
BRANCH   1  17
HETATM   17  C13 UNL     1      -5.628   8.157 -19.087  1.00  0.00     0.403 C 
BRANCH  17  18
HETATM   18  O3  UNL     1      -6.112   9.351 -18.548  1.00  0.00    -0.363 OA
ATOM     19  H3  UNL     1      -6.792   9.197 -17.903  1.00  0.00     0.212 HD
ENDBRANCH  17  18
BRANCH  17  20
HETATM   20  N2  UNL     1      -4.951   8.324 -20.347  1.00  0.00     0.123 N 
HETATM   21  C14 UNL     1      -5.063   9.622 -20.910  1.00  0.00     0.314 C 
BRANCH  20  22
HETATM   22  C15 UNL     1      -5.541   7.344 -21.254  1.00  0.00     0.226 C 
HETATM   23  C16 UNL     1      -4.629   7.100 -22.444  1.00  0.00     0.036 C 
HETATM   24  C17 UNL     1      -5.530   6.627 -23.547  1.00  0.00     0.002 C 
HETATM   25  C18 UNL     1      -6.945   6.819 -23.072  1.00  0.00     0.002 C 
HETATM   26  C19 UNL     1      -6.795   7.805 -21.906  1.00  0.00     0.036 C 
ENDBRANCH  20  22
ENDBRANCH  17  20
ENDBRANCH   1  17
TORSDOF 10
ENDMDL
MODEL 3
REMARK VINA RESULT: -7.375433496      0.781      1.333
REMARK  10 active torsions:
REMARK  status: ('A' for Active; 'I' for Inactive)
REMARK    1  A    between atoms: C2_2  and  O1_3 
REMARK    2  A    between atoms: O1_3  and  C3_4 
REMARK    3  A    between atoms: C3_4  and  C4_5 
REMARK       I    between atoms: C4_5  and  N1_7 
REMARK    4  A    between atoms: N1_7  and  C5_9 
REMARK    5  A    between atoms: C5_9  and  C6_10 
REMARK    6  A    between atoms: C5_9  and  C13_17 
REMARK    7  A    between atoms: C6_10  and  C7_11 
REMARK    8  A    between atoms: C13_17  and  O3_18 
REMARK    9  A    between atoms: C13_17  and  N2_20 
REMARK   10  A    between atoms: N2_20  and  C15_22 
ROOT
HETATM    1  C5  UNL     1      -4.742   9.047 -18.975  1.00  0.00     0.048 C 
ENDROOT
BRANCH   1   2
HETATM    2  N1  UNL     1      -5.909   8.781 -18.233  1.00  0.00    -0.328 N 
HETATM    3  C4  UNL     1      -6.389   9.203 -17.002  1.00  0.00     0.245 C 
HETATM    4  O2  UNL     1      -5.753  10.008 -16.310  1.00  0.00    -0.271 OA
ATOM      5  H1  UNL     1      -6.541   8.135 -18.706  1.00  0.00     0.168 HD
BRANCH   3   6
HETATM    6  C3  UNL     1      -7.676   8.712 -16.469  1.00  0.00     0.270 C 
BRANCH   6   7
HETATM    7  O1  UNL     1      -7.667   8.282 -15.181  1.00  0.00    -0.382 OA
BRANCH   7   8
HETATM    8  C2  UNL     1      -6.934   7.188 -14.857  1.00  0.00     0.163 C 
HETATM    9  C1  UNL     1      -6.498   7.174 -13.397  1.00  0.00     0.033 C 
ENDBRANCH   7   8
ENDBRANCH   6   7
ENDBRANCH   3   6
ENDBRANCH   1   2
BRANCH   1  10
HETATM   10  C6  UNL     1      -4.897   8.896 -20.468  1.00  0.00     0.061 C 
BRANCH  10  11
HETATM   11  C7  UNL     1      -5.144   7.527 -20.992  1.00  0.00    -0.009 C 
HETATM   12  C8  UNL     1      -6.497   7.306 -21.625  1.00  0.00     0.005 C 
HETATM   13  C9  UNL     1      -6.531   7.699 -23.086  1.00  0.00     0.000 C 
HETATM   14  C10 UNL     1      -5.767   6.602 -23.827  1.00  0.00     0.000 C 
HETATM   15  C11 UNL     1      -4.615   6.132 -22.931  1.00  0.00     0.000 C 
HETATM   16  C12 UNL     1      -4.144   7.343 -22.168  1.00  0.00     0.005 C 
ENDBRANCH  10  11
ENDBRANCH   1  10
BRANCH   1  17
HETATM   17  C13 UNL     1      -3.440   8.583 -18.452  1.00  0.00     0.403 C 
BRANCH  17  18
HETATM   18  O3  UNL     1      -2.823   9.554 -17.661  1.00  0.00    -0.363 OA
ATOM     19  H3  UNL     1      -1.954   9.284 -17.385  1.00  0.00     0.212 HD
ENDBRANCH  17  18
BRANCH  17  20
HETATM   20  N2  UNL     1      -3.405   7.263 -17.880  1.00  0.00     0.123 N 
HETATM   21  C14 UNL     1      -3.122   7.229 -16.489  1.00  0.00     0.314 C 
BRANCH  20  22
HETATM   22  C15 UNL     1      -2.369   6.536 -18.609  1.00  0.00     0.226 C 
HETATM   23  C16 UNL     1      -2.923   5.237 -19.171  1.00  0.00     0.036 C 
HETATM   24  C17 UNL     1      -1.738   4.329 -19.319  1.00  0.00     0.002 C 
HETATM   25  C18 UNL     1      -0.577   5.007 -18.641  1.00  0.00     0.002 C 
HETATM   26  C19 UNL     1      -1.252   6.059 -17.751  1.00  0.00     0.036 C 
ENDBRANCH  20  22
ENDBRANCH  17  20
ENDBRANCH   1  17
TORSDOF 10
ENDMDL
MODEL 4
REMARK VINA RESULT: -7.334490501      2.475      5.274
REMARK  10 active torsions:
REMARK  status: ('A' for Active; 'I' for Inactive)
REMARK    1  A    between atoms: C2_2  and  O1_3 
REMARK    2  A    between atoms: O1_3  and  C3_4 
REMARK    3  A    between atoms: C3_4  and  C4_5 
REMARK       I    between atoms: C4_5  and  N1_7 
REMARK    4  A    between atoms: N1_7  and  C5_9 
REMARK    5  A    between atoms: C5_9  and  C6_10 
REMARK    6  A    between atoms: C5_9  and  C13_17 
REMARK    7  A    between atoms: C6_10  and  C7_11 
REMARK    8  A    between atoms: C13_17  and  O3_18 
REMARK    9  A    between atoms: C13_17  and  N2_20 
REMARK   10  A    between atoms: N2_20  and  C15_22 
ROOT
HETATM    1  C5  UNL     1      -3.851   6.958 -16.060  1.00  0.00     0.048 C 
ENDROOT
BRANCH   1   2
HETATM    2  N1  UNL     1      -3.754   8.331 -16.359  1.00  0.00    -0.328 N 
HETATM    3  C4  UNL     1      -3.690   9.485 -15.595  1.00  0.00     0.245 C 
HETATM    4  O2  UNL     1      -3.690   9.433 -14.357  1.00  0.00    -0.271 OA
ATOM      5  H1  UNL     1      -3.723   8.517 -17.362  1.00  0.00     0.168 HD
BRANCH   3   6
HETATM    6  C3  UNL     1      -3.616  10.820 -16.221  1.00  0.00     0.270 C 
BRANCH   6   7
HETATM    7  O1  UNL     1      -2.670  10.982 -17.181  1.00  0.00    -0.382 OA
BRANCH   7   8
HETATM    8  C2  UNL     1      -2.998  11.636 -18.323  1.00  0.00     0.163 C 
HETATM    9  C1  UNL     1      -4.215  11.042 -19.023  1.00  0.00     0.033 C 
ENDBRANCH   7   8
ENDBRANCH   6   7
ENDBRANCH   3   6
ENDBRANCH   1   2
BRANCH   1  10
HETATM   10  C6  UNL     1      -2.784   6.099 -16.692  1.00  0.00     0.061 C 
BRANCH  10  11
HETATM   11  C7  UNL     1      -2.458   6.356 -18.119  1.00  0.00    -0.009 C 
HETATM   12  C8  UNL     1      -1.215   5.673 -18.637  1.00  0.00     0.005 C 
HETATM   13  C9  UNL     1      -1.481   4.263 -19.118  1.00  0.00     0.000 C 
HETATM   14  C10 UNL     1      -2.214   4.412 -20.451  1.00  0.00     0.000 C 
HETATM   15  C11 UNL     1      -3.128   5.640 -20.360  1.00  0.00     0.000 C 
HETATM   16  C12 UNL     1      -3.612   5.709 -18.935  1.00  0.00     0.005 C 
ENDBRANCH  10  11
ENDBRANCH   1  10
BRANCH   1  17
HETATM   17  C13 UNL     1      -5.186   6.328 -16.014  1.00  0.00     0.403 C 
BRANCH  17  18
HETATM   18  O3  UNL     1      -5.117   4.993 -15.612  1.00  0.00    -0.363 OA
ATOM     19  H3  UNL     1      -5.458   4.405 -16.276  1.00  0.00     0.212 HD
ENDBRANCH  17  18
BRANCH  17  20
HETATM   20  N2  UNL     1      -6.233   7.074 -15.366  1.00  0.00     0.123 N 
HETATM   21  C14 UNL     1      -6.809   6.427 -14.241  1.00  0.00     0.314 C 
BRANCH  20  22
HETATM   22  C15 UNL     1      -7.258   7.296 -16.382  1.00  0.00     0.226 C 
HETATM   23  C16 UNL     1      -6.979   6.454 -17.616  1.00  0.00     0.036 C 
HETATM   24  C17 UNL     1      -7.645   7.175 -18.751  1.00  0.00     0.002 C 
HETATM   25  C18 UNL     1      -8.090   8.512 -18.220  1.00  0.00     0.002 C 
HETATM   26  C19 UNL     1      -7.266   8.676 -16.937  1.00  0.00     0.036 C 
ENDBRANCH  20  22
ENDBRANCH  17  20
ENDBRANCH   1  17
TORSDOF 10
ENDMDL
MODEL 5
REMARK VINA RESULT: -7.300692893      2.000      4.649
REMARK  10 active torsions:
REMARK  status: ('A' for Active; 'I' for Inactive)
REMARK    1  A    between atoms: C2_2  and  O1_3 
REMARK    2  A    between atoms: O1_3  and  C3_4 
REMARK    3  A    between atoms: C3_4  and  C4_5 
REMARK       I    between atoms: C4_5  and  N1_7 
REMARK    4  A    between atoms: N1_7  and  C5_9 
REMARK    5  A    between atoms: C5_9  and  C6_10 
REMARK    6  A    between atoms: C5_9  and  C13_17 
REMARK    7  A    between atoms: C6_10  and  C7_11 
REMARK    8  A    between atoms: C13_17  and  O3_18 
REMARK    9  A    between atoms: C13_17  and  N2_20 
REMARK   10  A    between atoms: N2_20  and  C15_22 
ROOT
HETATM    1  C5  UNL     1      -3.626   8.486 -17.447  1.00  0.00     0.048 C 
ENDROOT
BRANCH   1   2
HETATM    2  N1  UNL     1      -3.982   8.673 -16.097  1.00  0.00    -0.328 N 
HETATM    3  C4  UNL     1      -3.663   9.621 -15.136  1.00  0.00     0.245 C 
HETATM    4  O2  UNL     1      -2.926  10.579 -15.403  1.00  0.00    -0.271 OA
ATOM      5  H1  UNL     1      -4.614   7.952 -15.749  1.00  0.00     0.168 HD
BRANCH   3   6
HETATM    6  C3  UNL     1      -4.190   9.528 -13.760  1.00  0.00     0.270 C 
BRANCH   6   7
HETATM    7  O1  UNL     1      -5.526   9.316 -13.641  1.00  0.00    -0.382 OA
BRANCH   7   8
HETATM    8  C2  UNL     1      -5.982   8.045 -13.515  1.00  0.00     0.163 C 
HETATM    9  C1  UNL     1      -7.066   7.698 -14.529  1.00  0.00     0.033 C 
ENDBRANCH   7   8
ENDBRANCH   6   7
ENDBRANCH   3   6
ENDBRANCH   1   2
BRANCH   1  10
HETATM   10  C6  UNL     1      -2.265   7.870 -17.660  1.00  0.00     0.061 C 
BRANCH  10  11
HETATM   11  C7  UNL     1      -2.182   6.387 -17.666  1.00  0.00    -0.009 C 
HETATM   12  C8  UNL     1      -3.352   5.670 -18.297  1.00  0.00     0.005 C 
HETATM   13  C9  UNL     1      -3.209   5.526 -19.797  1.00  0.00     0.000 C 
HETATM   14  C10 UNL     1      -2.154   4.440 -20.009  1.00  0.00     0.000 C 
HETATM   15  C11 UNL     1      -1.104   4.569 -18.900  1.00  0.00     0.000 C 
HETATM   16  C12 UNL     1      -0.983   6.039 -18.593  1.00  0.00     0.005 C 
ENDBRANCH  10  11
ENDBRANCH   1  10
BRANCH   1  17
HETATM   17  C13 UNL     1      -3.978   9.530 -18.431  1.00  0.00     0.403 C 
BRANCH  17  18
HETATM   18  O3  UNL     1      -2.915  10.406 -18.661  1.00  0.00    -0.363 OA
ATOM     19  H3  UNL     1      -3.093  10.994 -19.386  1.00  0.00     0.212 HD
ENDBRANCH  17  18
BRANCH  17  20
HETATM   20  N2  UNL     1      -4.637   9.092 -19.633  1.00  0.00     0.123 N 
HETATM   21  C14 UNL     1      -5.029  10.140 -20.507  1.00  0.00     0.314 C 
BRANCH  20  22
HETATM   22  C15 UNL     1      -5.816   8.349 -19.199  1.00  0.00     0.226 C 
HETATM   23  C16 UNL     1      -6.500   7.690 -20.385  1.00  0.00     0.036 C 
HETATM   24  C17 UNL     1      -7.933   7.519 -19.975  1.00  0.00     0.002 C 
HETATM   25  C18 UNL     1      -8.114   8.271 -18.683  1.00  0.00     0.002 C 
HETATM   26  C19 UNL     1      -6.898   9.206 -18.646  1.00  0.00     0.036 C 
ENDBRANCH  20  22
ENDBRANCH  17  20
ENDBRANCH   1  17
TORSDOF 10
ENDMDL
