MODEL 1
REMARK VINA RESULT: -6.899793388      0.000      0.000
REMARK  10 active torsions:
REMARK  status: ('A' for Active; 'I' for Inactive)
REMARK    1  A    between atoms: C1_2  and  C2_3 
REMARK       I    between atoms: C1_2  and  N1_17 
REMARK    2  A    between atoms: C3_4  and  C4_5 
REMARK    3  A    between atoms: C9_10  and  C10_11 
REMARK    4  A    between atoms: C10_11  and  S1_12 
REMARK    5  A    between atoms: S1_12  and  C11_13 
REMARK    6  A    between atoms: C11_13  and  C12_14 
REMARK    7  A    between atoms: C12_14  and  O2_15 
REMARK    8  A    between atoms: N1_17  and  C13_19 
REMARK    9  A    between atoms: C13_19  and  C14_20 
REMARK   10  A    between atoms: C14_20  and  N2_21 
ROOT
HETATM    1  C2  UNL     1      -3.421   5.460 -17.784  1.00  0.00     0.070 C 
HETATM    2  C3  UNL     1      -4.550   5.906 -17.337  1.00  0.00    -0.016 C 
ENDROOT
BRANCH   2   3
HETATM    3  C4  UNL     1      -4.923   6.350 -15.968  1.00  0.00     0.013 C 
HETATM    4  C5  UNL     1      -6.219   5.661 -15.558  1.00  0.00     0.009 C 
HETATM    5  C6  UNL     1      -7.426   6.406 -16.072  1.00  0.00     0.001 C 
HETATM    6  C7  UNL     1      -7.440   7.831 -15.563  1.00  0.00     0.000 C 
HETATM    7  C8  UNL     1      -6.180   8.556 -15.803  1.00  0.00     0.006 C 
HETATM    8  C9  UNL     1      -4.896   7.786 -15.705  1.00  0.00     0.002 C 
BRANCH   8   9
HETATM    9  C10 UNL     1      -4.058   8.225 -14.536  1.00  0.00     0.079 C 
BRANCH   9  10
HETATM   10  S1  UNL     1      -4.031   9.895 -14.034  1.00  0.00    -0.167 SA
BRANCH  10  11
HETATM   11  C11 UNL     1      -3.474  11.116 -15.183  1.00  0.00     0.099 C 
BRANCH  11  12
HETATM   12  C12 UNL     1      -2.841  12.305 -14.468  1.00  0.00     0.174 C 
BRANCH  12  13
HETATM   13  O2  UNL     1      -1.619  11.972 -13.924  1.00  0.00    -0.400 OA
ATOM     14  H2  UNL     1      -0.926  12.524 -14.265  1.00  0.00     0.209 HD
ENDBRANCH  12  13
ENDBRANCH  11  12
ENDBRANCH  10  11
ENDBRANCH   9  10
ENDBRANCH   8   9
ENDBRANCH   2   3
BRANCH   1  15
HETATM   15  C1  UNL     1      -3.294   5.074 -19.211  1.00  0.00     0.240 C 
HETATM   16  O1  UNL     1      -3.175   3.846 -19.442  1.00  0.00    -0.269 OA
HETATM   17  N1  UNL     1      -3.311   6.056 -20.231  1.00  0.00    -0.356 N 
ATOM     18  H1  UNL     1      -3.409   7.046 -20.008  1.00  0.00     0.162 HD
BRANCH  17  19
HETATM   19  C13 UNL     1      -3.183   5.609 -21.603  1.00  0.00     0.153 C 
BRANCH  19  20
HETATM   20  C14 UNL     1      -3.691   6.597 -22.591  1.00  0.00     0.292 C 
BRANCH  20  21
HETATM   21  N2  UNL     1      -5.104   6.682 -22.540  1.00  0.00     0.090 N 
HETATM   22  C15 UNL     1      -5.786   6.758 -23.802  1.00  0.00     0.272 C 
HETATM   23  C16 UNL     1      -7.239   6.818 -23.383  1.00  0.00     0.032 C 
HETATM   24  C17 UNL     1      -7.178   7.731 -22.178  1.00  0.00     0.032 C 
HETATM   25  C18 UNL     1      -5.690   7.737 -21.793  1.00  0.00     0.272 C 
ENDBRANCH  20  21
ENDBRANCH  19  20
ENDBRANCH  17  19
ENDBRANCH   1  15
TORSDOF 10
ENDMDL
MODEL 2
REMARK VINA RESULT: -6.855778788      3.156      5.155
REMARK  10 active torsions:
REMARK  status: ('A' for Active; 'I' for Inactive)
REMARK    1  A    between atoms: C1_2  and  C2_3 
REMARK       I    between atoms: C1_2  and  N1_17 
REMARK    2  A    between atoms: C3_4  and  C4_5 
REMARK    3  A    between atoms: C9_10  and  C10_11 
REMARK    4  A    between atoms: C10_11  and  S1_12 
REMARK    5  A    between atoms: S1_12  and  C11_13 
REMARK    6  A    between atoms: C11_13  and  C12_14 
REMARK    7  A    between atoms: C12_14  and  O2_15 
REMARK    8  A    between atoms: N1_17  and  C13_19 
REMARK    9  A    between atoms: C13_19  and  C14_20 
REMARK   10  A    between atoms: C14_20  and  N2_21 
ROOT
HETATM    1  C2  UNL     1      -3.705   8.571 -16.618  1.00  0.00     0.070 C 
HETATM    2  C3  UNL     1      -4.681   8.128 -17.342  1.00  0.00    -0.016 C 
ENDROOT
BRANCH   2   3
HETATM    3  C4  UNL     1      -6.148   8.219 -17.121  1.00  0.00     0.013 C 
HETATM    4  C5  UNL     1      -6.437   8.071 -15.632  1.00  0.00     0.009 C 
HETATM    5  C6  UNL     1      -6.519   6.621 -15.228  1.00  0.00     0.001 C 
HETATM    6  C7  UNL     1      -7.592   5.899 -16.014  1.00  0.00     0.000 C 
HETATM    7  C8  UNL     1      -7.477   6.077 -17.473  1.00  0.00     0.006 C 
HETATM    8  C9  UNL     1      -7.002   7.406 -17.983  1.00  0.00     0.002 C 
BRANCH   8   9
HETATM    9  C10 UNL     1      -8.079   8.146 -18.728  1.00  0.00     0.079 C 
BRANCH   9  10
HETATM   10  S1  UNL     1      -7.814   8.700 -20.362  1.00  0.00    -0.167 SA
BRANCH  10  11
HETATM   11  C11 UNL     1      -6.284   8.305 -21.152  1.00  0.00     0.099 C 
BRANCH  11  12
HETATM   12  C12 UNL     1      -5.224   9.364 -20.869  1.00  0.00     0.174 C 
BRANCH  12  13
HETATM   13  O2  UNL     1      -4.255   9.380 -21.849  1.00  0.00    -0.400 OA
ATOM     14  H2  UNL     1      -3.399   9.575 -21.487  1.00  0.00     0.209 HD
ENDBRANCH  12  13
ENDBRANCH  11  12
ENDBRANCH  10  11
ENDBRANCH   9  10
ENDBRANCH   8   9
ENDBRANCH   2   3
BRANCH   1  15
HETATM   15  C1  UNL     1      -2.304   8.352 -17.057  1.00  0.00     0.240 C 
HETATM   16  O1  UNL     1      -1.694   9.364 -17.480  1.00  0.00    -0.269 OA
HETATM   17  N1  UNL     1      -1.717   7.065 -16.989  1.00  0.00    -0.356 N 
ATOM     18  H1  UNL     1      -2.242   6.264 -16.639  1.00  0.00     0.162 HD
BRANCH  17  19
HETATM   19  C13 UNL     1      -0.345   6.924 -17.433  1.00  0.00     0.153 C 
BRANCH  19  20
HETATM   20  C14 UNL     1      -0.179   5.906 -18.505  1.00  0.00     0.292 C 
BRANCH  20  21
HETATM   21  N2  UNL     1      -1.436   5.409 -18.929  1.00  0.00     0.090 N 
HETATM   22  C15 UNL     1      -1.490   4.016 -19.273  1.00  0.00     0.272 C 
HETATM   23  C16 UNL     1      -2.943   3.830 -19.653  1.00  0.00     0.032 C 
HETATM   24  C17 UNL     1      -3.229   5.102 -20.421  1.00  0.00     0.032 C 
HETATM   25  C18 UNL     1      -2.074   6.038 -20.030  1.00  0.00     0.272 C 
ENDBRANCH  20  21
ENDBRANCH  19  20
ENDBRANCH  17  19
ENDBRANCH   1  15
TORSDOF 10
ENDMDL
MODEL 3
REMARK VINA RESULT: -6.787206992      3.190      7.260
REMARK  10 active torsions:
REMARK  status: ('A' for Active; 'I' for Inactive)
REMARK    1  A    between atoms: C1_2  and  C2_3 
REMARK       I    between atoms: C1_2  and  N1_17 
REMARK    2  A    between atoms: C3_4  and  C4_5 
REMARK    3  A    between atoms: C9_10  and  C10_11 
REMARK    4  A    between atoms: C10_11  and  S1_12 
REMARK    5  A    between atoms: S1_12  and  C11_13 
REMARK    6  A    between atoms: C11_13  and  C12_14 
REMARK    7  A    between atoms: C12_14  and  O2_15 
REMARK    8  A    between atoms: N1_17  and  C13_19 
REMARK    9  A    between atoms: C13_19  and  C14_20 
REMARK   10  A    between atoms: C14_20  and  N2_21 
ROOT
HETATM    1  C2  UNL     1      -4.054  10.240 -18.289  1.00  0.00     0.070 C 
HETATM    2  C3  UNL     1      -4.542   9.194 -18.872  1.00  0.00    -0.016 C 
ENDROOT
BRANCH   2   3
HETATM    3  C4  UNL     1      -5.028   9.021 -20.266  1.00  0.00     0.013 C 
HETATM    4  C5  UNL     1      -5.890  10.219 -20.645  1.00  0.00     0.009 C 
HETATM    5  C6  UNL     1      -7.314  10.042 -20.183  1.00  0.00     0.001 C 
HETATM    6  C7  UNL     1      -7.923   8.788 -20.773  1.00  0.00     0.000 C 
HETATM    7  C8  UNL     1      -7.104   7.580 -20.567  1.00  0.00     0.006 C 
HETATM    8  C9  UNL     1      -5.611   7.727 -20.611  1.00  0.00     0.002 C 
BRANCH   8   9
HETATM    9  C10 UNL     1      -5.007   7.029 -21.798  1.00  0.00     0.079 C 
BRANCH   9  10
HETATM   10  S1  UNL     1      -3.637   5.965 -21.606  1.00  0.00    -0.167 SA
BRANCH  10  11
HETATM   11  C11 UNL     1      -3.199   5.435 -19.978  1.00  0.00     0.099 C 
BRANCH  11  12
HETATM   12  C12 UNL     1      -2.260   4.233 -20.020  1.00  0.00     0.174 C 
BRANCH  12  13
HETATM   13  O2  UNL     1      -2.879   3.096 -19.548  1.00  0.00    -0.400 OA
ATOM     14  H2  UNL     1      -3.807   3.096 -19.754  1.00  0.00     0.209 HD
ENDBRANCH  12  13
ENDBRANCH  11  12
ENDBRANCH  10  11
ENDBRANCH   9  10
ENDBRANCH   8   9
ENDBRANCH   2   3
BRANCH   1  15
HETATM   15  C1  UNL     1      -3.634  10.162 -16.867  1.00  0.00     0.240 C 
HETATM   16  O1  UNL     1      -2.397  10.117 -16.660  1.00  0.00    -0.269 OA
HETATM   17  N1  UNL     1      -4.596  10.143 -15.828  1.00  0.00    -0.356 N 
ATOM     18  H1  UNL     1      -5.594  10.181 -16.033  1.00  0.00     0.162 HD
BRANCH  17  19
HETATM   19  C13 UNL     1      -4.116  10.066 -14.464  1.00  0.00     0.153 C 
BRANCH  19  20
HETATM   20  C14 UNL     1      -4.025   8.673 -13.953  1.00  0.00     0.292 C 
BRANCH  20  21
HETATM   21  N2  UNL     1      -5.013   7.850 -14.549  1.00  0.00     0.090 N 
HETATM   22  C15 UNL     1      -5.922   7.192 -13.653  1.00  0.00     0.272 C 
HETATM   23  C16 UNL     1      -6.824   6.435 -14.604  1.00  0.00     0.032 C 
HETATM   24  C17 UNL     1      -5.837   5.934 -15.636  1.00  0.00     0.032 C 
HETATM   25  C18 UNL     1      -4.589   6.802 -15.407  1.00  0.00     0.272 C 
ENDBRANCH  20  21
ENDBRANCH  19  20
ENDBRANCH  17  19
ENDBRANCH   1  15
TORSDOF 10
ENDMDL
MODEL 4
REMARK VINA RESULT: -6.736031542      3.715      7.445
REMARK  10 active torsions:
REMARK  status: ('A' for Active; 'I' for Inactive)
REMARK    1  A    between atoms: C1_2  and  C2_3 
REMARK       I    between atoms: C1_2  and  N1_17 
REMARK    2  A    between atoms: C3_4  and  C4_5 
REMARK    3  A    between atoms: C9_10  and  C10_11 
REMARK    4  A    between atoms: C10_11  and  S1_12 
REMARK    5  A    between atoms: S1_12  and  C11_13 
REMARK    6  A    between atoms: C11_13  and  C12_14 
REMARK    7  A    between atoms: C12_14  and  O2_15 
REMARK    8  A    between atoms: N1_17  and  C13_19 
REMARK    9  A    between atoms: C13_19  and  C14_20 
REMARK   10  A    between atoms: C14_20  and  N2_21 
ROOT
HETATM    1  C2  UNL     1      -4.359   9.363 -19.520  1.00  0.00     0.070 C 
HETATM    2  C3  UNL     1      -4.367   8.121 -19.158  1.00  0.00    -0.016 C 
ENDROOT
BRANCH   2   3
HETATM    3  C4  UNL     1      -4.760   6.909 -19.923  1.00  0.00     0.013 C 
HETATM    4  C5  UNL     1      -4.370   5.670 -19.125  1.00  0.00     0.009 C 
HETATM    5  C6  UNL     1      -2.931   5.290 -19.365  1.00  0.00     0.001 C 
HETATM    6  C7  UNL     1      -2.676   5.033 -20.835  1.00  0.00     0.000 C 
HETATM    7  C8  UNL     1      -3.129   6.127 -21.712  1.00  0.00     0.006 C 
HETATM    8  C9  UNL     1      -4.381   6.861 -21.332  1.00  0.00     0.002 C 
BRANCH   8   9
HETATM    9  C10 UNL     1      -5.501   6.616 -22.306  1.00  0.00     0.079 C 
BRANCH   9  10
HETATM   10  S1  UNL     1      -6.879   7.685 -22.369  1.00  0.00    -0.167 SA
BRANCH  10  11
HETATM   11  C11 UNL     1      -7.815   7.948 -20.894  1.00  0.00     0.099 C 
BRANCH  11  12
HETATM   12  C12 UNL     1      -8.054   9.434 -20.646  1.00  0.00     0.174 C 
BRANCH  12  13
HETATM   13  O2  UNL     1      -9.052   9.925 -21.459  1.00  0.00    -0.400 OA
ATOM     14  H2  UNL     1      -9.521  10.637 -21.040  1.00  0.00     0.209 HD
ENDBRANCH  12  13
ENDBRANCH  11  12
ENDBRANCH  10  11
ENDBRANCH   9  10
ENDBRANCH   8   9
ENDBRANCH   2   3
BRANCH   1  15
HETATM   15  C1  UNL     1      -3.918  10.407 -18.561  1.00  0.00     0.240 C 
HETATM   16  O1  UNL     1      -2.863  11.019 -18.860  1.00  0.00    -0.269 OA
HETATM   17  N1  UNL     1      -4.664  10.675 -17.388  1.00  0.00    -0.356 N 
ATOM     18  H1  UNL     1      -5.517  10.158 -17.177  1.00  0.00     0.162 HD
BRANCH  17  19
HETATM   19  C13 UNL     1      -4.176  11.707 -16.497  1.00  0.00     0.153 C 
BRANCH  19  20
HETATM   20  C14 UNL     1      -3.741  11.182 -15.175  1.00  0.00     0.292 C 
BRANCH  20  21
HETATM   21  N2  UNL     1      -4.182   9.849 -14.992  1.00  0.00     0.090 N 
HETATM   22  C15 UNL     1      -4.544   9.473 -13.654  1.00  0.00     0.272 C 
HETATM   23  C16 UNL     1      -4.970   8.031 -13.825  1.00  0.00     0.032 C 
HETATM   24  C17 UNL     1      -3.939   7.516 -14.805  1.00  0.00     0.032 C 
HETATM   25  C18 UNL     1      -3.326   8.793 -15.403  1.00  0.00     0.272 C 
ENDBRANCH  20  21
ENDBRANCH  19  20
ENDBRANCH  17  19
ENDBRANCH   1  15
TORSDOF 10
ENDMDL
MODEL 5
REMARK VINA RESULT: -6.724132576      3.742      7.632
REMARK  10 active torsions:
REMARK  status: ('A' for Active; 'I' for Inactive)
REMARK    1  A    between atoms: C1_2  and  C2_3 
REMARK       I    between atoms: C1_2  and  N1_17 
REMARK    2  A    between atoms: C3_4  and  C4_5 
REMARK    3  A    between atoms: C9_10  and  C10_11 
REMARK    4  A    between atoms: C10_11  and  S1_12 
REMARK    5  A    between atoms: S1_12  and  C11_13 
REMARK    6  A    between atoms: C11_13  and  C12_14 
REMARK    7  A    between atoms: C12_14  and  O2_15 
REMARK    8  A    between atoms: N1_17  and  C13_19 
REMARK    9  A    between atoms: C13_19  and  C14_20 
REMARK   10  A    between atoms: C14_20  and  N2_21 
ROOT
HETATM    1  C2  UNL     1      -4.439   9.088 -19.945  1.00  0.00     0.070 C 
HETATM    2  C3  UNL     1      -4.249   7.972 -19.319  1.00  0.00    -0.016 C 
ENDROOT
BRANCH   2   3
HETATM    3  C4  UNL     1      -4.373   6.574 -19.807  1.00  0.00     0.013 C 
HETATM    4  C5  UNL     1      -4.503   5.639 -18.610  1.00  0.00     0.009 C 
HETATM    5  C6  UNL     1      -3.152   5.269 -18.051  1.00  0.00     0.001 C 
HETATM    6  C7  UNL     1      -2.292   4.606 -19.106  1.00  0.00     0.000 C 
HETATM    7  C8  UNL     1      -2.197   5.375 -20.359  1.00  0.00     0.006 C 
HETATM    8  C9  UNL     1      -3.411   6.133 -20.812  1.00  0.00     0.002 C 
BRANCH   8   9
HETATM    9  C10 UNL     1      -3.994   5.566 -22.078  1.00  0.00     0.079 C 
BRANCH   9  10
HETATM   10  S1  UNL     1      -4.986   6.551 -23.122  1.00  0.00    -0.167 SA
BRANCH  10  11
HETATM   11  C11 UNL     1      -6.653   6.882 -22.642  1.00  0.00     0.099 C 
BRANCH  11  12
HETATM   12  C12 UNL     1      -7.527   7.203 -23.851  1.00  0.00     0.174 C 
BRANCH  12  13
HETATM   13  O2  UNL     1      -7.023   8.267 -24.566  1.00  0.00    -0.400 OA
ATOM     14  H2  UNL     1      -7.666   8.611 -25.175  1.00  0.00     0.209 HD
ENDBRANCH  12  13
ENDBRANCH  11  12
ENDBRANCH  10  11
ENDBRANCH   9  10
ENDBRANCH   8   9
ENDBRANCH   2   3
BRANCH   1  15
HETATM   15  C1  UNL     1      -4.250  10.376 -19.231  1.00  0.00     0.240 C 
HETATM   16  O1  UNL     1      -5.060  11.290 -19.519  1.00  0.00    -0.269 OA
HETATM   17  N1  UNL     1      -3.208  10.532 -18.285  1.00  0.00    -0.356 N 
ATOM     18  H1  UNL     1      -2.567   9.767 -18.075  1.00  0.00     0.162 HD
BRANCH  17  19
HETATM   19  C13 UNL     1      -3.081  11.816 -17.625  1.00  0.00     0.153 C 
BRANCH  19  20
HETATM   20  C14 UNL     1      -3.768  11.867 -16.307  1.00  0.00     0.292 C 
BRANCH  20  21
HETATM   21  N2  UNL     1      -3.773  10.592 -15.691  1.00  0.00     0.090 N 
HETATM   22  C15 UNL     1      -4.979   9.822 -15.822  1.00  0.00     0.272 C 
HETATM   23  C16 UNL     1      -4.635   8.549 -15.080  1.00  0.00     0.032 C 
HETATM   24  C17 UNL     1      -3.866   9.080 -13.890  1.00  0.00     0.032 C 
HETATM   25  C18 UNL     1      -3.490  10.513 -14.302  1.00  0.00     0.272 C 
ENDBRANCH  20  21
ENDBRANCH  19  20
ENDBRANCH  17  19
ENDBRANCH   1  15
TORSDOF 10
ENDMDL
