MODEL 1
REMARK VINA RESULT: -7.918388924      0.000      0.000
REMARK  7 active torsions:
REMARK  status: ('A' for Active; 'I' for Inactive)
REMARK    1  A    between atoms: C4_7  and  C5_8 
REMARK    2  A    between atoms: C5_8  and  C6_9 
REMARK    3  A    between atoms: C6_9  and  N2_10 
REMARK    4  A    between atoms: C9_13  and  C10_14 
REMARK    5  A    between atoms: C10_14  and  C11_15 
REMARK    6  A    between atoms: C11_15  and  C12_16 
REMARK    7  A    between atoms: C12_16  and  C13_17 
ROOT
HETATM    1  N2  UNL     1      -4.561   8.799 -14.834  1.00  0.00    -0.343 N 
HETATM    2  C7  UNL     1      -5.877   8.359 -15.002  1.00  0.00     0.066 C 
HETATM    3  C8  UNL     1      -6.191   8.116 -16.436  1.00  0.00     0.049 C 
HETATM    4  C9  UNL     1      -4.934   7.644 -17.245  1.00  0.00    -0.005 C 
HETATM    5  C21 UNL     1      -4.178   6.869 -16.183  1.00  0.00     0.064 C 
HETATM    6  C22 UNL     1      -3.525   7.945 -15.290  1.00  0.00     0.274 C 
HETATM    7  F1  UNL     1      -2.690   8.708 -16.120  1.00  0.00    -0.227 F 
ENDROOT
BRANCH   4   8
HETATM    8  C10 UNL     1      -5.462   6.858 -18.383  1.00  0.00     0.014 C 
BRANCH   8   9
HETATM    9  C11 UNL     1      -5.218   7.187 -19.777  1.00  0.00    -0.037 C 
HETATM   10  C17 UNL     1      -6.464   6.901 -20.665  1.00  0.00     0.037 C 
HETATM   11  C18 UNL     1      -6.780   7.993 -21.623  1.00  0.00     0.233 C 
HETATM   12  N3  UNL     1      -5.628   8.374 -22.383  1.00  0.00    -0.075 N 
HETATM   13  C19 UNL     1      -4.533   8.756 -21.572  1.00  0.00     0.233 C 
ATOM     14  H32 UNL     1      -5.361   7.636 -23.033  1.00  0.00     0.277 HD
ATOM     15  H31 UNL     1      -5.860   9.108 -23.053  1.00  0.00     0.277 HD
HETATM   16  C20 UNL     1      -4.872   8.609 -20.081  1.00  0.00     0.037 C 
BRANCH   9  17
HETATM   17  C12 UNL     1      -4.168   6.273 -20.366  1.00  0.00     0.014 C 
BRANCH  17  18
HETATM   18  C13 UNL     1      -3.492   5.267 -19.580  1.00  0.00    -0.014 C 
HETATM   19  C14 UNL     1      -2.805   4.083 -20.153  1.00  0.00     0.005 C 
HETATM   20  C15 UNL     1      -1.577   4.342 -19.247  1.00  0.00     0.001 C 
HETATM   21  C16 UNL     1      -2.087   5.772 -19.170  1.00  0.00     0.005 C 
ENDBRANCH  17  18
ENDBRANCH   9  17
ENDBRANCH   8   9
ENDBRANCH   4   8
BRANCH   1  22
HETATM   22  C6  UNL     1      -4.230   9.769 -13.875  1.00  0.00     0.067 C 
BRANCH  22  23
HETATM   23  C5  UNL     1      -3.402  10.920 -14.240  1.00  0.00     0.059 C 
BRANCH  23  24
HETATM   24  C4  UNL     1      -3.948  12.066 -14.960  1.00  0.00     0.084 C 
HETATM   25  C1  UNL     1      -2.811  12.656 -15.774  1.00  0.00     0.222 C 
HETATM   26  O1  UNL     1      -2.006  13.550 -15.429  1.00  0.00    -0.273 OA
HETATM   27  N1  UNL     1      -2.810  12.005 -17.031  1.00  0.00    -0.361 N 
HETATM   28  C2  UNL     1      -4.125  11.458 -17.292  1.00  0.00     0.123 C 
ATOM     29  H1  UNL     1      -2.007  11.932 -17.657  1.00  0.00     0.162 HD
HETATM   30  C3  UNL     1      -4.914  11.798 -16.062  1.00  0.00     0.034 C 
ENDBRANCH  23  24
ENDBRANCH  22  23
ENDBRANCH   1  22
TORSDOF 7
ENDMDL
MODEL 2
REMARK VINA RESULT: -7.902749143      1.360      1.862
REMARK  7 active torsions:
REMARK  status: ('A' for Active; 'I' for Inactive)
REMARK    1  A    between atoms: C4_7  and  C5_8 
REMARK    2  A    between atoms: C5_8  and  C6_9 
REMARK    3  A    between atoms: C6_9  and  N2_10 
REMARK    4  A    between atoms: C9_13  and  C10_14 
REMARK    5  A    between atoms: C10_14  and  C11_15 
REMARK    6  A    between atoms: C11_15  and  C12_16 
REMARK    7  A    between atoms: C12_16  and  C13_17 
ROOT
HETATM    1  N2  UNL     1      -4.357   8.891 -14.786  1.00  0.00    -0.343 N 
HETATM    2  C7  UNL     1      -5.629   8.317 -14.727  1.00  0.00     0.066 C 
HETATM    3  C8  UNL     1      -6.209   8.139 -16.086  1.00  0.00     0.049 C 
HETATM    4  C9  UNL     1      -5.108   7.869 -17.168  1.00  0.00    -0.005 C 
HETATM    5  C21 UNL     1      -4.076   7.114 -16.352  1.00  0.00     0.064 C 
HETATM    6  C22 UNL     1      -3.360   8.193 -15.514  1.00  0.00     0.274 C 
HETATM    7  F1  UNL     1      -2.793   9.101 -16.421  1.00  0.00    -0.227 F 
ENDROOT
BRANCH   4   8
HETATM    8  C10 UNL     1      -5.781   7.109 -18.245  1.00  0.00     0.014 C 
BRANCH   8   9
HETATM    9  C11 UNL     1      -6.519   7.725 -19.334  1.00  0.00    -0.037 C 
HETATM   10  C17 UNL     1      -8.006   7.269 -19.357  1.00  0.00     0.037 C 
HETATM   11  C18 UNL     1      -8.971   8.382 -19.558  1.00  0.00     0.233 C 
HETATM   12  N3  UNL     1      -8.617   9.186 -20.688  1.00  0.00    -0.075 N 
HETATM   13  C19 UNL     1      -7.303   9.706 -20.606  1.00  0.00     0.233 C 
ATOM     14  H32 UNL     1      -8.752   8.671 -21.558  1.00  0.00     0.277 HD
ATOM     15  H31 UNL     1      -9.297   9.933 -20.831  1.00  0.00     0.277 HD
HETATM   16  C20 UNL     1      -6.595   9.218 -19.332  1.00  0.00     0.037 C 
BRANCH   9  17
HETATM   17  C12 UNL     1      -5.999   7.246 -20.670  1.00  0.00     0.014 C 
BRANCH  17  18
HETATM   18  C13 UNL     1      -4.588   7.122 -20.950  1.00  0.00    -0.014 C 
HETATM   19  C14 UNL     1      -3.854   5.833 -20.986  1.00  0.00     0.005 C 
HETATM   20  C15 UNL     1      -3.173   6.244 -22.314  1.00  0.00     0.001 C 
HETATM   21  C16 UNL     1      -4.342   7.203 -22.476  1.00  0.00     0.005 C 
ENDBRANCH  17  18
ENDBRANCH   9  17
ENDBRANCH   8   9
ENDBRANCH   4   8
BRANCH   1  22
HETATM   22  C6  UNL     1      -3.929   9.825 -13.828  1.00  0.00     0.067 C 
BRANCH  22  23
HETATM   23  C5  UNL     1      -3.086  10.956 -14.220  1.00  0.00     0.059 C 
BRANCH  23  24
HETATM   24  C4  UNL     1      -3.654  12.221 -14.671  1.00  0.00     0.084 C 
HETATM   25  C1  UNL     1      -2.606  12.887 -15.544  1.00  0.00     0.222 C 
HETATM   26  O1  UNL     1      -1.708  13.683 -15.189  1.00  0.00    -0.273 OA
HETATM   27  N1  UNL     1      -2.818  12.444 -16.872  1.00  0.00    -0.361 N 
HETATM   28  C2  UNL     1      -4.188  11.998 -17.018  1.00  0.00     0.123 C 
ATOM     29  H1  UNL     1      -2.115  12.441 -17.611  1.00  0.00     0.162 HD
HETATM   30  C3  UNL     1      -4.778  12.170 -15.649  1.00  0.00     0.034 C 
ENDBRANCH  23  24
ENDBRANCH  22  23
ENDBRANCH   1  22
TORSDOF 7
ENDMDL
MODEL 3
REMARK VINA RESULT: -7.894607692      2.266      3.881
REMARK  7 active torsions:
REMARK  status: ('A' for Active; 'I' for Inactive)
REMARK    1  A    between atoms: C4_7  and  C5_8 
REMARK    2  A    between atoms: C5_8  and  C6_9 
REMARK    3  A    between atoms: C6_9  and  N2_10 
REMARK    4  A    between atoms: C9_13  and  C10_14 
REMARK    5  A    between atoms: C10_14  and  C11_15 
REMARK    6  A    between atoms: C11_15  and  C12_16 
REMARK    7  A    between atoms: C12_16  and  C13_17 
ROOT
HETATM    1  N2  UNL     1      -6.492   9.829 -18.017  1.00  0.00    -0.343 N 
HETATM    2  C7  UNL     1      -6.277   9.581 -19.374  1.00  0.00     0.066 C 
HETATM    3  C8  UNL     1      -5.289   8.486 -19.577  1.00  0.00     0.049 C 
HETATM    4  C9  UNL     1      -5.339   7.424 -18.425  1.00  0.00    -0.005 C 
HETATM    5  C21 UNL     1      -6.809   7.465 -18.054  1.00  0.00     0.064 C 
HETATM    6  C22 UNL     1      -6.976   8.757 -17.226  1.00  0.00     0.274 C 
HETATM    7  F1  UNL     1      -6.127   8.640 -16.116  1.00  0.00    -0.227 F 
ENDROOT
BRANCH   4   8
HETATM    8  C10 UNL     1      -4.845   6.162 -19.022  1.00  0.00     0.014 C 
BRANCH   8   9
HETATM    9  C11 UNL     1      -3.439   5.848 -19.206  1.00  0.00    -0.037 C 
HETATM   10  C17 UNL     1      -2.521   6.792 -18.376  1.00  0.00     0.037 C 
HETATM   11  C18 UNL     1      -1.434   6.084 -17.651  1.00  0.00     0.233 C 
HETATM   12  N3  UNL     1      -0.701   5.216 -18.521  1.00  0.00    -0.075 N 
HETATM   13  C19 UNL     1      -1.523   4.273 -19.182  1.00  0.00     0.233 C 
ATOM     14  H32 UNL     1      -0.151   5.753 -19.191  1.00  0.00     0.277 HD
ATOM     15  H31 UNL     1       0.057   4.752 -18.019  1.00  0.00     0.277 HD
HETATM   16  C20 UNL     1      -3.001   4.474 -18.813  1.00  0.00     0.037 C 
BRANCH   9  17
HETATM   17  C12 UNL     1      -3.012   6.128 -20.629  1.00  0.00     0.014 C 
BRANCH  17  18
HETATM   18  C13 UNL     1      -3.749   5.634 -21.768  1.00  0.00    -0.014 C 
HETATM   19  C14 UNL     1      -5.068   6.160 -22.201  1.00  0.00     0.005 C 
HETATM   20  C15 UNL     1      -4.577   6.216 -23.668  1.00  0.00     0.001 C 
HETATM   21  C16 UNL     1      -3.178   6.242 -23.072  1.00  0.00     0.005 C 
ENDBRANCH  17  18
ENDBRANCH   9  17
ENDBRANCH   8   9
ENDBRANCH   4   8
BRANCH   1  22
HETATM   22  C6  UNL     1      -6.685  11.134 -17.533  1.00  0.00     0.067 C 
BRANCH  22  23
HETATM   23  C5  UNL     1      -5.551  11.913 -17.032  1.00  0.00     0.059 C 
BRANCH  23  24
HETATM   24  C4  UNL     1      -4.297  11.284 -16.635  1.00  0.00     0.084 C 
HETATM   25  C1  UNL     1      -3.247  11.725 -17.638  1.00  0.00     0.222 C 
HETATM   26  O1  UNL     1      -2.923  11.159 -18.706  1.00  0.00    -0.273 OA
HETATM   27  N1  UNL     1      -2.673  12.923 -17.149  1.00  0.00    -0.361 N 
HETATM   28  C2  UNL     1      -2.866  13.000 -15.716  1.00  0.00     0.123 C 
ATOM     29  H1  UNL     1      -2.197  13.623 -17.718  1.00  0.00     0.162 HD
HETATM   30  C3  UNL     1      -3.645  11.762 -15.383  1.00  0.00     0.034 C 
ENDBRANCH  23  24
ENDBRANCH  22  23
ENDBRANCH   1  22
TORSDOF 7
ENDMDL
MODEL 4
REMARK VINA RESULT: -7.853908647      2.105      3.589
REMARK  7 active torsions:
REMARK  status: ('A' for Active; 'I' for Inactive)
REMARK    1  A    between atoms: C4_7  and  C5_8 
REMARK    2  A    between atoms: C5_8  and  C6_9 
REMARK    3  A    between atoms: C6_9  and  N2_10 
REMARK    4  A    between atoms: C9_13  and  C10_14 
REMARK    5  A    between atoms: C10_14  and  C11_15 
REMARK    6  A    between atoms: C11_15  and  C12_16 
REMARK    7  A    between atoms: C12_16  and  C13_17 
ROOT
HETATM    1  N2  UNL     1      -4.276  10.712 -16.628  1.00  0.00    -0.343 N 
HETATM    2  C7  UNL     1      -3.092  10.635 -17.366  1.00  0.00     0.066 C 
HETATM    3  C8  UNL     1      -3.216   9.672 -18.494  1.00  0.00     0.049 C 
HETATM    4  C9  UNL     1      -4.677   9.605 -19.056  1.00  0.00    -0.005 C 
HETATM    5  C21 UNL     1      -5.144  11.030 -18.827  1.00  0.00     0.064 C 
HETATM    6  C22 UNL     1      -5.448  11.113 -17.316  1.00  0.00     0.274 C 
HETATM    7  F1  UNL     1      -6.438  10.156 -17.049  1.00  0.00    -0.227 F 
ENDROOT
BRANCH   4   8
HETATM    8  C10 UNL     1      -4.546   9.174 -20.466  1.00  0.00     0.014 C 
BRANCH   8   9
HETATM    9  C11 UNL     1      -5.222   8.017 -21.027  1.00  0.00    -0.037 C 
HETATM   10  C17 UNL     1      -6.763   8.093 -20.825  1.00  0.00     0.037 C 
HETATM   11  C18 UNL     1      -7.544   7.741 -22.040  1.00  0.00     0.233 C 
HETATM   12  N3  UNL     1      -7.116   6.494 -22.597  1.00  0.00    -0.075 N 
HETATM   13  C19 UNL     1      -5.733   6.470 -22.898  1.00  0.00     0.233 C 
ATOM     14  H32 UNL     1      -7.370   5.717 -21.987  1.00  0.00     0.277 HD
ATOM     15  H31 UNL     1      -7.672   6.250 -23.416  1.00  0.00     0.277 HD
HETATM   16  C20 UNL     1      -5.057   7.789 -22.495  1.00  0.00     0.037 C 
BRANCH   9  17
HETATM   17  C12 UNL     1      -4.846   6.762 -20.274  1.00  0.00     0.014 C 
BRANCH  17  18
HETATM   18  C13 UNL     1      -3.472   6.376 -20.055  1.00  0.00    -0.014 C 
HETATM   19  C14 UNL     1      -2.974   5.728 -18.816  1.00  0.00     0.005 C 
HETATM   20  C15 UNL     1      -2.200   4.685 -19.657  1.00  0.00     0.001 C 
HETATM   21  C16 UNL     1      -3.179   5.033 -20.768  1.00  0.00     0.005 C 
ENDBRANCH  17  18
ENDBRANCH   9  17
ENDBRANCH   8   9
ENDBRANCH   4   8
BRANCH   1  22
HETATM   22  C6  UNL     1      -4.260  10.855 -15.231  1.00  0.00     0.067 C 
BRANCH  22  23
HETATM   23  C5  UNL     1      -4.207   9.675 -14.366  1.00  0.00     0.059 C 
BRANCH  23  24
HETATM   24  C4  UNL     1      -3.988   8.336 -14.900  1.00  0.00     0.084 C 
HETATM   25  C1  UNL     1      -3.972   7.387 -13.715  1.00  0.00     0.222 C 
HETATM   26  O1  UNL     1      -2.983   7.027 -13.037  1.00  0.00    -0.273 OA
HETATM   27  N1  UNL     1      -5.304   6.963 -13.496  1.00  0.00    -0.361 N 
HETATM   28  C2  UNL     1      -6.066   7.117 -14.717  1.00  0.00     0.123 C 
ATOM     29  H1  UNL     1      -5.671   6.604 -12.614  1.00  0.00     0.162 HD
HETATM   30  C3  UNL     1      -5.089   7.713 -15.687  1.00  0.00     0.034 C 
ENDBRANCH  23  24
ENDBRANCH  22  23
ENDBRANCH   1  22
TORSDOF 7
ENDMDL
MODEL 5
REMARK VINA RESULT: -7.773822712      3.058      6.745
REMARK  7 active torsions:
REMARK  status: ('A' for Active; 'I' for Inactive)
REMARK    1  A    between atoms: C4_7  and  C5_8 
REMARK    2  A    between atoms: C5_8  and  C6_9 
REMARK    3  A    between atoms: C6_9  and  N2_10 
REMARK    4  A    between atoms: C9_13  and  C10_14 
REMARK    5  A    between atoms: C10_14  and  C11_15 
REMARK    6  A    between atoms: C11_15  and  C12_16 
REMARK    7  A    between atoms: C12_16  and  C13_17 
ROOT
HETATM    1  N2  UNL     1      -2.412   5.403 -18.904  1.00  0.00    -0.343 N 
HETATM    2  C7  UNL     1      -1.305   6.159 -18.509  1.00  0.00     0.066 C 
HETATM    3  C8  UNL     1      -1.718   7.465 -17.927  1.00  0.00     0.049 C 
HETATM    4  C9  UNL     1      -3.102   7.374 -17.195  1.00  0.00    -0.005 C 
HETATM    5  C21 UNL     1      -3.065   5.950 -16.676  1.00  0.00     0.064 C 
HETATM    6  C22 UNL     1      -3.361   5.067 -17.906  1.00  0.00     0.274 C 
HETATM    7  F1  UNL     1      -4.623   5.450 -18.385  1.00  0.00    -0.227 F 
ENDROOT
BRANCH   4   8
HETATM    8  C10 UNL     1      -3.088   8.448 -16.176  1.00  0.00     0.014 C 
BRANCH   8   9
HETATM    9  C11 UNL     1      -4.024   9.558 -16.155  1.00  0.00    -0.037 C 
HETATM   10  C17 UNL     1      -3.514  10.728 -15.264  1.00  0.00     0.037 C 
HETATM   11  C18 UNL     1      -3.666  12.068 -15.890  1.00  0.00     0.233 C 
HETATM   12  N3  UNL     1      -4.997  12.274 -16.373  1.00  0.00    -0.075 N 
HETATM   13  C19 UNL     1      -5.415  11.274 -17.283  1.00  0.00     0.233 C 
ATOM     14  H32 UNL     1      -5.655  12.361 -15.599  1.00  0.00     0.277 HD
ATOM     15  H31 UNL     1      -5.097  13.204 -16.781  1.00  0.00     0.277 HD
HETATM   16  C20 UNL     1      -4.327  10.205 -17.467  1.00  0.00     0.037 C 
BRANCH   9  17
HETATM   17  C12 UNL     1      -5.314   9.157 -15.477  1.00  0.00     0.014 C 
BRANCH  17  18
HETATM   18  C13 UNL     1      -5.453   7.913 -14.757  1.00  0.00    -0.014 C 
HETATM   19  C14 UNL     1      -6.364   7.714 -13.602  1.00  0.00     0.005 C 
HETATM   20  C15 UNL     1      -6.870   6.386 -14.215  1.00  0.00     0.001 C 
HETATM   21  C16 UNL     1      -6.379   6.950 -15.539  1.00  0.00     0.005 C 
ENDBRANCH  17  18
ENDBRANCH   9  17
ENDBRANCH   8   9
ENDBRANCH   4   8
BRANCH   1  22
HETATM   22  C6  UNL     1      -2.384   4.616 -20.067  1.00  0.00     0.067 C 
BRANCH  22  23
HETATM   23  C5  UNL     1      -3.289   4.908 -21.180  1.00  0.00     0.059 C 
BRANCH  23  24
HETATM   24  C4  UNL     1      -3.352   6.228 -21.798  1.00  0.00     0.084 C 
HETATM   25  C1  UNL     1      -4.075   6.060 -23.121  1.00  0.00     0.222 C 
HETATM   26  O1  UNL     1      -3.574   5.815 -24.242  1.00  0.00    -0.273 OA
HETATM   27  N1  UNL     1      -5.458   6.230 -22.872  1.00  0.00    -0.361 N 
HETATM   28  C2  UNL     1      -5.638   7.000 -21.659  1.00  0.00     0.123 C 
ATOM     29  H1  UNL     1      -6.211   5.867 -23.456  1.00  0.00     0.162 HD
HETATM   30  C3  UNL     1      -4.240   7.247 -21.170  1.00  0.00     0.034 C 
ENDBRANCH  23  24
ENDBRANCH  22  23
ENDBRANCH   1  22
TORSDOF 7
ENDMDL
