MODEL 1
REMARK VINA RESULT: -7.816546271      0.000      0.000
REMARK  7 active torsions:
REMARK  status: ('A' for Active; 'I' for Inactive)
REMARK    1  A    between atoms: C2_2  and  C3_3 
REMARK    2  A    between atoms: C3_3  and  C4_4 
REMARK    3  A    between atoms: C4_4  and  N1_5 
REMARK       I    between atoms: N1_5  and  C5_7 
REMARK    4  A    between atoms: C5_7  and  C6_9 
REMARK    5  A    between atoms: C6_9  and  C7_10 
REMARK       I    between atoms: C7_10  and  N2_12 
REMARK    6  A    between atoms: N2_12  and  C8_14 
REMARK    7  A    between atoms: N3_20  and  C13_21 
ROOT
HETATM    1  C6  UNL     1      -3.512   8.705 -17.114  1.00  0.00     0.130 C 
HETATM    2  C11 UNL     1      -4.375   7.535 -16.732  1.00  0.00     0.074 C 
HETATM    3  C12 UNL     1      -5.682   7.475 -17.446  1.00  0.00     0.065 C 
HETATM    4  N3  UNL     1      -5.679   7.916 -18.779  1.00  0.00    -0.369 N 
HETATM    5  C19 UNL     1      -5.212   9.225 -18.932  1.00  0.00     0.065 C 
HETATM    6  C20 UNL     1      -3.847   9.410 -18.359  1.00  0.00     0.074 C 
ENDROOT
BRANCH   1   7
HETATM    7  C5  UNL     1      -2.114   8.148 -17.252  1.00  0.00     0.236 C 
HETATM    8  N1  UNL     1      -1.899   6.754 -17.396  1.00  0.00    -0.360 N 
ATOM      9  H1  UNL     1      -2.690   6.110 -17.406  1.00  0.00     0.162 HD
HETATM   10  O1  UNL     1      -1.158   8.961 -17.235  1.00  0.00    -0.272 OA
BRANCH   8  11
HETATM   11  C4  UNL     1      -0.562   6.255 -17.527  1.00  0.00     0.122 C 
BRANCH  11  12
HETATM   12  C3  UNL     1      -0.469   5.095 -18.489  1.00  0.00     0.019 C 
BRANCH  12  13
HETATM   13  C2  UNL     1      -1.835   4.463 -18.628  1.00  0.00    -0.003 C 
HETATM   14  C1  UNL     1      -2.211   4.310 -20.102  1.00  0.00     0.005 C 
ENDBRANCH  12  13
ENDBRANCH  11  12
ENDBRANCH   8  11
ENDBRANCH   1   7
BRANCH   1  15
HETATM   15  C7  UNL     1      -3.484   9.681 -15.994  1.00  0.00     0.237 C 
HETATM   16  O2  UNL     1      -3.698   9.280 -14.805  1.00  0.00    -0.272 OA
HETATM   17  N2  UNL     1      -3.222  11.059 -16.239  1.00  0.00    -0.338 N 
ATOM     18  H2  UNL     1      -3.060  11.351 -17.202  1.00  0.00     0.164 HD
BRANCH  17  19
HETATM   19  C8  UNL     1      -3.172  12.064 -15.214  1.00  0.00     0.102 C 
HETATM   20  C9  UNL     1      -4.539  12.361 -14.629  1.00  0.00     0.056 C 
HETATM   21  C10 UNL     1      -2.535  13.346 -15.697  1.00  0.00     0.056 C 
HETATM   22 CL1  UNL     1      -2.159  11.491 -13.852  1.00  0.00    -0.096 Cl
ENDBRANCH  17  19
ENDBRANCH   1  15
BRANCH   4  23
HETATM   23  C13 UNL     1      -6.742   7.416 -19.547  1.00  0.00     0.088 C 
HETATM   24  C14 UNL     1      -6.254   7.029 -20.915  1.00  0.00     0.026 C 
HETATM   25  C15 UNL     1      -6.616   8.006 -22.007  1.00  0.00     0.002 C 
HETATM   26  C16 UNL     1      -8.096   8.278 -21.919  1.00  0.00     0.000 C 
HETATM   27  C17 UNL     1      -8.254   9.126 -20.640  1.00  0.00     0.002 C 
HETATM   28  C18 UNL     1      -8.030   8.157 -19.507  1.00  0.00     0.026 C 
ENDBRANCH   4  23
TORSDOF 7
ENDMDL
MODEL 2
REMARK VINA RESULT: -7.592139316      0.918      1.446
REMARK  7 active torsions:
REMARK  status: ('A' for Active; 'I' for Inactive)
REMARK    1  A    between atoms: C2_2  and  C3_3 
REMARK    2  A    between atoms: C3_3  and  C4_4 
REMARK    3  A    between atoms: C4_4  and  N1_5 
REMARK       I    between atoms: N1_5  and  C5_7 
REMARK    4  A    between atoms: C5_7  and  C6_9 
REMARK    5  A    between atoms: C6_9  and  C7_10 
REMARK       I    between atoms: C7_10  and  N2_12 
REMARK    6  A    between atoms: N2_12  and  C8_14 
REMARK    7  A    between atoms: N3_20  and  C13_21 
ROOT
HETATM    1  C6  UNL     1      -3.313   9.197 -17.486  1.00  0.00     0.130 C 
HETATM    2  C11 UNL     1      -4.449   8.219 -17.601  1.00  0.00     0.074 C 
HETATM    3  C12 UNL     1      -5.490   8.600 -18.597  1.00  0.00     0.065 C 
HETATM    4  N3  UNL     1      -5.031   9.255 -19.752  1.00  0.00    -0.369 N 
HETATM    5  C19 UNL     1      -4.307  10.420 -19.482  1.00  0.00     0.065 C 
HETATM    6  C20 UNL     1      -3.148  10.169 -18.576  1.00  0.00     0.074 C 
ENDROOT
BRANCH   1   7
HETATM    7  C5  UNL     1      -2.060   8.355 -17.415  1.00  0.00     0.236 C 
HETATM    8  N1  UNL     1      -2.114   6.954 -17.632  1.00  0.00    -0.360 N 
ATOM      9  H1  UNL     1      -3.003   6.500 -17.836  1.00  0.00     0.162 HD
HETATM   10  O1  UNL     1      -0.979   8.938 -17.160  1.00  0.00    -0.272 OA
BRANCH   8  11
HETATM   11  C4  UNL     1      -0.909   6.182 -17.561  1.00  0.00     0.122 C 
BRANCH  11  12
HETATM   12  C3  UNL     1      -0.867   5.079 -18.592  1.00  0.00     0.019 C 
BRANCH  12  13
HETATM   13  C2  UNL     1      -2.271   4.566 -18.817  1.00  0.00    -0.003 C 
HETATM   14  C1  UNL     1      -2.563   4.434 -20.312  1.00  0.00     0.005 C 
ENDBRANCH  12  13
ENDBRANCH  11  12
ENDBRANCH   8  11
ENDBRANCH   1   7
BRANCH   1  15
HETATM   15  C7  UNL     1      -3.421   9.926 -16.196  1.00  0.00     0.237 C 
HETATM   16  O2  UNL     1      -3.910   9.337 -15.179  1.00  0.00    -0.272 OA
HETATM   17  N2  UNL     1      -2.984  11.277 -16.087  1.00  0.00    -0.338 N 
ATOM     18  H2  UNL     1      -2.601  11.724 -16.919  1.00  0.00     0.164 HD
BRANCH  17  19
HETATM   19  C8  UNL     1      -3.048  12.050 -14.877  1.00  0.00     0.102 C 
HETATM   20  C9  UNL     1      -4.473  12.368 -14.471  1.00  0.00     0.056 C 
HETATM   21  C10 UNL     1      -2.247  13.327 -14.968  1.00  0.00     0.056 C 
HETATM   22 CL1  UNL     1      -2.338  11.116 -13.523  1.00  0.00    -0.096 Cl
ENDBRANCH  17  19
ENDBRANCH   1  15
BRANCH   4  23
HETATM   23  C13 UNL     1      -5.908   9.166 -20.844  1.00  0.00     0.088 C 
HETATM   24  C14 UNL     1      -7.305   8.887 -20.365  1.00  0.00     0.026 C 
HETATM   25  C15 UNL     1      -7.758   7.461 -20.558  1.00  0.00     0.002 C 
HETATM   26  C16 UNL     1      -7.495   7.078 -21.993  1.00  0.00     0.000 C 
HETATM   27  C17 UNL     1      -5.960   6.960 -22.082  1.00  0.00     0.002 C 
HETATM   28  C18 UNL     1      -5.462   8.382 -22.025  1.00  0.00     0.026 C 
ENDBRANCH   4  23
TORSDOF 7
ENDMDL
MODEL 3
REMARK VINA RESULT: -7.402691445      2.856      3.520
REMARK  7 active torsions:
REMARK  status: ('A' for Active; 'I' for Inactive)
REMARK    1  A    between atoms: C2_2  and  C3_3 
REMARK    2  A    between atoms: C3_3  and  C4_4 
REMARK    3  A    between atoms: C4_4  and  N1_5 
REMARK       I    between atoms: N1_5  and  C5_7 
REMARK    4  A    between atoms: C5_7  and  C6_9 
REMARK    5  A    between atoms: C6_9  and  C7_10 
REMARK       I    between atoms: C7_10  and  N2_12 
REMARK    6  A    between atoms: N2_12  and  C8_14 
REMARK    7  A    between atoms: N3_20  and  C13_21 
ROOT
HETATM    1  C6  UNL     1      -3.982   7.543 -17.595  1.00  0.00     0.130 C 
HETATM    2  C11 UNL     1      -4.618   6.495 -18.464  1.00  0.00     0.074 C 
HETATM    3  C12 UNL     1      -5.260   7.027 -19.700  1.00  0.00     0.065 C 
HETATM    4  N3  UNL     1      -4.624   8.124 -20.304  1.00  0.00    -0.369 N 
HETATM    5  C19 UNL     1      -4.464   9.217 -19.447  1.00  0.00     0.065 C 
HETATM    6  C20 UNL     1      -3.726   8.857 -18.201  1.00  0.00     0.074 C 
ENDROOT
BRANCH   1   7
HETATM    7  C5  UNL     1      -2.657   6.960 -17.162  1.00  0.00     0.236 C 
HETATM    8  N1  UNL     1      -1.524   7.022 -18.014  1.00  0.00    -0.360 N 
ATOM      9  H1  UNL     1      -1.595   7.461 -18.932  1.00  0.00     0.162 HD
HETATM   10  O1  UNL     1      -2.597   6.424 -16.029  1.00  0.00    -0.272 OA
BRANCH   8  11
HETATM   11  C4  UNL     1      -0.280   6.463 -17.576  1.00  0.00     0.122 C 
BRANCH  11  12
HETATM   12  C3  UNL     1      -0.045   5.075 -18.123  1.00  0.00     0.019 C 
BRANCH  12  13
HETATM   13  C2  UNL     1      -1.012   4.825 -19.257  1.00  0.00    -0.003 C 
HETATM   14  C1  UNL     1      -1.931   3.648 -18.931  1.00  0.00     0.005 C 
ENDBRANCH  12  13
ENDBRANCH  11  12
ENDBRANCH   8  11
ENDBRANCH   1   7
BRANCH   1  15
HETATM   15  C7  UNL     1      -4.800   7.725 -16.367  1.00  0.00     0.237 C 
HETATM   16  O2  UNL     1      -4.716   8.813 -15.712  1.00  0.00    -0.272 OA
HETATM   17  N2  UNL     1      -5.673   6.695 -15.917  1.00  0.00    -0.338 N 
ATOM     18  H2  UNL     1      -5.715   5.833 -16.461  1.00  0.00     0.164 HD
BRANCH  17  19
HETATM   19  C8  UNL     1      -6.500   6.793 -14.746  1.00  0.00     0.102 C 
HETATM   20  C9  UNL     1      -7.608   7.815 -14.906  1.00  0.00     0.056 C 
HETATM   21  C10 UNL     1      -5.699   7.100 -13.503  1.00  0.00     0.056 C 
HETATM   22 CL1  UNL     1      -7.307   5.224 -14.440  1.00  0.00    -0.096 Cl
ENDBRANCH  17  19
ENDBRANCH   1  15
BRANCH   4  23
HETATM   23  C13 UNL     1      -4.940   8.289 -21.661  1.00  0.00     0.088 C 
HETATM   24  C14 UNL     1      -6.417   8.513 -21.826  1.00  0.00     0.026 C 
HETATM   25  C15 UNL     1      -7.178   7.315 -22.336  1.00  0.00     0.002 C 
HETATM   26  C16 UNL     1      -6.476   6.806 -23.570  1.00  0.00     0.000 C 
HETATM   27  C17 UNL     1      -5.172   6.178 -23.037  1.00  0.00     0.002 C 
HETATM   28  C18 UNL     1      -4.317   7.352 -22.633  1.00  0.00     0.026 C 
ENDBRANCH   4  23
TORSDOF 7
ENDMDL
MODEL 4
REMARK VINA RESULT: -7.368805780      1.978      2.497
REMARK  7 active torsions:
REMARK  status: ('A' for Active; 'I' for Inactive)
REMARK    1  A    between atoms: C2_2  and  C3_3 
REMARK    2  A    between atoms: C3_3  and  C4_4 
REMARK    3  A    between atoms: C4_4  and  N1_5 
REMARK       I    between atoms: N1_5  and  C5_7 
REMARK    4  A    between atoms: C5_7  and  C6_9 
REMARK    5  A    between atoms: C6_9  and  C7_10 
REMARK       I    between atoms: C7_10  and  N2_12 
REMARK    6  A    between atoms: N2_12  and  C8_14 
REMARK    7  A    between atoms: N3_20  and  C13_21 
ROOT
HETATM    1  C6  UNL     1      -3.606   8.419 -17.734  1.00  0.00     0.130 C 
HETATM    2  C11 UNL     1      -4.411   7.273 -18.280  1.00  0.00     0.074 C 
HETATM    3  C12 UNL     1      -5.386   7.657 -19.340  1.00  0.00     0.065 C 
HETATM    4  N3  UNL     1      -4.983   8.685 -20.208  1.00  0.00    -0.369 N 
HETATM    5  C19 UNL     1      -4.641   9.869 -19.549  1.00  0.00     0.065 C 
HETATM    6  C20 UNL     1      -3.578   9.659 -18.522  1.00  0.00     0.074 C 
ENDROOT
BRANCH   1   7
HETATM    7  C5  UNL     1      -2.190   7.903 -17.624  1.00  0.00     0.236 C 
HETATM    8  N1  UNL     1      -1.880   6.559 -17.956  1.00  0.00    -0.360 N 
ATOM      9  H1  UNL     1      -2.613   5.925 -18.272  1.00  0.00     0.162 HD
HETATM   10  O1  UNL     1      -1.306   8.701 -17.230  1.00  0.00    -0.272 OA
BRANCH   8  11
HETATM   11  C4  UNL     1      -0.528   6.098 -17.844  1.00  0.00     0.122 C 
BRANCH  11  12
HETATM   12  C3  UNL     1      -0.299   4.794 -18.571  1.00  0.00     0.019 C 
BRANCH  12  13
HETATM   13  C2  UNL     1      -1.623   4.083 -18.730  1.00  0.00    -0.003 C 
HETATM   14  C1  UNL     1      -2.107   4.163 -20.178  1.00  0.00     0.005 C 
ENDBRANCH  12  13
ENDBRANCH  11  12
ENDBRANCH   8  11
ENDBRANCH   1   7
BRANCH   1  15
HETATM   15  C7  UNL     1      -4.065   8.730 -16.355  1.00  0.00     0.237 C 
HETATM   16  O2  UNL     1      -4.808   9.743 -16.154  1.00  0.00    -0.272 OA
HETATM   17  N2  UNL     1      -3.681   7.906 -15.260  1.00  0.00    -0.338 N 
ATOM     18  H2  UNL     1      -3.081   7.104 -15.452  1.00  0.00     0.164 HD
BRANCH  17  19
HETATM   19  C8  UNL     1      -4.085   8.133 -13.900  1.00  0.00     0.102 C 
HETATM   20  C9  UNL     1      -5.555   7.837 -13.678  1.00  0.00     0.056 C 
HETATM   21  C10 UNL     1      -3.771   9.535 -13.434  1.00  0.00     0.056 C 
HETATM   22 CL1  UNL     1      -3.184   7.036 -12.808  1.00  0.00    -0.096 Cl
ENDBRANCH  17  19
ENDBRANCH   1  15
BRANCH   4  23
HETATM   23  C13 UNL     1      -5.663   8.693 -21.436  1.00  0.00     0.088 C 
HETATM   24  C14 UNL     1      -7.144   8.583 -21.209  1.00  0.00     0.026 C 
HETATM   25  C15 UNL     1      -7.721   7.219 -21.497  1.00  0.00     0.002 C 
HETATM   26  C16 UNL     1      -7.260   6.798 -22.871  1.00  0.00     0.000 C 
HETATM   27  C17 UNL     1      -5.757   6.500 -22.695  1.00  0.00     0.002 C 
HETATM   28  C18 UNL     1      -5.114   7.854 -22.533  1.00  0.00     0.026 C 
ENDBRANCH   4  23
TORSDOF 7
ENDMDL
MODEL 5
REMARK VINA RESULT: -7.326309710      1.841      2.630
REMARK  7 active torsions:
REMARK  status: ('A' for Active; 'I' for Inactive)
REMARK    1  A    between atoms: C2_2  and  C3_3 
REMARK    2  A    between atoms: C3_3  and  C4_4 
REMARK    3  A    between atoms: C4_4  and  N1_5 
REMARK       I    between atoms: N1_5  and  C5_7 
REMARK    4  A    between atoms: C5_7  and  C6_9 
REMARK    5  A    between atoms: C6_9  and  C7_10 
REMARK       I    between atoms: C7_10  and  N2_12 
REMARK    6  A    between atoms: N2_12  and  C8_14 
REMARK    7  A    between atoms: N3_20  and  C13_21 
ROOT
HETATM    1  C6  UNL     1      -3.234   8.582 -17.452  1.00  0.00     0.130 C 
HETATM    2  C11 UNL     1      -4.190   7.572 -18.022  1.00  0.00     0.074 C 
HETATM    3  C12 UNL     1      -5.234   8.148 -18.916  1.00  0.00     0.065 C 
HETATM    4  N3  UNL     1      -4.836   9.237 -19.709  1.00  0.00    -0.369 N 
HETATM    5  C19 UNL     1      -4.323  10.307 -18.971  1.00  0.00     0.065 C 
HETATM    6  C20 UNL     1      -3.181   9.900 -18.101  1.00  0.00     0.074 C 
ENDROOT
BRANCH   1   7
HETATM    7  C5  UNL     1      -1.865   7.950 -17.560  1.00  0.00     0.236 C 
HETATM    8  N1  UNL     1      -1.725   6.554 -17.769  1.00  0.00    -0.360 N 
ATOM      9  H1  UNL     1      -2.551   5.961 -17.846  1.00  0.00     0.162 HD
HETATM   10  O1  UNL     1      -0.866   8.702 -17.460  1.00  0.00    -0.272 OA
BRANCH   8  11
HETATM   11  C4  UNL     1      -0.415   5.984 -17.870  1.00  0.00     0.122 C 
BRANCH  11  12
HETATM   12  C3  UNL     1      -0.399   4.712 -18.684  1.00  0.00     0.019 C 
BRANCH  12  13
HETATM   13  C2  UNL     1      -1.803   4.157 -18.753  1.00  0.00    -0.003 C 
HETATM   14  C1  UNL     1      -2.323   4.184 -20.191  1.00  0.00     0.005 C 
ENDBRANCH  12  13
ENDBRANCH  11  12
ENDBRANCH   8  11
ENDBRANCH   1   7
BRANCH   1  15
HETATM   15  C7  UNL     1      -3.517   8.764 -16.005  1.00  0.00     0.237 C 
HETATM   16  O2  UNL     1      -3.088   9.803 -15.406  1.00  0.00    -0.272 OA
HETATM   17  N2  UNL     1      -4.260   7.789 -15.282  1.00  0.00    -0.338 N 
ATOM     18  H2  UNL     1      -4.586   6.966 -15.788  1.00  0.00     0.164 HD
BRANCH  17  19
HETATM   19  C8  UNL     1      -4.581   7.892 -13.885  1.00  0.00     0.102 C 
HETATM   20  C9  UNL     1      -3.490   7.324 -13.000  1.00  0.00     0.056 C 
HETATM   21  C10 UNL     1      -5.901   7.240 -13.550  1.00  0.00     0.056 C 
HETATM   22 CL1  UNL     1      -4.750   9.615 -13.428  1.00  0.00    -0.096 Cl
ENDBRANCH  17  19
ENDBRANCH   1  15
BRANCH   4  23
HETATM   23  C13 UNL     1      -5.637   9.439 -20.844  1.00  0.00     0.088 C 
HETATM   24  C14 UNL     1      -6.951  10.052 -20.447  1.00  0.00     0.026 C 
HETATM   25  C15 UNL     1      -8.114   9.091 -20.444  1.00  0.00     0.002 C 
HETATM   26  C16 UNL     1      -8.128   8.372 -21.770  1.00  0.00     0.000 C 
HETATM   27  C17 UNL     1      -6.909   7.429 -21.707  1.00  0.00     0.002 C 
HETATM   28  C18 UNL     1      -5.714   8.338 -21.839  1.00  0.00     0.026 C 
ENDBRANCH   4  23
TORSDOF 7
ENDMDL
