MODEL 1
REMARK VINA RESULT: -7.855064616      0.000      0.000
REMARK  7 active torsions:
REMARK  status: ('A' for Active; 'I' for Inactive)
REMARK    1  A    between atoms: C2_2  and  C4_4 
REMARK    2  A    between atoms: C4_4  and  N1_5 
REMARK    3  A    between atoms: C8_9  and  C9_10 
REMARK    4  A    between atoms: C9_10  and  N2_11 
REMARK       I    between atoms: N2_11  and  C10_13 
REMARK    5  A    between atoms: C10_13  and  C11_15 
REMARK    6  A    between atoms: C16_20  and  C17_21 
REMARK       I    between atoms: C17_21  and  N3_23 
REMARK    7  A    between atoms: N3_23  and  C18_25 
ROOT
HETATM    1  C11 UNL     1      -4.982  11.319 -18.919  1.00  0.00     0.091 C 
HETATM    2  C12 UNL     1      -3.616  10.863 -18.484  1.00  0.00     0.015 C 
HETATM    3  C13 UNL     1      -3.155  11.659 -17.292  1.00  0.00     0.001 C 
HETATM    4  C14 UNL     1      -4.158  11.759 -16.194  1.00  0.00     0.001 C 
HETATM    5  C15 UNL     1      -5.533  12.145 -16.689  1.00  0.00     0.015 C 
HETATM    6  C16 UNL     1      -5.998  11.272 -17.818  1.00  0.00     0.091 C 
ENDROOT
BRANCH   1   7
HETATM    7  C10 UNL     1      -5.415  10.604 -20.139  1.00  0.00     0.222 C 
HETATM    8  N2  UNL     1      -4.591   9.530 -20.599  1.00  0.00    -0.359 N 
ATOM      9  H2  UNL     1      -3.743   9.288 -20.087  1.00  0.00     0.162 HD
HETATM   10  O1  UNL     1      -6.438  10.868 -20.789  1.00  0.00    -0.273 OA
BRANCH   8  11
HETATM   11  C9  UNL     1      -4.951   8.780 -21.789  1.00  0.00     0.158 C 
BRANCH  11  12
HETATM   12  C8  UNL     1      -5.517   7.466 -21.380  1.00  0.00     0.240 C 
HETATM   13  N1  UNL     1      -4.826   6.334 -21.960  1.00  0.00     0.095 N 
HETATM   14  C5  UNL     1      -5.139   6.339 -23.324  1.00  0.00     0.273 C 
HETATM   15  C6  UNL     1      -6.521   7.017 -23.422  1.00  0.00     0.032 C 
HETATM   16  C7  UNL     1      -6.896   7.329 -21.988  1.00  0.00     0.039 C 
BRANCH  13  17
HETATM   17  C4  UNL     1      -3.512   6.165 -21.504  1.00  0.00     0.277 C 
BRANCH  17  18
HETATM   18  C2  UNL     1      -3.424   5.518 -20.159  1.00  0.00     0.006 C 
HETATM   19  C1  UNL     1      -2.625   6.279 -19.170  1.00  0.00     0.011 C 
HETATM   20  C3  UNL     1      -2.733   4.145 -20.307  1.00  0.00     0.011 C 
ENDBRANCH  17  18
ENDBRANCH  13  17
ENDBRANCH  11  12
ENDBRANCH   8  11
ENDBRANCH   1   7
BRANCH   6  21
HETATM   21  C17 UNL     1      -6.246   9.922 -17.282  1.00  0.00     0.224 C 
HETATM   22  O2  UNL     1      -5.882   9.522 -16.148  1.00  0.00    -0.273 OA
HETATM   23  N3  UNL     1      -6.950   8.999 -18.103  1.00  0.00    -0.339 N 
ATOM     24  H3  UNL     1      -7.259   9.295 -19.029  1.00  0.00     0.164 HD
BRANCH  23  25
HETATM   25  C18 UNL     1      -7.243   7.645 -17.662  1.00  0.00     0.102 C 
HETATM   26  C19 UNL     1      -8.136   6.922 -18.635  1.00  0.00     0.056 C 
HETATM   27  C20 UNL     1      -5.912   6.883 -17.626  1.00  0.00     0.056 C 
HETATM   28 CL1  UNL     1      -8.029   7.612 -16.073  1.00  0.00    -0.096 Cl
ENDBRANCH  23  25
ENDBRANCH   6  21
TORSDOF 7
ENDMDL
MODEL 2
REMARK VINA RESULT: -7.851645916      1.276      1.534
REMARK  7 active torsions:
REMARK  status: ('A' for Active; 'I' for Inactive)
REMARK    1  A    between atoms: C2_2  and  C4_4 
REMARK    2  A    between atoms: C4_4  and  N1_5 
REMARK    3  A    between atoms: C8_9  and  C9_10 
REMARK    4  A    between atoms: C9_10  and  N2_11 
REMARK       I    between atoms: N2_11  and  C10_13 
REMARK    5  A    between atoms: C10_13  and  C11_15 
REMARK    6  A    between atoms: C16_20  and  C17_21 
REMARK       I    between atoms: C17_21  and  N3_23 
REMARK    7  A    between atoms: N3_23  and  C18_25 
ROOT
HETATM    1  C11 UNL     1      -4.960  11.256 -18.827  1.00  0.00     0.091 C 
HETATM    2  C12 UNL     1      -3.456  11.270 -18.774  1.00  0.00     0.015 C 
HETATM    3  C13 UNL     1      -2.982  12.059 -17.583  1.00  0.00     0.001 C 
HETATM    4  C14 UNL     1      -3.648  11.695 -16.300  1.00  0.00     0.001 C 
HETATM    5  C15 UNL     1      -5.153  11.620 -16.421  1.00  0.00     0.015 C 
HETATM    6  C16 UNL     1      -5.589  10.750 -17.564  1.00  0.00     0.091 C 
ENDROOT
BRANCH   1   7
HETATM    7  C10 UNL     1      -5.441  10.555 -20.036  1.00  0.00     0.222 C 
HETATM    8  N2  UNL     1      -4.623   9.501 -20.554  1.00  0.00    -0.359 N 
ATOM      9  H2  UNL     1      -3.747   9.265 -20.088  1.00  0.00     0.162 HD
HETATM   10  O1  UNL     1      -6.498  10.812 -20.631  1.00  0.00    -0.273 OA
BRANCH   8  11
HETATM   11  C9  UNL     1      -5.029   8.766 -21.738  1.00  0.00     0.158 C 
BRANCH  11  12
HETATM   12  C8  UNL     1      -5.573   7.444 -21.324  1.00  0.00     0.240 C 
HETATM   13  N1  UNL     1      -4.868   6.321 -21.906  1.00  0.00     0.095 N 
HETATM   14  C5  UNL     1      -5.189   6.319 -23.268  1.00  0.00     0.273 C 
HETATM   15  C6  UNL     1      -6.581   6.976 -23.359  1.00  0.00     0.032 C 
HETATM   16  C7  UNL     1      -6.953   7.285 -21.924  1.00  0.00     0.039 C 
BRANCH  13  17
HETATM   17  C4  UNL     1      -3.548   6.173 -21.457  1.00  0.00     0.277 C 
BRANCH  17  18
HETATM   18  C2  UNL     1      -3.440   5.478 -20.138  1.00  0.00     0.006 C 
HETATM   19  C1  UNL     1      -2.605   6.193 -19.142  1.00  0.00     0.011 C 
HETATM   20  C3  UNL     1      -2.775   4.101 -20.349  1.00  0.00     0.011 C 
ENDBRANCH  17  18
ENDBRANCH  13  17
ENDBRANCH  11  12
ENDBRANCH   8  11
ENDBRANCH   1   7
BRANCH   6  21
HETATM   21  C17 UNL     1      -5.249   9.355 -17.236  1.00  0.00     0.224 C 
HETATM   22  O2  UNL     1      -4.315   8.701 -17.764  1.00  0.00    -0.273 OA
HETATM   23  N3  UNL     1      -6.030   8.693 -16.249  1.00  0.00    -0.339 N 
ATOM     24  H3  UNL     1      -6.795   9.199 -15.802  1.00  0.00     0.164 HD
BRANCH  23  25
HETATM   25  C18 UNL     1      -5.770   7.317 -15.858  1.00  0.00     0.102 C 
HETATM   26  C19 UNL     1      -4.400   7.157 -15.255  1.00  0.00     0.056 C 
HETATM   27  C20 UNL     1      -6.784   6.960 -14.764  1.00  0.00     0.056 C 
HETATM   28 CL1  UNL     1      -5.899   6.195 -17.225  1.00  0.00    -0.096 Cl
ENDBRANCH  23  25
ENDBRANCH   6  21
TORSDOF 7
ENDMDL
MODEL 3
REMARK VINA RESULT: -7.803046853      2.093      3.983
REMARK  7 active torsions:
REMARK  status: ('A' for Active; 'I' for Inactive)
REMARK    1  A    between atoms: C2_2  and  C4_4 
REMARK    2  A    between atoms: C4_4  and  N1_5 
REMARK    3  A    between atoms: C8_9  and  C9_10 
REMARK    4  A    between atoms: C9_10  and  N2_11 
REMARK       I    between atoms: N2_11  and  C10_13 
REMARK    5  A    between atoms: C10_13  and  C11_15 
REMARK    6  A    between atoms: C16_20  and  C17_21 
REMARK       I    between atoms: C17_21  and  N3_23 
REMARK    7  A    between atoms: N3_23  and  C18_25 
ROOT
HETATM    1  C11 UNL     1      -3.242   9.566 -15.891  1.00  0.00     0.091 C 
HETATM    2  C12 UNL     1      -3.939   9.872 -14.593  1.00  0.00     0.015 C 
HETATM    3  C13 UNL     1      -3.836  11.341 -14.279  1.00  0.00     0.001 C 
HETATM    4  C14 UNL     1      -4.204  12.239 -15.411  1.00  0.00     0.001 C 
HETATM    5  C15 UNL     1      -3.540  11.846 -16.710  1.00  0.00     0.015 C 
HETATM    6  C16 UNL     1      -3.740  10.395 -17.037  1.00  0.00     0.091 C 
ENDROOT
BRANCH   1   7
HETATM    7  C10 UNL     1      -3.261   8.115 -16.174  1.00  0.00     0.222 C 
HETATM    8  N2  UNL     1      -2.317   7.618 -17.127  1.00  0.00    -0.359 N 
ATOM      9  H2  UNL     1      -1.669   8.262 -17.579  1.00  0.00     0.162 HD
HETATM   10  O1  UNL     1      -4.033   7.301 -15.645  1.00  0.00    -0.273 OA
BRANCH   8  11
HETATM   11  C9  UNL     1      -2.275   6.205 -17.456  1.00  0.00     0.158 C 
BRANCH  11  12
HETATM   12  C8  UNL     1      -1.723   6.044 -18.828  1.00  0.00     0.240 C 
HETATM   13  N1  UNL     1      -2.712   5.639 -19.805  1.00  0.00     0.095 N 
HETATM   14  C5  UNL     1      -3.044   4.315 -19.502  1.00  0.00     0.273 C 
HETATM   15  C6  UNL     1      -1.792   3.726 -18.821  1.00  0.00     0.032 C 
HETATM   16  C7  UNL     1      -0.785   4.856 -18.831  1.00  0.00     0.039 C 
BRANCH  13  17
HETATM   17  C4  UNL     1      -3.692   6.606 -20.068  1.00  0.00     0.277 C 
BRANCH  17  18
HETATM   18  C2  UNL     1      -4.310   6.477 -21.423  1.00  0.00     0.006 C 
HETATM   19  C1  UNL     1      -3.331   6.426 -22.535  1.00  0.00     0.011 C 
HETATM   20  C3  UNL     1      -5.199   7.712 -21.688  1.00  0.00     0.011 C 
ENDBRANCH  17  18
ENDBRANCH  13  17
ENDBRANCH  11  12
ENDBRANCH   8  11
ENDBRANCH   1   7
BRANCH   6  21
HETATM   21  C17 UNL     1      -5.163  10.188 -17.359  1.00  0.00     0.224 C 
HETATM   22  O2  UNL     1      -6.063  11.053 -17.218  1.00  0.00    -0.273 OA
HETATM   23  N3  UNL     1      -5.553   8.919 -17.867  1.00  0.00    -0.339 N 
ATOM     24  H3  UNL     1      -4.843   8.197 -17.992  1.00  0.00     0.164 HD
BRANCH  23  25
HETATM   25  C18 UNL     1      -6.933   8.620 -18.214  1.00  0.00     0.102 C 
HETATM   26  C19 UNL     1      -7.108   7.177 -18.607  1.00  0.00     0.056 C 
HETATM   27  C20 UNL     1      -7.775   8.846 -16.953  1.00  0.00     0.056 C 
HETATM   28 CL1  UNL     1      -7.520   9.624 -19.552  1.00  0.00    -0.096 Cl
ENDBRANCH  23  25
ENDBRANCH   6  21
TORSDOF 7
ENDMDL
MODEL 4
REMARK VINA RESULT: -7.430867023      2.499      6.263
REMARK  7 active torsions:
REMARK  status: ('A' for Active; 'I' for Inactive)
REMARK    1  A    between atoms: C2_2  and  C4_4 
REMARK    2  A    between atoms: C4_4  and  N1_5 
REMARK    3  A    between atoms: C8_9  and  C9_10 
REMARK    4  A    between atoms: C9_10  and  N2_11 
REMARK       I    between atoms: N2_11  and  C10_13 
REMARK    5  A    between atoms: C10_13  and  C11_15 
REMARK    6  A    between atoms: C16_20  and  C17_21 
REMARK       I    between atoms: C17_21  and  N3_23 
REMARK    7  A    between atoms: N3_23  and  C18_25 
ROOT
HETATM    1  C11 UNL     1      -4.977   8.496 -21.302  1.00  0.00     0.091 C 
HETATM    2  C12 UNL     1      -6.343   7.863 -21.287  1.00  0.00     0.015 C 
HETATM    3  C13 UNL     1      -6.563   7.068 -22.547  1.00  0.00     0.001 C 
HETATM    4  C14 UNL     1      -5.449   6.140 -22.891  1.00  0.00     0.001 C 
HETATM    5  C15 UNL     1      -4.092   6.801 -22.818  1.00  0.00     0.015 C 
HETATM    6  C16 UNL     1      -3.871   7.507 -21.512  1.00  0.00     0.091 C 
ENDROOT
BRANCH   1   7
HETATM    7  C10 UNL     1      -4.776   9.348 -20.110  1.00  0.00     0.222 C 
HETATM    8  N2  UNL     1      -5.174   8.812 -18.845  1.00  0.00    -0.359 N 
ATOM      9  H2  UNL     1      -5.579   7.878 -18.796  1.00  0.00     0.162 HD
HETATM   10  O1  UNL     1      -4.287  10.488 -20.128  1.00  0.00    -0.273 OA
BRANCH   8  11
HETATM   11  C9  UNL     1      -5.007   9.588 -17.629  1.00  0.00     0.158 C 
BRANCH  11  12
HETATM   12  C8  UNL     1      -3.837   9.061 -16.876  1.00  0.00     0.240 C 
HETATM   13  N1  UNL     1      -4.149   8.686 -15.513  1.00  0.00     0.095 N 
HETATM   14  C5  UNL     1      -4.387   9.879 -14.822  1.00  0.00     0.273 C 
HETATM   15  C6  UNL     1      -3.557  10.949 -15.559  1.00  0.00     0.032 C 
HETATM   16  C7  UNL     1      -2.854  10.192 -16.666  1.00  0.00     0.039 C 
BRANCH  13  17
HETATM   17  C4  UNL     1      -5.006   7.583 -15.400  1.00  0.00     0.277 C 
BRANCH  17  18
HETATM   18  C2  UNL     1      -6.270   7.880 -14.659  1.00  0.00     0.006 C 
HETATM   19  C1  UNL     1      -6.537   6.967 -13.521  1.00  0.00     0.011 C 
HETATM   20  C3  UNL     1      -7.466   7.727 -15.624  1.00  0.00     0.011 C 
ENDBRANCH  17  18
ENDBRANCH  13  17
ENDBRANCH  11  12
ENDBRANCH   8  11
ENDBRANCH   1   7
BRANCH   6  21
HETATM   21  C17 UNL     1      -3.761   6.489 -20.453  1.00  0.00     0.224 C 
HETATM   22  O2  UNL     1      -4.734   5.989 -19.834  1.00  0.00    -0.273 OA
HETATM   23  N3  UNL     1      -2.462   6.033 -20.099  1.00  0.00    -0.339 N 
ATOM     24  H3  UNL     1      -1.652   6.421 -20.584  1.00  0.00     0.164 HD
BRANCH  23  25
HETATM   25  C18 UNL     1      -2.252   5.031 -19.066  1.00  0.00     0.102 C 
HETATM   26  C19 UNL     1      -2.649   3.657 -19.535  1.00  0.00     0.056 C 
HETATM   27  C20 UNL     1      -0.746   4.988 -18.778  1.00  0.00     0.056 C 
HETATM   28 CL1  UNL     1      -3.166   5.389 -17.590  1.00  0.00    -0.096 Cl
ENDBRANCH  23  25
ENDBRANCH   6  21
TORSDOF 7
ENDMDL
MODEL 5
REMARK VINA RESULT: -7.410079617      2.404      6.090
REMARK  7 active torsions:
REMARK  status: ('A' for Active; 'I' for Inactive)
REMARK    1  A    between atoms: C2_2  and  C4_4 
REMARK    2  A    between atoms: C4_4  and  N1_5 
REMARK    3  A    between atoms: C8_9  and  C9_10 
REMARK    4  A    between atoms: C9_10  and  N2_11 
REMARK       I    between atoms: N2_11  and  C10_13 
REMARK    5  A    between atoms: C10_13  and  C11_15 
REMARK    6  A    between atoms: C16_20  and  C17_21 
REMARK       I    between atoms: C17_21  and  N3_23 
REMARK    7  A    between atoms: N3_23  and  C18_25 
ROOT
HETATM    1  C11 UNL     1      -5.519   8.509 -20.871  1.00  0.00     0.091 C 
HETATM    2  C12 UNL     1      -6.688   7.589 -21.101  1.00  0.00     0.015 C 
HETATM    3  C13 UNL     1      -6.553   6.894 -22.429  1.00  0.00     0.001 C 
HETATM    4  C14 UNL     1      -5.217   6.276 -22.666  1.00  0.00     0.001 C 
HETATM    5  C15 UNL     1      -4.073   7.212 -22.350  1.00  0.00     0.015 C 
HETATM    6  C16 UNL     1      -4.194   7.817 -20.981  1.00  0.00     0.091 C 
ENDROOT
BRANCH   1   7
HETATM    7  C10 UNL     1      -5.677   9.262 -19.608  1.00  0.00     0.222 C 
HETATM    8  N2  UNL     1      -4.596  10.108 -19.208  1.00  0.00    -0.359 N 
ATOM      9  H2  UNL     1      -3.760  10.170 -19.789  1.00  0.00     0.162 HD
HETATM   10  O1  UNL     1      -6.676   9.213 -18.875  1.00  0.00    -0.273 OA
BRANCH   8  11
HETATM   11  C9  UNL     1      -4.677  10.879 -17.981  1.00  0.00     0.158 C 
BRANCH  11  12
HETATM   12  C8  UNL     1      -3.326  10.945 -17.360  1.00  0.00     0.240 C 
HETATM   13  N1  UNL     1      -3.250  10.286 -16.073  1.00  0.00     0.095 N 
HETATM   14  C5  UNL     1      -3.984  11.078 -15.182  1.00  0.00     0.273 C 
HETATM   15  C6  UNL     1      -3.903  12.510 -15.749  1.00  0.00     0.032 C 
HETATM   16  C7  UNL     1      -3.040  12.383 -16.987  1.00  0.00     0.039 C 
BRANCH  13  17
HETATM   17  C4  UNL     1      -3.407   8.895 -16.126  1.00  0.00     0.277 C 
BRANCH  17  18
HETATM   18  C2  UNL     1      -4.398   8.366 -15.140  1.00  0.00     0.006 C 
HETATM   19  C1  UNL     1      -3.848   7.352 -14.209  1.00  0.00     0.011 C 
HETATM   20  C3  UNL     1      -5.545   7.671 -15.905  1.00  0.00     0.011 C 
ENDBRANCH  17  18
ENDBRANCH  13  17
ENDBRANCH  11  12
ENDBRANCH   8  11
ENDBRANCH   1   7
BRANCH   6  21
HETATM   21  C17 UNL     1      -3.986   6.749 -19.987  1.00  0.00     0.224 C 
HETATM   22  O2  UNL     1      -4.885   6.266 -19.254  1.00  0.00    -0.273 OA
HETATM   23  N3  UNL     1      -2.674   6.220 -19.843  1.00  0.00    -0.339 N 
ATOM     24  H3  UNL     1      -1.924   6.592 -20.425  1.00  0.00     0.164 HD
BRANCH  23  25
HETATM   25  C18 UNL     1      -2.370   5.165 -18.890  1.00  0.00     0.102 C 
HETATM   26  C19 UNL     1      -2.752   3.808 -19.419  1.00  0.00     0.056 C 
HETATM   27  C20 UNL     1      -0.849   5.157 -18.694  1.00  0.00     0.056 C 
HETATM   28 CL1  UNL     1      -3.202   5.400 -17.342  1.00  0.00    -0.096 Cl
ENDBRANCH  23  25
ENDBRANCH   6  21
TORSDOF 7
ENDMDL
