MODEL 1
REMARK VINA RESULT: -7.967350733      0.000      0.000
REMARK  8 active torsions:
REMARK  status: ('A' for Active; 'I' for Inactive)
REMARK    1  A    between atoms: C1_2  and  C2_3 
REMARK       I    between atoms: C1_2  and  N1_7 
REMARK    2  A    between atoms: C2_3  and  C3_4 
REMARK    3  A    between atoms: C3_4  and  C4_5 
REMARK    4  A    between atoms: N1_7  and  C5_9 
REMARK    5  A    between atoms: C8_12  and  C9_13 
REMARK    6  A    between atoms: C9_13  and  C10_14 
REMARK    7  A    between atoms: C10_14  and  N2_15 
REMARK    8  A    between atoms: C12_17  and  O2_18 
ROOT
HETATM    1  C5  UNL     1      -8.329   9.134 -20.193  1.00  0.00     0.084 C 
HETATM    2  C6  UNL     1      -8.432   7.998 -19.208  1.00  0.00     0.025 C 
HETATM    3  C7  UNL     1      -8.098   8.434 -17.799  1.00  0.00     0.007 C 
HETATM    4  C8  UNL     1      -6.662   8.937 -17.857  1.00  0.00    -0.013 C 
HETATM    5  C20 UNL     1      -6.690  10.226 -18.612  1.00  0.00     0.007 C 
HETATM    6  C21 UNL     1      -7.095   9.958 -20.024  1.00  0.00     0.025 C 
ENDROOT
BRANCH   4   7
HETATM    7  C9  UNL     1      -6.068   9.062 -16.479  1.00  0.00     0.024 C 
BRANCH   7   8
HETATM    8  C10 UNL     1      -4.635   9.557 -16.518  1.00  0.00     0.117 C 
BRANCH   8   9
HETATM    9  N2  UNL     1      -3.774   8.430 -16.534  1.00  0.00    -0.405 N 
HETATM   10  C11 UNL     1      -4.282   7.212 -16.022  1.00  0.00     0.155 C 
HETATM   11  C12 UNL     1      -3.836   5.975 -16.731  1.00  0.00     0.077 C 
HETATM   12  C13 UNL     1      -4.774   5.786 -17.918  1.00  0.00     0.044 C 
HETATM   13  C18 UNL     1      -2.443   5.979 -17.245  1.00  0.00     0.024 C 
HETATM   14  C14 UNL     1      -3.891   6.326 -19.040  1.00  0.00    -0.009 C 
HETATM   15  C15 UNL     1      -3.732   7.800 -18.911  1.00  0.00     0.029 C 
HETATM   16  C19 UNL     1      -2.601   5.560 -18.714  1.00  0.00     0.012 C 
HETATM   17  C16 UNL     1      -2.983   8.290 -17.729  1.00  0.00     0.080 C 
HETATM   18  C17 UNL     1      -1.817   7.375 -17.328  1.00  0.00     0.032 C 
BRANCH  11  19
HETATM   19  O2  UNL     1      -4.084   4.892 -15.860  1.00  0.00    -0.388 OA
ATOM     20  H2  UNL     1      -3.810   4.104 -16.315  1.00  0.00     0.210 HD
ENDBRANCH  11  19
ENDBRANCH   8   9
ENDBRANCH   7   8
ENDBRANCH   4   7
BRANCH   1  21
HETATM   21  N1  UNL     1      -8.302   8.536 -21.515  1.00  0.00    -0.356 N 
HETATM   22  C1  UNL     1      -7.298   7.549 -21.828  1.00  0.00     0.217 C 
HETATM   23  O1  UNL     1      -6.472   7.248 -20.903  1.00  0.00    -0.274 OA
ATOM     24  H1  UNL     1      -8.987   8.812 -22.218  1.00  0.00     0.162 HD
BRANCH  22  25
HETATM   25  C2  UNL     1      -7.300   6.970 -23.169  1.00  0.00     0.104 C 
BRANCH  25  26
HETATM   26  C3  UNL     1      -5.952   6.982 -23.818  1.00  0.00     0.024 C 
BRANCH  26  27
HETATM   27  C4  UNL     1      -5.041   5.994 -23.170  1.00  0.00     0.115 C 
HETATM   28 CL1  UNL     1      -3.532   6.815 -22.640  1.00  0.00    -0.130 Cl
ENDBRANCH  26  27
ENDBRANCH  25  26
ENDBRANCH  22  25
ENDBRANCH   1  21
TORSDOF 8
ENDMDL
MODEL 2
REMARK VINA RESULT: -7.907861574      2.780      4.875
REMARK  8 active torsions:
REMARK  status: ('A' for Active; 'I' for Inactive)
REMARK    1  A    between atoms: C1_2  and  C2_3 
REMARK       I    between atoms: C1_2  and  N1_7 
REMARK    2  A    between atoms: C2_3  and  C3_4 
REMARK    3  A    between atoms: C3_4  and  C4_5 
REMARK    4  A    between atoms: N1_7  and  C5_9 
REMARK    5  A    between atoms: C8_12  and  C9_13 
REMARK    6  A    between atoms: C9_13  and  C10_14 
REMARK    7  A    between atoms: C10_14  and  N2_15 
REMARK    8  A    between atoms: C12_17  and  O2_18 
ROOT
HETATM    1  C5  UNL     1      -3.988   5.618 -18.593  1.00  0.00     0.084 C 
HETATM    2  C6  UNL     1      -2.945   6.473 -17.920  1.00  0.00     0.025 C 
HETATM    3  C7  UNL     1      -3.043   6.413 -16.413  1.00  0.00     0.007 C 
HETATM    4  C8  UNL     1      -4.434   6.933 -16.073  1.00  0.00    -0.013 C 
HETATM    5  C20 UNL     1      -5.402   5.886 -16.517  1.00  0.00     0.007 C 
HETATM    6  C21 UNL     1      -5.352   5.773 -18.005  1.00  0.00     0.025 C 
ENDROOT
BRANCH   4   7
HETATM    7  C9  UNL     1      -4.549   7.275 -14.611  1.00  0.00     0.024 C 
BRANCH   7   8
HETATM    8  C10 UNL     1      -4.792   8.757 -14.391  1.00  0.00     0.117 C 
BRANCH   8   9
HETATM    9  N2  UNL     1      -4.455   9.446 -15.583  1.00  0.00    -0.405 N 
HETATM   10  C11 UNL     1      -5.465  10.223 -16.198  1.00  0.00     0.155 C 
HETATM   11  C12 UNL     1      -5.008  11.494 -16.834  1.00  0.00     0.077 C 
HETATM   12  C13 UNL     1      -4.966  12.547 -15.732  1.00  0.00     0.044 C 
HETATM   13  C18 UNL     1      -3.675  11.461 -17.485  1.00  0.00     0.024 C 
HETATM   14  C14 UNL     1      -3.468  12.564 -15.441  1.00  0.00    -0.009 C 
HETATM   15  C15 UNL     1      -3.055  11.299 -14.775  1.00  0.00     0.029 C 
HETATM   16  C19 UNL     1      -2.950  12.673 -16.882  1.00  0.00     0.012 C 
HETATM   17  C16 UNL     1      -3.151  10.058 -15.581  1.00  0.00     0.080 C 
HETATM   18  C17 UNL     1      -2.809  10.269 -17.063  1.00  0.00     0.032 C 
BRANCH  11  19
HETATM   19  O2  UNL     1      -6.029  11.899 -17.722  1.00  0.00    -0.388 OA
ATOM     20  H2  UNL     1      -5.729  12.695 -18.144  1.00  0.00     0.210 HD
ENDBRANCH  11  19
ENDBRANCH   8   9
ENDBRANCH   7   8
ENDBRANCH   4   7
BRANCH   1  21
HETATM   21  N1  UNL     1      -4.038   6.037 -19.981  1.00  0.00    -0.356 N 
HETATM   22  C1  UNL     1      -3.333   5.273 -20.979  1.00  0.00     0.217 C 
HETATM   23  O1  UNL     1      -2.690   4.246 -20.578  1.00  0.00    -0.274 OA
ATOM     24  H1  UNL     1      -4.567   6.867 -20.248  1.00  0.00     0.162 HD
BRANCH  22  25
HETATM   25  C2  UNL     1      -3.403   5.726 -22.366  1.00  0.00     0.104 C 
BRANCH  25  26
HETATM   26  C3  UNL     1      -4.306   6.905 -22.557  1.00  0.00     0.024 C 
BRANCH  26  27
HETATM   27  C4  UNL     1      -5.496   6.536 -23.377  1.00  0.00     0.115 C 
HETATM   28 CL1  UNL     1      -7.001   6.931 -22.475  1.00  0.00    -0.130 Cl
ENDBRANCH  26  27
ENDBRANCH  25  26
ENDBRANCH  22  25
ENDBRANCH   1  21
TORSDOF 8
ENDMDL
MODEL 3
REMARK VINA RESULT: -7.794222950      2.207      5.801
REMARK  8 active torsions:
REMARK  status: ('A' for Active; 'I' for Inactive)
REMARK    1  A    between atoms: C1_2  and  C2_3 
REMARK       I    between atoms: C1_2  and  N1_7 
REMARK    2  A    between atoms: C2_3  and  C3_4 
REMARK    3  A    between atoms: C3_4  and  C4_5 
REMARK    4  A    between atoms: N1_7  and  C5_9 
REMARK    5  A    between atoms: C8_12  and  C9_13 
REMARK    6  A    between atoms: C9_13  and  C10_14 
REMARK    7  A    between atoms: C10_14  and  N2_15 
REMARK    8  A    between atoms: C12_17  and  O2_18 
ROOT
HETATM    1  C5  UNL     1      -2.433   7.331 -16.571  1.00  0.00     0.084 C 
HETATM    2  C6  UNL     1      -2.765   8.278 -17.695  1.00  0.00     0.025 C 
HETATM    3  C7  UNL     1      -3.624   9.433 -17.233  1.00  0.00     0.007 C 
HETATM    4  C8  UNL     1      -4.902   8.802 -16.695  1.00  0.00    -0.013 C 
HETATM    5  C20 UNL     1      -4.537   8.119 -15.418  1.00  0.00     0.007 C 
HETATM    6  C21 UNL     1      -3.608   6.989 -15.715  1.00  0.00     0.025 C 
ENDROOT
BRANCH   4   7
HETATM    7  C9  UNL     1      -5.994   9.826 -16.538  1.00  0.00     0.024 C 
BRANCH   7   8
HETATM    8  C10 UNL     1      -7.375   9.204 -16.622  1.00  0.00     0.117 C 
BRANCH   8   9
HETATM    9  N2  UNL     1      -7.795   9.230 -17.977  1.00  0.00    -0.405 N 
HETATM   10  C11 UNL     1      -7.181  10.175 -18.833  1.00  0.00     0.155 C 
HETATM   11  C12 UNL     1      -6.945   9.721 -20.236  1.00  0.00     0.077 C 
HETATM   12  C13 UNL     1      -5.621   8.965 -20.236  1.00  0.00     0.044 C 
HETATM   13  C18 UNL     1      -7.979   8.832 -20.821  1.00  0.00     0.024 C 
HETATM   14  C14 UNL     1      -6.138   7.528 -20.230  1.00  0.00    -0.009 C 
HETATM   15  C15 UNL     1      -6.759   7.208 -18.916  1.00  0.00     0.029 C 
HETATM   16  C19 UNL     1      -7.169   7.644 -21.361  1.00  0.00     0.012 C 
HETATM   17  C16 UNL     1      -8.004   7.935 -18.571  1.00  0.00     0.080 C 
HETATM   18  C17 UNL     1      -8.910   8.197 -19.783  1.00  0.00     0.032 C 
BRANCH  11  19
HETATM   19  O2  UNL     1      -6.732  10.881 -21.012  1.00  0.00    -0.388 OA
ATOM     20  H2  UNL     1      -7.209  10.760 -21.825  1.00  0.00     0.210 HD
ENDBRANCH  11  19
ENDBRANCH   8   9
ENDBRANCH   7   8
ENDBRANCH   4   7
BRANCH   1  21
HETATM   21  N1  UNL     1      -1.945   6.111 -17.186  1.00  0.00    -0.356 N 
HETATM   22  C1  UNL     1      -0.638   6.095 -17.795  1.00  0.00     0.217 C 
HETATM   23  O1  UNL     1       0.033   7.181 -17.758  1.00  0.00    -0.274 OA
ATOM     24  H1  UNL     1      -2.522   5.270 -17.187  1.00  0.00     0.162 HD
BRANCH  22  25
HETATM   25  C2  UNL     1      -0.180   4.850 -18.406  1.00  0.00     0.104 C 
BRANCH  25  26
HETATM   26  C3  UNL     1      -1.300   3.933 -18.787  1.00  0.00     0.024 C 
BRANCH  26  27
HETATM   27  C4  UNL     1      -1.815   4.260 -20.148  1.00  0.00     0.115 C 
HETATM   28 CL1  UNL     1      -3.427   5.048 -20.015  1.00  0.00    -0.130 Cl
ENDBRANCH  26  27
ENDBRANCH  25  26
ENDBRANCH  22  25
ENDBRANCH   1  21
TORSDOF 8
ENDMDL
MODEL 4
REMARK VINA RESULT: -7.742094385      2.150      5.617
REMARK  8 active torsions:
REMARK  status: ('A' for Active; 'I' for Inactive)
REMARK    1  A    between atoms: C1_2  and  C2_3 
REMARK       I    between atoms: C1_2  and  N1_7 
REMARK    2  A    between atoms: C2_3  and  C3_4 
REMARK    3  A    between atoms: C3_4  and  C4_5 
REMARK    4  A    between atoms: N1_7  and  C5_9 
REMARK    5  A    between atoms: C8_12  and  C9_13 
REMARK    6  A    between atoms: C9_13  and  C10_14 
REMARK    7  A    between atoms: C10_14  and  N2_15 
REMARK    8  A    between atoms: C12_17  and  O2_18 
ROOT
HETATM    1  C5  UNL     1      -2.530   7.590 -16.803  1.00  0.00     0.084 C 
HETATM    2  C6  UNL     1      -2.250   8.711 -17.771  1.00  0.00     0.025 C 
HETATM    3  C7  UNL     1      -2.895  10.009 -17.342  1.00  0.00     0.007 C 
HETATM    4  C8  UNL     1      -4.391   9.727 -17.300  1.00  0.00    -0.013 C 
HETATM    5  C20 UNL     1      -4.625   8.830 -16.128  1.00  0.00     0.007 C 
HETATM    6  C21 UNL     1      -3.960   7.517 -16.377  1.00  0.00     0.025 C 
ENDROOT
BRANCH   4   7
HETATM    7  C9  UNL     1      -5.189  11.003 -17.248  1.00  0.00     0.024 C 
BRANCH   7   8
HETATM    8  C10 UNL     1      -6.664  10.764 -17.510  1.00  0.00     0.117 C 
BRANCH   8   9
HETATM    9  N2  UNL     1      -6.820  10.387 -18.868  1.00  0.00    -0.405 N 
HETATM   10  C11 UNL     1      -5.671  10.423 -19.693  1.00  0.00     0.155 C 
HETATM   11  C12 UNL     1      -5.579   9.344 -20.721  1.00  0.00     0.077 C 
HETATM   12  C13 UNL     1      -4.962   8.131 -20.033  1.00  0.00     0.044 C 
HETATM   13  C18 UNL     1      -6.858   8.916 -21.341  1.00  0.00     0.024 C 
HETATM   14  C14 UNL     1      -6.219   7.302 -19.783  1.00  0.00    -0.009 C 
HETATM   15  C15 UNL     1      -7.064   7.944 -18.740  1.00  0.00     0.029 C 
HETATM   16  C19 UNL     1      -6.840   7.388 -21.185  1.00  0.00     0.012 C 
HETATM   17  C16 UNL     1      -7.676   9.249 -19.086  1.00  0.00     0.080 C 
HETATM   18  C17 UNL     1      -8.101   9.349 -20.558  1.00  0.00     0.032 C 
BRANCH  11  19
HETATM   19  O2  UNL     1      -4.634   9.771 -21.680  1.00  0.00    -0.388 OA
ATOM     20  H2  UNL     1      -4.691   9.168 -22.412  1.00  0.00     0.210 HD
ENDBRANCH  11  19
ENDBRANCH   8   9
ENDBRANCH   7   8
ENDBRANCH   4   7
BRANCH   1  21
HETATM   21  N1  UNL     1      -2.193   6.356 -17.487  1.00  0.00    -0.356 N 
HETATM   22  C1  UNL     1      -0.809   6.026 -17.717  1.00  0.00     0.217 C 
HETATM   23  O1  UNL     1       0.064   6.857 -17.295  1.00  0.00    -0.274 OA
ATOM     24  H1  UNL     1      -2.931   5.726 -17.803  1.00  0.00     0.162 HD
BRANCH  22  25
HETATM   25  C2  UNL     1      -0.507   4.776 -18.410  1.00  0.00     0.104 C 
BRANCH  25  26
HETATM   26  C3  UNL     1      -1.725   3.963 -18.717  1.00  0.00     0.024 C 
BRANCH  26  27
HETATM   27  C4  UNL     1      -1.999   3.948 -20.183  1.00  0.00     0.115 C 
HETATM   28 CL1  UNL     1      -3.268   5.160 -20.578  1.00  0.00    -0.130 Cl
ENDBRANCH  26  27
ENDBRANCH  25  26
ENDBRANCH  22  25
ENDBRANCH   1  21
TORSDOF 8
ENDMDL
MODEL 5
REMARK VINA RESULT: -7.728671933      1.877      5.340
REMARK  8 active torsions:
REMARK  status: ('A' for Active; 'I' for Inactive)
REMARK    1  A    between atoms: C1_2  and  C2_3 
REMARK       I    between atoms: C1_2  and  N1_7 
REMARK    2  A    between atoms: C2_3  and  C3_4 
REMARK    3  A    between atoms: C3_4  and  C4_5 
REMARK    4  A    between atoms: N1_7  and  C5_9 
REMARK    5  A    between atoms: C8_12  and  C9_13 
REMARK    6  A    between atoms: C9_13  and  C10_14 
REMARK    7  A    between atoms: C10_14  and  N2_15 
REMARK    8  A    between atoms: C12_17  and  O2_18 
ROOT
HETATM    1  C5  UNL     1      -2.132   7.009 -16.875  1.00  0.00     0.084 C 
HETATM    2  C6  UNL     1      -2.449   8.168 -17.784  1.00  0.00     0.025 C 
HETATM    3  C7  UNL     1      -3.303   9.212 -17.100  1.00  0.00     0.007 C 
HETATM    4  C8  UNL     1      -4.589   8.496 -16.709  1.00  0.00    -0.013 C 
HETATM    5  C20 UNL     1      -4.238   7.564 -15.596  1.00  0.00     0.007 C 
HETATM    6  C21 UNL     1      -3.315   6.510 -16.112  1.00  0.00     0.025 C 
ENDROOT
BRANCH   4   7
HETATM    7  C9  UNL     1      -5.674   9.476 -16.352  1.00  0.00     0.024 C 
BRANCH   7   8
HETATM    8  C10 UNL     1      -7.056   8.858 -16.452  1.00  0.00     0.117 C 
BRANCH   8   9
HETATM    9  N2  UNL     1      -7.529   9.036 -17.777  1.00  0.00    -0.405 N 
HETATM   10  C11 UNL     1      -6.892  10.017 -18.573  1.00  0.00     0.155 C 
HETATM   11  C12 UNL     1      -6.745   9.681 -20.020  1.00  0.00     0.077 C 
HETATM   12  C13 UNL     1      -5.475   8.849 -20.153  1.00  0.00     0.044 C 
HETATM   13  C18 UNL     1      -7.859   8.916 -20.633  1.00  0.00     0.024 C 
HETATM   14  C14 UNL     1      -6.084   7.452 -20.251  1.00  0.00    -0.009 C 
HETATM   15  C15 UNL     1      -6.670   7.050 -18.944  1.00  0.00     0.029 C 
HETATM   16  C19 UNL     1      -7.152   7.736 -21.317  1.00  0.00     0.012 C 
HETATM   17  C16 UNL     1      -7.848   7.817 -18.475  1.00  0.00     0.080 C 
HETATM   18  C17 UNL     1      -8.785   8.246 -19.613  1.00  0.00     0.032 C 
BRANCH  11  19
HETATM   19  O2  UNL     1      -6.490  10.893 -20.698  1.00  0.00    -0.388 OA
ATOM     20  H2  UNL     1      -5.694  10.766 -21.201  1.00  0.00     0.210 HD
ENDBRANCH  11  19
ENDBRANCH   8   9
ENDBRANCH   7   8
ENDBRANCH   4   7
BRANCH   1  21
HETATM   21  N1  UNL     1      -1.649   5.935 -17.723  1.00  0.00    -0.356 N 
HETATM   22  C1  UNL     1      -2.590   5.013 -18.308  1.00  0.00     0.217 C 
HETATM   23  O1  UNL     1      -3.825   5.197 -18.042  1.00  0.00    -0.274 OA
ATOM     24  H1  UNL     1      -0.650   5.833 -17.904  1.00  0.00     0.162 HD
BRANCH  22  25
HETATM   25  C2  UNL     1      -2.067   3.944 -19.154  1.00  0.00     0.104 C 
BRANCH  25  26
HETATM   26  C3  UNL     1      -2.592   3.990 -20.555  1.00  0.00     0.024 C 
BRANCH  26  27
HETATM   27  C4  UNL     1      -2.800   5.399 -20.998  1.00  0.00     0.115 C 
HETATM   28 CL1  UNL     1      -4.012   5.446 -22.326  1.00  0.00    -0.130 Cl
ENDBRANCH  26  27
ENDBRANCH  25  26
ENDBRANCH  22  25
ENDBRANCH   1  21
TORSDOF 8
ENDMDL
