MODEL 1
REMARK VINA RESULT: -7.632365851      0.000      0.000
REMARK  8 active torsions:
REMARK  status: ('A' for Active; 'I' for Inactive)
REMARK    1  A    between atoms: C2_2  and  C3_3 
REMARK    2  A    between atoms: C3_3  and  N1_4 
REMARK    3  A    between atoms: C6_7  and  C7_8 
REMARK    4  A    between atoms: C7_8  and  C8_9 
REMARK    5  A    between atoms: C8_9  and  C9_10 
REMARK       I    between atoms: C9_10  and  N2_12 
REMARK    6  A    between atoms: N2_12  and  C10_13 
REMARK    7  A    between atoms: N2_12  and  C13_16 
REMARK    8  A    between atoms: N3_21  and  O2_22 
ROOT
HETATM    1  C9  UNL     1      -6.559   9.505 -16.878  1.00  0.00     0.221 C 
HETATM    2  O1  UNL     1      -6.633  10.769 -17.120  1.00  0.00    -0.273 OA
HETATM    3  N2  UNL     1      -5.487   9.051 -16.093  1.00  0.00    -0.333 N 
ENDROOT
BRANCH   3   4
HETATM    4  C10 UNL     1      -4.497  10.024 -15.684  1.00  0.00     0.088 A 
HETATM    5  C11 UNL     1      -4.042  11.141 -16.545  1.00  0.00     0.027 A 
HETATM    6  C12 UNL     1      -3.109  10.067 -16.208  1.00  0.00     0.027 A 
ENDBRANCH   3   4
BRANCH   3   7
HETATM    7  C13 UNL     1      -5.334   7.681 -15.638  1.00  0.00     0.086 C 
HETATM    8  C14 UNL     1      -4.793   7.704 -14.208  1.00  0.00     0.044 C 
HETATM    9  C15 UNL     1      -6.635   6.934 -15.521  1.00  0.00     0.215 C 
HETATM   10  F1  UNL     1      -6.532   5.901 -14.540  1.00  0.00    -0.245 F 
HETATM   11  C16 UNL     1      -6.708   6.131 -16.818  1.00  0.00     0.161 C 
HETATM   12  N3  UNL     1      -5.387   5.585 -16.803  1.00  0.00    -0.185 NA
HETATM   13  C17 UNL     1      -4.543   6.762 -16.487  1.00  0.00     0.059 C 
HETATM   14  C18 UNL     1      -3.367   6.096 -15.746  1.00  0.00     0.037 C 
HETATM   15  C19 UNL     1      -4.080   7.281 -17.803  1.00  0.00     0.037 C 
BRANCH  12  16
HETATM   16  O2  UNL     1      -5.035   4.939 -17.892  1.00  0.00    -0.312 OA
ATOM     17  H2  UNL     1      -4.506   4.163 -17.750  1.00  0.00     0.237 HD
ENDBRANCH  12  16
ENDBRANCH   3   7
BRANCH   1  18
HETATM   18  C8  UNL     1      -7.652   8.743 -17.498  1.00  0.00     0.103 C 
BRANCH  18  19
HETATM   19  C7  UNL     1      -7.673   8.911 -19.012  1.00  0.00     0.014 C 
BRANCH  19  20
HETATM   20  C6  UNL     1      -6.529   8.270 -19.709  1.00  0.00    -0.011 C 
HETATM   21  C5  UNL     1      -6.804   7.006 -20.438  1.00  0.00     0.035 C 
HETATM   22  C4  UNL     1      -7.006   7.249 -21.933  1.00  0.00     0.272 C 
HETATM   23  N1  UNL     1      -5.820   7.719 -22.569  1.00  0.00     0.088 N 
HETATM   24  C21 UNL     1      -5.026   8.564 -21.701  1.00  0.00     0.272 C 
HETATM   25  C20 UNL     1      -5.936   9.266 -20.716  1.00  0.00     0.035 C 
BRANCH  23  26
HETATM   26  C3  UNL     1      -5.038   6.662 -23.176  1.00  0.00     0.272 C 
BRANCH  26  27
HETATM   27  C2  UNL     1      -3.649   6.586 -22.580  1.00  0.00     0.026 C 
HETATM   28  C1  UNL     1      -3.611   5.414 -21.631  1.00  0.00     0.007 C 
ENDBRANCH  26  27
ENDBRANCH  23  26
ENDBRANCH  19  20
ENDBRANCH  18  19
ENDBRANCH   1  18
TORSDOF 8
ENDMDL
MODEL 2
REMARK VINA RESULT: -7.624360344      1.685      2.411
REMARK  8 active torsions:
REMARK  status: ('A' for Active; 'I' for Inactive)
REMARK    1  A    between atoms: C2_2  and  C3_3 
REMARK    2  A    between atoms: C3_3  and  N1_4 
REMARK    3  A    between atoms: C6_7  and  C7_8 
REMARK    4  A    between atoms: C7_8  and  C8_9 
REMARK    5  A    between atoms: C8_9  and  C9_10 
REMARK       I    between atoms: C9_10  and  N2_12 
REMARK    6  A    between atoms: N2_12  and  C10_13 
REMARK    7  A    between atoms: N2_12  and  C13_16 
REMARK    8  A    between atoms: N3_21  and  O2_22 
ROOT
HETATM    1  C9  UNL     1      -5.653  10.576 -16.872  1.00  0.00     0.221 C 
HETATM    2  O1  UNL     1      -5.890  11.820 -16.633  1.00  0.00    -0.273 OA
HETATM    3  N2  UNL     1      -4.887   9.864 -15.934  1.00  0.00    -0.333 N 
ENDROOT
BRANCH   3   4
HETATM    4  C10 UNL     1      -4.347  10.601 -14.812  1.00  0.00     0.088 A 
HETATM    5  C11 UNL     1      -4.114  12.064 -14.829  1.00  0.00     0.027 A 
HETATM    6  C12 UNL     1      -2.971  11.155 -14.766  1.00  0.00     0.027 A 
ENDBRANCH   3   4
BRANCH   3   7
HETATM    7  C13 UNL     1      -4.636   8.436 -16.004  1.00  0.00     0.086 C 
HETATM    8  C14 UNL     1      -3.845   8.146 -17.280  1.00  0.00     0.044 C 
HETATM    9  C15 UNL     1      -3.746   7.925 -14.902  1.00  0.00     0.215 C 
HETATM   10  F1  UNL     1      -3.048   6.754 -15.327  1.00  0.00    -0.245 F 
HETATM   11  C16 UNL     1      -4.728   7.354 -13.882  1.00  0.00     0.161 C 
HETATM   12  N3  UNL     1      -5.537   6.585 -14.774  1.00  0.00    -0.185 NA
HETATM   13  C17 UNL     1      -5.800   7.530 -15.885  1.00  0.00     0.059 C 
HETATM   14  C18 UNL     1      -5.949   6.560 -17.074  1.00  0.00     0.037 C 
HETATM   15  C19 UNL     1      -7.117   8.151 -15.573  1.00  0.00     0.037 C 
BRANCH  12  16
HETATM   16  O2  UNL     1      -6.617   6.059 -14.240  1.00  0.00    -0.312 OA
ATOM     17  H2  UNL     1      -7.085   6.622 -13.634  1.00  0.00     0.237 HD
ENDBRANCH  12  16
ENDBRANCH   3   7
BRANCH   1  18
HETATM   18  C8  UNL     1      -6.249  10.116 -18.134  1.00  0.00     0.103 C 
BRANCH  18  19
HETATM   19  C7  UNL     1      -5.600  10.779 -19.342  1.00  0.00     0.014 C 
BRANCH  19  20
HETATM   20  C6  UNL     1      -5.795  10.040 -20.617  1.00  0.00    -0.011 C 
HETATM   21  C5  UNL     1      -4.667   9.196 -21.087  1.00  0.00     0.035 C 
HETATM   22  C4  UNL     1      -4.870   7.728 -20.719  1.00  0.00     0.272 C 
HETATM   23  N1  UNL     1      -5.987   7.151 -21.391  1.00  0.00     0.088 N 
HETATM   24  C21 UNL     1      -7.062   8.101 -21.590  1.00  0.00     0.272 C 
HETATM   25  C20 UNL     1      -7.029   9.135 -20.485  1.00  0.00     0.035 C 
BRANCH  23  26
HETATM   26  C3  UNL     1      -5.628   6.460 -22.611  1.00  0.00     0.272 C 
BRANCH  26  27
HETATM   27  C2  UNL     1      -4.313   5.725 -22.468  1.00  0.00     0.026 C 
HETATM   28  C1  UNL     1      -3.450   6.075 -23.655  1.00  0.00     0.007 C 
ENDBRANCH  26  27
ENDBRANCH  23  26
ENDBRANCH  19  20
ENDBRANCH  18  19
ENDBRANCH   1  18
TORSDOF 8
ENDMDL
MODEL 3
REMARK VINA RESULT: -7.504165805      1.669      2.750
REMARK  8 active torsions:
REMARK  status: ('A' for Active; 'I' for Inactive)
REMARK    1  A    between atoms: C2_2  and  C3_3 
REMARK    2  A    between atoms: C3_3  and  N1_4 
REMARK    3  A    between atoms: C6_7  and  C7_8 
REMARK    4  A    between atoms: C7_8  and  C8_9 
REMARK    5  A    between atoms: C8_9  and  C9_10 
REMARK       I    between atoms: C9_10  and  N2_12 
REMARK    6  A    between atoms: N2_12  and  C10_13 
REMARK    7  A    between atoms: N2_12  and  C13_16 
REMARK    8  A    between atoms: N3_21  and  O2_22 
ROOT
HETATM    1  C9  UNL     1      -7.121   8.242 -17.077  1.00  0.00     0.221 C 
HETATM    2  O1  UNL     1      -8.208   7.583 -17.292  1.00  0.00    -0.273 OA
HETATM    3  N2  UNL     1      -6.103   7.605 -16.348  1.00  0.00    -0.333 N 
ENDROOT
BRANCH   3   4
HETATM    4  C10 UNL     1      -6.381   6.288 -15.819  1.00  0.00     0.088 A 
HETATM    5  C11 UNL     1      -7.750   5.745 -15.649  1.00  0.00     0.027 A 
HETATM    6  C12 UNL     1      -6.941   6.036 -14.468  1.00  0.00     0.027 A 
ENDBRANCH   3   4
BRANCH   3   7
HETATM    7  C13 UNL     1      -4.784   8.171 -16.127  1.00  0.00     0.086 C 
HETATM    8  C14 UNL     1      -4.915   9.693 -16.066  1.00  0.00     0.044 C 
HETATM    9  C15 UNL     1      -4.186   7.805 -14.795  1.00  0.00     0.215 C 
HETATM   10  F1  UNL     1      -3.264   8.809 -14.369  1.00  0.00    -0.245 F 
HETATM   11  C16 UNL     1      -3.254   6.641 -15.126  1.00  0.00     0.161 C 
HETATM   12  N3  UNL     1      -2.586   7.219 -16.251  1.00  0.00    -0.185 NA
HETATM   13  C17 UNL     1      -3.703   7.769 -17.055  1.00  0.00     0.059 C 
HETATM   14  C18 UNL     1      -3.013   8.960 -17.749  1.00  0.00     0.037 C 
HETATM   15  C19 UNL     1      -4.023   6.718 -18.059  1.00  0.00     0.037 C 
BRANCH  12  16
HETATM   16  O2  UNL     1      -1.791   6.405 -16.910  1.00  0.00    -0.312 OA
ATOM     17  H2  UNL     1      -1.058   6.063 -16.411  1.00  0.00     0.237 HD
ENDBRANCH  12  16
ENDBRANCH   3   7
BRANCH   1  18
HETATM   18  C8  UNL     1      -7.153   9.594 -17.653  1.00  0.00     0.103 C 
BRANCH  18  19
HETATM   19  C7  UNL     1      -7.186   9.561 -19.176  1.00  0.00     0.014 C 
BRANCH  19  20
HETATM   20  C6  UNL     1      -6.193   8.639 -19.785  1.00  0.00    -0.011 C 
HETATM   21  C5  UNL     1      -6.720   7.414 -20.439  1.00  0.00     0.035 C 
HETATM   22  C4  UNL     1      -6.829   7.586 -21.952  1.00  0.00     0.272 C 
HETATM   23  N1  UNL     1      -5.555   7.742 -22.572  1.00  0.00     0.088 N 
HETATM   24  C21 UNL     1      -4.616   8.458 -21.733  1.00  0.00     0.272 C 
HETATM   25  C20 UNL     1      -5.374   9.409 -20.832  1.00  0.00     0.035 C 
BRANCH  23  26
HETATM   26  C3  UNL     1      -5.007   6.501 -23.078  1.00  0.00     0.272 C 
BRANCH  26  27
HETATM   27  C2  UNL     1      -3.569   6.311 -22.647  1.00  0.00     0.026 C 
HETATM   28  C1  UNL     1      -3.538   5.248 -21.576  1.00  0.00     0.007 C 
ENDBRANCH  26  27
ENDBRANCH  23  26
ENDBRANCH  19  20
ENDBRANCH  18  19
ENDBRANCH   1  18
TORSDOF 8
ENDMDL
MODEL 4
REMARK VINA RESULT: -7.496750198      2.602      4.461
REMARK  8 active torsions:
REMARK  status: ('A' for Active; 'I' for Inactive)
REMARK    1  A    between atoms: C2_2  and  C3_3 
REMARK    2  A    between atoms: C3_3  and  N1_4 
REMARK    3  A    between atoms: C6_7  and  C7_8 
REMARK    4  A    between atoms: C7_8  and  C8_9 
REMARK    5  A    between atoms: C8_9  and  C9_10 
REMARK       I    between atoms: C9_10  and  N2_12 
REMARK    6  A    between atoms: N2_12  and  C10_13 
REMARK    7  A    between atoms: N2_12  and  C13_16 
REMARK    8  A    between atoms: N3_21  and  O2_22 
ROOT
HETATM    1  C9  UNL     1      -3.152   8.189 -16.632  1.00  0.00     0.221 C 
HETATM    2  O1  UNL     1      -2.842   7.162 -15.917  1.00  0.00    -0.273 OA
HETATM    3  N2  UNL     1      -3.612   9.336 -15.965  1.00  0.00    -0.333 N 
ENDROOT
BRANCH   3   4
HETATM    4  C10 UNL     1      -3.785   9.253 -14.530  1.00  0.00     0.088 A 
HETATM    5  C11 UNL     1      -3.935   7.974 -13.796  1.00  0.00     0.027 A 
HETATM    6  C12 UNL     1      -5.065   8.899 -13.867  1.00  0.00     0.027 A 
ENDBRANCH   3   4
BRANCH   3   7
HETATM    7  C13 UNL     1      -3.887  10.603 -16.618  1.00  0.00     0.086 C 
HETATM    8  C14 UNL     1      -3.546  11.732 -15.644  1.00  0.00     0.044 C 
HETATM    9  C15 UNL     1      -3.005  10.873 -17.807  1.00  0.00     0.215 C 
HETATM   10  F1  UNL     1      -2.862  12.278 -18.015  1.00  0.00    -0.245 F 
HETATM   11  C16 UNL     1      -3.871  10.466 -18.997  1.00  0.00     0.161 C 
HETATM   12  N3  UNL     1      -5.071  11.151 -18.630  1.00  0.00    -0.185 NA
HETATM   13  C17 UNL     1      -5.234  10.796 -17.200  1.00  0.00     0.059 C 
HETATM   14  C18 UNL     1      -5.964  12.042 -16.664  1.00  0.00     0.037 C 
HETATM   15  C19 UNL     1      -6.155   9.626 -17.185  1.00  0.00     0.037 C 
BRANCH  12  16
HETATM   16  O2  UNL     1      -6.119  10.888 -19.379  1.00  0.00    -0.312 OA
ATOM     17  H2  UNL     1      -6.088  10.059 -19.843  1.00  0.00     0.237 HD
ENDBRANCH  12  16
ENDBRANCH   3   7
BRANCH   1  18
HETATM   18  C8  UNL     1      -2.964   7.957 -18.071  1.00  0.00     0.103 C 
BRANCH  18  19
HETATM   19  C7  UNL     1      -2.653   6.497 -18.374  1.00  0.00     0.014 C 
BRANCH  19  20
HETATM   20  C6  UNL     1      -3.554   5.882 -19.383  1.00  0.00    -0.011 C 
HETATM   21  C5  UNL     1      -4.772   6.646 -19.755  1.00  0.00     0.035 C 
HETATM   22  C4  UNL     1      -4.575   7.425 -21.054  1.00  0.00     0.272 C 
HETATM   23  N1  UNL     1      -4.396   6.566 -22.177  1.00  0.00     0.088 N 
HETATM   24  C21 UNL     1      -3.686   5.350 -21.835  1.00  0.00     0.272 C 
HETATM   25  C20 UNL     1      -2.758   5.623 -20.671  1.00  0.00     0.035 C 
BRANCH  23  26
HETATM   26  C3  UNL     1      -5.623   6.303 -22.900  1.00  0.00     0.272 C 
BRANCH  26  27
HETATM   27  C2  UNL     1      -6.532   7.514 -22.911  1.00  0.00     0.026 C 
HETATM   28  C1  UNL     1      -7.592   7.292 -23.961  1.00  0.00     0.007 C 
ENDBRANCH  26  27
ENDBRANCH  23  26
ENDBRANCH  19  20
ENDBRANCH  18  19
ENDBRANCH   1  18
TORSDOF 8
ENDMDL
MODEL 5
REMARK VINA RESULT: -7.488795363      2.428      6.633
REMARK  8 active torsions:
REMARK  status: ('A' for Active; 'I' for Inactive)
REMARK    1  A    between atoms: C2_2  and  C3_3 
REMARK    2  A    between atoms: C3_3  and  N1_4 
REMARK    3  A    between atoms: C6_7  and  C7_8 
REMARK    4  A    between atoms: C7_8  and  C8_9 
REMARK    5  A    between atoms: C8_9  and  C9_10 
REMARK       I    between atoms: C9_10  and  N2_12 
REMARK    6  A    between atoms: N2_12  and  C10_13 
REMARK    7  A    between atoms: N2_12  and  C13_16 
REMARK    8  A    between atoms: N3_21  and  O2_22 
ROOT
HETATM    1  C9  UNL     1      -4.885   6.259 -18.354  1.00  0.00     0.221 C 
HETATM    2  O1  UNL     1      -4.594   5.013 -18.203  1.00  0.00    -0.273 OA
HETATM    3  N2  UNL     1      -4.830   6.791 -19.652  1.00  0.00    -0.333 N 
ENDROOT
BRANCH   3   4
HETATM    4  C10 UNL     1      -4.368   5.923 -20.714  1.00  0.00     0.088 A 
HETATM    5  C11 UNL     1      -3.181   5.044 -20.595  1.00  0.00     0.027 A 
HETATM    6  C12 UNL     1      -3.149   6.174 -21.522  1.00  0.00     0.027 A 
ENDBRANCH   3   4
BRANCH   3   7
HETATM    7  C13 UNL     1      -5.242   8.140 -19.998  1.00  0.00     0.086 C 
HETATM    8  C14 UNL     1      -4.391   9.125 -19.196  1.00  0.00     0.044 C 
HETATM    9  C15 UNL     1      -4.966   8.507 -21.431  1.00  0.00     0.215 C 
HETATM   10  F1  UNL     1      -4.792   9.918 -21.561  1.00  0.00    -0.245 F 
HETATM   11  C16 UNL     1      -6.309   8.290 -22.124  1.00  0.00     0.161 C 
HETATM   12  N3  UNL     1      -7.142   8.984 -21.192  1.00  0.00    -0.185 NA
HETATM   13  C17 UNL     1      -6.681   8.468 -19.882  1.00  0.00     0.059 C 
HETATM   14  C18 UNL     1      -6.965   9.676 -18.968  1.00  0.00     0.037 C 
HETATM   15  C19 UNL     1      -7.608   7.352 -19.548  1.00  0.00     0.037 C 
BRANCH  12  16
HETATM   16  O2  UNL     1      -8.435   8.866 -21.399  1.00  0.00    -0.312 OA
ATOM     17  H2  UNL     1      -8.922   9.681 -21.396  1.00  0.00     0.237 HD
ENDBRANCH  12  16
ENDBRANCH   3   7
BRANCH   1  18
HETATM   18  C8  UNL     1      -5.230   6.919 -17.087  1.00  0.00     0.103 C 
BRANCH  18  19
HETATM   19  C7  UNL     1      -4.343   6.447 -15.942  1.00  0.00     0.014 C 
BRANCH  19  20
HETATM   20  C6  UNL     1      -3.564   7.531 -15.291  1.00  0.00    -0.011 C 
HETATM   21  C5  UNL     1      -3.372   8.783 -16.068  1.00  0.00     0.035 C 
HETATM   22  C4  UNL     1      -4.374   9.861 -15.656  1.00  0.00     0.272 C 
HETATM   23  N1  UNL     1      -4.177  10.297 -14.314  1.00  0.00     0.088 N 
HETATM   24  C21 UNL     1      -3.720   9.231 -13.447  1.00  0.00     0.272 C 
HETATM   25  C20 UNL     1      -4.240   7.907 -13.965  1.00  0.00     0.035 C 
BRANCH  23  26
HETATM   26  C3  UNL     1      -3.352  11.483 -14.211  1.00  0.00     0.272 C 
BRANCH  26  27
HETATM   27  C2  UNL     1      -3.708  12.502 -15.272  1.00  0.00     0.026 C 
HETATM   28  C1  UNL     1      -2.458  13.272 -15.618  1.00  0.00     0.007 C 
ENDBRANCH  26  27
ENDBRANCH  23  26
ENDBRANCH  19  20
ENDBRANCH  18  19
ENDBRANCH   1  18
TORSDOF 8
ENDMDL
