MODEL 1
REMARK VINA RESULT: -4.442427884      0.000      0.000
REMARK  5 active torsions:
REMARK  status: ('A' for Active; 'I' for Inactive)
REMARK    1  A    between atoms: C2_2  and  C3_3 
REMARK    2  A    between atoms: C5_5  and  N1_6 
REMARK    3  A    between atoms: N1_6  and  C6_8 
REMARK    4  A    between atoms: C6_8  and  C7_9 
REMARK    5  A    between atoms: C7_9  and  N2_10 
ROOT
HETATM    1  C3  UNL     1      10.599   5.911  11.744  1.00  0.00     0.029 A 
HETATM    2  C4  UNL     1      10.719   7.092  12.446  1.00  0.00     0.075 A 
HETATM    3  C5  UNL     1       9.443   7.457  12.778  1.00  0.00     0.117 A 
HETATM    4  N3  UNL     1       8.624   6.513  12.278  1.00  0.00    -0.286 N 
ATOM      5  H3  UNL     1       7.607   6.523  12.372  1.00  0.00     0.188 HD
HETATM    6  N4  UNL     1       9.300   5.582  11.658  1.00  0.00    -0.303 N 
ATOM      7  H4  UNL     1       8.914   4.760  11.194  1.00  0.00     0.186 HD
ENDROOT
BRANCH   3   8
HETATM    8  N1  UNL     1       9.006   8.476  13.429  1.00  0.00    -0.374 N 
ATOM      9  H1  UNL     1       9.533   9.345  13.349  1.00  0.00     0.161 HD
BRANCH   8  10
HETATM   10  C6  UNL     1       7.841   8.489  14.257  1.00  0.00     0.148 C 
BRANCH  10  11
HETATM   11  C7  UNL     1       7.478   9.924  14.645  1.00  0.00     0.249 C 
BRANCH  11  12
HETATM   12  N2  UNL     1       6.649   9.971  15.808  1.00  0.00    -0.078 N 
ATOM     13  H23 UNL     1       7.208  10.054  16.657  1.00  0.00     0.274 HD
ATOM     14  H22 UNL     1       6.140  10.852  15.863  1.00  0.00     0.274 HD
ATOM     15  H21 UNL     1       6.016   9.173  15.858  1.00  0.00     0.274 HD
ENDBRANCH  11  12
ENDBRANCH  10  11
ENDBRANCH   8  10
ENDBRANCH   3   8
BRANCH   1  16
HETATM   16  C2  UNL     1      11.742   5.129  11.174  1.00  0.00     0.054 C 
HETATM   17  C1  UNL     1      12.944   5.269  12.083  1.00  0.00     0.011 C 
ENDBRANCH   1  16
TORSDOF 5
ENDMDL
MODEL 2
REMARK VINA RESULT: -4.426056462      1.505      5.260
REMARK  5 active torsions:
REMARK  status: ('A' for Active; 'I' for Inactive)
REMARK    1  A    between atoms: C2_2  and  C3_3 
REMARK    2  A    between atoms: C5_5  and  N1_6 
REMARK    3  A    between atoms: N1_6  and  C6_8 
REMARK    4  A    between atoms: C6_8  and  C7_9 
REMARK    5  A    between atoms: C7_9  and  N2_10 
ROOT
HETATM    1  C3  UNL     1       8.106   7.820  13.862  1.00  0.00     0.029 A 
HETATM    2  C4  UNL     1       8.107   6.570  13.280  1.00  0.00     0.075 A 
HETATM    3  C5  UNL     1       9.212   6.537  12.473  1.00  0.00     0.117 A 
HETATM    4  N3  UNL     1       9.819   7.733  12.593  1.00  0.00    -0.286 N 
ATOM      5  H3  UNL     1      10.674   7.998  12.103  1.00  0.00     0.188 HD
HETATM    6  N4  UNL     1       9.169   8.510  13.420  1.00  0.00    -0.303 N 
ATOM      7  H4  UNL     1       9.423   9.463  13.680  1.00  0.00     0.186 HD
ENDROOT
BRANCH   3   8
HETATM    8  N1  UNL     1       9.666   5.605  11.713  1.00  0.00    -0.374 N 
ATOM      9  H1  UNL     1       9.013   4.879  11.419  1.00  0.00     0.161 HD
BRANCH   8  10
HETATM   10  C6  UNL     1      11.013   5.505  11.246  1.00  0.00     0.148 C 
BRANCH  10  11
HETATM   11  C7  UNL     1      11.950   5.129  12.396  1.00  0.00     0.249 C 
BRANCH  11  12
HETATM   12  N2  UNL     1      13.167   5.876  12.361  1.00  0.00    -0.078 N 
ATOM     13  H23 UNL     1      13.932   5.356  12.790  1.00  0.00     0.274 HD
ATOM     14  H22 UNL     1      13.532   5.945  11.411  1.00  0.00     0.274 HD
ATOM     15  H21 UNL     1      13.063   6.797  12.785  1.00  0.00     0.274 HD
ENDBRANCH  11  12
ENDBRANCH  10  11
ENDBRANCH   8  10
ENDBRANCH   3   8
BRANCH   1  16
HETATM   16  C2  UNL     1       7.078   8.318  14.831  1.00  0.00     0.054 C 
HETATM   17  C1  UNL     1       7.146   9.828  14.898  1.00  0.00     0.011 C 
ENDBRANCH   1  16
TORSDOF 5
ENDMDL
MODEL 3
REMARK VINA RESULT: -4.399756241      1.770      4.952
REMARK  5 active torsions:
REMARK  status: ('A' for Active; 'I' for Inactive)
REMARK    1  A    between atoms: C2_2  and  C3_3 
REMARK    2  A    between atoms: C5_5  and  N1_6 
REMARK    3  A    between atoms: N1_6  and  C6_8 
REMARK    4  A    between atoms: C6_8  and  C7_9 
REMARK    5  A    between atoms: C7_9  and  N2_10 
ROOT
HETATM    1  C3  UNL     1       7.781   7.609  13.798  1.00  0.00     0.029 A 
HETATM    2  C4  UNL     1       9.035   7.820  13.267  1.00  0.00     0.075 A 
HETATM    3  C5  UNL     1       9.189   6.876  12.289  1.00  0.00     0.117 A 
HETATM    4  N3  UNL     1       8.055   6.150  12.266  1.00  0.00    -0.286 N 
ATOM      5  H3  UNL     1       7.883   5.369  11.633  1.00  0.00     0.188 HD
HETATM    6  N4  UNL     1       7.204   6.576  13.163  1.00  0.00    -0.303 N 
ATOM      7  H4  UNL     1       6.276   6.195  13.346  1.00  0.00     0.186 HD
ENDROOT
BRANCH   3   8
HETATM    8  N1  UNL     1      10.174   6.643  11.497  1.00  0.00    -0.374 N 
ATOM      9  H1  UNL     1      10.420   7.371  10.827  1.00  0.00     0.161 HD
BRANCH   8  10
HETATM   10  C6  UNL     1      10.953   5.445  11.479  1.00  0.00     0.148 C 
BRANCH  10  11
HETATM   11  C7  UNL     1      11.971   5.453  12.622  1.00  0.00     0.249 C 
BRANCH  11  12
HETATM   12  N2  UNL     1      12.782   6.628  12.608  1.00  0.00    -0.078 N 
ATOM     13  H23 UNL     1      13.103   6.866  13.546  1.00  0.00     0.274 HD
ATOM     14  H22 UNL     1      13.686   6.448  12.170  1.00  0.00     0.274 HD
ATOM     15  H21 UNL     1      12.308   7.415  12.167  1.00  0.00     0.274 HD
ENDBRANCH  11  12
ENDBRANCH  10  11
ENDBRANCH   8  10
ENDBRANCH   3   8
BRANCH   1  16
HETATM   16  C2  UNL     1       7.169   8.410  14.907  1.00  0.00     0.054 C 
HETATM   17  C1  UNL     1       7.480   9.875  14.693  1.00  0.00     0.011 C 
ENDBRANCH   1  16
TORSDOF 5
ENDMDL
MODEL 4
REMARK VINA RESULT: -4.382761224      1.924      5.189
REMARK  5 active torsions:
REMARK  status: ('A' for Active; 'I' for Inactive)
REMARK    1  A    between atoms: C2_2  and  C3_3 
REMARK    2  A    between atoms: C5_5  and  N1_6 
REMARK    3  A    between atoms: N1_6  and  C6_8 
REMARK    4  A    between atoms: C6_8  and  C7_9 
REMARK    5  A    between atoms: C7_9  and  N2_10 
ROOT
HETATM    1  C3  UNL     1       8.227   7.283  13.679  1.00  0.00     0.029 A 
HETATM    2  C4  UNL     1       8.667   6.241  12.891  1.00  0.00     0.075 A 
HETATM    3  C5  UNL     1       9.745   6.725  12.202  1.00  0.00     0.117 A 
HETATM    4  N3  UNL     1       9.911   8.004  12.586  1.00  0.00    -0.286 N 
ATOM      5  H3  UNL     1      10.644   8.622  12.235  1.00  0.00     0.188 HD
HETATM    6  N4  UNL     1       9.011   8.352  13.469  1.00  0.00    -0.303 N 
ATOM      7  H4  UNL     1       8.921   9.266  13.914  1.00  0.00     0.186 HD
ENDROOT
BRANCH   3   8
HETATM    8  N1  UNL     1      10.511   6.158  11.339  1.00  0.00    -0.374 N 
ATOM      9  H1  UNL     1      10.437   6.469  10.371  1.00  0.00     0.161 HD
BRANCH   8  10
HETATM   10  C6  UNL     1      11.459   5.129  11.627  1.00  0.00     0.148 C 
BRANCH  10  11
HETATM   11  C7  UNL     1      12.595   5.676  12.494  1.00  0.00     0.249 C 
BRANCH  11  12
HETATM   12  N2  UNL     1      13.879   5.386  11.939  1.00  0.00    -0.078 N 
ATOM     13  H23 UNL     1      14.617   5.513  12.631  1.00  0.00     0.274 HD
ATOM     14  H22 UNL     1      13.990   4.387  11.766  1.00  0.00     0.274 HD
ATOM     15  H21 UNL     1      14.064   5.931  11.097  1.00  0.00     0.274 HD
ENDBRANCH  11  12
ENDBRANCH  10  11
ENDBRANCH   8  10
ENDBRANCH   3   8
BRANCH   1  16
HETATM   16  C2  UNL     1       7.059   7.222  14.616  1.00  0.00     0.054 C 
HETATM   17  C1  UNL     1       7.266   6.085  15.594  1.00  0.00     0.011 C 
ENDBRANCH   1  16
TORSDOF 5
ENDMDL
MODEL 5
REMARK VINA RESULT: -4.265157661      1.313      1.577
REMARK  5 active torsions:
REMARK  status: ('A' for Active; 'I' for Inactive)
REMARK    1  A    between atoms: C2_2  and  C3_3 
REMARK    2  A    between atoms: C5_5  and  N1_6 
REMARK    3  A    between atoms: N1_6  and  C6_8 
REMARK    4  A    between atoms: C6_8  and  C7_9 
REMARK    5  A    between atoms: C7_9  and  N2_10 
ROOT
HETATM    1  C3  UNL     1      10.115   6.496  12.249  1.00  0.00     0.029 A 
HETATM    2  C4  UNL     1       8.853   6.144  12.679  1.00  0.00     0.075 A 
HETATM    3  C5  UNL     1       8.321   7.274  13.234  1.00  0.00     0.117 A 
HETATM    4  N3  UNL     1       9.252   8.240  13.124  1.00  0.00    -0.286 N 
ATOM      5  H3  UNL     1       9.133   9.198  13.454  1.00  0.00     0.188 HD
HETATM    6  N4  UNL     1      10.331   7.790  12.537  1.00  0.00    -0.303 N 
ATOM      7  H4  UNL     1      11.178   8.321  12.336  1.00  0.00     0.186 HD
ENDROOT
BRANCH   3   8
HETATM    8  N1  UNL     1       7.174   7.481  13.778  1.00  0.00    -0.374 N 
ATOM      9  H1  UNL     1       6.346   7.261  13.225  1.00  0.00     0.161 HD
BRANCH   8  10
HETATM   10  C6  UNL     1       6.966   7.992  15.096  1.00  0.00     0.148 C 
BRANCH  10  11
HETATM   11  C7  UNL     1       6.422   9.421  15.035  1.00  0.00     0.249 C 
BRANCH  11  12
HETATM   12  N2  UNL     1       7.389  10.381  15.463  1.00  0.00    -0.078 N 
ATOM     13  H23 UNL     1       7.000  11.008  16.167  1.00  0.00     0.274 HD
ATOM     14  H22 UNL     1       8.121   9.944  16.023  1.00  0.00     0.274 HD
ATOM     15  H21 UNL     1       7.783  10.903  14.681  1.00  0.00     0.274 HD
ENDBRANCH  11  12
ENDBRANCH  10  11
ENDBRANCH   8  10
ENDBRANCH   3   8
BRANCH   1  16
HETATM   16  C2  UNL     1      11.083   5.575  11.571  1.00  0.00     0.054 C 
HETATM   17  C1  UNL     1      12.401   5.602  12.315  1.00  0.00     0.011 C 
ENDBRANCH   1  16
TORSDOF 5
ENDMDL
