MODEL 1
REMARK VINA RESULT: -4.598287599      0.000      0.000
REMARK  3 active torsions:
REMARK  status: ('A' for Active; 'I' for Inactive)
REMARK    1  A    between atoms: C2_2  and  C4_4 
REMARK    2  A    between atoms: C4_4  and  C5_5 
REMARK    3  A    between atoms: C5_5  and  N1_6 
ROOT
HETATM    1  N1  UNL     1       9.096   8.548  13.331  1.00  0.00    -0.361 N 
ATOM      2  H1  UNL     1       9.705   9.315  13.048  1.00  0.00     0.162 HD
HETATM    3  C6  UNL     1       8.043   8.775  14.009  1.00  0.00     0.188 C 
HETATM    4  N2  UNL     1       7.095   7.826  14.481  1.00  0.00    -0.346 N 
ATOM      5  H2  UNL     1       6.930   6.887  14.120  1.00  0.00     0.163 HD
HETATM    6  C7  UNL     1       6.411   8.472  15.580  1.00  0.00     0.259 C 
HETATM    7  N3  UNL     1       6.490   9.900  15.307  1.00  0.00    -0.119 NA
HETATM    8  N4  UNL     1       7.583  10.047  14.444  1.00  0.00    -0.274 N 
ATOM      9  H4  UNL     1       7.991  10.940  14.168  1.00  0.00     0.185 HD
ENDROOT
BRANCH   1  10
HETATM   10  C5  UNL     1       9.417   7.186  12.969  1.00  0.00     0.123 C 
BRANCH  10  11
HETATM   11  C4  UNL     1      10.866   7.106  12.492  1.00  0.00     0.023 C 
BRANCH  11  12
HETATM   12  C2  UNL     1      11.206   5.627  12.339  1.00  0.00    -0.021 C 
HETATM   13  C1  UNL     1      10.523   5.129  11.090  1.00  0.00     0.009 C 
HETATM   14  C3  UNL     1      12.702   5.466  12.249  1.00  0.00     0.009 C 
ENDBRANCH  11  12
ENDBRANCH  10  11
ENDBRANCH   1  10
TORSDOF 3
ENDMDL
MODEL 2
REMARK VINA RESULT: -4.243237083      1.317      2.285
REMARK  3 active torsions:
REMARK  status: ('A' for Active; 'I' for Inactive)
REMARK    1  A    between atoms: C2_2  and  C4_4 
REMARK    2  A    between atoms: C4_4  and  C5_5 
REMARK    3  A    between atoms: C5_5  and  N1_6 
ROOT
HETATM    1  N1  UNL     1       8.837   6.231  12.039  1.00  0.00    -0.361 N 
ATOM      2  H1  UNL     1       8.288   5.450  11.681  1.00  0.00     0.162 HD
HETATM    3  C6  UNL     1       8.361   6.998  12.936  1.00  0.00     0.188 C 
HETATM    4  N2  UNL     1       8.988   8.122  13.539  1.00  0.00    -0.346 N 
ATOM      5  H2  UNL     1       9.988   8.319  13.584  1.00  0.00     0.163 HD
HETATM    6  C7  UNL     1       7.914   8.929  14.075  1.00  0.00     0.259 C 
HETATM    7  N3  UNL     1       6.828   7.999  14.355  1.00  0.00    -0.119 NA
HETATM    8  N4  UNL     1       7.077   6.890  13.538  1.00  0.00    -0.274 N 
ATOM      9  H4  UNL     1       6.430   6.114  13.396  1.00  0.00     0.185 HD
ENDROOT
BRANCH   1  10
HETATM   10  C5  UNL     1      10.168   6.484  11.536  1.00  0.00     0.123 C 
BRANCH  10  11
HETATM   11  C4  UNL     1      11.038   5.245  11.734  1.00  0.00     0.023 C 
BRANCH  11  12
HETATM   12  C2  UNL     1      12.238   5.670  12.575  1.00  0.00    -0.021 C 
HETATM   13  C1  UNL     1      13.478   5.129  11.906  1.00  0.00     0.009 C 
HETATM   14  C3  UNL     1      12.276   7.173  12.668  1.00  0.00     0.009 C 
ENDBRANCH  11  12
ENDBRANCH  10  11
ENDBRANCH   1  10
TORSDOF 3
ENDMDL
MODEL 3
REMARK VINA RESULT: -4.220497427      2.410      5.573
REMARK  3 active torsions:
REMARK  status: ('A' for Active; 'I' for Inactive)
REMARK    1  A    between atoms: C2_2  and  C4_4 
REMARK    2  A    between atoms: C4_4  and  C5_5 
REMARK    3  A    between atoms: C5_5  and  N1_6 
ROOT
HETATM    1  N1  UNL     1      10.397   7.777  13.048  1.00  0.00    -0.361 N 
ATOM      2  H1  UNL     1      10.854   8.563  13.508  1.00  0.00     0.162 HD
HETATM    3  C6  UNL     1      11.083   6.806  12.594  1.00  0.00     0.188 C 
HETATM    4  N2  UNL     1      10.606   5.642  11.932  1.00  0.00    -0.346 N 
ATOM      5  H2  UNL     1       9.665   5.251  11.974  1.00  0.00     0.163 HD
HETATM    6  C7  UNL     1      11.733   5.129  11.184  1.00  0.00     0.259 C 
HETATM    7  N3  UNL     1      12.917   5.570  11.908  1.00  0.00    -0.119 NA
HETATM    8  N4  UNL     1      12.497   6.676  12.656  1.00  0.00    -0.274 N 
ATOM      9  H4  UNL     1      13.118   7.300  13.171  1.00  0.00     0.185 HD
ENDROOT
BRANCH   1  10
HETATM   10  C5  UNL     1       8.959   7.748  12.902  1.00  0.00     0.123 C 
BRANCH  10  11
HETATM   11  C4  UNL     1       8.318   7.276  14.206  1.00  0.00     0.023 C 
BRANCH  11  12
HETATM   12  C2  UNL     1       7.114   8.177  14.465  1.00  0.00    -0.021 C 
HETATM   13  C1  UNL     1       6.449   7.696  15.731  1.00  0.00     0.009 C 
HETATM   14  C3  UNL     1       7.578   9.604  14.596  1.00  0.00     0.009 C 
ENDBRANCH  11  12
ENDBRANCH  10  11
ENDBRANCH   1  10
TORSDOF 3
ENDMDL
MODEL 4
REMARK VINA RESULT: -4.155960915      1.174      1.771
REMARK  3 active torsions:
REMARK  status: ('A' for Active; 'I' for Inactive)
REMARK    1  A    between atoms: C2_2  and  C4_4 
REMARK    2  A    between atoms: C4_4  and  C5_5 
REMARK    3  A    between atoms: C5_5  and  N1_6 
ROOT
HETATM    1  N1  UNL     1       7.376   6.710  13.645  1.00  0.00    -0.361 N 
ATOM      2  H1  UNL     1       6.704   5.977  13.871  1.00  0.00     0.162 HD
HETATM    3  C6  UNL     1       7.335   7.831  14.245  1.00  0.00     0.188 C 
HETATM    4  N2  UNL     1       8.189   8.951  14.050  1.00  0.00    -0.346 N 
ATOM      5  H2  UNL     1       9.124   8.949  13.643  1.00  0.00     0.163 HD
HETATM    6  C7  UNL     1       7.456  10.093  14.550  1.00  0.00     0.259 C 
HETATM    7  N3  UNL     1       6.553   9.567  15.565  1.00  0.00    -0.119 NA
HETATM    8  N4  UNL     1       6.410   8.209  15.257  1.00  0.00    -0.274 N 
ATOM      9  H4  UNL     1       5.738   7.580  15.696  1.00  0.00     0.185 HD
ENDROOT
BRANCH   1  10
HETATM   10  C5  UNL     1       8.389   6.491  12.637  1.00  0.00     0.123 C 
BRANCH  10  11
HETATM   11  C4  UNL     1       9.459   5.546  13.179  1.00  0.00     0.023 C 
BRANCH  11  12
HETATM   12  C2  UNL     1      10.747   5.845  12.419  1.00  0.00    -0.021 C 
HETATM   13  C1  UNL     1      10.660   5.148  11.083  1.00  0.00     0.009 C 
HETATM   14  C3  UNL     1      10.894   7.335  12.251  1.00  0.00     0.009 C 
ENDBRANCH  11  12
ENDBRANCH  10  11
ENDBRANCH   1  10
TORSDOF 3
ENDMDL
MODEL 5
REMARK VINA RESULT: -4.143734769      2.717      5.282
REMARK  3 active torsions:
REMARK  status: ('A' for Active; 'I' for Inactive)
REMARK    1  A    between atoms: C2_2  and  C4_4 
REMARK    2  A    between atoms: C4_4  and  C5_5 
REMARK    3  A    between atoms: C5_5  and  N1_6 
ROOT
HETATM    1  N1  UNL     1      10.436   7.743  12.953  1.00  0.00    -0.361 N 
ATOM      2  H1  UNL     1      10.737   8.665  13.268  1.00  0.00     0.162 HD
HETATM    3  C6  UNL     1      11.293   6.858  12.634  1.00  0.00     0.188 C 
HETATM    4  N2  UNL     1      11.044   5.534  12.178  1.00  0.00    -0.346 N 
ATOM      5  H2  UNL     1      10.196   4.986  12.313  1.00  0.00     0.163 HD
HETATM    6  C7  UNL     1      12.246   5.129  11.482  1.00  0.00     0.259 C 
HETATM    7  N3  UNL     1      13.327   5.894  12.087  1.00  0.00    -0.119 NA
HETATM    8  N4  UNL     1      12.706   7.008  12.666  1.00  0.00    -0.274 N 
ATOM      9  H4  UNL     1      13.199   7.812  13.056  1.00  0.00     0.185 HD
ENDROOT
BRANCH   1  10
HETATM   10  C5  UNL     1       9.030   7.422  12.862  1.00  0.00     0.123 C 
BRANCH  10  11
HETATM   11  C4  UNL     1       8.277   8.071  14.022  1.00  0.00     0.023 C 
BRANCH  11  12
HETATM   12  C2  UNL     1       7.221   7.072  14.486  1.00  0.00    -0.021 C 
HETATM   13  C1  UNL     1       6.428   6.651  13.273  1.00  0.00     0.009 C 
HETATM   14  C3  UNL     1       7.900   5.893  15.134  1.00  0.00     0.009 C 
ENDBRANCH  11  12
ENDBRANCH  10  11
ENDBRANCH   1  10
TORSDOF 3
ENDMDL
