MODEL 1
REMARK VINA RESULT: -4.650428063      0.000      0.000
REMARK  6 active torsions:
REMARK  status: ('A' for Active; 'I' for Inactive)
REMARK    1  A    between atoms: N1_1  and  C1_5 
REMARK    2  A    between atoms: C1_5  and  C2_6 
REMARK    3  A    between atoms: C2_6  and  C3_7 
REMARK    4  A    between atoms: C3_7  and  N2_8 
REMARK    5  A    between atoms: N2_8  and  N3_10 
REMARK    6  A    between atoms: N3_10  and  C4_12 
ROOT
HETATM    1  N2  UNL     1       9.860   7.947  12.674  1.00  0.00    -0.314 N 
ATOM      2  H2  UNL     1      10.116   8.934  12.684  1.00  0.00     0.185 HD
ENDROOT
BRANCH   1   3
HETATM    3  C3  UNL     1      10.659   7.111  12.141  1.00  0.00     0.081 C 
BRANCH   3   4
HETATM    4  C2  UNL     1      12.037   6.899  12.649  1.00  0.00     0.073 C 
BRANCH   4   5
HETATM    5  C1  UNL     1      12.452   5.487  12.272  1.00  0.00     0.235 C 
BRANCH   5   6
HETATM    6  N1  UNL     1      13.878   5.491  11.991  1.00  0.00    -0.079 N 
ATOM      7  H13 UNL     1      14.250   4.555  11.834  1.00  0.00     0.274 HD
ATOM      8  H12 UNL     1      14.097   5.882  11.075  1.00  0.00     0.274 HD
ATOM      9  H11 UNL     1      14.352   5.981  12.750  1.00  0.00     0.274 HD
ENDBRANCH   5   6
ENDBRANCH   4   5
ENDBRANCH   3   4
ENDBRANCH   1   3
BRANCH   1  10
HETATM   10  N3  UNL     1       8.661   7.568  13.237  1.00  0.00    -0.285 N 
ATOM     11  H3  UNL     1       8.280   6.649  13.011  1.00  0.00     0.188 HD
BRANCH  10  12
HETATM   12  C4  UNL     1       8.003   8.338  14.044  1.00  0.00     0.135 A 
HETATM   13  C5  UNL     1       7.015   7.969  14.919  1.00  0.00     0.070 A 
HETATM   14  C6  UNL     1       6.605   9.128  15.572  1.00  0.00     0.111 A 
HETATM   15  N4  UNL     1       7.353  10.157  15.075  1.00  0.00    -0.310 N 
HETATM   16  N5  UNL     1       8.185   9.684  14.165  1.00  0.00    -0.285 N 
ATOM     17  H4  UNL     1       7.280  11.134  15.362  1.00  0.00     0.186 HD
ATOM     18  H5  UNL     1       8.857  10.239  13.635  1.00  0.00     0.188 HD
ENDBRANCH  10  12
ENDBRANCH   1  10
TORSDOF 6
ENDMDL
MODEL 2
REMARK VINA RESULT: -4.615887068      1.168      5.708
REMARK  6 active torsions:
REMARK  status: ('A' for Active; 'I' for Inactive)
REMARK    1  A    between atoms: N1_1  and  C1_5 
REMARK    2  A    between atoms: C1_5  and  C2_6 
REMARK    3  A    between atoms: C2_6  and  C3_7 
REMARK    4  A    between atoms: C3_7  and  N2_8 
REMARK    5  A    between atoms: N2_8  and  N3_10 
REMARK    6  A    between atoms: N3_10  and  C4_12 
ROOT
HETATM    1  N2  UNL     1       9.413   8.111  13.375  1.00  0.00    -0.314 N 
ATOM      2  H2  UNL     1       9.790   8.867  13.946  1.00  0.00     0.185 HD
ENDROOT
BRANCH   1   3
HETATM    3  C3  UNL     1       8.359   7.512  13.767  1.00  0.00     0.081 C 
BRANCH   3   4
HETATM    4  C2  UNL     1       7.296   8.203  14.539  1.00  0.00     0.073 C 
BRANCH   4   5
HETATM    5  C1  UNL     1       7.530   9.698  14.403  1.00  0.00     0.235 C 
BRANCH   5   6
HETATM    6  N1  UNL     1       7.158  10.333  15.656  1.00  0.00    -0.079 N 
ATOM      7  H13 UNL     1       6.323  10.912  15.570  1.00  0.00     0.274 HD
ATOM      8  H12 UNL     1       6.795   9.669  16.340  1.00  0.00     0.274 HD
ATOM      9  H11 UNL     1       7.964  10.853  16.002  1.00  0.00     0.274 HD
ENDBRANCH   5   6
ENDBRANCH   4   5
ENDBRANCH   3   4
ENDBRANCH   1   3
BRANCH   1  10
HETATM   10  N3  UNL     1      10.062   7.774  12.208  1.00  0.00    -0.285 N 
ATOM     11  H3  UNL     1       9.768   8.214  11.336  1.00  0.00     0.188 HD
BRANCH  10  12
HETATM   12  C4  UNL     1      11.033   6.917  12.181  1.00  0.00     0.135 A 
HETATM   13  C5  UNL     1      11.037   5.691  11.568  1.00  0.00     0.070 A 
HETATM   14  C6  UNL     1      12.288   5.129  11.806  1.00  0.00     0.111 A 
HETATM   15  N4  UNL     1      12.999   6.026  12.551  1.00  0.00    -0.310 N 
HETATM   16  N5  UNL     1      12.248   7.090  12.774  1.00  0.00    -0.285 N 
ATOM     17  H4  UNL     1      13.955   5.895  12.882  1.00  0.00     0.186 HD
ATOM     18  H5  UNL     1      12.533   7.912  13.306  1.00  0.00     0.188 HD
ENDBRANCH  10  12
ENDBRANCH   1  10
TORSDOF 6
ENDMDL
MODEL 3
REMARK VINA RESULT: -4.498724015      1.140      1.323
REMARK  6 active torsions:
REMARK  status: ('A' for Active; 'I' for Inactive)
REMARK    1  A    between atoms: N1_1  and  C1_5 
REMARK    2  A    between atoms: C1_5  and  C2_6 
REMARK    3  A    between atoms: C2_6  and  C3_7 
REMARK    4  A    between atoms: C3_7  and  N2_8 
REMARK    5  A    between atoms: N2_8  and  N3_10 
REMARK    6  A    between atoms: N3_10  and  C4_12 
ROOT
HETATM    1  N2  UNL     1       9.796   6.906  11.587  1.00  0.00    -0.314 N 
ATOM      2  H2  UNL     1       9.147   7.114  10.829  1.00  0.00     0.185 HD
ENDROOT
BRANCH   1   3
HETATM    3  C3  UNL     1      10.536   5.873  11.497  1.00  0.00     0.081 C 
BRANCH   3   4
HETATM    4  C2  UNL     1      11.343   5.374  12.638  1.00  0.00     0.073 C 
BRANCH   4   5
HETATM    5  C1  UNL     1      12.754   5.132  12.130  1.00  0.00     0.235 C 
BRANCH   5   6
HETATM    6  N1  UNL     1      13.503   6.371  12.257  1.00  0.00    -0.079 N 
ATOM      7  H13 UNL     1      12.910   7.166  12.493  1.00  0.00     0.274 HD
ATOM      8  H12 UNL     1      14.094   6.389  13.087  1.00  0.00     0.274 HD
ATOM      9  H11 UNL     1      14.030   6.515  11.396  1.00  0.00     0.274 HD
ENDBRANCH   5   6
ENDBRANCH   4   5
ENDBRANCH   3   4
ENDBRANCH   1   3
BRANCH   1  10
HETATM   10  N3  UNL     1       9.840   7.752  12.673  1.00  0.00    -0.285 N 
ATOM     11  H3  UNL     1      10.704   8.257  12.870  1.00  0.00     0.188 HD
BRANCH  10  12
HETATM   12  C4  UNL     1       8.820   7.929  13.452  1.00  0.00     0.135 A 
HETATM   13  C5  UNL     1       8.043   6.959  14.029  1.00  0.00     0.070 A 
HETATM   14  C6  UNL     1       7.072   7.618  14.778  1.00  0.00     0.111 A 
HETATM   15  N4  UNL     1       7.289   8.957  14.632  1.00  0.00    -0.310 N 
HETATM   16  N5  UNL     1       8.332   9.140  13.841  1.00  0.00    -0.285 N 
ATOM     17  H4  UNL     1       6.736   9.698  15.065  1.00  0.00     0.186 HD
ATOM     18  H5  UNL     1       8.711  10.046  13.564  1.00  0.00     0.188 HD
ENDBRANCH  10  12
ENDBRANCH   1  10
TORSDOF 6
ENDMDL
MODEL 4
REMARK VINA RESULT: -4.368639197      1.005      1.188
REMARK  6 active torsions:
REMARK  status: ('A' for Active; 'I' for Inactive)
REMARK    1  A    between atoms: N1_1  and  C1_5 
REMARK    2  A    between atoms: C1_5  and  C2_6 
REMARK    3  A    between atoms: C2_6  and  C3_7 
REMARK    4  A    between atoms: C3_7  and  N2_8 
REMARK    5  A    between atoms: N2_8  and  N3_10 
REMARK    6  A    between atoms: N3_10  and  C4_12 
ROOT
HETATM    1  N2  UNL     1       8.990   6.885  13.109  1.00  0.00    -0.314 N 
ATOM      2  H2  UNL     1       8.919   6.245  13.901  1.00  0.00     0.185 HD
ENDROOT
BRANCH   1   3
HETATM    3  C3  UNL     1       9.163   6.402  11.944  1.00  0.00     0.081 C 
BRANCH   3   4
HETATM    4  C2  UNL     1      10.513   6.114  11.399  1.00  0.00     0.073 C 
BRANCH   4   5
HETATM    5  C1  UNL     1      11.398   5.700  12.562  1.00  0.00     0.235 C 
BRANCH   5   6
HETATM    6  N1  UNL     1      12.508   6.634  12.645  1.00  0.00    -0.079 N 
ATOM      7  H13 UNL     1      13.407   6.195  12.448  1.00  0.00     0.274 HD
ATOM      8  H12 UNL     1      12.513   7.308  11.879  1.00  0.00     0.274 HD
ATOM      9  H11 UNL     1      12.482   7.081  13.561  1.00  0.00     0.274 HD
ENDBRANCH   5   6
ENDBRANCH   4   5
ENDBRANCH   3   4
ENDBRANCH   1   3
BRANCH   1  10
HETATM   10  N3  UNL     1       8.894   8.239  13.341  1.00  0.00    -0.285 N 
ATOM     11  H3  UNL     1       9.519   8.869  12.839  1.00  0.00     0.188 HD
BRANCH  10  12
HETATM   12  C4  UNL     1       8.038   8.737  14.175  1.00  0.00     0.135 A 
HETATM   13  C5  UNL     1       7.098   8.055  14.902  1.00  0.00     0.070 A 
HETATM   14  C6  UNL     1       6.410   9.002  15.656  1.00  0.00     0.111 A 
HETATM   15  N4  UNL     1       6.951  10.221  15.364  1.00  0.00    -0.310 N 
HETATM   16  N5  UNL     1       7.921  10.061  14.481  1.00  0.00    -0.285 N 
ATOM     17  H4  UNL     1       6.654  11.111  15.764  1.00  0.00     0.186 HD
ATOM     18  H5  UNL     1       8.491  10.809  14.089  1.00  0.00     0.188 HD
ENDBRANCH  10  12
ENDBRANCH   1  10
TORSDOF 6
ENDMDL
MODEL 5
REMARK VINA RESULT: -4.281142027      1.294      1.452
REMARK  6 active torsions:
REMARK  status: ('A' for Active; 'I' for Inactive)
REMARK    1  A    between atoms: N1_1  and  C1_5 
REMARK    2  A    between atoms: C1_5  and  C2_6 
REMARK    3  A    between atoms: C2_6  and  C3_7 
REMARK    4  A    between atoms: C3_7  and  N2_8 
REMARK    5  A    between atoms: N2_8  and  N3_10 
REMARK    6  A    between atoms: N3_10  and  C4_12 
ROOT
HETATM    1  N2  UNL     1       9.582   7.035  11.945  1.00  0.00    -0.314 N 
ATOM      2  H2  UNL     1       8.767   6.924  11.341  1.00  0.00     0.185 HD
ENDROOT
BRANCH   1   3
HETATM    3  C3  UNL     1      10.619   6.333  11.710  1.00  0.00     0.081 C 
BRANCH   3   4
HETATM    4  C2  UNL     1      11.868   6.478  12.499  1.00  0.00     0.073 C 
BRANCH   4   5
HETATM    5  C1  UNL     1      12.615   5.158  12.420  1.00  0.00     0.235 C 
BRANCH   5   6
HETATM    6  N1  UNL     1      13.972   5.430  11.976  1.00  0.00    -0.079 N 
ATOM      7  H13 UNL     1      14.141   6.422  11.810  1.00  0.00     0.274 HD
ATOM      8  H12 UNL     1      14.662   5.294  12.715  1.00  0.00     0.274 HD
ATOM      9  H11 UNL     1      14.160   4.856  11.153  1.00  0.00     0.274 HD
ENDBRANCH   5   6
ENDBRANCH   4   5
ENDBRANCH   3   4
ENDBRANCH   1   3
BRANCH   1  10
HETATM   10  N3  UNL     1       9.520   7.937  12.983  1.00  0.00    -0.285 N 
ATOM     11  H3  UNL     1      10.291   8.592  13.113  1.00  0.00     0.188 HD
BRANCH  10  12
HETATM   12  C4  UNL     1       8.516   7.981  13.800  1.00  0.00     0.135 A 
HETATM   13  C5  UNL     1       7.835   9.095  14.215  1.00  0.00     0.070 A 
HETATM   14  C6  UNL     1       6.841   8.656  15.085  1.00  0.00     0.111 A 
HETATM   15  N4  UNL     1       6.950   7.298  15.170  1.00  0.00    -0.310 N 
HETATM   16  N5  UNL     1       7.949   6.898  14.404  1.00  0.00    -0.285 N 
ATOM     17  H4  UNL     1       6.355   6.691  15.734  1.00  0.00     0.186 HD
ATOM     18  H5  UNL     1       8.249   5.931  14.283  1.00  0.00     0.188 HD
ENDBRANCH  10  12
ENDBRANCH   1  10
TORSDOF 6
ENDMDL
