MODEL 1
REMARK VINA RESULT: -8.872191830      0.000      0.000
REMARK  3 active torsions:
REMARK  status: ('A' for Active; 'I' for Inactive)
REMARK    1  A    between atoms: O1_2  and  C2_3 
REMARK    2  A    between atoms: C2_3  and  C3_5 
REMARK    3  A    between atoms: N2_13  and  C8_14 
ROOT
HETATM    1  C3  UNL     1       7.331   7.704  23.547  1.00  0.00     0.190 A 
HETATM    2  N1  UNL     1       7.862   8.151  24.736  1.00  0.00    -0.329 N 
ATOM      3  H1  UNL     1       8.772   8.589  24.879  1.00  0.00     0.168 HD
HETATM    4  C4  UNL     1       6.929   7.890  25.671  1.00  0.00     0.104 A 
HETATM    5  S1  UNL     1       6.602   8.022  27.346  1.00  0.00    -0.071 SA
HETATM    6  C5  UNL     1       5.064   7.325  27.369  1.00  0.00     0.027 A 
HETATM    7  C6  UNL     1       4.825   6.999  26.062  1.00  0.00    -0.010 A 
HETATM    8  C7  UNL     1       5.823   7.302  25.163  1.00  0.00     0.082 A 
HETATM    9  N2  UNL     1       6.113   7.195  23.793  1.00  0.00    -0.295 N 
HETATM   10  C13 UNL     1       3.469   6.350  25.775  1.00  0.00     0.068 C 
HETATM   11  C14 UNL     1       2.645   6.376  27.000  1.00  0.00     0.173 C 
HETATM   12  O3  UNL     1       3.255   6.025  28.177  1.00  0.00    -0.375 OA
HETATM   13  C15 UNL     1       4.130   7.073  28.512  1.00  0.00     0.087 C 
HETATM   14  C16 UNL     1       4.902   6.595  29.726  1.00  0.00     0.051 C 
HETATM   15  C17 UNL     1       3.368   8.307  28.907  1.00  0.00     0.051 C 
ENDROOT
BRANCH   9  16
HETATM   16  C8  UNL     1       5.271   6.628  22.792  1.00  0.00     0.028 C 
HETATM   17  C9  UNL     1       4.582   7.528  21.830  1.00  0.00     0.285 C 
HETATM   18  N3  UNL     1       3.235   6.932  21.631  1.00  0.00    -0.065 N 
HETATM   19  C10 UNL     1       3.317   5.501  21.609  1.00  0.00     0.311 C 
ATOM     20  H32 UNL     1       2.568   7.262  22.329  1.00  0.00     0.277 HD
ATOM     21  H31 UNL     1       2.777   7.299  20.797  1.00  0.00     0.277 HD
HETATM   22  C11 UNL     1       4.647   4.935  21.195  1.00  0.00     0.272 C 
HETATM   23  F1  UNL     1       4.524   3.547  21.315  1.00  0.00    -0.204 F 
HETATM   24  F2  UNL     1       4.835   5.218  19.857  1.00  0.00    -0.204 F 
HETATM   25  C12 UNL     1       5.807   5.431  22.049  1.00  0.00     0.135 C 
ENDBRANCH   9  16
BRANCH   1  26
HETATM   26  C2  UNL     1       8.144   7.862  22.357  1.00  0.00     0.327 C 
HETATM   27  O2  UNL     1       7.912   8.517  21.331  1.00  0.00    -0.256 OA
BRANCH  26  28
HETATM   28  O1  UNL     1       9.407   7.200  22.281  1.00  0.00    -0.320 OA
HETATM   29  C1  UNL     1       9.467   5.797  21.987  1.00  0.00     0.213 C 
ENDBRANCH  26  28
ENDBRANCH   1  26
TORSDOF 3
ENDMDL
MODEL 2
REMARK VINA RESULT: -8.390788124      0.691      1.038
REMARK  3 active torsions:
REMARK  status: ('A' for Active; 'I' for Inactive)
REMARK    1  A    between atoms: O1_2  and  C2_3 
REMARK    2  A    between atoms: C2_3  and  C3_5 
REMARK    3  A    between atoms: N2_13  and  C8_14 
ROOT
HETATM    1  C3  UNL     1       7.542   7.776  23.847  1.00  0.00     0.190 A 
HETATM    2  N1  UNL     1       8.024   8.174  25.073  1.00  0.00    -0.329 N 
ATOM      3  H1  UNL     1       8.939   8.579  25.275  1.00  0.00     0.168 HD
HETATM    4  C4  UNL     1       7.037   7.919  25.952  1.00  0.00     0.104 A 
HETATM    5  S1  UNL     1       6.628   8.018  27.611  1.00  0.00    -0.071 SA
HETATM    6  C5  UNL     1       5.070   7.371  27.537  1.00  0.00     0.027 A 
HETATM    7  C6  UNL     1       4.889   7.087  26.211  1.00  0.00    -0.010 A 
HETATM    8  C7  UNL     1       5.941   7.380  25.373  1.00  0.00     0.082 A 
HETATM    9  N2  UNL     1       6.297   7.300  24.017  1.00  0.00    -0.295 N 
HETATM   10  C13 UNL     1       3.531   6.489  25.837  1.00  0.00     0.068 C 
HETATM   11  C14 UNL     1       2.646   6.510  27.020  1.00  0.00     0.173 C 
HETATM   12  O3  UNL     1       3.182   6.109  28.216  1.00  0.00    -0.375 OA
HETATM   13  C15 UNL     1       4.071   7.120  28.624  1.00  0.00     0.087 C 
HETATM   14  C16 UNL     1       4.764   6.585  29.862  1.00  0.00     0.051 C 
HETATM   15  C17 UNL     1       3.328   8.367  29.013  1.00  0.00     0.051 C 
ENDROOT
BRANCH   9  16
HETATM   16  C8  UNL     1       5.492   6.786  22.959  1.00  0.00     0.028 C 
HETATM   17  C9  UNL     1       5.044   7.703  21.878  1.00  0.00     0.285 C 
HETATM   18  N3  UNL     1       3.653   7.287  21.561  1.00  0.00    -0.065 N 
HETATM   19  C10 UNL     1       3.529   5.860  21.625  1.00  0.00     0.311 C 
ATOM     20  H32 UNL     1       2.972   7.753  22.160  1.00  0.00     0.277 HD
ATOM     21  H31 UNL     1       3.342   7.655  20.662  1.00  0.00     0.277 HD
HETATM   22  C11 UNL     1       4.799   5.089  21.395  1.00  0.00     0.272 C 
HETATM   23  F1  UNL     1       4.465   3.742  21.575  1.00  0.00    -0.204 F 
HETATM   24  F2  UNL     1       5.164   5.250  20.073  1.00  0.00    -0.204 F 
HETATM   25  C12 UNL     1       5.923   5.479  22.346  1.00  0.00     0.135 C 
ENDBRANCH   9  16
BRANCH   1  26
HETATM   26  C2  UNL     1       8.420   7.939  22.704  1.00  0.00     0.327 C 
HETATM   27  O2  UNL     1       8.939   7.073  21.984  1.00  0.00    -0.256 OA
BRANCH  26  28
HETATM   28  O1  UNL     1       8.785   9.254  22.287  1.00  0.00    -0.320 OA
HETATM   29  C1  UNL     1       9.971   9.871  22.809  1.00  0.00     0.213 C 
ENDBRANCH  26  28
ENDBRANCH   1  26
TORSDOF 3
ENDMDL
MODEL 3
REMARK VINA RESULT: -8.200530034      2.709      4.126
REMARK  3 active torsions:
REMARK  status: ('A' for Active; 'I' for Inactive)
REMARK    1  A    between atoms: O1_2  and  C2_3 
REMARK    2  A    between atoms: C2_3  and  C3_5 
REMARK    3  A    between atoms: N2_13  and  C8_14 
ROOT
HETATM    1  C3  UNL     1       4.423   6.044  22.756  1.00  0.00     0.190 A 
HETATM    2  N1  UNL     1       3.354   5.841  23.600  1.00  0.00    -0.329 N 
ATOM      3  H1  UNL     1       2.447   5.440  23.360  1.00  0.00     0.168 HD
HETATM    4  C4  UNL     1       3.755   6.284  24.806  1.00  0.00     0.104 A 
HETATM    5  S1  UNL     1       3.239   6.487  26.425  1.00  0.00    -0.071 SA
HETATM    6  C5  UNL     1       4.641   7.176  27.065  1.00  0.00     0.027 A 
HETATM    7  C6  UNL     1       5.499   7.236  26.000  1.00  0.00    -0.010 A 
HETATM    8  C7  UNL     1       5.020   6.760  24.800  1.00  0.00     0.082 A 
HETATM    9  N2  UNL     1       5.423   6.592  23.465  1.00  0.00    -0.295 N 
HETATM   10  C13 UNL     1       6.884   7.816  26.293  1.00  0.00     0.068 C 
HETATM   11  C14 UNL     1       7.025   8.034  27.747  1.00  0.00     0.173 C 
HETATM   12  O3  UNL     1       5.969   8.612  28.403  1.00  0.00    -0.375 OA
HETATM   13  C15 UNL     1       4.944   7.650  28.452  1.00  0.00     0.087 C 
HETATM   14  C16 UNL     1       3.740   8.360  29.040  1.00  0.00     0.051 C 
HETATM   15  C17 UNL     1       5.309   6.520  29.373  1.00  0.00     0.051 C 
ENDROOT
BRANCH   9  16
HETATM   16  C8  UNL     1       6.687   6.950  22.912  1.00  0.00     0.028 C 
HETATM   17  C9  UNL     1       7.260   6.122  21.819  1.00  0.00     0.285 C 
HETATM   18  N3  UNL     1       8.719   6.062  22.096  1.00  0.00    -0.065 N 
HETATM   19  C10 UNL     1       9.187   7.321  22.596  1.00  0.00     0.311 C 
ATOM     20  H32 UNL     1       8.955   5.294  22.723  1.00  0.00     0.277 HD
ATOM     21  H31 UNL     1       9.248   5.759  21.278  1.00  0.00     0.277 HD
HETATM   22  C11 UNL     1       8.371   8.520  22.199  1.00  0.00     0.272 C 
HETATM   23  F1  UNL     1       8.956   9.611  22.849  1.00  0.00    -0.204 F 
HETATM   24  F2  UNL     1       8.529   8.715  20.842  1.00  0.00    -0.204 F 
HETATM   25  C12 UNL     1       6.902   8.406  22.589  1.00  0.00     0.135 C 
ENDBRANCH   9  16
BRANCH   1  26
HETATM   26  C2  UNL     1       4.257   5.651  21.370  1.00  0.00     0.327 C 
HETATM   27  O2  UNL     1       4.239   6.358  20.352  1.00  0.00    -0.256 OA
BRANCH  26  28
HETATM   28  O1  UNL     1       4.086   4.270  21.051  1.00  0.00    -0.320 OA
HETATM   29  C1  UNL     1       5.155   3.536  20.435  1.00  0.00     0.213 C 
ENDBRANCH  26  28
ENDBRANCH   1  26
TORSDOF 3
ENDMDL
MODEL 4
REMARK VINA RESULT: -7.235647404      1.828      5.340
REMARK  3 active torsions:
REMARK  status: ('A' for Active; 'I' for Inactive)
REMARK    1  A    between atoms: O1_2  and  C2_3 
REMARK    2  A    between atoms: C2_3  and  C3_5 
REMARK    3  A    between atoms: N2_13  and  C8_14 
ROOT
HETATM    1  C3  UNL     1       4.658   6.588  25.384  1.00  0.00     0.190 A 
HETATM    2  N1  UNL     1       5.563   7.163  26.248  1.00  0.00    -0.329 N 
ATOM      3  H1  UNL     1       5.508   7.196  27.266  1.00  0.00     0.168 HD
HETATM    4  C4  UNL     1       6.534   7.673  25.469  1.00  0.00     0.104 A 
HETATM    5  S1  UNL     1       8.012   8.536  25.520  1.00  0.00    -0.071 SA
HETATM    6  C5  UNL     1       8.327   8.617  23.863  1.00  0.00     0.027 A 
HETATM    7  C6  UNL     1       7.270   7.963  23.290  1.00  0.00    -0.010 A 
HETATM    8  C7  UNL     1       6.319   7.464  24.151  1.00  0.00     0.082 A 
HETATM    9  N2  UNL     1       5.102   6.763  24.129  1.00  0.00    -0.295 N 
HETATM   10  C13 UNL     1       7.296   7.866  21.763  1.00  0.00     0.068 C 
HETATM   11  C14 UNL     1       8.587   8.382  21.262  1.00  0.00     0.173 C 
HETATM   12  O3  UNL     1       9.053   9.549  21.809  1.00  0.00    -0.375 OA
HETATM   13  C15 UNL     1       9.462   9.250  23.121  1.00  0.00     0.087 C 
HETATM   14  C16 UNL     1       9.826  10.580  23.753  1.00  0.00     0.051 C 
HETATM   15  C17 UNL     1      10.693   8.388  23.119  1.00  0.00     0.051 C 
ENDROOT
BRANCH   9  16
HETATM   16  C8  UNL     1       4.411   6.305  22.970  1.00  0.00     0.028 C 
HETATM   17  C9  UNL     1       3.733   7.294  22.091  1.00  0.00     0.285 C 
HETATM   18  N3  UNL     1       2.470   6.638  21.663  1.00  0.00    -0.065 N 
HETATM   19  C10 UNL     1       2.685   5.241  21.427  1.00  0.00     0.311 C 
ATOM     20  H32 UNL     1       1.715   6.798  22.329  1.00  0.00     0.277 HD
ATOM     21  H31 UNL     1       2.059   7.100  20.852  1.00  0.00     0.277 HD
HETATM   22  C11 UNL     1       4.094   4.852  21.073  1.00  0.00     0.272 C 
HETATM   23  F1  UNL     1       4.088   3.457  20.963  1.00  0.00    -0.204 F 
HETATM   24  F2  UNL     1       4.376   5.363  19.822  1.00  0.00    -0.204 F 
HETATM   25  C12 UNL     1       5.120   5.290  22.110  1.00  0.00     0.135 C 
ENDBRANCH   9  16
BRANCH   1  26
HETATM   26  C2  UNL     1       3.490   5.957  25.970  1.00  0.00     0.327 C 
HETATM   27  O2  UNL     1       3.417   5.194  26.943  1.00  0.00    -0.256 OA
BRANCH  26  28
HETATM   28  O1  UNL     1       2.205   6.202  25.399  1.00  0.00    -0.320 OA
HETATM   29  C1  UNL     1       1.127   6.664  26.226  1.00  0.00     0.213 C 
ENDBRANCH  26  28
ENDBRANCH   1  26
TORSDOF 3
ENDMDL
MODEL 5
REMARK VINA RESULT: -7.018480882      1.026      1.390
REMARK  3 active torsions:
REMARK  status: ('A' for Active; 'I' for Inactive)
REMARK    1  A    between atoms: O1_2  and  C2_3 
REMARK    2  A    between atoms: C2_3  and  C3_5 
REMARK    3  A    between atoms: N2_13  and  C8_14 
ROOT
HETATM    1  C3  UNL     1       7.334   7.594  23.505  1.00  0.00     0.190 A 
HETATM    2  N1  UNL     1       7.783   8.140  24.687  1.00  0.00    -0.329 N 
ATOM      3  H1  UNL     1       8.655   8.647  24.839  1.00  0.00     0.168 HD
HETATM    4  C4  UNL     1       6.832   7.866  25.598  1.00  0.00     0.104 A 
HETATM    5  S1  UNL     1       6.426   8.065  27.249  1.00  0.00    -0.071 SA
HETATM    6  C5  UNL     1       4.939   7.265  27.253  1.00  0.00     0.027 A 
HETATM    7  C6  UNL     1       4.778   6.854  25.958  1.00  0.00    -0.010 A 
HETATM    8  C7  UNL     1       5.790   7.176  25.083  1.00  0.00     0.082 A 
HETATM    9  N2  UNL     1       6.143   7.015  23.733  1.00  0.00    -0.295 N 
HETATM   10  C13 UNL     1       3.482   6.097  25.657  1.00  0.00     0.068 C 
HETATM   11  C14 UNL     1       2.607   6.132  26.847  1.00  0.00     0.173 C 
HETATM   12  O3  UNL     1       3.189   5.888  28.064  1.00  0.00    -0.375 OA
HETATM   13  C15 UNL     1       3.977   7.011  28.372  1.00  0.00     0.087 C 
HETATM   14  C16 UNL     1       4.728   6.653  29.640  1.00  0.00     0.051 C 
HETATM   15  C17 UNL     1       3.118   8.209  28.666  1.00  0.00     0.051 C 
ENDROOT
BRANCH   9  16
HETATM   16  C8  UNL     1       5.385   6.338  22.734  1.00  0.00     0.028 C 
HETATM   17  C9  UNL     1       4.695   5.069  23.085  1.00  0.00     0.285 C 
HETATM   18  N3  UNL     1       4.844   4.199  21.889  1.00  0.00    -0.065 N 
HETATM   19  C10 UNL     1       4.727   4.971  20.688  1.00  0.00     0.311 C 
ATOM     20  H32 UNL     1       5.713   3.666  21.914  1.00  0.00     0.277 HD
ATOM     21  H31 UNL     1       4.187   3.418  21.904  1.00  0.00     0.277 HD
HETATM   22  C11 UNL     1       3.936   6.244  20.810  1.00  0.00     0.272 C 
HETATM   23  F1  UNL     1       4.015   6.864  19.559  1.00  0.00    -0.204 F 
HETATM   24  F2  UNL     1       2.614   5.908  21.021  1.00  0.00    -0.204 F 
HETATM   25  C12 UNL     1       4.463   7.181  21.890  1.00  0.00     0.135 C 
ENDBRANCH   9  16
BRANCH   1  26
HETATM   26  C2  UNL     1       8.184   7.744  22.340  1.00  0.00     0.327 C 
HETATM   27  O2  UNL     1       8.069   8.520  21.381  1.00  0.00    -0.256 OA
BRANCH  26  28
HETATM   28  O1  UNL     1       9.338   6.914  22.206  1.00  0.00    -0.320 OA
HETATM   29  C1  UNL     1       9.189   5.514  21.928  1.00  0.00     0.213 C 
ENDBRANCH  26  28
ENDBRANCH   1  26
TORSDOF 3
ENDMDL
