MODEL 1
REMARK VINA RESULT: -7.552164189      0.000      0.000
REMARK  2 active torsions:
REMARK  status: ('A' for Active; 'I' for Inactive)
REMARK    1  A    between atoms: C9_12  and  C10_13 
REMARK    2  A    between atoms: C13_20  and  C14_21 
ROOT
HETATM    1  N1  UNL     1       4.844   6.406  25.621  1.00  0.00    -0.197 NA
HETATM    2  C1  UNL     1       4.643   6.625  24.499  1.00  0.00     0.071 C 
HETATM    3  C2  UNL     1       4.408   6.906  23.067  1.00  0.00     0.181 C 
HETATM    4  C3  UNL     1       5.728   7.129  22.415  1.00  0.00     0.261 C 
HETATM    5  F1  UNL     1       5.711   7.910  21.288  1.00  0.00    -0.205 F 
HETATM    6  F2  UNL     1       6.442   7.913  23.351  1.00  0.00    -0.205 F 
HETATM    7  C4  UNL     1       6.450   5.851  22.271  1.00  0.00     0.087 C 
HETATM    8  C5  UNL     1       6.177   4.964  21.141  1.00  0.00     0.020 A 
HETATM    9  C6  UNL     1       5.090   4.846  20.226  1.00  0.00     0.014 A 
HETATM   10  C7  UNL     1       3.936   5.712  19.949  1.00  0.00     0.008 C 
HETATM   11  C8  UNL     1       3.185   6.308  21.066  1.00  0.00     0.019 C 
HETATM   12  C9  UNL     1       3.537   5.855  22.446  1.00  0.00     0.043 C 
HETATM   13  C18 UNL     1       4.114   4.476  22.512  1.00  0.00     0.044 C 
HETATM   14  C19 UNL     1       5.039   4.053  21.462  1.00  0.00     0.058 A 
HETATM   15  C20 UNL     1       5.230   2.582  21.397  1.00  0.00     0.070 C 
HETATM   16  N6  UNL     1       5.400   1.438  21.345  1.00  0.00    -0.196 NA
ENDROOT
BRANCH  12  17
HETATM   17  C10 UNL     1       2.310   5.824  23.306  1.00  0.00     0.131 A 
HETATM   18  N2  UNL     1       1.977   6.074  24.515  1.00  0.00    -0.178 N 
HETATM   19  C11 UNL     1       0.613   5.740  24.336  1.00  0.00     0.691 A 
ATOM     20  H2  UNL     1       2.508   6.399  25.323  1.00  0.00     0.185 HD
HETATM   21  N3  UNL     1      -0.701   5.492  24.441  1.00  0.00    -0.199 N 
HETATM   22  N5  UNL     1       0.943   5.472  23.056  1.00  0.00    -0.137 N 
HETATM   23  C12 UNL     1      -1.187   5.078  23.259  1.00  0.00     0.132 A 
ATOM     24  H3  UNL     1      -1.250   5.602  25.294  1.00  0.00     0.183 HD
HETATM   25  C13 UNL     1      -0.126   5.066  22.373  1.00  0.00     0.057 A 
BRANCH  25  26
HETATM   26  C14 UNL     1      -0.180   4.675  20.937  1.00  0.00     0.065 C 
HETATM   27  C15 UNL     1      -0.031   5.874  20.031  1.00  0.00     0.040 C 
HETATM   28  C16 UNL     1      -1.425   6.269  19.691  1.00  0.00     0.233 C 
HETATM   29  N4  UNL     1      -2.276   5.153  19.944  1.00  0.00    -0.074 N 
HETATM   30  C17 UNL     1      -1.508   4.119  20.557  1.00  0.00     0.243 C 
ATOM     31  H42 UNL     1      -3.097   5.406  20.494  1.00  0.00     0.277 HD
ATOM     32  H41 UNL     1      -2.760   4.835  19.105  1.00  0.00     0.277 HD
ENDBRANCH  25  26
ENDBRANCH  12  17
TORSDOF 2
ENDMDL
MODEL 2
REMARK VINA RESULT: -7.463725987      2.861      6.600
REMARK  2 active torsions:
REMARK  status: ('A' for Active; 'I' for Inactive)
REMARK    1  A    between atoms: C9_12  and  C10_13 
REMARK    2  A    between atoms: C13_20  and  C14_21 
ROOT
HETATM    1  N1  UNL     1      -1.909   4.532  24.249  1.00  0.00    -0.197 NA
HETATM    2  C1  UNL     1      -1.360   4.405  23.235  1.00  0.00     0.071 C 
HETATM    3  C2  UNL     1      -0.678   4.234  21.934  1.00  0.00     0.181 C 
HETATM    4  C3  UNL     1      -1.663   3.683  20.963  1.00  0.00     0.261 C 
HETATM    5  F1  UNL     1      -1.133   2.965  19.921  1.00  0.00    -0.205 F 
HETATM    6  F2  UNL     1      -2.370   2.711  21.709  1.00  0.00    -0.205 F 
HETATM    7  C4  UNL     1      -2.631   4.723  20.568  1.00  0.00     0.087 C 
HETATM    8  C5  UNL     1      -2.306   5.680  19.512  1.00  0.00     0.020 A 
HETATM    9  C6  UNL     1      -1.083   6.110  18.917  1.00  0.00     0.014 A 
HETATM   10  C7  UNL     1       0.289   5.594  19.004  1.00  0.00     0.008 C 
HETATM   11  C8  UNL     1       0.838   5.192  20.309  1.00  0.00     0.019 C 
HETATM   12  C9  UNL     1       0.017   5.496  21.519  1.00  0.00     0.043 C 
HETATM   13  C18 UNL     1      -0.901   6.668  21.361  1.00  0.00     0.044 C 
HETATM   14  C19 UNL     1      -1.583   6.854  20.082  1.00  0.00     0.058 A 
HETATM   15  C20 UNL     1      -2.133   8.221  19.896  1.00  0.00     0.070 C 
HETATM   16  N6  UNL     1      -2.580   9.278  19.745  1.00  0.00    -0.196 NA
ENDROOT
BRANCH  12  17
HETATM   17  C10 UNL     1       0.910   5.834  22.675  1.00  0.00     0.131 A 
HETATM   18  N2  UNL     1       0.805   6.159  23.907  1.00  0.00    -0.178 N 
HETATM   19  C11 UNL     1       2.201   6.260  24.124  1.00  0.00     0.691 A 
ATOM     20  H2  UNL     1       0.000   6.297  24.518  1.00  0.00     0.185 HD
HETATM   21  N3  UNL     1       3.446   6.424  24.595  1.00  0.00    -0.199 N 
HETATM   22  N5  UNL     1       2.333   5.917  22.827  1.00  0.00    -0.137 N 
HETATM   23  C12 UNL     1       4.341   6.191  23.620  1.00  0.00     0.132 A 
ATOM     24  H3  UNL     1       3.679   6.687  25.552  1.00  0.00     0.183 HD
HETATM   25  C13 UNL     1       3.619   5.866  22.486  1.00  0.00     0.057 A 
BRANCH  25  26
HETATM   26  C14 UNL     1       4.182   5.527  21.149  1.00  0.00     0.065 C 
HETATM   27  C15 UNL     1       4.127   4.041  20.887  1.00  0.00     0.040 C 
HETATM   28  C16 UNL     1       5.471   3.535  21.275  1.00  0.00     0.233 C 
HETATM   29  N4  UNL     1       6.374   4.639  21.286  1.00  0.00    -0.074 N 
HETATM   30  C17 UNL     1       5.636   5.839  21.057  1.00  0.00     0.243 C 
ATOM     31  H42 UNL     1       6.928   4.681  22.141  1.00  0.00     0.277 HD
ATOM     32  H41 UNL     1       7.141   4.522  20.625  1.00  0.00     0.277 HD
ENDBRANCH  25  26
ENDBRANCH  12  17
TORSDOF 2
ENDMDL
MODEL 3
REMARK VINA RESULT: -7.272975813      2.965      7.105
REMARK  2 active torsions:
REMARK  status: ('A' for Active; 'I' for Inactive)
REMARK    1  A    between atoms: C9_12  and  C10_13 
REMARK    2  A    between atoms: C13_20  and  C14_21 
ROOT
HETATM    1  N1  UNL     1       4.886   2.212  20.977  1.00  0.00    -0.197 NA
HETATM    2  C1  UNL     1       4.756   3.344  20.764  1.00  0.00     0.071 C 
HETATM    3  C2  UNL     1       4.568   4.785  20.490  1.00  0.00     0.181 C 
HETATM    4  C3  UNL     1       3.111   5.038  20.313  1.00  0.00     0.261 C 
HETATM    5  F1  UNL     1       2.785   6.125  19.544  1.00  0.00    -0.205 F 
HETATM    6  F2  UNL     1       2.666   3.940  19.541  1.00  0.00    -0.205 F 
HETATM    7  C4  UNL     1       2.418   4.970  21.613  1.00  0.00     0.087 C 
HETATM    8  C5  UNL     1       2.389   6.130  22.503  1.00  0.00     0.020 A 
HETATM    9  C6  UNL     1       3.176   7.315  22.599  1.00  0.00     0.014 A 
HETATM   10  C7  UNL     1       4.177   7.908  21.702  1.00  0.00     0.008 C 
HETATM   11  C8  UNL     1       5.194   7.049  21.073  1.00  0.00     0.019 C 
HETATM   12  C9  UNL     1       5.260   5.626  21.521  1.00  0.00     0.043 C 
HETATM   13  C18 UNL     1       4.769   5.397  22.916  1.00  0.00     0.044 C 
HETATM   14  C19 UNL     1       3.598   6.142  23.377  1.00  0.00     0.058 A 
HETATM   15  C20 UNL     1       3.442   6.148  24.854  1.00  0.00     0.070 C 
HETATM   16  N6  UNL     1       3.300   6.148  26.002  1.00  0.00    -0.196 NA
ENDROOT
BRANCH  12  17
HETATM   17  C10 UNL     1       6.681   5.147  21.508  1.00  0.00     0.131 A 
HETATM   18  N2  UNL     1       7.330   4.072  21.272  1.00  0.00    -0.178 N 
HETATM   19  C11 UNL     1       8.602   4.641  21.525  1.00  0.00     0.691 A 
ATOM     20  H2  UNL     1       7.036   3.135  20.998  1.00  0.00     0.185 HD
HETATM   21  N3  UNL     1       9.901   4.919  21.704  1.00  0.00    -0.199 N 
HETATM   22  N5  UNL     1       7.935   5.785  21.777  1.00  0.00    -0.137 N 
HETATM   23  C12 UNL     1      10.052   6.206  22.059  1.00  0.00     0.132 A 
ATOM     24  H3  UNL     1      10.663   4.251  21.586  1.00  0.00     0.183 HD
HETATM   25  C13 UNL     1       8.784   6.758  22.106  1.00  0.00     0.057 A 
BRANCH  25  26
HETATM   26  C14 UNL     1       8.447   8.166  22.456  1.00  0.00     0.065 C 
HETATM   27  C15 UNL     1       9.602   8.855  23.144  1.00  0.00     0.040 C 
HETATM   28  C16 UNL     1       9.317   8.715  24.598  1.00  0.00     0.233 C 
HETATM   29  N4  UNL     1       7.928   8.429  24.752  1.00  0.00    -0.074 N 
HETATM   30  C17 UNL     1       7.350   8.246  23.460  1.00  0.00     0.243 C 
ATOM     31  H42 UNL     1       7.760   7.636  25.369  1.00  0.00     0.277 HD
ATOM     32  H41 UNL     1       7.443   9.140  25.299  1.00  0.00     0.277 HD
ENDBRANCH  25  26
ENDBRANCH  12  17
TORSDOF 2
ENDMDL
MODEL 4
REMARK VINA RESULT: -6.909601749      3.071      4.991
REMARK  2 active torsions:
REMARK  status: ('A' for Active; 'I' for Inactive)
REMARK    1  A    between atoms: C9_12  and  C10_13 
REMARK    2  A    between atoms: C13_20  and  C14_21 
ROOT
HETATM    1  N1  UNL     1       5.086   6.296  25.033  1.00  0.00    -0.197 NA
HETATM    2  C1  UNL     1       5.674   7.071  24.401  1.00  0.00     0.071 C 
HETATM    3  C2  UNL     1       6.438   8.062  23.612  1.00  0.00     0.181 C 
HETATM    4  C3  UNL     1       7.621   8.479  24.413  1.00  0.00     0.261 C 
HETATM    5  F1  UNL     1       8.122   9.724  24.129  1.00  0.00    -0.205 F 
HETATM    6  F2  UNL     1       7.114   8.617  25.726  1.00  0.00    -0.205 F 
HETATM    7  C4  UNL     1       8.627   7.401  24.442  1.00  0.00     0.087 C 
HETATM    8  C5  UNL     1       9.578   7.239  23.344  1.00  0.00     0.020 A 
HETATM    9  C6  UNL     1       9.604   7.690  21.992  1.00  0.00     0.014 A 
HETATM   10  C7  UNL     1       8.781   8.664  21.263  1.00  0.00     0.008 C 
HETATM   11  C8  UNL     1       7.320   8.666  21.441  1.00  0.00     0.019 C 
HETATM   12  C9  UNL     1       6.726   7.547  22.233  1.00  0.00     0.043 C 
HETATM   13  C18 UNL     1       7.531   6.285  22.215  1.00  0.00     0.044 C 
HETATM   14  C19 UNL     1       8.989   6.385  22.272  1.00  0.00     0.058 A 
HETATM   15  C20 UNL     1       9.685   5.142  21.850  1.00  0.00     0.070 C 
HETATM   16  N6  UNL     1      10.240   4.175  21.540  1.00  0.00    -0.196 NA
ENDROOT
BRANCH  12  17
HETATM   17  C10 UNL     1       5.383   7.179  21.679  1.00  0.00     0.131 A 
HETATM   18  N2  UNL     1       4.325   7.760  21.259  1.00  0.00    -0.178 N 
HETATM   19  C11 UNL     1       3.641   6.559  20.953  1.00  0.00     0.691 A 
ATOM     20  H2  UNL     1       4.065   8.743  21.174  1.00  0.00     0.185 HD
HETATM   21  N3  UNL     1       2.784   5.596  20.583  1.00  0.00    -0.199 N 
HETATM   22  N5  UNL     1       4.748   5.927  21.391  1.00  0.00    -0.137 N 
HETATM   23  C12 UNL     1       3.336   4.387  20.782  1.00  0.00     0.132 A 
ATOM     24  H3  UNL     1       1.850   5.758  20.205  1.00  0.00     0.183 HD
HETATM   25  C13 UNL     1       4.598   4.606  21.302  1.00  0.00     0.057 A 
BRANCH  25  26
HETATM   26  C14 UNL     1       5.589   3.561  21.684  1.00  0.00     0.065 C 
HETATM   27  C15 UNL     1       6.676   3.424  20.645  1.00  0.00     0.040 C 
HETATM   28  C16 UNL     1       6.234   2.297  19.778  1.00  0.00     0.233 C 
HETATM   29  N4  UNL     1       5.270   1.534  20.501  1.00  0.00    -0.074 N 
HETATM   30  C17 UNL     1       4.980   2.202  21.728  1.00  0.00     0.243 C 
ATOM     31  H42 UNL     1       4.431   1.346  19.952  1.00  0.00     0.277 HD
ATOM     32  H41 UNL     1       5.566   0.568  20.643  1.00  0.00     0.277 HD
ENDBRANCH  25  26
ENDBRANCH  12  17
TORSDOF 2
ENDMDL
MODEL 5
REMARK VINA RESULT: -6.395880307      3.086      4.928
REMARK  2 active torsions:
REMARK  status: ('A' for Active; 'I' for Inactive)
REMARK    1  A    between atoms: C9_12  and  C10_13 
REMARK    2  A    between atoms: C13_20  and  C14_21 
ROOT
HETATM    1  N1  UNL     1       8.416   7.794  27.052  1.00  0.00    -0.197 NA
HETATM    2  C1  UNL     1       8.174   8.293  26.034  1.00  0.00     0.071 C 
HETATM    3  C2  UNL     1       7.887   8.938  24.734  1.00  0.00     0.181 C 
HETATM    4  C3  UNL     1       9.118   9.642  24.283  1.00  0.00     0.261 C 
HETATM    5  F1  UNL     1       8.919  10.705  23.439  1.00  0.00    -0.205 F 
HETATM    6  F2  UNL     1       9.617  10.244  25.461  1.00  0.00    -0.205 F 
HETATM    7  C4  UNL     1      10.127   8.670  23.825  1.00  0.00     0.087 C 
HETATM    8  C5  UNL     1      10.081   8.132  22.466  1.00  0.00     0.020 A 
HETATM    9  C6  UNL     1       9.060   8.055  21.474  1.00  0.00     0.014 A 
HETATM   10  C7  UNL     1       7.733   8.678  21.376  1.00  0.00     0.008 C 
HETATM   11  C8  UNL     1       6.855   8.717  22.556  1.00  0.00     0.019 C 
HETATM   12  C9  UNL     1       7.297   7.958  23.764  1.00  0.00     0.043 C 
HETATM   13  C18 UNL     1       8.189   6.793  23.466  1.00  0.00     0.044 C 
HETATM   14  C19 UNL     1       9.194   6.934  22.413  1.00  0.00     0.058 A 
HETATM   15  C20 UNL     1       9.734   5.636  21.932  1.00  0.00     0.070 C 
HETATM   16  N6  UNL     1      10.174   4.633  21.559  1.00  0.00    -0.196 NA
ENDROOT
BRANCH  12  17
HETATM   17  C10 UNL     1       6.109   7.386  24.477  1.00  0.00     0.131 A 
HETATM   18  N2  UNL     1       5.692   7.228  25.676  1.00  0.00    -0.178 N 
HETATM   19  C11 UNL     1       4.480   6.600  25.300  1.00  0.00     0.691 A 
ATOM     20  H2  UNL     1       6.092   7.470  26.582  1.00  0.00     0.185 HD
HETATM   21  N3  UNL     1       3.287   5.993  25.224  1.00  0.00    -0.199 N 
HETATM   22  N5  UNL     1       4.902   6.758  24.029  1.00  0.00    -0.137 N 
HETATM   23  C12 UNL     1       2.963   5.774  23.939  1.00  0.00     0.132 A 
ATOM     24  H3  UNL     1       2.710   5.736  26.025  1.00  0.00     0.183 HD
HETATM   25  C13 UNL     1       4.005   6.268  23.175  1.00  0.00     0.057 A 
BRANCH  25  26
HETATM   26  C14 UNL     1       4.095   6.248  21.688  1.00  0.00     0.065 C 
HETATM   27  C15 UNL     1       3.172   5.212  21.093  1.00  0.00     0.040 C 
HETATM   28  C16 UNL     1       4.029   4.013  20.885  1.00  0.00     0.233 C 
HETATM   29  N4  UNL     1       5.390   4.436  20.882  1.00  0.00    -0.074 N 
HETATM   30  C17 UNL     1       5.442   5.823  21.214  1.00  0.00     0.243 C 
ATOM     31  H42 UNL     1       5.976   3.868  21.493  1.00  0.00     0.277 HD
ATOM     32  H41 UNL     1       5.861   4.229  20.001  1.00  0.00     0.277 HD
ENDBRANCH  25  26
ENDBRANCH  12  17
TORSDOF 2
ENDMDL
