MODEL 1
REMARK VINA RESULT: -7.525348627      0.000      0.000
REMARK  2 active torsions:
REMARK  status: ('A' for Active; 'I' for Inactive)
REMARK    1  A    between atoms: N1_6  and  C4_7 
REMARK    2  A    between atoms: C6_12  and  N3_13 
ROOT
HETATM    1  C4  UNL     1       5.562   7.147  24.647  1.00  0.00     0.138 A 
HETATM    2  N2  UNL     1       4.696   6.625  23.785  1.00  0.00    -0.310 N 
ATOM      3  H2  UNL     1       4.814   6.493  22.781  1.00  0.00     0.176 HD
HETATM    4  S1  UNL     1       3.363   6.231  24.726  1.00  0.00    -0.007 SA
HETATM    5  C5  UNL     1       3.934   6.747  26.246  1.00  0.00     0.096 A 
HETATM    6  C6  UNL     1       3.414   6.763  27.547  1.00  0.00     0.125 A 
HETATM    7  N5  UNL     1       4.129   7.253  28.577  1.00  0.00    -0.337 N 
ATOM      8  H5  UNL     1       3.774   7.275  29.533  1.00  0.00     0.168 HD
HETATM    9  C15 UNL     1       5.362   7.714  28.243  1.00  0.00     0.182 A 
HETATM   10  N6  UNL     1       5.877   7.712  27.029  1.00  0.00    -0.348 N 
ATOM     11  H6  UNL     1       6.816   8.084  26.888  1.00  0.00     0.167 HD
HETATM   12  C16 UNL     1       5.181   7.221  25.948  1.00  0.00     0.100 A 
ENDROOT
BRANCH   6  13
HETATM   13  N3  UNL     1       2.107   6.234  27.686  1.00  0.00    -0.365 N 
HETATM   14  C7  UNL     1       0.890   7.013  27.622  1.00  0.00     0.125 C 
HETATM   15  C8  UNL     1       0.005   6.242  28.607  1.00  0.00     0.031 C 
HETATM   16  C9  UNL     1       0.292   4.818  28.224  1.00  0.00    -0.020 C 
HETATM   17  C10 UNL     1      -0.540   4.349  27.073  1.00  0.00     0.030 C 
HETATM   18  C13 UNL     1      -0.017   3.903  29.405  1.00  0.00     0.030 C 
HETATM   19  C14 UNL     1       1.765   4.844  27.911  1.00  0.00     0.134 C 
HETATM   20  C11 UNL     1      -1.988   4.420  27.404  1.00  0.00     0.114 C 
HETATM   21  N4  UNL     1      -2.348   3.798  28.641  1.00  0.00    -0.421 N 
HETATM   22  C12 UNL     1      -1.461   4.058  29.729  1.00  0.00     0.114 C 
ATOM     23  H4  UNL     1      -3.177   3.212  28.738  1.00  0.00     0.153 HD
ENDBRANCH   6  13
BRANCH   1  24
HETATM   24  N1  UNL     1       6.845   7.603  24.162  1.00  0.00    -0.365 N 
HETATM   25  C3  UNL     1       7.814   8.057  25.096  1.00  0.00     0.130 C 
HETATM   26  C2  UNL     1       8.793   9.056  24.540  1.00  0.00     0.099 C 
HETATM   27  C1  UNL     1       9.293   8.567  23.202  1.00  0.00     0.246 C 
HETATM   28  F1  UNL     1      10.236   9.420  22.703  1.00  0.00    -0.206 F 
HETATM   29  F2  UNL     1       9.729   7.278  23.327  1.00  0.00    -0.206 F 
HETATM   30  C18 UNL     1       8.085   8.561  22.264  1.00  0.00     0.099 C 
HETATM   31  C17 UNL     1       7.070   7.571  22.749  1.00  0.00     0.130 C 
ENDBRANCH   1  24
TORSDOF 2
ENDMDL
MODEL 2
REMARK VINA RESULT: -7.324665833      0.828      1.458
REMARK  2 active torsions:
REMARK  status: ('A' for Active; 'I' for Inactive)
REMARK    1  A    between atoms: N1_6  and  C4_7 
REMARK    2  A    between atoms: C6_12  and  N3_13 
ROOT
HETATM    1  C4  UNL     1       5.797   7.293  25.040  1.00  0.00     0.138 A 
HETATM    2  N2  UNL     1       4.896   6.703  24.262  1.00  0.00    -0.310 N 
ATOM      3  H2  UNL     1       4.956   6.524  23.260  1.00  0.00     0.176 HD
HETATM    4  S1  UNL     1       3.638   6.319  25.303  1.00  0.00    -0.007 SA
HETATM    5  C5  UNL     1       4.285   6.928  26.756  1.00  0.00     0.096 A 
HETATM    6  C6  UNL     1       3.847   6.994  28.086  1.00  0.00     0.125 A 
HETATM    7  N5  UNL     1       4.609   7.556  29.044  1.00  0.00    -0.337 N 
ATOM      8  H5  UNL     1       4.314   7.616  30.018  1.00  0.00     0.168 HD
HETATM    9  C15 UNL     1       5.803   8.035  28.609  1.00  0.00     0.182 A 
HETATM   10  N6  UNL     1       6.241   7.987  27.367  1.00  0.00    -0.348 N 
ATOM     11  H6  UNL     1       7.157   8.378  27.148  1.00  0.00     0.167 HD
HETATM   12  C16 UNL     1       5.496   7.422  26.357  1.00  0.00     0.100 A 
ENDROOT
BRANCH   6  13
HETATM   13  N3  UNL     1       2.569   6.435  28.334  1.00  0.00    -0.365 N 
HETATM   14  C7  UNL     1       2.150   5.114  27.920  1.00  0.00     0.125 C 
HETATM   15  C8  UNL     1       0.662   5.357  27.650  1.00  0.00     0.031 C 
HETATM   16  C9  UNL     1       0.271   6.196  28.833  1.00  0.00    -0.020 C 
HETATM   17  C10 UNL     1      -0.058   5.376  30.040  1.00  0.00     0.030 C 
HETATM   18  C13 UNL     1      -0.974   7.008  28.489  1.00  0.00     0.030 C 
HETATM   19  C14 UNL     1       1.475   7.078  29.033  1.00  0.00     0.134 C 
HETATM   20  C11 UNL     1      -1.199   4.463  29.766  1.00  0.00     0.114 C 
HETATM   21  N4  UNL     1      -2.347   5.100  29.196  1.00  0.00    -0.421 N 
HETATM   22  C12 UNL     1      -2.064   6.049  28.167  1.00  0.00     0.114 C 
ATOM     23  H4  UNL     1      -3.297   4.891  29.502  1.00  0.00     0.153 HD
ENDBRANCH   6  13
BRANCH   1  24
HETATM   24  N1  UNL     1       7.032   7.761  24.452  1.00  0.00    -0.365 N 
HETATM   25  C3  UNL     1       8.106   8.130  25.305  1.00  0.00     0.130 C 
HETATM   26  C2  UNL     1       9.044   9.150  24.718  1.00  0.00     0.099 C 
HETATM   27  C1  UNL     1       9.387   8.751  23.304  1.00  0.00     0.246 C 
HETATM   28  F1  UNL     1      10.292   9.621  22.767  1.00  0.00    -0.206 F 
HETATM   29  F2  UNL     1       9.802   7.448  23.291  1.00  0.00    -0.206 F 
HETATM   30  C18 UNL     1       8.086   8.832  22.504  1.00  0.00     0.099 C 
HETATM   31  C17 UNL     1       7.104   7.828  23.025  1.00  0.00     0.130 C 
ENDBRANCH   1  24
TORSDOF 2
ENDMDL
MODEL 3
REMARK VINA RESULT: -7.322765910      1.165      1.577
REMARK  2 active torsions:
REMARK  status: ('A' for Active; 'I' for Inactive)
REMARK    1  A    between atoms: N1_6  and  C4_7 
REMARK    2  A    between atoms: C6_12  and  N3_13 
ROOT
HETATM    1  C4  UNL     1       4.957   6.653  23.968  1.00  0.00     0.138 A 
HETATM    2  N2  UNL     1       3.901   6.237  23.278  1.00  0.00    -0.310 N 
ATOM      3  H2  UNL     1       3.841   6.050  22.278  1.00  0.00     0.176 HD
HETATM    4  S1  UNL     1       2.687   6.090  24.428  1.00  0.00    -0.007 SA
HETATM    5  C5  UNL     1       3.557   6.571  25.811  1.00  0.00     0.096 A 
HETATM    6  C6  UNL     1       3.254   6.717  27.172  1.00  0.00     0.125 A 
HETATM    7  N5  UNL     1       4.185   7.130  28.053  1.00  0.00    -0.337 N 
ATOM      8  H5  UNL     1       3.990   7.244  29.047  1.00  0.00     0.168 HD
HETATM    9  C15 UNL     1       5.404   7.383  27.512  1.00  0.00     0.182 A 
HETATM   10  N6  UNL     1       5.718   7.255  26.238  1.00  0.00    -0.348 N 
ATOM     11  H6  UNL     1       6.668   7.472  25.936  1.00  0.00     0.167 HD
HETATM   12  C16 UNL     1       4.798   6.835  25.304  1.00  0.00     0.100 A 
ENDROOT
BRANCH   6  13
HETATM   13  N3  UNL     1       1.922   6.401  27.535  1.00  0.00    -0.365 N 
HETATM   14  C7  UNL     1       0.814   7.331  27.504  1.00  0.00     0.125 C 
HETATM   15  C8  UNL     1      -0.020   6.823  28.684  1.00  0.00     0.031 C 
HETATM   16  C9  UNL     1       0.032   5.337  28.476  1.00  0.00    -0.020 C 
HETATM   17  C10 UNL     1      -0.999   4.851  27.508  1.00  0.00     0.030 C 
HETATM   18  C13 UNL     1      -0.228   4.630  29.803  1.00  0.00     0.030 C 
HETATM   19  C14 UNL     1       1.441   5.113  27.993  1.00  0.00     0.134 C 
HETATM   20  C11 UNL     1      -2.369   5.168  27.991  1.00  0.00     0.114 C 
HETATM   21  N4  UNL     1      -2.635   4.763  29.337  1.00  0.00    -0.421 N 
HETATM   22  C12 UNL     1      -1.585   5.028  30.267  1.00  0.00     0.114 C 
ATOM     23  H4  UNL     1      -3.510   4.318  29.612  1.00  0.00     0.153 HD
ENDBRANCH   6  13
BRANCH   1  24
HETATM   24  N1  UNL     1       6.202   6.887  23.271  1.00  0.00    -0.365 N 
HETATM   25  C3  UNL     1       6.505   6.108  22.123  1.00  0.00     0.130 C 
HETATM   26  C2  UNL     1       7.978   5.945  21.853  1.00  0.00     0.099 C 
HETATM   27  C1  UNL     1       8.655   7.288  21.981  1.00  0.00     0.246 C 
HETATM   28  F1  UNL     1       9.983   7.185  21.675  1.00  0.00    -0.206 F 
HETATM   29  F2  UNL     1       7.985   8.206  21.221  1.00  0.00    -0.206 F 
HETATM   30  C18 UNL     1       8.515   7.706  23.446  1.00  0.00     0.099 C 
HETATM   31  C17 UNL     1       7.069   7.903  23.783  1.00  0.00     0.130 C 
ENDBRANCH   1  24
TORSDOF 2
ENDMDL
MODEL 4
REMARK VINA RESULT: -7.075946372      5.965      9.603
REMARK  2 active torsions:
REMARK  status: ('A' for Active; 'I' for Inactive)
REMARK    1  A    between atoms: N1_6  and  C4_7 
REMARK    2  A    between atoms: C6_12  and  N3_13 
ROOT
HETATM    1  C4  UNL     1       2.067   5.955  21.397  1.00  0.00     0.138 A 
HETATM    2  N2  UNL     1       2.103   7.150  21.979  1.00  0.00    -0.310 N 
ATOM      3  H2  UNL     1       1.316   7.750  22.223  1.00  0.00     0.176 HD
HETATM    4  S1  UNL     1       3.738   7.444  22.219  1.00  0.00    -0.007 SA
HETATM    5  C5  UNL     1       4.377   6.009  21.561  1.00  0.00     0.096 A 
HETATM    6  C6  UNL     1       5.666   5.487  21.385  1.00  0.00     0.125 A 
HETATM    7  N5  UNL     1       5.858   4.284  20.812  1.00  0.00    -0.337 N 
ATOM      8  H5  UNL     1       6.785   3.882  20.673  1.00  0.00     0.168 HD
HETATM    9  C15 UNL     1       4.720   3.647  20.435  1.00  0.00     0.182 A 
HETATM   10  N6  UNL     1       3.496   4.112  20.588  1.00  0.00    -0.348 N 
ATOM     11  H6  UNL     1       2.707   3.550  20.268  1.00  0.00     0.167 HD
HETATM   12  C16 UNL     1       3.254   5.337  21.168  1.00  0.00     0.100 A 
ENDROOT
BRANCH   6  13
HETATM   13  N3  UNL     1       6.723   6.309  21.847  1.00  0.00    -0.365 N 
HETATM   14  C7  UNL     1       8.123   5.949  21.821  1.00  0.00     0.125 C 
HETATM   15  C8  UNL     1       8.626   6.661  23.080  1.00  0.00     0.031 C 
HETATM   16  C9  UNL     1       7.944   7.994  22.969  1.00  0.00    -0.020 C 
HETATM   17  C10 UNL     1       8.690   8.956  22.099  1.00  0.00     0.030 C 
HETATM   18  C13 UNL     1       7.841   8.628  24.353  1.00  0.00     0.030 C 
HETATM   19  C14 UNL     1       6.589   7.635  22.418  1.00  0.00     0.134 C 
HETATM   20  C11 UNL     1      10.050   9.214  22.641  1.00  0.00     0.114 C 
HETATM   21  N4  UNL     1      10.081   9.577  24.025  1.00  0.00    -0.421 N 
HETATM   22  C12 UNL     1       9.224   8.809  24.871  1.00  0.00     0.114 C 
ATOM     23  H4  UNL     1      10.672  10.328  24.381  1.00  0.00     0.153 HD
ENDBRANCH   6  13
BRANCH   1  24
HETATM   24  N1  UNL     1       0.786   5.386  21.043  1.00  0.00    -0.365 N 
HETATM   25  C3  UNL     1      -0.048   4.875  22.072  1.00  0.00     0.130 C 
HETATM   26  C2  UNL     1      -0.989   3.788  21.627  1.00  0.00     0.099 C 
HETATM   27  C1  UNL     1      -1.653   4.205  20.337  1.00  0.00     0.246 C 
HETATM   28  F1  UNL     1      -2.565   3.268  19.943  1.00  0.00    -0.206 F 
HETATM   29  F2  UNL     1      -2.181   5.458  20.487  1.00  0.00    -0.206 F 
HETATM   30  C18 UNL     1      -0.544   4.291  19.288  1.00  0.00     0.099 C 
HETATM   31  C17 UNL     1       0.426   5.369  19.659  1.00  0.00     0.130 C 
ENDBRANCH   1  24
TORSDOF 2
ENDMDL
MODEL 5
REMARK VINA RESULT: -6.830247084      0.888      1.318
REMARK  2 active torsions:
REMARK  status: ('A' for Active; 'I' for Inactive)
REMARK    1  A    between atoms: N1_6  and  C4_7 
REMARK    2  A    between atoms: C6_12  and  N3_13 
ROOT
HETATM    1  C4  UNL     1       5.837   7.226  24.271  1.00  0.00     0.138 A 
HETATM    2  N2  UNL     1       4.975   6.698  23.408  1.00  0.00    -0.310 N 
ATOM      3  H2  UNL     1       5.083   6.594  22.399  1.00  0.00     0.176 HD
HETATM    4  S1  UNL     1       3.668   6.241  24.356  1.00  0.00    -0.007 SA
HETATM    5  C5  UNL     1       4.245   6.738  25.880  1.00  0.00     0.096 A 
HETATM    6  C6  UNL     1       3.744   6.707  27.189  1.00  0.00     0.125 A 
HETATM    7  N5  UNL     1       4.458   7.193  28.221  1.00  0.00    -0.337 N 
ATOM      8  H5  UNL     1       4.117   7.181  29.182  1.00  0.00     0.168 HD
HETATM    9  C15 UNL     1       5.672   7.699  27.881  1.00  0.00     0.182 A 
HETATM   10  N6  UNL     1       6.169   7.742  26.661  1.00  0.00    -0.348 N 
ATOM     11  H6  UNL     1       7.094   8.146  26.516  1.00  0.00     0.167 HD
HETATM   12  C16 UNL     1       5.473   7.257  25.578  1.00  0.00     0.100 A 
ENDROOT
BRANCH   6  13
HETATM   13  N3  UNL     1       2.455   6.135  27.332  1.00  0.00    -0.365 N 
HETATM   14  C7  UNL     1       1.374   6.285  26.383  1.00  0.00     0.125 C 
HETATM   15  C8  UNL     1       0.164   6.274  27.322  1.00  0.00     0.031 C 
HETATM   16  C9  UNL     1       0.514   5.151  28.257  1.00  0.00    -0.020 C 
HETATM   17  C10 UNL     1       0.136   3.809  27.716  1.00  0.00     0.030 C 
HETATM   18  C13 UNL     1      -0.236   5.334  29.572  1.00  0.00     0.030 C 
HETATM   19  C14 UNL     1       2.001   5.313  28.437  1.00  0.00     0.134 C 
HETATM   20  C11 UNL     1      -1.329   3.728  27.478  1.00  0.00     0.114 C 
HETATM   21  N4  UNL     1      -2.136   4.126  28.591  1.00  0.00    -0.421 N 
HETATM   22  C12 UNL     1      -1.693   5.303  29.268  1.00  0.00     0.114 C 
ATOM     23  H4  UNL     1      -2.966   3.609  28.878  1.00  0.00     0.153 HD
ENDBRANCH   6  13
BRANCH   1  24
HETATM   24  N1  UNL     1       7.099   7.732  23.779  1.00  0.00    -0.365 N 
HETATM   25  C3  UNL     1       7.665   7.155  22.611  1.00  0.00     0.130 C 
HETATM   26  C2  UNL     1       9.165   7.255  22.533  1.00  0.00     0.099 C 
HETATM   27  C1  UNL     1       9.586   8.660  22.888  1.00  0.00     0.246 C 
HETATM   28  F1  UNL     1      10.939   8.801  22.759  1.00  0.00    -0.206 F 
HETATM   29  F2  UNL     1       8.867   9.550  22.139  1.00  0.00    -0.206 F 
HETATM   30  C18 UNL     1       9.203   8.870  24.353  1.00  0.00     0.099 C 
HETATM   31  C17 UNL     1       7.715   8.799  24.506  1.00  0.00     0.130 C 
ENDBRANCH   1  24
TORSDOF 2
ENDMDL
