MODEL 1
REMARK VINA RESULT: -7.526592376      0.000      0.000
REMARK  7 active torsions:
REMARK  status: ('A' for Active; 'I' for Inactive)
REMARK       I    between atoms: C1_2  and  N1_3 
REMARK    1  A    between atoms: C1_2  and  C16_26 
REMARK    2  A    between atoms: N1_3  and  C2_5 
REMARK    3  A    between atoms: C4_8  and  O2_9 
REMARK    4  A    between atoms: N2_11  and  C5_12 
REMARK    5  A    between atoms: C5_12  and  C6_13 
REMARK    6  A    between atoms: C6_13  and  N3_14 
REMARK    7  A    between atoms: C9_17  and  C10_18 
ROOT
HETATM    1  C2  UNL     1      11.946   8.248   4.540  1.00  0.00     0.155 A 
HETATM    2  S1  UNL     1      11.921   9.826   5.162  1.00  0.00    -0.061 SA
HETATM    3  C3  UNL     1      11.233  10.632   3.833  1.00  0.00     0.109 A 
HETATM    4  C4  UNL     1      11.052   9.607   2.946  1.00  0.00     0.150 A 
HETATM    5  N2  UNL     1      11.412   8.409   3.302  1.00  0.00    -0.306 N 
ENDROOT
BRANCH   5   6
HETATM    6  C5  UNL     1      11.255   7.212   2.415  1.00  0.00     0.163 C 
BRANCH   6   7
HETATM    7  C6  UNL     1      12.459   7.093   1.544  1.00  0.00     0.292 C 
BRANCH   7   8
HETATM    8  N3  UNL     1      12.287   7.364   0.166  1.00  0.00     0.090 N 
HETATM    9  C7  UNL     1      10.925   7.146  -0.258  1.00  0.00     0.273 C 
HETATM   10  C8  UNL     1      10.890   5.941  -1.140  1.00  0.00     0.041 C 
HETATM   11  C9  UNL     1      12.226   5.270  -0.792  1.00  0.00     0.048 C 
HETATM   12  C15 UNL     1      13.112   6.484  -0.633  1.00  0.00     0.281 C 
BRANCH  11  13
HETATM   13  C10 UNL     1      12.649   4.354  -1.865  1.00  0.00    -0.050 A 
HETATM   14  C11 UNL     1      11.742   4.115  -2.881  1.00  0.00     0.024 A 
HETATM   15  C12 UNL     1      12.081   3.275  -3.903  1.00  0.00     0.088 A 
HETATM   16  N4  UNL     1      13.275   2.680  -3.937  1.00  0.00    -0.375 N 
HETATM   17  C13 UNL     1      14.180   2.901  -2.950  1.00  0.00     0.088 A 
ATOM     18  H4  UNL     1      13.509   2.055  -4.710  1.00  0.00     0.164 HD
HETATM   19  C14 UNL     1      13.873   3.737  -1.911  1.00  0.00     0.024 A 
ENDBRANCH  11  13
ENDBRANCH   7   8
ENDBRANCH   6   7
ENDBRANCH   5   6
BRANCH   1  20
HETATM   20  N1  UNL     1      12.369   7.100   5.021  1.00  0.00    -0.303 N 
HETATM   21  C1  UNL     1      11.675   6.501   6.081  1.00  0.00     0.259 C 
HETATM   22  O1  UNL     1      12.368   6.073   7.065  1.00  0.00    -0.267 OA
ATOM     23  H1  UNL     1      13.196   6.649   4.627  1.00  0.00     0.171 HD
BRANCH  21  24
HETATM   24  C16 UNL     1      10.233   6.379   6.048  1.00  0.00     0.054 A 
HETATM   25  C17 UNL     1       9.504   5.595   5.206  1.00  0.00     0.019 A 
HETATM   26  C18 UNL     1       8.128   5.514   5.241  1.00  0.00     0.001 A 
HETATM   27  C19 UNL     1       7.460   6.269   6.181  1.00  0.00     0.002 A 
HETATM   28  C20 UNL     1       8.176   7.090   7.064  1.00  0.00     0.025 A 
HETATM   29  C21 UNL     1       9.550   7.145   6.999  1.00  0.00     0.049 A 
HETATM   30 CL1  UNL     1      10.426   8.187   8.115  1.00  0.00    -0.083 Cl
ENDBRANCH  21  24
ENDBRANCH   1  20
BRANCH   4  31
HETATM   31  O2  UNL     1      10.475   9.913   1.667  1.00  0.00    -0.346 OA
ATOM     32  H2  UNL     1      10.970   9.691   0.888  1.00  0.00     0.219 HD
ENDBRANCH   4  31
TORSDOF 7
ENDMDL
MODEL 2
REMARK VINA RESULT: -7.519503411      1.801      2.551
REMARK  7 active torsions:
REMARK  status: ('A' for Active; 'I' for Inactive)
REMARK       I    between atoms: C1_2  and  N1_3 
REMARK    1  A    between atoms: C1_2  and  C16_26 
REMARK    2  A    between atoms: N1_3  and  C2_5 
REMARK    3  A    between atoms: C4_8  and  O2_9 
REMARK    4  A    between atoms: N2_11  and  C5_12 
REMARK    5  A    between atoms: C5_12  and  C6_13 
REMARK    6  A    between atoms: C6_13  and  N3_14 
REMARK    7  A    between atoms: C9_17  and  C10_18 
ROOT
HETATM    1  C2  UNL     1      10.957   8.542   4.799  1.00  0.00     0.155 A 
HETATM    2  S1  UNL     1      11.781   7.877   6.125  1.00  0.00    -0.061 SA
HETATM    3  C3  UNL     1      13.228   7.434   5.353  1.00  0.00     0.109 A 
HETATM    4  C4  UNL     1      12.995   7.834   4.067  1.00  0.00     0.150 A 
HETATM    5  N2  UNL     1      11.852   8.391   3.789  1.00  0.00    -0.306 N 
ENDROOT
BRANCH   5   6
HETATM    6  C5  UNL     1      11.491   8.872   2.417  1.00  0.00     0.163 C 
BRANCH   6   7
HETATM    7  C6  UNL     1      11.096   7.703   1.581  1.00  0.00     0.292 C 
BRANCH   7   8
HETATM    8  N3  UNL     1      11.233   7.837   0.179  1.00  0.00     0.090 N 
HETATM    9  C7  UNL     1      10.117   7.256  -0.527  1.00  0.00     0.273 C 
HETATM   10  C8  UNL     1      10.592   6.030  -1.237  1.00  0.00     0.041 C 
HETATM   11  C9  UNL     1      11.907   5.742  -0.500  1.00  0.00     0.048 C 
HETATM   12  C15 UNL     1      12.418   7.149  -0.286  1.00  0.00     0.281 C 
BRANCH  11  13
HETATM   13  C10 UNL     1      12.795   4.901  -1.321  1.00  0.00    -0.050 A 
HETATM   14  C11 UNL     1      14.135   4.885  -0.982  1.00  0.00     0.024 A 
HETATM   15  C12 UNL     1      15.005   4.121  -1.708  1.00  0.00     0.088 A 
HETATM   16  N4  UNL     1      14.581   3.388  -2.740  1.00  0.00    -0.375 N 
HETATM   17  C13 UNL     1      13.269   3.389  -3.089  1.00  0.00     0.088 A 
ATOM     18  H4  UNL     1      15.247   2.825  -3.270  1.00  0.00     0.164 HD
HETATM   19  C14 UNL     1      12.371   4.144  -2.384  1.00  0.00     0.024 A 
ENDBRANCH  11  13
ENDBRANCH   7   8
ENDBRANCH   6   7
ENDBRANCH   5   6
BRANCH   1  20
HETATM   20  N1  UNL     1       9.761   9.068   4.657  1.00  0.00    -0.303 N 
HETATM   21  C1  UNL     1       8.699   8.257   4.235  1.00  0.00     0.259 C 
HETATM   22  O1  UNL     1       7.957   8.708   3.298  1.00  0.00    -0.267 OA
ATOM     23  H1  UNL     1       9.607  10.058   4.852  1.00  0.00     0.171 HD
BRANCH  21  24
HETATM   24  C16 UNL     1       8.464   6.965   4.844  1.00  0.00     0.054 A 
HETATM   25  C17 UNL     1       8.922   5.762   4.400  1.00  0.00     0.019 A 
HETATM   26  C18 UNL     1       8.675   4.568   5.042  1.00  0.00     0.001 A 
HETATM   27  C19 UNL     1       7.923   4.600   6.197  1.00  0.00     0.002 A 
HETATM   28  C20 UNL     1       7.431   5.819   6.686  1.00  0.00     0.025 A 
HETATM   29  C21 UNL     1       7.700   6.992   6.015  1.00  0.00     0.049 A 
HETATM   30 CL1  UNL     1       7.068   8.509   6.646  1.00  0.00    -0.083 Cl
ENDBRANCH  21  24
ENDBRANCH   1  20
BRANCH   4  31
HETATM   31  O2  UNL     1      14.027   7.616   3.093  1.00  0.00    -0.346 OA
ATOM     32  H2  UNL     1      13.920   6.898   2.481  1.00  0.00     0.219 HD
ENDBRANCH   4  31
TORSDOF 7
ENDMDL
MODEL 3
REMARK VINA RESULT: -7.444387768      1.812      2.898
REMARK  7 active torsions:
REMARK  status: ('A' for Active; 'I' for Inactive)
REMARK       I    between atoms: C1_2  and  N1_3 
REMARK    1  A    between atoms: C1_2  and  C16_26 
REMARK    2  A    between atoms: N1_3  and  C2_5 
REMARK    3  A    between atoms: C4_8  and  O2_9 
REMARK    4  A    between atoms: N2_11  and  C5_12 
REMARK    5  A    between atoms: C5_12  and  C6_13 
REMARK    6  A    between atoms: C6_13  and  N3_14 
REMARK    7  A    between atoms: C9_17  and  C10_18 
ROOT
HETATM    1  C2  UNL     1      11.739   8.262   6.077  1.00  0.00     0.155 A 
HETATM    2  S1  UNL     1      11.740   7.386   7.530  1.00  0.00    -0.061 SA
HETATM    3  C3  UNL     1      13.300   6.718   7.446  1.00  0.00     0.109 A 
HETATM    4  C4  UNL     1      13.758   7.221   6.260  1.00  0.00     0.150 A 
HETATM    5  N2  UNL     1      12.972   7.997   5.572  1.00  0.00    -0.306 N 
ENDROOT
BRANCH   5   6
HETATM    6  C5  UNL     1      13.370   8.609   4.264  1.00  0.00     0.163 C 
BRANCH   6   7
HETATM    7  C6  UNL     1      13.207   7.594   3.184  1.00  0.00     0.292 C 
BRANCH   7   8
HETATM    8  N3  UNL     1      13.334   8.047   1.850  1.00  0.00     0.090 N 
HETATM    9  C7  UNL     1      12.053   8.365   1.267  1.00  0.00     0.273 C 
HETATM   10  C8  UNL     1      11.742   7.345   0.221  1.00  0.00     0.041 C 
HETATM   11  C9  UNL     1      12.711   6.217   0.598  1.00  0.00     0.048 C 
HETATM   12  C15 UNL     1      13.921   7.020   1.016  1.00  0.00     0.281 C 
BRANCH  11  13
HETATM   13  C10 UNL     1      12.951   5.325  -0.550  1.00  0.00    -0.050 A 
HETATM   14  C11 UNL     1      11.860   5.006  -1.336  1.00  0.00     0.024 A 
HETATM   15  C12 UNL     1      12.024   4.184  -2.415  1.00  0.00     0.088 A 
HETATM   16  N4  UNL     1      13.222   3.683  -2.722  1.00  0.00    -0.375 N 
HETATM   17  C13 UNL     1      14.307   3.983  -1.963  1.00  0.00     0.088 A 
ATOM     18  H4  UNL     1      13.324   3.069  -3.532  1.00  0.00     0.164 HD
HETATM   19  C14 UNL     1      14.178   4.804  -0.876  1.00  0.00     0.024 A 
ENDBRANCH  11  13
ENDBRANCH   7   8
ENDBRANCH   6   7
ENDBRANCH   5   6
BRANCH   1  20
HETATM   20  N1  UNL     1      10.839   9.012   5.481  1.00  0.00    -0.303 N 
HETATM   21  C1  UNL     1       9.916   8.416   4.611  1.00  0.00     0.259 C 
HETATM   22  O1  UNL     1       9.736   8.977   3.478  1.00  0.00    -0.267 OA
ATOM     23  H1  UNL     1      10.813  10.018   5.649  1.00  0.00     0.171 HD
BRANCH  21  24
HETATM   24  C16 UNL     1       9.202   7.217   4.996  1.00  0.00     0.054 A 
HETATM   25  C17 UNL     1       9.531   5.936   4.668  1.00  0.00     0.019 A 
HETATM   26  C18 UNL     1       8.814   4.835   5.085  1.00  0.00     0.001 A 
HETATM   27  C19 UNL     1       7.705   5.049   5.876  1.00  0.00     0.002 A 
HETATM   28  C20 UNL     1       7.333   6.352   6.233  1.00  0.00     0.025 A 
HETATM   29  C21 UNL     1       8.076   7.428   5.797  1.00  0.00     0.049 A 
HETATM   30 CL1  UNL     1       7.586   9.056   6.255  1.00  0.00    -0.083 Cl
ENDBRANCH  21  24
ENDBRANCH   1  20
BRANCH   4  31
HETATM   31  O2  UNL     1      15.083   6.862   5.840  1.00  0.00    -0.346 OA
ATOM     32  H2  UNL     1      15.809   7.393   6.147  1.00  0.00     0.219 HD
ENDBRANCH   4  31
TORSDOF 7
ENDMDL
MODEL 4
REMARK VINA RESULT: -7.394803032      2.327      3.264
REMARK  7 active torsions:
REMARK  status: ('A' for Active; 'I' for Inactive)
REMARK       I    between atoms: C1_2  and  N1_3 
REMARK    1  A    between atoms: C1_2  and  C16_26 
REMARK    2  A    between atoms: N1_3  and  C2_5 
REMARK    3  A    between atoms: C4_8  and  O2_9 
REMARK    4  A    between atoms: N2_11  and  C5_12 
REMARK    5  A    between atoms: C5_12  and  C6_13 
REMARK    6  A    between atoms: C6_13  and  N3_14 
REMARK    7  A    between atoms: C9_17  and  C10_18 
ROOT
HETATM    1  C2  UNL     1      11.150   9.082   1.960  1.00  0.00     0.155 A 
HETATM    2  S1  UNL     1      11.523  10.369   3.001  1.00  0.00    -0.061 SA
HETATM    3  C3  UNL     1      12.840   9.680   3.825  1.00  0.00     0.109 A 
HETATM    4  C4  UNL     1      12.928   8.449   3.236  1.00  0.00     0.150 A 
HETATM    5  N2  UNL     1      12.077   8.149   2.299  1.00  0.00    -0.306 N 
ENDROOT
BRANCH   5   6
HETATM    6  C5  UNL     1      12.083   6.834   1.581  1.00  0.00     0.163 C 
BRANCH   6   7
HETATM    7  C6  UNL     1      13.230   6.807   0.629  1.00  0.00     0.292 C 
BRANCH   7   8
HETATM    8  N3  UNL     1      12.932   6.982  -0.744  1.00  0.00     0.090 N 
HETATM    9  C7  UNL     1      11.537   6.744  -1.025  1.00  0.00     0.273 C 
HETATM   10  C8  UNL     1      11.422   5.480  -1.813  1.00  0.00     0.041 C 
HETATM   11  C9  UNL     1      12.784   4.827  -1.543  1.00  0.00     0.048 C 
HETATM   12  C15 UNL     1      13.681   6.043  -1.551  1.00  0.00     0.281 C 
BRANCH  11  13
HETATM   13  C10 UNL     1      13.107   3.836  -2.583  1.00  0.00    -0.050 A 
HETATM   14  C11 UNL     1      12.142   3.597  -3.544  1.00  0.00     0.024 A 
HETATM   15  C12 UNL     1      12.388   2.689  -4.535  1.00  0.00     0.088 A 
HETATM   16  N4  UNL     1      13.545   2.026  -4.589  1.00  0.00    -0.375 N 
HETATM   17  C13 UNL     1      14.506   2.246  -3.656  1.00  0.00     0.088 A 
ATOM     18  H4  UNL     1      13.709   1.351  -5.337  1.00  0.00     0.164 HD
HETATM   19  C14 UNL     1      14.293   3.149  -2.650  1.00  0.00     0.024 A 
ENDBRANCH  11  13
ENDBRANCH   7   8
ENDBRANCH   6   7
ENDBRANCH   5   6
BRANCH   1  20
HETATM   20  N1  UNL     1      10.220   8.906   1.047  1.00  0.00    -0.303 N 
HETATM   21  C1  UNL     1       8.986   8.355   1.420  1.00  0.00     0.259 C 
HETATM   22  O1  UNL     1       8.525   7.412   0.693  1.00  0.00    -0.267 OA
ATOM     23  H1  UNL     1      10.395   9.167   0.077  1.00  0.00     0.171 HD
BRANCH  21  24
HETATM   24  C16 UNL     1       8.276   8.846   2.581  1.00  0.00     0.054 A 
HETATM   25  C17 UNL     1       7.582  10.015   2.675  1.00  0.00     0.019 A 
HETATM   26  C18 UNL     1       6.912  10.414   3.811  1.00  0.00     0.001 A 
HETATM   27  C19 UNL     1       6.948   9.580   4.908  1.00  0.00     0.002 A 
HETATM   28  C20 UNL     1       7.653   8.369   4.852  1.00  0.00     0.025 A 
HETATM   29  C21 UNL     1       8.311   8.005   3.698  1.00  0.00     0.049 A 
HETATM   30 CL1  UNL     1       9.194   6.482   3.653  1.00  0.00    -0.083 Cl
ENDBRANCH  21  24
ENDBRANCH   1  20
BRANCH   4  31
HETATM   31  O2  UNL     1      13.957   7.555   3.687  1.00  0.00    -0.346 OA
ATOM     32  H2  UNL     1      13.805   6.621   3.606  1.00  0.00     0.219 HD
ENDBRANCH   4  31
TORSDOF 7
ENDMDL
MODEL 5
REMARK VINA RESULT: -7.140402162      1.228      1.737
REMARK  7 active torsions:
REMARK  status: ('A' for Active; 'I' for Inactive)
REMARK       I    between atoms: C1_2  and  N1_3 
REMARK    1  A    between atoms: C1_2  and  C16_26 
REMARK    2  A    between atoms: N1_3  and  C2_5 
REMARK    3  A    between atoms: C4_8  and  O2_9 
REMARK    4  A    between atoms: N2_11  and  C5_12 
REMARK    5  A    between atoms: C5_12  and  C6_13 
REMARK    6  A    between atoms: C6_13  and  N3_14 
REMARK    7  A    between atoms: C9_17  and  C10_18 
ROOT
HETATM    1  C2  UNL     1      12.926   8.678   3.752  1.00  0.00     0.155 A 
HETATM    2  S1  UNL     1      12.910  10.342   4.081  1.00  0.00    -0.061 SA
HETATM    3  C3  UNL     1      11.803  10.844   2.893  1.00  0.00     0.109 A 
HETATM    4  C4  UNL     1      11.491   9.662   2.281  1.00  0.00     0.150 A 
HETATM    5  N2  UNL     1      12.057   8.573   2.714  1.00  0.00    -0.306 N 
ENDROOT
BRANCH   5   6
HETATM    6  C5  UNL     1      11.786   7.223   2.124  1.00  0.00     0.163 C 
BRANCH   6   7
HETATM    7  C6  UNL     1      12.802   6.941   1.070  1.00  0.00     0.292 C 
BRANCH   7   8
HETATM    8  N3  UNL     1      12.411   7.148  -0.274  1.00  0.00     0.090 N 
HETATM    9  C7  UNL     1      11.026   6.803  -0.489  1.00  0.00     0.273 C 
HETATM   10  C8  UNL     1      10.970   5.569  -1.328  1.00  0.00     0.041 C 
HETATM   11  C9  UNL     1      12.395   5.024  -1.164  1.00  0.00     0.048 C 
HETATM   12  C15 UNL     1      13.186   6.312  -1.165  1.00  0.00     0.281 C 
BRANCH  11  13
HETATM   13  C10 UNL     1      12.738   4.108  -2.266  1.00  0.00    -0.050 A 
HETATM   14  C11 UNL     1      13.978   3.500  -2.215  1.00  0.00     0.024 A 
HETATM   15  C12 UNL     1      14.348   2.640  -3.210  1.00  0.00     0.088 A 
HETATM   16  N4  UNL     1      13.531   2.379  -4.233  1.00  0.00    -0.375 N 
HETATM   17  C13 UNL     1      12.309   2.965  -4.302  1.00  0.00     0.088 A 
ATOM     18  H4  UNL     1      13.827   1.734  -4.967  1.00  0.00     0.164 HD
HETATM   19  C14 UNL     1      11.906   3.832  -3.322  1.00  0.00     0.024 A 
ENDBRANCH  11  13
ENDBRANCH   7   8
ENDBRANCH   6   7
ENDBRANCH   5   6
BRANCH   1  20
HETATM   20  N1  UNL     1      13.582   7.666   4.275  1.00  0.00    -0.303 N 
HETATM   21  C1  UNL     1      13.404   7.359   5.631  1.00  0.00     0.259 C 
HETATM   22  O1  UNL     1      14.456   7.156   6.326  1.00  0.00    -0.267 OA
ATOM     23  H1  UNL     1      14.214   7.109   3.700  1.00  0.00     0.171 HD
BRANCH  21  24
HETATM   24  C16 UNL     1      12.078   7.277   6.205  1.00  0.00     0.054 A 
HETATM   25  C17 UNL     1      11.099   6.394   5.865  1.00  0.00     0.019 A 
HETATM   26  C18 UNL     1       9.859   6.361   6.467  1.00  0.00     0.001 A 
HETATM   27  C19 UNL     1       9.604   7.273   7.468  1.00  0.00     0.002 A 
HETATM   28  C20 UNL     1      10.585   8.200   7.846  1.00  0.00     0.025 A 
HETATM   29  C21 UNL     1      11.812   8.202   7.220  1.00  0.00     0.049 A 
HETATM   30 CL1  UNL     1      13.027   9.379   7.709  1.00  0.00    -0.083 Cl
ENDBRANCH  21  24
ENDBRANCH   1  20
BRANCH   4  31
HETATM   31  O2  UNL     1      10.555   9.690   1.193  1.00  0.00    -0.346 OA
ATOM     32  H2  UNL     1      10.847   9.381   0.344  1.00  0.00     0.219 HD
ENDBRANCH   4  31
TORSDOF 7
ENDMDL
