MODEL 1
REMARK VINA RESULT: -7.937247303      0.000      0.000
REMARK  6 active torsions:
REMARK  status: ('A' for Active; 'I' for Inactive)
REMARK    1  A    between atoms: N1_1  and  C1_5 
REMARK    2  A    between atoms: C1_5  and  C2_6 
REMARK    3  A    between atoms: N2_10  and  C6_11 
REMARK    4  A    between atoms: C6_11  and  C7_12 
REMARK    5  A    between atoms: N4_21  and  C13_22 
REMARK    6  A    between atoms: C13_22  and  C14_23 
ROOT
HETATM    1  C2  UNL     1       9.304   6.806   4.675  1.00  0.00     0.015 C 
HETATM    2  C3  UNL     1      10.680   7.372   4.649  1.00  0.00     0.044 C 
HETATM    3  C4  UNL     1      11.101   7.979   3.337  1.00  0.00     0.252 C 
HETATM    4  C5  UNL     1      10.668   9.387   3.217  1.00  0.00     0.308 C 
HETATM    5  N2  UNL     1       9.387   9.606   2.671  1.00  0.00     0.097 N 
HETATM    6  C10 UNL     1       8.652   8.490   2.242  1.00  0.00     0.308 C 
HETATM    7  C11 UNL     1       9.281   7.159   2.196  1.00  0.00     0.252 C 
HETATM    8  C12 UNL     1       8.790   6.294   3.372  1.00  0.00     0.044 C 
HETATM    9  N4  UNL     1      10.735   7.121   2.214  1.00  0.00     0.105 N 
ENDROOT
BRANCH   9  10
HETATM   10  C13 UNL     1      11.227   7.712   1.013  1.00  0.00     0.314 C 
BRANCH  10  11
HETATM   11  C14 UNL     1      12.052   6.793   0.229  1.00  0.00    -0.008 A 
HETATM   12  C15 UNL     1      11.569   5.886  -0.654  1.00  0.00     0.020 A 
HETATM   13  C16 UNL     1      12.421   5.021  -1.328  1.00  0.00    -0.028 A 
HETATM   14  C17 UNL     1      13.786   5.045  -1.131  1.00  0.00    -0.046 A 
HETATM   15  C22 UNL     1      11.899   4.019  -2.303  1.00  0.00     0.206 C 
HETATM   16  C18 UNL     1      14.275   5.960  -0.239  1.00  0.00     0.032 A 
HETATM   17  C20 UNL     1      14.726   4.138  -1.831  1.00  0.00     0.065 C 
HETATM   18  C19 UNL     1      13.440   6.815   0.428  1.00  0.00     0.042 A 
HETATM   19 CL1  UNL     1      14.064   7.993   1.574  1.00  0.00    -0.084 Cl
HETATM   20  C21 UNL     1      13.928   3.150  -2.663  1.00  0.00     0.172 C 
HETATM   21  O1  UNL     1      12.877   3.844  -3.276  1.00  0.00    -0.386 OA
ENDBRANCH  10  11
ENDBRANCH   9  10
BRANCH   1  22
HETATM   22  C1  UNL     1       9.325   5.605   5.633  1.00  0.00     0.234 C 
BRANCH  22  23
HETATM   23  N1  UNL     1       8.663   4.493   4.972  1.00  0.00    -0.079 N 
ATOM     24  H13 UNL     1       7.762   4.752   4.571  1.00  0.00     0.274 HD
ATOM     25  H12 UNL     1       9.124   4.217   4.106  1.00  0.00     0.274 HD
ATOM     26  H11 UNL     1       8.591   3.727   5.642  1.00  0.00     0.274 HD
ENDBRANCH  22  23
ENDBRANCH   1  22
BRANCH   5  27
HETATM   27  C6  UNL     1       8.589  10.380   3.593  1.00  0.00     0.320 C 
BRANCH  27  28
HETATM   28  C7  UNL     1       8.388  11.791   3.132  1.00  0.00     0.027 A 
HETATM   29  C8  UNL     1       9.323  12.789   3.003  1.00  0.00     0.104 A 
HETATM   30  N3  UNL     1       8.913  13.947   2.584  1.00  0.00    -0.368 N 
HETATM   31  C9  UNL     1       7.633  14.127   2.301  1.00  0.00     0.138 A 
ATOM     32  H3  UNL     1       9.575  14.715   2.473  1.00  0.00     0.165 HD
HETATM   33  S1  UNL     1       6.964  12.593   2.637  1.00  0.00    -0.086 SA
ENDBRANCH  27  28
ENDBRANCH   5  27
TORSDOF 6
ENDMDL
MODEL 2
REMARK VINA RESULT: -7.624990922      3.083      3.652
REMARK  6 active torsions:
REMARK  status: ('A' for Active; 'I' for Inactive)
REMARK    1  A    between atoms: N1_1  and  C1_5 
REMARK    2  A    between atoms: C1_5  and  C2_6 
REMARK    3  A    between atoms: N2_10  and  C6_11 
REMARK    4  A    between atoms: C6_11  and  C7_12 
REMARK    5  A    between atoms: N4_21  and  C13_22 
REMARK    6  A    between atoms: C13_22  and  C14_23 
ROOT
HETATM    1  C2  UNL     1      12.468   7.560   5.975  1.00  0.00     0.015 C 
HETATM    2  C3  UNL     1      13.661   7.671   5.092  1.00  0.00     0.044 C 
HETATM    3  C4  UNL     1      13.396   8.230   3.719  1.00  0.00     0.252 C 
HETATM    4  C5  UNL     1      13.423   9.708   3.711  1.00  0.00     0.308 C 
HETATM    5  N2  UNL     1      12.204  10.360   3.987  1.00  0.00     0.097 N 
HETATM    6  C10 UNL     1      11.063   9.568   4.194  1.00  0.00     0.308 C 
HETATM    7  C11 UNL     1      11.111   8.117   3.946  1.00  0.00     0.252 C 
HETATM    8  C12 UNL     1      11.166   7.347   5.280  1.00  0.00     0.044 C 
HETATM    9  N4  UNL     1      12.206   7.630   3.124  1.00  0.00     0.105 N 
ENDROOT
BRANCH   9  10
HETATM   10  C13 UNL     1      12.054   8.142   1.801  1.00  0.00     0.314 C 
BRANCH  10  11
HETATM   11  C14 UNL     1      12.116   7.095   0.780  1.00  0.00    -0.008 A 
HETATM   12  C15 UNL     1      13.256   6.492   0.365  1.00  0.00     0.020 A 
HETATM   13  C16 UNL     1      13.231   5.535  -0.641  1.00  0.00    -0.028 A 
HETATM   14  C17 UNL     1      12.057   5.160  -1.259  1.00  0.00    -0.046 A 
HETATM   15  C22 UNL     1      14.481   4.864  -1.105  1.00  0.00     0.206 C 
HETATM   16  C18 UNL     1      10.906   5.768  -0.841  1.00  0.00     0.032 A 
HETATM   17  C20 UNL     1      11.992   4.143  -2.336  1.00  0.00     0.065 C 
HETATM   18  C19 UNL     1      10.923   6.712   0.150  1.00  0.00     0.042 A 
HETATM   19 CL1  UNL     1       9.446   7.497   0.691  1.00  0.00    -0.084 Cl
HETATM   20  C21 UNL     1      13.404   3.715  -2.694  1.00  0.00     0.172 C 
HETATM   21  O1  UNL     1      14.134   3.579  -1.505  1.00  0.00    -0.386 OA
ENDBRANCH  10  11
ENDBRANCH   9  10
BRANCH   1  22
HETATM   22  C1  UNL     1      12.683   6.332   6.874  1.00  0.00     0.234 C 
BRANCH  22  23
HETATM   23  N1  UNL     1      13.306   6.783   8.107  1.00  0.00    -0.079 N 
ATOM     24  H13 UNL     1      13.871   7.623   7.979  1.00  0.00     0.274 HD
ATOM     25  H12 UNL     1      12.635   7.170   8.770  1.00  0.00     0.274 HD
ATOM     26  H11 UNL     1      13.838   6.004   8.493  1.00  0.00     0.274 HD
ENDBRANCH  22  23
ENDBRANCH   1  22
BRANCH   5  27
HETATM   27  C6  UNL     1      12.373  11.259   5.105  1.00  0.00     0.320 C 
BRANCH  27  28
HETATM   28  C7  UNL     1      13.000  12.559   4.704  1.00  0.00     0.027 A 
HETATM   29  C8  UNL     1      12.467  13.563   3.933  1.00  0.00     0.104 A 
HETATM   30  N3  UNL     1      13.205  14.607   3.711  1.00  0.00    -0.368 N 
HETATM   31  C9  UNL     1      14.424  14.671   4.222  1.00  0.00     0.138 A 
ATOM     32  H3  UNL     1      12.846  15.376   3.145  1.00  0.00     0.165 HD
HETATM   33  S1  UNL     1      14.546  13.190   5.062  1.00  0.00    -0.086 SA
ENDBRANCH  27  28
ENDBRANCH   5  27
TORSDOF 6
ENDMDL
MODEL 3
REMARK VINA RESULT: -7.623153745      2.437      3.137
REMARK  6 active torsions:
REMARK  status: ('A' for Active; 'I' for Inactive)
REMARK    1  A    between atoms: N1_1  and  C1_5 
REMARK    2  A    between atoms: C1_5  and  C2_6 
REMARK    3  A    between atoms: N2_10  and  C6_11 
REMARK    4  A    between atoms: C6_11  and  C7_12 
REMARK    5  A    between atoms: N4_21  and  C13_22 
REMARK    6  A    between atoms: C13_22  and  C14_23 
ROOT
HETATM    1  C2  UNL     1      12.949   7.942   5.681  1.00  0.00     0.015 C 
HETATM    2  C3  UNL     1      13.789   8.596   4.640  1.00  0.00     0.044 C 
HETATM    3  C4  UNL     1      13.080   8.922   3.353  1.00  0.00     0.252 C 
HETATM    4  C5  UNL     1      12.389  10.227   3.419  1.00  0.00     0.308 C 
HETATM    5  N2  UNL     1      11.066  10.214   3.904  1.00  0.00     0.097 N 
HETATM    6  C10 UNL     1      10.496   8.974   4.234  1.00  0.00     0.308 C 
HETATM    7  C11 UNL     1      11.198   7.722   3.905  1.00  0.00     0.252 C 
HETATM    8  C12 UNL     1      11.821   7.109   5.173  1.00  0.00     0.044 C 
HETATM    9  N4  UNL     1      12.252   7.806   2.907  1.00  0.00     0.105 N 
ENDROOT
BRANCH   9  10
HETATM   10  C13 UNL     1      11.670   8.147   1.649  1.00  0.00     0.314 C 
BRANCH  10  11
HETATM   11  C14 UNL     1      11.847   7.099   0.643  1.00  0.00    -0.008 A 
HETATM   12  C15 UNL     1      13.035   6.533   0.322  1.00  0.00     0.020 A 
HETATM   13  C16 UNL     1      13.120   5.571  -0.677  1.00  0.00    -0.028 A 
HETATM   14  C17 UNL     1      12.011   5.154  -1.381  1.00  0.00    -0.046 A 
HETATM   15  C22 UNL     1      14.424   4.941  -1.038  1.00  0.00     0.206 C 
HETATM   16  C18 UNL     1      10.811   5.725  -1.058  1.00  0.00     0.032 A 
HETATM   17  C20 UNL     1      12.064   4.132  -2.453  1.00  0.00     0.065 C 
HETATM   18  C19 UNL     1      10.720   6.673  -0.075  1.00  0.00     0.042 A 
HETATM   19 CL1  UNL     1       9.180   7.411   0.344  1.00  0.00    -0.084 Cl
HETATM   20  C21 UNL     1      13.513   3.750  -2.698  1.00  0.00     0.172 C 
HETATM   21  O1  UNL     1      14.151   3.643  -1.455  1.00  0.00    -0.386 OA
ENDBRANCH  10  11
ENDBRANCH   9  10
BRANCH   1  22
HETATM   22  C1  UNL     1      13.864   6.995   6.472  1.00  0.00     0.234 C 
BRANCH  22  23
HETATM   23  N1  UNL     1      15.212   7.130   5.947  1.00  0.00    -0.079 N 
ATOM     24  H13 UNL     1      15.389   8.052   5.548  1.00  0.00     0.274 HD
ATOM     25  H12 UNL     1      15.920   7.161   6.680  1.00  0.00     0.274 HD
ATOM     26  H11 UNL     1      15.367   6.374   5.280  1.00  0.00     0.274 HD
ENDBRANCH  22  23
ENDBRANCH   1  22
BRANCH   5  27
HETATM   27  C6  UNL     1      10.950  11.110   5.031  1.00  0.00     0.320 C 
BRANCH  27  28
HETATM   28  C7  UNL     1      10.781  12.538   4.611  1.00  0.00     0.027 A 
HETATM   29  C8  UNL     1       9.904  13.061   3.692  1.00  0.00     0.104 A 
HETATM   30  N3  UNL     1       9.940  14.341   3.486  1.00  0.00    -0.368 N 
HETATM   31  C9  UNL     1      10.804  15.089   4.153  1.00  0.00     0.138 A 
ATOM     32  H3  UNL     1       9.305  14.769   2.813  1.00  0.00     0.165 HD
HETATM   33  S1  UNL     1      11.611  13.940   5.124  1.00  0.00    -0.086 SA
ENDBRANCH  27  28
ENDBRANCH   5  27
TORSDOF 6
ENDMDL
MODEL 4
REMARK VINA RESULT: -7.440551195      2.765      4.439
REMARK  6 active torsions:
REMARK  status: ('A' for Active; 'I' for Inactive)
REMARK    1  A    between atoms: N1_1  and  C1_5 
REMARK    2  A    between atoms: C1_5  and  C2_6 
REMARK    3  A    between atoms: N2_10  and  C6_11 
REMARK    4  A    between atoms: C6_11  and  C7_12 
REMARK    5  A    between atoms: N4_21  and  C13_22 
REMARK    6  A    between atoms: C13_22  and  C14_23 
ROOT
HETATM    1  C2  UNL     1      13.605   8.789   5.358  1.00  0.00     0.015 C 
HETATM    2  C3  UNL     1      13.295  10.001   4.553  1.00  0.00     0.044 C 
HETATM    3  C4  UNL     1      12.227   9.823   3.507  1.00  0.00     0.252 C 
HETATM    4  C5  UNL     1      10.871  10.016   4.065  1.00  0.00     0.308 C 
HETATM    5  N2  UNL     1      10.245   8.874   4.603  1.00  0.00     0.097 N 
HETATM    6  C10 UNL     1      10.925   7.648   4.523  1.00  0.00     0.308 C 
HETATM    7  C11 UNL     1      12.165   7.536   3.737  1.00  0.00     0.252 C 
HETATM    8  C12 UNL     1      13.389   7.482   4.672  1.00  0.00     0.044 C 
HETATM    9  N4  UNL     1      12.418   8.583   2.760  1.00  0.00     0.105 N 
ENDROOT
BRANCH   9  10
HETATM   10  C13 UNL     1      11.424   8.511   1.740  1.00  0.00     0.314 C 
BRANCH  10  11
HETATM   11  C14 UNL     1      11.658   7.413   0.800  1.00  0.00    -0.008 A 
HETATM   12  C15 UNL     1      12.879   6.916   0.487  1.00  0.00     0.020 A 
HETATM   13  C16 UNL     1      13.016   5.899  -0.448  1.00  0.00    -0.028 A 
HETATM   14  C17 UNL     1      11.927   5.354  -1.095  1.00  0.00    -0.046 A 
HETATM   15  C22 UNL     1      14.356   5.343  -0.800  1.00  0.00     0.206 C 
HETATM   16  C18 UNL     1      10.694   5.855  -0.780  1.00  0.00     0.032 A 
HETATM   17  C20 UNL     1      12.035   4.268  -2.099  1.00  0.00     0.065 C 
HETATM   18  C19 UNL     1      10.552   6.858   0.141  1.00  0.00     0.042 A 
HETATM   19 CL1  UNL     1       8.970   7.506   0.550  1.00  0.00    -0.084 Cl
HETATM   20  C21 UNL     1      13.504   3.979  -2.354  1.00  0.00     0.172 C 
HETATM   21  O1  UNL     1      14.174   4.004  -1.124  1.00  0.00    -0.386 OA
ENDBRANCH  10  11
ENDBRANCH   9  10
BRANCH   1  22
HETATM   22  C1  UNL     1      15.099   8.849   5.712  1.00  0.00     0.234 C 
BRANCH  22  23
HETATM   23  N1  UNL     1      15.565   7.488   5.919  1.00  0.00    -0.079 N 
ATOM     24  H13 UNL     1      15.032   6.993   6.634  1.00  0.00     0.274 HD
ATOM     25  H12 UNL     1      15.348   6.872   5.136  1.00  0.00     0.274 HD
ATOM     26  H11 UNL     1      16.563   7.526   6.126  1.00  0.00     0.274 HD
ENDBRANCH  22  23
ENDBRANCH   1  22
BRANCH   5  27
HETATM   27  C6  UNL     1       9.869   9.125   5.975  1.00  0.00     0.320 C 
BRANCH  27  28
HETATM   28  C7  UNL     1       8.891   8.114   6.494  1.00  0.00     0.027 A 
HETATM   29  C8  UNL     1       9.011   7.293   7.588  1.00  0.00     0.104 A 
HETATM   30  N3  UNL     1       8.028   6.486   7.846  1.00  0.00    -0.368 N 
HETATM   31  C9  UNL     1       6.963   6.478   7.061  1.00  0.00     0.138 A 
ATOM     32  H3  UNL     1       8.077   5.861   8.650  1.00  0.00     0.165 HD
HETATM   33  S1  UNL     1       7.355   7.665   5.899  1.00  0.00    -0.086 SA
ENDBRANCH  27  28
ENDBRANCH   5  27
TORSDOF 6
ENDMDL
MODEL 5
REMARK VINA RESULT: -7.432476350      3.158      4.513
REMARK  6 active torsions:
REMARK  status: ('A' for Active; 'I' for Inactive)
REMARK    1  A    between atoms: N1_1  and  C1_5 
REMARK    2  A    between atoms: C1_5  and  C2_6 
REMARK    3  A    between atoms: N2_10  and  C6_11 
REMARK    4  A    between atoms: C6_11  and  C7_12 
REMARK    5  A    between atoms: N4_21  and  C13_22 
REMARK    6  A    between atoms: C13_22  and  C14_23 
ROOT
HETATM    1  C2  UNL     1       9.437   7.627   5.065  1.00  0.00     0.015 C 
HETATM    2  C3  UNL     1      10.284   6.613   4.380  1.00  0.00     0.044 C 
HETATM    3  C4  UNL     1      11.121   7.134   3.243  1.00  0.00     0.252 C 
HETATM    4  C5  UNL     1      12.408   7.689   3.715  1.00  0.00     0.308 C 
HETATM    5  N2  UNL     1      12.411   9.052   4.072  1.00  0.00     0.097 N 
HETATM    6  C10 UNL     1      11.223   9.782   3.906  1.00  0.00     0.308 C 
HETATM    7  C11 UNL     1      10.073   9.181   3.208  1.00  0.00     0.252 C 
HETATM    8  C12 UNL     1       8.987   8.771   4.221  1.00  0.00     0.044 C 
HETATM    9  N4  UNL     1      10.346   8.019   2.378  1.00  0.00     0.105 N 
ENDROOT
BRANCH   9  10
HETATM   10  C13 UNL     1      11.170   8.417   1.283  1.00  0.00     0.314 C 
BRANCH  10  11
HETATM   11  C14 UNL     1      11.492   7.307   0.386  1.00  0.00    -0.008 A 
HETATM   12  C15 UNL     1      12.735   6.796   0.210  1.00  0.00     0.020 A 
HETATM   13  C16 UNL     1      12.961   5.766  -0.694  1.00  0.00    -0.028 A 
HETATM   14  C17 UNL     1      11.942   5.223  -1.447  1.00  0.00    -0.046 A 
HETATM   15  C22 UNL     1      14.326   5.195  -0.894  1.00  0.00     0.206 C 
HETATM   16  C18 UNL     1      10.687   5.739  -1.271  1.00  0.00     0.032 A 
HETATM   17  C20 UNL     1      12.146   4.125  -2.422  1.00  0.00     0.065 C 
HETATM   18  C19 UNL     1      10.458   6.754  -0.382  1.00  0.00     0.042 A 
HETATM   19 CL1  UNL     1       8.847   7.420  -0.151  1.00  0.00    -0.084 Cl
HETATM   20  C21 UNL     1      13.630   3.820  -2.516  1.00  0.00     0.172 C 
HETATM   21  O1  UNL     1      14.165   3.853  -1.221  1.00  0.00    -0.386 OA
ENDBRANCH  10  11
ENDBRANCH   9  10
BRANCH   1  22
HETATM   22  C1  UNL     1       8.162   6.911   5.535  1.00  0.00     0.234 C 
BRANCH  22  23
HETATM   23  N1  UNL     1       8.279   5.507   5.178  1.00  0.00    -0.079 N 
ATOM     24  H13 UNL     1       9.248   5.193   5.125  1.00  0.00     0.274 HD
ATOM     25  H12 UNL     1       7.974   4.882   5.925  1.00  0.00     0.274 HD
ATOM     26  H11 UNL     1       7.767   5.360   4.309  1.00  0.00     0.274 HD
ENDBRANCH  22  23
ENDBRANCH   1  22
BRANCH   5  27
HETATM   27  C6  UNL     1      12.878   9.200   5.431  1.00  0.00     0.320 C 
BRANCH  27  28
HETATM   28  C7  UNL     1      14.350   8.953   5.560  1.00  0.00     0.027 A 
HETATM   29  C8  UNL     1      14.990   7.907   6.179  1.00  0.00     0.104 A 
HETATM   30  N3  UNL     1      16.288   7.905   6.169  1.00  0.00    -0.368 N 
HETATM   31  C9  UNL     1      16.941   8.890   5.575  1.00  0.00     0.138 A 
ATOM     32  H3  UNL     1      16.802   7.146   6.616  1.00  0.00     0.165 HD
HETATM   33  S1  UNL     1      15.673   9.875   4.997  1.00  0.00    -0.086 SA
ENDBRANCH  27  28
ENDBRANCH   5  27
TORSDOF 6
ENDMDL
