MODEL 1
REMARK VINA RESULT: -9.858553163      0.000      0.000
REMARK  5 active torsions:
REMARK  status: ('A' for Active; 'I' for Inactive)
REMARK    1  A    between atoms: C4_5  and  C5_6 
REMARK    2  A    between atoms: C9_10  and  N1_11 
REMARK    3  A    between atoms: N2_14  and  C12_15 
REMARK    4  A    between atoms: C14_25  and  C15_26 
REMARK    5  A    between atoms: C15_26  and  C16_27 
ROOT
HETATM    1  N1  UNL     1      12.725   8.726   3.516  1.00  0.00    -0.359 N 
HETATM    2  C10 UNL     1      13.410   9.976   3.654  1.00  0.00     0.145 C 
HETATM    3  C11 UNL     1      14.194  10.084   4.935  1.00  0.00     0.161 C 
HETATM    4  N2  UNL     1      14.747   8.776   5.196  1.00  0.00    -0.212 N 
HETATM    5  C13 UNL     1      13.819   7.696   5.458  1.00  0.00     0.167 C 
HETATM    6  C14 UNL     1      12.627   7.720   4.567  1.00  0.00     0.108 C 
ENDROOT
BRANCH   1   7
HETATM    7  C9  UNL     1      12.092   8.435   2.272  1.00  0.00     0.104 A 
HETATM    8  C8  UNL     1      11.010   9.178   1.850  1.00  0.00     0.048 A 
HETATM    9  C7  UNL     1      10.392   8.912   0.658  1.00  0.00     0.006 A 
HETATM   10  C6  UNL     1      10.889   7.872  -0.117  1.00  0.00     0.030 A 
HETATM   11  C5  UNL     1      11.967   7.122   0.289  1.00  0.00     0.043 A 
HETATM   12  N7  UNL     1      12.516   7.445   1.472  1.00  0.00    -0.342 N 
ATOM     13  H7  UNL     1      13.316   6.897   1.786  1.00  0.00     0.167 HD
BRANCH  11  14
HETATM   14  C4  UNL     1      12.502   6.021  -0.520  1.00  0.00    -0.009 A 
HETATM   15  C3  UNL     1      11.656   5.268  -1.318  1.00  0.00     0.015 A 
HETATM   16  C2  UNL     1      12.124   4.237  -2.080  1.00  0.00     0.024 A 
HETATM   17  C1  UNL     1      13.466   3.887  -2.097  1.00  0.00     0.034 A 
HETATM   18 CL1  UNL     1      14.086   2.571  -3.064  1.00  0.00    -0.084 Cl
HETATM   19  C23 UNL     1      14.299   4.622  -1.315  1.00  0.00     0.024 A 
HETATM   20  C22 UNL     1      13.827   5.678  -0.534  1.00  0.00     0.015 A 
ENDBRANCH  11  14
ENDBRANCH   1   7
BRANCH   6  21
HETATM   21  C15 UNL     1      11.305   7.898   5.204  1.00  0.00     0.065 C 
BRANCH  21  22
HETATM   22  C16 UNL     1      10.296   6.851   4.967  1.00  0.00    -0.056 A 
HETATM   23  C17 UNL     1       9.648   6.705   3.748  1.00  0.00     0.007 A 
HETATM   24  C18 UNL     1       8.696   5.734   3.545  1.00  0.00     0.001 A 
HETATM   25  C19 UNL     1       8.342   4.864   4.544  1.00  0.00     0.000 A 
HETATM   26  C20 UNL     1       8.974   4.987   5.773  1.00  0.00     0.001 A 
HETATM   27  C21 UNL     1       9.927   5.969   5.955  1.00  0.00     0.007 A 
ENDBRANCH  21  22
ENDBRANCH   6  21
BRANCH   4  28
HETATM   28  C12 UNL     1      16.126   8.557   5.202  1.00  0.00     0.712 A 
HETATM   29  N3  UNL     1      17.002   9.023   4.304  1.00  0.00    -0.115 N 
HETATM   30  N4  UNL     1      18.200   8.619   4.628  1.00  0.00    -0.213 N 
ATOM     31  H3  UNL     1      16.771   9.601   3.496  1.00  0.00     0.207 HD
HETATM   32  N5  UNL     1      18.143   7.900   5.715  1.00  0.00    -0.213 N 
ATOM     33  H4  UNL     1      19.052   8.834   4.110  1.00  0.00     0.210 HD
HETATM   34  N6  UNL     1      16.877   7.849   6.084  1.00  0.00    -0.115 N 
ATOM     35  H5  UNL     1      18.929   7.458   6.190  1.00  0.00     0.210 HD
ATOM     36  H6  UNL     1      16.519   7.357   6.902  1.00  0.00     0.207 HD
ENDBRANCH   4  28
TORSDOF 5
ENDMDL
MODEL 2
REMARK VINA RESULT: -9.827420063      0.052      1.059
REMARK  5 active torsions:
REMARK  status: ('A' for Active; 'I' for Inactive)
REMARK    1  A    between atoms: C4_5  and  C5_6 
REMARK    2  A    between atoms: C9_10  and  N1_11 
REMARK    3  A    between atoms: N2_14  and  C12_15 
REMARK    4  A    between atoms: C14_25  and  C15_26 
REMARK    5  A    between atoms: C15_26  and  C16_27 
ROOT
HETATM    1  N1  UNL     1      12.757   8.738   3.520  1.00  0.00    -0.359 N 
HETATM    2  C10 UNL     1      13.450   9.984   3.643  1.00  0.00     0.145 C 
HETATM    3  C11 UNL     1      14.241  10.099   4.919  1.00  0.00     0.161 C 
HETATM    4  N2  UNL     1      14.786   8.790   5.191  1.00  0.00    -0.212 N 
HETATM    5  C13 UNL     1      13.852   7.719   5.468  1.00  0.00     0.167 C 
HETATM    6  C14 UNL     1      12.657   7.742   4.581  1.00  0.00     0.108 C 
ENDROOT
BRANCH   1   7
HETATM    7  C9  UNL     1      12.116   8.438   2.282  1.00  0.00     0.104 A 
HETATM    8  C8  UNL     1      11.026   9.173   1.866  1.00  0.00     0.048 A 
HETATM    9  C7  UNL     1      10.402   8.899   0.679  1.00  0.00     0.006 A 
HETATM   10  C6  UNL     1      10.899   7.859  -0.097  1.00  0.00     0.030 A 
HETATM   11  C5  UNL     1      11.985   7.118   0.304  1.00  0.00     0.043 A 
HETATM   12  N7  UNL     1      12.541   7.449   1.482  1.00  0.00    -0.342 N 
ATOM     13  H7  UNL     1      13.347   6.906   1.792  1.00  0.00     0.167 HD
BRANCH  11  14
HETATM   14  C4  UNL     1      12.521   6.018  -0.506  1.00  0.00    -0.009 A 
HETATM   15  C3  UNL     1      11.677   5.272  -1.313  1.00  0.00     0.015 A 
HETATM   16  C2  UNL     1      12.147   4.243  -2.076  1.00  0.00     0.024 A 
HETATM   17  C1  UNL     1      13.487   3.886  -2.084  1.00  0.00     0.034 A 
HETATM   18 CL1  UNL     1      14.109   2.571  -3.052  1.00  0.00    -0.084 Cl
HETATM   19  C23 UNL     1      14.318   4.614  -1.292  1.00  0.00     0.024 A 
HETATM   20  C22 UNL     1      13.845   5.669  -0.510  1.00  0.00     0.015 A 
ENDBRANCH  11  14
ENDBRANCH   1   7
BRANCH   6  21
HETATM   21  C15 UNL     1      11.339   7.935   5.222  1.00  0.00     0.065 C 
BRANCH  21  22
HETATM   22  C16 UNL     1      10.320   6.896   4.995  1.00  0.00    -0.056 A 
HETATM   23  C17 UNL     1       9.940   5.997   5.985  1.00  0.00     0.007 A 
HETATM   24  C18 UNL     1       9.000   5.021   5.754  1.00  0.00     0.001 A 
HETATM   25  C19 UNL     1       8.394   4.889   4.531  1.00  0.00     0.000 A 
HETATM   26  C20 UNL     1       8.755   5.773   3.524  1.00  0.00     0.001 A 
HETATM   27  C21 UNL     1       9.701   6.746   3.777  1.00  0.00     0.007 A 
ENDBRANCH  21  22
ENDBRANCH   6  21
BRANCH   4  28
HETATM   28  C12 UNL     1      16.164   8.563   5.193  1.00  0.00     0.712 A 
HETATM   29  N3  UNL     1      16.846   7.859   6.104  1.00  0.00    -0.115 N 
HETATM   30  N4  UNL     1      18.110   7.859   5.783  1.00  0.00    -0.213 N 
ATOM     31  H3  UNL     1      16.442   7.396   6.918  1.00  0.00     0.207 HD
HETATM   32  N5  UNL     1      18.286   8.543   4.686  1.00  0.00    -0.213 N 
ATOM     33  H4  UNL     1      18.850   7.395   6.311  1.00  0.00     0.210 HD
HETATM   34  N6  UNL     1      17.102   8.983   4.307  1.00  0.00    -0.115 N 
ATOM     35  H5  UNL     1      19.173   8.705   4.210  1.00  0.00     0.210 HD
ATOM     36  H6  UNL     1      16.920   9.550   3.479  1.00  0.00     0.207 HD
ENDBRANCH   4  28
TORSDOF 5
ENDMDL
MODEL 3
REMARK VINA RESULT: -9.812885591      0.857      1.134
REMARK  5 active torsions:
REMARK  status: ('A' for Active; 'I' for Inactive)
REMARK    1  A    between atoms: C4_5  and  C5_6 
REMARK    2  A    between atoms: C9_10  and  N1_11 
REMARK    3  A    between atoms: N2_14  and  C12_15 
REMARK    4  A    between atoms: C14_25  and  C15_26 
REMARK    5  A    between atoms: C15_26  and  C16_27 
ROOT
HETATM    1  N1  UNL     1      12.003   8.574   3.405  1.00  0.00    -0.359 N 
HETATM    2  C10 UNL     1      12.738   9.799   3.307  1.00  0.00     0.145 C 
HETATM    3  C11 UNL     1      13.515  10.125   4.556  1.00  0.00     0.161 C 
HETATM    4  N2  UNL     1      14.010   8.874   5.078  1.00  0.00    -0.212 N 
HETATM    5  C13 UNL     1      13.036   7.904   5.530  1.00  0.00     0.167 C 
HETATM    6  C14 UNL     1      11.854   7.798   4.631  1.00  0.00     0.108 C 
ENDROOT
BRANCH   1   7
HETATM    7  C9  UNL     1      11.369   8.069   2.232  1.00  0.00     0.104 A 
HETATM    8  C8  UNL     1      10.101   8.487   1.890  1.00  0.00     0.048 A 
HETATM    9  C7  UNL     1       9.480   8.014   0.767  1.00  0.00     0.006 A 
HETATM   10  C6  UNL     1      10.166   7.099  -0.023  1.00  0.00     0.030 A 
HETATM   11  C5  UNL     1      11.431   6.673   0.304  1.00  0.00     0.043 A 
HETATM   12  N7  UNL     1      11.971   7.184   1.423  1.00  0.00    -0.342 N 
ATOM     13  H7  UNL     1      12.909   6.876   1.678  1.00  0.00     0.167 HD
BRANCH  11  14
HETATM   14  C4  UNL     1      12.168   5.708  -0.521  1.00  0.00    -0.009 A 
HETATM   15  C3  UNL     1      11.517   5.011  -1.526  1.00  0.00     0.015 A 
HETATM   16  C2  UNL     1      12.175   4.107  -2.308  1.00  0.00     0.024 A 
HETATM   17  C1  UNL     1      13.525   3.836  -2.141  1.00  0.00     0.034 A 
HETATM   18 CL1  UNL     1      14.386   2.681  -3.130  1.00  0.00    -0.084 Cl
HETATM   19  C23 UNL     1      14.167   4.517  -1.156  1.00  0.00     0.024 A 
HETATM   20  C22 UNL     1      13.501   5.444  -0.353  1.00  0.00     0.015 A 
ENDBRANCH  11  14
ENDBRANCH   1   7
BRANCH   6  21
HETATM   21  C15 UNL     1      10.535   8.150   5.199  1.00  0.00     0.065 C 
BRANCH  21  22
HETATM   22  C16 UNL     1       9.596   7.044   5.457  1.00  0.00    -0.056 A 
HETATM   23  C17 UNL     1       8.783   7.006   6.582  1.00  0.00     0.007 A 
HETATM   24  C18 UNL     1       7.923   5.959   6.820  1.00  0.00     0.001 A 
HETATM   25  C19 UNL     1       7.832   4.902   5.952  1.00  0.00     0.000 A 
HETATM   26  C20 UNL     1       8.633   4.913   4.819  1.00  0.00     0.001 A 
HETATM   27  C21 UNL     1       9.489   5.974   4.600  1.00  0.00     0.007 A 
ENDBRANCH  21  22
ENDBRANCH   6  21
BRANCH   4  28
HETATM   28  C12 UNL     1      15.379   8.607   5.149  1.00  0.00     0.712 A 
HETATM   29  N3  UNL     1      16.333   9.172   4.402  1.00  0.00    -0.115 N 
HETATM   30  N4  UNL     1      17.492   8.680   4.745  1.00  0.00    -0.213 N 
ATOM     31  H3  UNL     1      16.179   9.876   3.679  1.00  0.00     0.207 HD
HETATM   32  N5  UNL     1      17.332   7.805   5.699  1.00  0.00    -0.213 N 
ATOM     33  H4  UNL     1      18.387   8.941   4.331  1.00  0.00     0.210 HD
HETATM   34  N6  UNL     1      16.041   7.745   5.962  1.00  0.00    -0.115 N 
ATOM     35  H5  UNL     1      18.069   7.267   6.156  1.00  0.00     0.210 HD
ATOM     36  H6  UNL     1      15.609   7.146   6.665  1.00  0.00     0.207 HD
ENDBRANCH   4  28
TORSDOF 5
ENDMDL
MODEL 4
REMARK VINA RESULT: -9.807755056      0.898      1.271
REMARK  5 active torsions:
REMARK  status: ('A' for Active; 'I' for Inactive)
REMARK    1  A    between atoms: C4_5  and  C5_6 
REMARK    2  A    between atoms: C9_10  and  N1_11 
REMARK    3  A    between atoms: N2_14  and  C12_15 
REMARK    4  A    between atoms: C14_25  and  C15_26 
REMARK    5  A    between atoms: C15_26  and  C16_27 
ROOT
HETATM    1  N1  UNL     1      11.911   8.540   3.409  1.00  0.00    -0.359 N 
HETATM    2  C10 UNL     1      12.633   9.773   3.330  1.00  0.00     0.145 C 
HETATM    3  C11 UNL     1      13.409  10.087   4.581  1.00  0.00     0.161 C 
HETATM    4  N2  UNL     1      13.918   8.832   5.082  1.00  0.00    -0.212 N 
HETATM    5  C13 UNL     1      12.954   7.845   5.521  1.00  0.00     0.167 C 
HETATM    6  C14 UNL     1      11.772   7.743   4.623  1.00  0.00     0.108 C 
ENDROOT
BRANCH   1   7
HETATM    7  C9  UNL     1      11.279   8.047   2.229  1.00  0.00     0.104 A 
HETATM    8  C8  UNL     1      10.015   8.473   1.886  1.00  0.00     0.048 A 
HETATM    9  C7  UNL     1       9.396   8.012   0.756  1.00  0.00     0.006 A 
HETATM   10  C6  UNL     1      10.081   7.101  -0.039  1.00  0.00     0.030 A 
HETATM   11  C5  UNL     1      11.343   6.667   0.290  1.00  0.00     0.043 A 
HETATM   12  N7  UNL     1      11.880   7.166   1.416  1.00  0.00    -0.342 N 
ATOM     13  H7  UNL     1      12.817   6.851   1.672  1.00  0.00     0.167 HD
BRANCH  11  14
HETATM   14  C4  UNL     1      12.079   5.706  -0.540  1.00  0.00    -0.009 A 
HETATM   15  C3  UNL     1      13.435   5.505  -0.338  1.00  0.00     0.015 A 
HETATM   16  C2  UNL     1      14.145   4.619  -1.095  1.00  0.00     0.024 A 
HETATM   17  C1  UNL     1      13.553   3.875  -2.105  1.00  0.00     0.034 A 
HETATM   18 CL1  UNL     1      14.444   2.738  -3.087  1.00  0.00    -0.084 Cl
HETATM   19  C23 UNL     1      12.224   4.070  -2.307  1.00  0.00     0.024 A 
HETATM   20  C22 UNL     1      11.491   4.974  -1.537  1.00  0.00     0.015 A 
ENDBRANCH  11  14
ENDBRANCH   1   7
BRANCH   6  21
HETATM   21  C15 UNL     1      10.450   8.072   5.198  1.00  0.00     0.065 C 
BRANCH  21  22
HETATM   22  C16 UNL     1       9.523   6.953   5.439  1.00  0.00    -0.056 A 
HETATM   23  C17 UNL     1       9.365   5.909   4.537  1.00  0.00     0.007 A 
HETATM   24  C18 UNL     1       8.483   4.879   4.766  1.00  0.00     0.001 A 
HETATM   25  C19 UNL     1       7.716   4.839   5.902  1.00  0.00     0.000 A 
HETATM   26  C20 UNL     1       7.853   5.870   6.821  1.00  0.00     0.001 A 
HETATM   27  C21 UNL     1       8.744   6.893   6.570  1.00  0.00     0.007 A 
ENDBRANCH  21  22
ENDBRANCH   6  21
BRANCH   4  28
HETATM   28  C12 UNL     1      15.289   8.578   5.147  1.00  0.00     0.712 A 
HETATM   29  N3  UNL     1      16.232   9.132   4.377  1.00  0.00    -0.115 N 
HETATM   30  N4  UNL     1      17.398   8.658   4.720  1.00  0.00    -0.213 N 
ATOM     31  H3  UNL     1      16.065   9.817   3.639  1.00  0.00     0.207 HD
HETATM   32  N5  UNL     1      17.255   7.805   5.697  1.00  0.00    -0.213 N 
ATOM     33  H4  UNL     1      18.287   8.915   4.291  1.00  0.00     0.210 HD
HETATM   34  N6  UNL     1      15.966   7.741   5.974  1.00  0.00    -0.115 N 
ATOM     35  H5  UNL     1      18.000   7.285   6.159  1.00  0.00     0.210 HD
ATOM     36  H6  UNL     1      15.546   7.156   6.696  1.00  0.00     0.207 HD
ENDBRANCH   4  28
TORSDOF 5
ENDMDL
MODEL 5
REMARK VINA RESULT: -9.290138718      2.225      3.368
REMARK  5 active torsions:
REMARK  status: ('A' for Active; 'I' for Inactive)
REMARK    1  A    between atoms: C4_5  and  C5_6 
REMARK    2  A    between atoms: C9_10  and  N1_11 
REMARK    3  A    between atoms: N2_14  and  C12_15 
REMARK    4  A    between atoms: C14_25  and  C15_26 
REMARK    5  A    between atoms: C15_26  and  C16_27 
ROOT
HETATM    1  N1  UNL     1      13.295   8.222   3.307  1.00  0.00    -0.359 N 
HETATM    2  C10 UNL     1      14.064   9.427   3.241  1.00  0.00     0.145 C 
HETATM    3  C11 UNL     1      14.497   9.928   4.594  1.00  0.00     0.161 C 
HETATM    4  N2  UNL     1      14.803   8.764   5.391  1.00  0.00    -0.212 N 
HETATM    5  C13 UNL     1      13.717   7.858   5.698  1.00  0.00     0.167 C 
HETATM    6  C14 UNL     1      12.808   7.621   4.543  1.00  0.00     0.108 C 
ENDROOT
BRANCH   1   7
HETATM    7  C9  UNL     1      12.975   7.555   2.087  1.00  0.00     0.104 A 
HETATM    8  C8  UNL     1      13.907   6.749   1.469  1.00  0.00     0.048 A 
HETATM    9  C7  UNL     1      13.616   6.101   0.299  1.00  0.00     0.006 A 
HETATM   10  C6  UNL     1      12.350   6.277  -0.247  1.00  0.00     0.030 A 
HETATM   11  C5  UNL     1      11.411   7.076   0.357  1.00  0.00     0.043 A 
HETATM   12  N7  UNL     1      11.775   7.679   1.502  1.00  0.00    -0.342 N 
ATOM     13  H7  UNL     1      11.087   8.276   1.961  1.00  0.00     0.167 HD
BRANCH  11  14
HETATM   14  C4  UNL     1      10.070   7.270  -0.209  1.00  0.00    -0.009 A 
HETATM   15  C3  UNL     1       9.047   7.771   0.580  1.00  0.00     0.015 A 
HETATM   16  C2  UNL     1       7.790   7.960   0.082  1.00  0.00     0.024 A 
HETATM   17  C1  UNL     1       7.469   7.663  -1.234  1.00  0.00     0.034 A 
HETATM   18 CL1  UNL     1       5.867   7.896  -1.891  1.00  0.00    -0.084 Cl
HETATM   19  C23 UNL     1       8.470   7.171  -2.011  1.00  0.00     0.024 A 
HETATM   20  C22 UNL     1       9.757   6.975  -1.508  1.00  0.00     0.015 A 
ENDBRANCH  11  14
ENDBRANCH   1   7
BRANCH   6  21
HETATM   21  C15 UNL     1      11.397   8.036   4.691  1.00  0.00     0.065 C 
BRANCH  21  22
HETATM   22  C16 UNL     1      10.386   6.969   4.780  1.00  0.00    -0.056 A 
HETATM   23  C17 UNL     1      10.176   6.238   5.943  1.00  0.00     0.007 A 
HETATM   24  C18 UNL     1       9.240   5.232   6.007  1.00  0.00     0.001 A 
HETATM   25  C19 UNL     1       8.471   4.904   4.921  1.00  0.00     0.000 A 
HETATM   26  C20 UNL     1       8.660   5.618   3.746  1.00  0.00     0.001 A 
HETATM   27  C21 UNL     1       9.605   6.624   3.704  1.00  0.00     0.007 A 
ENDBRANCH  21  22
ENDBRANCH   6  21
BRANCH   4  28
HETATM   28  C12 UNL     1      16.097   8.521   5.855  1.00  0.00     0.712 A 
HETATM   29  N3  UNL     1      16.486   8.508   7.135  1.00  0.00    -0.115 N 
HETATM   30  N4  UNL     1      17.763   8.246   7.189  1.00  0.00    -0.213 N 
ATOM     31  H3  UNL     1      15.882   8.675   7.939  1.00  0.00     0.207 HD
HETATM   32  N5  UNL     1      18.231   8.085   5.982  1.00  0.00    -0.213 N 
ATOM     33  H4  UNL     1      18.313   8.177   8.046  1.00  0.00     0.210 HD
HETATM   34  N6  UNL     1      17.223   8.250   5.148  1.00  0.00    -0.115 N 
ATOM     35  H5  UNL     1      19.196   7.872   5.731  1.00  0.00     0.210 HD
ATOM     36  H6  UNL     1      17.280   8.184   4.131  1.00  0.00     0.207 HD
ENDBRANCH   4  28
TORSDOF 5
ENDMDL
