MODEL 1
REMARK VINA RESULT: -8.065179460      0.000      0.000
REMARK  6 active torsions:
REMARK  status: ('A' for Active; 'I' for Inactive)
REMARK    1  A    between atoms: N3_7  and  C3_8 
REMARK    2  A    between atoms: C3_8  and  C4_9 
REMARK    3  A    between atoms: C7_12  and  C8_13 
REMARK    4  A    between atoms: C8_13  and  O2_14 
REMARK    5  A    between atoms: C8_13  and  C9_16 
REMARK    6  A    between atoms: C17_27  and  C18_28 
ROOT
HETATM    1  C1  UNL     1     -11.459  12.242  -5.793  1.00  0.00     0.163 C 
HETATM    2  N1  UNL     1     -10.551  12.040  -4.684  1.00  0.00    -0.287 N 
HETATM    3  C2  UNL     1      -9.324  11.368  -4.970  1.00  0.00     0.343 A 
HETATM    4  O1  UNL     1      -9.058  10.990  -6.150  1.00  0.00    -0.245 OA
HETATM    5  N2  UNL     1      -8.431  11.148  -3.889  1.00  0.00    -0.234 N 
ATOM      6  H2  UNL     1      -7.549  10.670  -4.074  1.00  0.00     0.193 HD
HETATM    7  N3  UNL     1      -8.710  11.561  -2.569  1.00  0.00    -0.228 N 
HETATM    8  N4  UNL     1      -9.925  12.206  -2.386  1.00  0.00    -0.268 N 
ATOM      9  H4  UNL     1     -10.164  12.521  -1.446  1.00  0.00     0.190 HD
HETATM   10  C17 UNL     1     -10.785  12.435  -3.350  1.00  0.00     0.137 A 
ENDROOT
BRANCH   7  11
HETATM   11  C3  UNL     1      -7.768  11.282  -1.524  1.00  0.00     0.174 C 
BRANCH  11  12
HETATM   12  C4  UNL     1      -8.266  11.400  -0.131  1.00  0.00     0.007 C 
HETATM   13  C5  UNL     1      -7.270  11.614   0.937  1.00  0.00     0.007 C 
HETATM   14  C6  UNL     1      -6.773  10.435   1.651  1.00  0.00     0.008 C 
HETATM   15  C7  UNL     1      -7.652   9.237   1.776  1.00  0.00     0.019 C 
HETATM   16  C15 UNL     1      -8.373   9.037   0.459  1.00  0.00     0.008 C 
HETATM   17  C16 UNL     1      -9.204  10.245   0.134  1.00  0.00     0.007 C 
BRANCH  15  18
HETATM   18  C8  UNL     1      -8.569   9.311   2.956  1.00  0.00     0.157 C 
BRANCH  18  19
HETATM   19  O2  UNL     1      -7.810   9.970   3.973  1.00  0.00    -0.390 OA
ATOM     20  H2  UNL     1      -7.504  10.774   3.569  1.00  0.00     0.210 HD
ENDBRANCH  18  19
BRANCH  18  21
HETATM   21  C9  UNL     1      -8.929   8.020   3.565  1.00  0.00    -0.008 A 
HETATM   22  C10 UNL     1      -8.152   7.246   4.367  1.00  0.00     0.011 A 
HETATM   23  C11 UNL     1      -8.577   6.045   4.913  1.00  0.00     0.001 A 
HETATM   24  C12 UNL     1      -9.845   5.581   4.650  1.00  0.00     0.002 A 
HETATM   25  C13 UNL     1     -10.661   6.356   3.832  1.00  0.00     0.024 A 
HETATM   26  C14 UNL     1     -10.218   7.548   3.299  1.00  0.00     0.042 A 
HETATM   27 CL1  UNL     1     -11.305   8.455   2.285  1.00  0.00    -0.084 Cl
ENDBRANCH  18  21
ENDBRANCH  15  18
ENDBRANCH  11  12
ENDBRANCH   7  11
BRANCH  10  28
HETATM   28  C18 UNL     1     -12.022  13.106  -3.001  1.00  0.00     0.012 A 
HETATM   29  C19 UNL     1     -13.227  12.446  -2.951  1.00  0.00     0.032 A 
HETATM   30  C20 UNL     1     -14.400  13.125  -2.600  1.00  0.00     0.088 A 
HETATM   31  N5  UNL     1     -14.350  14.434  -2.309  1.00  0.00    -0.375 N 
HETATM   32  C21 UNL     1     -13.203  15.131  -2.339  1.00  0.00     0.088 A 
ATOM     33  H5  UNL     1     -15.212  14.915  -2.055  1.00  0.00     0.164 HD
HETATM   34  C22 UNL     1     -12.062  14.458  -2.684  1.00  0.00     0.032 A 
ENDBRANCH  10  28
TORSDOF 6
ENDMDL
MODEL 2
REMARK VINA RESULT: -7.785309849      1.512      1.698
REMARK  6 active torsions:
REMARK  status: ('A' for Active; 'I' for Inactive)
REMARK    1  A    between atoms: N3_7  and  C3_8 
REMARK    2  A    between atoms: C3_8  and  C4_9 
REMARK    3  A    between atoms: C7_12  and  C8_13 
REMARK    4  A    between atoms: C8_13  and  O2_14 
REMARK    5  A    between atoms: C8_13  and  C9_16 
REMARK    6  A    between atoms: C17_27  and  C18_28 
ROOT
HETATM    1  C1  UNL     1     -10.295  14.564  -4.805  1.00  0.00     0.163 C 
HETATM    2  N1  UNL     1      -9.703  13.667  -3.835  1.00  0.00    -0.287 N 
HETATM    3  C2  UNL     1      -8.321  13.864  -3.534  1.00  0.00     0.343 A 
HETATM    4  O1  UNL     1      -7.669  14.797  -4.090  1.00  0.00    -0.245 OA
HETATM    5  N2  UNL     1      -7.723  12.981  -2.596  1.00  0.00    -0.234 N 
ATOM      6  H2  UNL     1      -6.737  13.106  -2.368  1.00  0.00     0.193 HD
HETATM    7  N3  UNL     1      -8.434  11.937  -1.966  1.00  0.00    -0.228 N 
HETATM    8  N4  UNL     1      -9.771  11.823  -2.321  1.00  0.00    -0.268 N 
ATOM      9  H4  UNL     1     -10.320  11.081  -1.886  1.00  0.00     0.190 HD
HETATM   10  C17 UNL     1     -10.371  12.611  -3.180  1.00  0.00     0.137 A 
ENDROOT
BRANCH   7  11
HETATM   11  C3  UNL     1      -7.755  11.071  -1.047  1.00  0.00     0.174 C 
BRANCH  11  12
HETATM   12  C4  UNL     1      -8.188  11.136   0.371  1.00  0.00     0.007 C 
HETATM   13  C5  UNL     1      -7.144  11.039   1.411  1.00  0.00     0.007 C 
HETATM   14  C6  UNL     1      -6.873   9.718   1.983  1.00  0.00     0.008 C 
HETATM   15  C7  UNL     1      -7.968   8.707   2.027  1.00  0.00     0.019 C 
HETATM   16  C15 UNL     1      -8.745   8.789   0.729  1.00  0.00     0.008 C 
HETATM   17  C16 UNL     1      -9.329  10.163   0.561  1.00  0.00     0.007 C 
BRANCH  15  18
HETATM   18  C8  UNL     1      -8.825   8.832   3.247  1.00  0.00     0.157 C 
BRANCH  18  19
HETATM   19  O2  UNL     1      -7.988   9.457   4.224  1.00  0.00    -0.390 OA
ATOM     20  H2  UNL     1      -7.417   8.765   4.537  1.00  0.00     0.210 HD
ENDBRANCH  18  19
BRANCH  18  21
HETATM   21  C9  UNL     1      -9.221   7.563   3.881  1.00  0.00    -0.008 A 
HETATM   22  C10 UNL     1      -8.502   6.834   4.774  1.00  0.00     0.011 A 
HETATM   23  C11 UNL     1      -8.958   5.651   5.337  1.00  0.00     0.001 A 
HETATM   24  C12 UNL     1     -10.199   5.163   4.996  1.00  0.00     0.002 A 
HETATM   25  C13 UNL     1     -10.954   5.892   4.085  1.00  0.00     0.024 A 
HETATM   26  C14 UNL     1     -10.481   7.066   3.537  1.00  0.00     0.042 A 
HETATM   27 CL1  UNL     1     -11.494   7.917   2.403  1.00  0.00    -0.084 Cl
ENDBRANCH  18  21
ENDBRANCH  15  18
ENDBRANCH  11  12
ENDBRANCH   7  11
BRANCH  10  28
HETATM   28  C18 UNL     1     -11.770  12.356  -3.461  1.00  0.00     0.012 A 
HETATM   29  C19 UNL     1     -12.176  11.418  -4.380  1.00  0.00     0.032 A 
HETATM   30  C20 UNL     1     -13.537  11.192  -4.618  1.00  0.00     0.088 A 
HETATM   31  N5  UNL     1     -14.457  11.897  -3.943  1.00  0.00    -0.375 N 
HETATM   32  C21 UNL     1     -14.122  12.825  -3.033  1.00  0.00     0.088 A 
ATOM     33  H5  UNL     1     -15.445  11.722  -4.127  1.00  0.00     0.164 HD
HETATM   34  C22 UNL     1     -12.789  13.039  -2.808  1.00  0.00     0.032 A 
ENDBRANCH  10  28
TORSDOF 6
ENDMDL
MODEL 3
REMARK VINA RESULT: -7.772171118      1.198      1.524
REMARK  6 active torsions:
REMARK  status: ('A' for Active; 'I' for Inactive)
REMARK    1  A    between atoms: N3_7  and  C3_8 
REMARK    2  A    between atoms: C3_8  and  C4_9 
REMARK    3  A    between atoms: C7_12  and  C8_13 
REMARK    4  A    between atoms: C8_13  and  O2_14 
REMARK    5  A    between atoms: C8_13  and  C9_16 
REMARK    6  A    between atoms: C17_27  and  C18_28 
ROOT
HETATM    1  C1  UNL     1     -10.657  11.664  -4.972  1.00  0.00     0.163 C 
HETATM    2  N1  UNL     1      -9.700  11.758  -3.890  1.00  0.00    -0.287 N 
HETATM    3  C2  UNL     1      -8.551  10.916  -3.970  1.00  0.00     0.343 A 
HETATM    4  O1  UNL     1      -8.390  10.141  -4.960  1.00  0.00    -0.245 OA
HETATM    5  N2  UNL     1      -7.612  10.985  -2.908  1.00  0.00    -0.234 N 
ATOM      6  H2  UNL     1      -6.784  10.391  -2.948  1.00  0.00     0.193 HD
HETATM    7  N3  UNL     1      -7.774  11.841  -1.798  1.00  0.00    -0.228 N 
HETATM    8  N4  UNL     1      -8.920  12.624  -1.806  1.00  0.00    -0.268 N 
ATOM      9  H4  UNL     1      -9.073  13.257  -1.022  1.00  0.00     0.190 HD
HETATM   10  C17 UNL     1      -9.818  12.598  -2.762  1.00  0.00     0.137 A 
ENDROOT
BRANCH   7  11
HETATM   11  C3  UNL     1      -6.793  11.840  -0.751  1.00  0.00     0.174 C 
BRANCH  11  12
HETATM   12  C4  UNL     1      -7.305  11.752   0.639  1.00  0.00     0.007 C 
HETATM   13  C5  UNL     1      -6.331  11.902   1.738  1.00  0.00     0.007 C 
HETATM   14  C6  UNL     1      -5.755  10.682   2.310  1.00  0.00     0.008 C 
HETATM   15  C7  UNL     1      -6.548   9.420   2.276  1.00  0.00     0.019 C 
HETATM   16  C15 UNL     1      -7.247   9.332   0.935  1.00  0.00     0.008 C 
HETATM   17  C16 UNL     1      -8.160  10.510   0.748  1.00  0.00     0.007 C 
BRANCH  15  18
HETATM   18  C8  UNL     1      -7.473   9.284   3.444  1.00  0.00     0.157 C 
BRANCH  18  19
HETATM   19  O2  UNL     1      -6.617   9.097   4.574  1.00  0.00    -0.390 OA
ATOM     20  H2  UNL     1      -6.129   9.909   4.650  1.00  0.00     0.210 HD
ENDBRANCH  18  19
BRANCH  18  21
HETATM   21  C9  UNL     1      -8.327   8.085   3.445  1.00  0.00    -0.008 A 
HETATM   22  C10 UNL     1      -7.941   6.803   3.678  1.00  0.00     0.011 A 
HETATM   23  C11 UNL     1      -8.817   5.729   3.675  1.00  0.00     0.001 A 
HETATM   24  C12 UNL     1     -10.155   5.935   3.427  1.00  0.00     0.002 A 
HETATM   25  C13 UNL     1     -10.576   7.238   3.186  1.00  0.00     0.024 A 
HETATM   26  C14 UNL     1      -9.686   8.293   3.194  1.00  0.00     0.042 A 
HETATM   27 CL1  UNL     1     -10.299   9.893   2.883  1.00  0.00    -0.084 Cl
ENDBRANCH  18  21
ENDBRANCH  15  18
ENDBRANCH  11  12
ENDBRANCH   7  11
BRANCH  10  28
HETATM   28  C18 UNL     1     -10.973  13.463  -2.622  1.00  0.00     0.012 A 
HETATM   29  C19 UNL     1     -10.857  14.802  -2.332  1.00  0.00     0.032 A 
HETATM   30  C20 UNL     1     -11.995  15.609  -2.214  1.00  0.00     0.088 A 
HETATM   31  N5  UNL     1     -13.213  15.072  -2.383  1.00  0.00    -0.375 N 
HETATM   32  C21 UNL     1     -13.388  13.772  -2.668  1.00  0.00     0.088 A 
ATOM     33  H5  UNL     1     -14.032  15.672  -2.294  1.00  0.00     0.164 HD
HETATM   34  C22 UNL     1     -12.270  12.991  -2.782  1.00  0.00     0.032 A 
ENDBRANCH  10  28
TORSDOF 6
ENDMDL
MODEL 4
REMARK VINA RESULT: -7.714558624      1.722      2.128
REMARK  6 active torsions:
REMARK  status: ('A' for Active; 'I' for Inactive)
REMARK    1  A    between atoms: N3_7  and  C3_8 
REMARK    2  A    between atoms: C3_8  and  C4_9 
REMARK    3  A    between atoms: C7_12  and  C8_13 
REMARK    4  A    between atoms: C8_13  and  O2_14 
REMARK    5  A    between atoms: C8_13  and  C9_16 
REMARK    6  A    between atoms: C17_27  and  C18_28 
ROOT
HETATM    1  C1  UNL     1      -9.895  11.364  -4.646  1.00  0.00     0.163 C 
HETATM    2  N1  UNL     1      -8.945  11.498  -3.561  1.00  0.00    -0.287 N 
HETATM    3  C2  UNL     1      -8.044  10.410  -3.356  1.00  0.00     0.343 A 
HETATM    4  O1  UNL     1      -8.081   9.393  -4.111  1.00  0.00    -0.245 OA
HETATM    5  N2  UNL     1      -7.118  10.520  -2.285  1.00  0.00    -0.234 N 
ATOM      6  H2  UNL     1      -6.466   9.753  -2.123  1.00  0.00     0.193 HD
HETATM    7  N3  UNL     1      -7.062  11.645  -1.434  1.00  0.00    -0.228 N 
HETATM    8  N4  UNL     1      -7.975  12.652  -1.711  1.00  0.00    -0.268 N 
ATOM      9  H4  UNL     1      -7.966  13.483  -1.119  1.00  0.00     0.190 HD
HETATM   10  C17 UNL     1      -8.851  12.601  -2.687  1.00  0.00     0.137 A 
ENDROOT
BRANCH   7  11
HETATM   11  C3  UNL     1      -6.114  11.674  -0.359  1.00  0.00     0.174 C 
BRANCH  11  12
HETATM   12  C4  UNL     1      -6.666  11.588   1.016  1.00  0.00     0.007 C 
HETATM   13  C5  UNL     1      -5.708  11.573   2.139  1.00  0.00     0.007 C 
HETATM   14  C6  UNL     1      -5.294  10.270   2.665  1.00  0.00     0.008 C 
HETATM   15  C7  UNL     1      -6.230   9.113   2.558  1.00  0.00     0.019 C 
HETATM   16  C15 UNL     1      -6.902   9.168   1.202  1.00  0.00     0.008 C 
HETATM   17  C16 UNL     1      -7.664  10.454   1.053  1.00  0.00     0.007 C 
BRANCH  15  18
HETATM   18  C8  UNL     1      -7.193   9.039   3.702  1.00  0.00     0.157 C 
BRANCH  18  19
HETATM   19  O2  UNL     1      -6.394   8.687   4.835  1.00  0.00    -0.390 OA
ATOM     20  H2  UNL     1      -5.872   9.461   5.017  1.00  0.00     0.210 HD
ENDBRANCH  18  19
BRANCH  18  21
HETATM   21  C9  UNL     1      -8.191   7.959   3.624  1.00  0.00    -0.008 A 
HETATM   22  C10 UNL     1      -7.966   6.624   3.739  1.00  0.00     0.011 A 
HETATM   23  C11 UNL     1      -8.971   5.672   3.668  1.00  0.00     0.001 A 
HETATM   24  C12 UNL     1     -10.276   6.063   3.475  1.00  0.00     0.002 A 
HETATM   25  C13 UNL     1     -10.532   7.424   3.356  1.00  0.00     0.024 A 
HETATM   26  C14 UNL     1      -9.517   8.355   3.429  1.00  0.00     0.042 A 
HETATM   27 CL1  UNL     1      -9.928  10.041   3.271  1.00  0.00    -0.084 Cl
ENDBRANCH  18  21
ENDBRANCH  15  18
ENDBRANCH  11  12
ENDBRANCH   7  11
BRANCH  10  28
HETATM   28  C18 UNL     1      -9.752  13.725  -2.840  1.00  0.00     0.012 A 
HETATM   29  C19 UNL     1     -11.000  13.751  -2.263  1.00  0.00     0.032 A 
HETATM   30  C20 UNL     1     -11.840  14.859  -2.424  1.00  0.00     0.088 A 
HETATM   31  N5  UNL     1     -11.426  15.909  -3.150  1.00  0.00    -0.375 N 
HETATM   32  C21 UNL     1     -10.218  15.942  -3.737  1.00  0.00     0.088 A 
ATOM     33  H5  UNL     1     -12.049  16.709  -3.259  1.00  0.00     0.164 HD
HETATM   34  C22 UNL     1      -9.405  14.854  -3.573  1.00  0.00     0.032 A 
ENDBRANCH  10  28
TORSDOF 6
ENDMDL
MODEL 5
REMARK VINA RESULT: -7.677665642      1.985      2.746
REMARK  6 active torsions:
REMARK  status: ('A' for Active; 'I' for Inactive)
REMARK    1  A    between atoms: N3_7  and  C3_8 
REMARK    2  A    between atoms: C3_8  and  C4_9 
REMARK    3  A    between atoms: C7_12  and  C8_13 
REMARK    4  A    between atoms: C8_13  and  O2_14 
REMARK    5  A    between atoms: C8_13  and  C9_16 
REMARK    6  A    between atoms: C17_27  and  C18_28 
ROOT
HETATM    1  C1  UNL     1      -8.435  10.218  -4.545  1.00  0.00     0.163 C 
HETATM    2  N1  UNL     1      -7.635  10.529  -3.378  1.00  0.00    -0.287 N 
HETATM    3  C2  UNL     1      -6.572   9.630  -3.066  1.00  0.00     0.343 A 
HETATM    4  O1  UNL     1      -6.348   8.621  -3.799  1.00  0.00    -0.245 OA
HETATM    5  N2  UNL     1      -5.791   9.914  -1.915  1.00  0.00    -0.234 N 
ATOM      6  H2  UNL     1      -5.027   9.282  -1.676  1.00  0.00     0.193 HD
HETATM    7  N3  UNL     1      -6.026  11.032  -1.087  1.00  0.00    -0.228 N 
HETATM    8  N4  UNL     1      -7.079  11.851  -1.469  1.00  0.00    -0.268 N 
ATOM      9  H4  UNL     1      -7.281  12.671  -0.897  1.00  0.00     0.190 HD
HETATM   10  C17 UNL     1      -7.832  11.634  -2.522  1.00  0.00     0.137 A 
ENDROOT
BRANCH   7  11
HETATM   11  C3  UNL     1      -5.208  11.241   0.073  1.00  0.00     0.174 C 
BRANCH  11  12
HETATM   12  C4  UNL     1      -5.903  11.250   1.384  1.00  0.00     0.007 C 
HETATM   13  C5  UNL     1      -5.132  10.834   2.571  1.00  0.00     0.007 C 
HETATM   14  C6  UNL     1      -5.232   9.434   2.992  1.00  0.00     0.008 C 
HETATM   15  C7  UNL     1      -6.479   8.673   2.694  1.00  0.00     0.019 C 
HETATM   16  C15 UNL     1      -6.944   9.047   1.302  1.00  0.00     0.008 C 
HETATM   17  C16 UNL     1      -7.218  10.522   1.225  1.00  0.00     0.007 C 
BRANCH  15  18
HETATM   18  C8  UNL     1      -7.530   8.849   3.744  1.00  0.00     0.157 C 
BRANCH  18  19
HETATM   19  O2  UNL     1      -6.837   8.712   4.988  1.00  0.00    -0.390 OA
ATOM     20  H2  UNL     1      -7.509   8.479   5.619  1.00  0.00     0.210 HD
ENDBRANCH  18  19
BRANCH  18  21
HETATM   21  C9  UNL     1      -8.561   7.799   3.797  1.00  0.00    -0.008 A 
HETATM   22  C10 UNL     1      -8.427   6.542   4.295  1.00  0.00     0.011 A 
HETATM   23  C11 UNL     1      -9.458   5.616   4.319  1.00  0.00     0.001 A 
HETATM   24  C12 UNL     1     -10.695   5.953   3.822  1.00  0.00     0.002 A 
HETATM   25  C13 UNL     1     -10.859   7.234   3.307  1.00  0.00     0.024 A 
HETATM   26  C14 UNL     1      -9.819   8.140   3.292  1.00  0.00     0.042 A 
HETATM   27 CL1  UNL     1     -10.111   9.724   2.629  1.00  0.00    -0.084 Cl
ENDBRANCH  18  21
ENDBRANCH  15  18
ENDBRANCH  11  12
ENDBRANCH   7  11
BRANCH  10  28
HETATM   28  C18 UNL     1      -8.906  12.570  -2.783  1.00  0.00     0.012 A 
HETATM   29  C19 UNL     1     -10.158  12.425  -2.233  1.00  0.00     0.032 A 
HETATM   30  C20 UNL     1     -11.170  13.354  -2.500  1.00  0.00     0.088 A 
HETATM   31  N5  UNL     1     -10.918  14.400  -3.302  1.00  0.00    -0.375 N 
HETATM   32  C21 UNL     1      -9.716  14.596  -3.867  1.00  0.00     0.088 A 
ATOM     33  H5  UNL     1     -11.665  15.069  -3.488  1.00  0.00     0.164 HD
HETATM   34  C22 UNL     1      -8.734  13.681  -3.600  1.00  0.00     0.032 A 
ENDBRANCH  10  28
TORSDOF 6
ENDMDL
