MODEL 1
REMARK VINA RESULT: -8.187529136      0.000      0.000
REMARK  5 active torsions:
REMARK  status: ('A' for Active; 'I' for Inactive)
REMARK    1  A    between atoms: C1_2  and  C2_3 
REMARK       I    between atoms: C1_2  and  N4_14 
REMARK    2  A    between atoms: C2_3  and  C3_4 
REMARK    3  A    between atoms: C3_4  and  C4_5 
REMARK    4  A    between atoms: C8_17  and  C9_19 
REMARK    5  A    between atoms: C13_25  and  C14_26 
ROOT
HETATM    1  O1  UNL     1     -11.406   8.409   1.895  1.00  0.00    -0.273 OA
HETATM    2  C1  UNL     1     -10.296   8.252   2.413  1.00  0.00     0.220 C 
HETATM    3  N4  UNL     1      -9.214   9.120   2.024  1.00  0.00    -0.352 N 
HETATM    4  C6  UNL     1      -9.361  10.080   0.975  1.00  0.00     0.129 C 
HETATM    5  C7  UNL     1      -8.254   9.795  -0.011  1.00  0.00     0.070 C 
HETATM    6  C8  UNL     1      -6.881   9.807   0.553  1.00  0.00     0.148 C 
HETATM    7  F1  UNL     1      -6.065   9.113  -0.344  1.00  0.00    -0.236 F 
HETATM    8  C18 UNL     1      -6.735   9.097   1.862  1.00  0.00     0.070 C 
HETATM    9  C19 UNL     1      -7.936   9.059   2.715  1.00  0.00     0.129 C 
ENDROOT
BRANCH   6  10
HETATM   10  C9  UNL     1      -6.335  11.197   0.598  1.00  0.00     0.050 A 
HETATM   11  C10 UNL     1      -5.673  11.694   1.701  1.00  0.00     0.031 A 
HETATM   12  C11 UNL     1      -5.151  12.963   1.769  1.00  0.00     0.034 A 
HETATM   13  C12 UNL     1      -5.283  13.828   0.668  1.00  0.00     0.067 A 
HETATM   14  N5  UNL     1      -4.828  15.050   0.577  1.00  0.00    -0.351 N 
HETATM   15  C17 UNL     1      -5.941  13.313  -0.410  1.00  0.00     0.103 A 
HETATM   16  C13 UNL     1      -5.016  15.735  -0.530  1.00  0.00     0.057 A 
ATOM     17  H5  UNL     1      -4.328  15.471   1.360  1.00  0.00     0.166 HD
HETATM   18  S2  UNL     1      -5.874  14.624  -1.505  1.00  0.00    -0.056 SA
HETATM   19  N6  UNL     1      -6.448  12.038  -0.436  1.00  0.00    -0.349 N 
ATOM     20  H6  UNL     1      -6.928  11.719  -1.277  1.00  0.00     0.166 HD
BRANCH  16  21
HETATM   21  C14 UNL     1      -4.555  17.139  -0.842  1.00  0.00     0.043 A 
HETATM   22  C15 UNL     1      -5.683  18.141  -0.687  1.00  0.00     0.012 A 
HETATM   23  C16 UNL     1      -4.483  18.123   0.234  1.00  0.00     0.012 A 
ENDBRANCH  16  21
ENDBRANCH   6  10
BRANCH   2  24
HETATM   24  C2  UNL     1     -10.002   7.218   3.415  1.00  0.00     0.110 C 
BRANCH  24  25
HETATM   25  C3  UNL     1     -10.909   6.011   3.398  1.00  0.00     0.087 C 
BRANCH  25  26
HETATM   26  C4  UNL     1     -10.694   5.340   4.706  1.00  0.00     0.098 A 
HETATM   27  N1  UNL     1      -9.660   5.711   5.527  1.00  0.00    -0.321 N 
HETATM   28  C5  UNL     1      -9.705   4.997   6.647  1.00  0.00     0.192 A 
ATOM     29  H1  UNL     1      -8.963   6.425   5.312  1.00  0.00     0.169 HD
HETATM   30  S1  UNL     1      -8.700   5.084   7.922  1.00  0.00    -0.039 SA
HETATM   31  N2  UNL     1     -10.765   4.188   6.519  1.00  0.00    -0.275 N 
HETATM   32  N3  UNL     1     -11.367   4.398   5.328  1.00  0.00    -0.287 N 
ATOM     33  H2  UNL     1     -11.072   3.513   7.219  1.00  0.00     0.189 HD
ATOM     34  H3  UNL     1     -12.193   3.914   4.976  1.00  0.00     0.188 HD
ENDBRANCH  25  26
ENDBRANCH  24  25
ENDBRANCH   2  24
TORSDOF 5
ENDMDL
MODEL 2
REMARK VINA RESULT: -8.180667507      1.071      1.101
REMARK  5 active torsions:
REMARK  status: ('A' for Active; 'I' for Inactive)
REMARK    1  A    between atoms: C1_2  and  C2_3 
REMARK       I    between atoms: C1_2  and  N4_14 
REMARK    2  A    between atoms: C2_3  and  C3_4 
REMARK    3  A    between atoms: C3_4  and  C4_5 
REMARK    4  A    between atoms: C8_17  and  C9_19 
REMARK    5  A    between atoms: C13_25  and  C14_26 
ROOT
HETATM    1  O1  UNL     1     -11.339   7.598   2.279  1.00  0.00    -0.273 OA
HETATM    2  C1  UNL     1     -10.215   7.665   2.785  1.00  0.00     0.220 C 
HETATM    3  N4  UNL     1      -9.285   8.651   2.296  1.00  0.00    -0.352 N 
HETATM    4  C6  UNL     1      -9.588   9.474   1.167  1.00  0.00     0.129 C 
HETATM    5  C7  UNL     1      -8.458   9.274   0.188  1.00  0.00     0.070 C 
HETATM    6  C8  UNL     1      -7.100   9.552   0.719  1.00  0.00     0.148 C 
HETATM    7  F1  UNL     1      -6.191   8.913  -0.128  1.00  0.00    -0.236 F 
HETATM    8  C18 UNL     1      -6.835   8.999   2.084  1.00  0.00     0.070 C 
HETATM    9  C19 UNL     1      -8.010   8.855   2.963  1.00  0.00     0.129 C 
ENDROOT
BRANCH   6  10
HETATM   10  C9  UNL     1      -6.779  11.008   0.626  1.00  0.00     0.050 A 
HETATM   11  C10 UNL     1      -6.274  11.723   1.692  1.00  0.00     0.031 A 
HETATM   12  C11 UNL     1      -5.959  13.059   1.634  1.00  0.00     0.034 A 
HETATM   13  C12 UNL     1      -6.151  13.766   0.435  1.00  0.00     0.067 A 
HETATM   14  N5  UNL     1      -5.885  15.028   0.221  1.00  0.00    -0.351 N 
HETATM   15  C17 UNL     1      -6.651  13.038  -0.605  1.00  0.00     0.103 A 
HETATM   16  C13 UNL     1      -6.105  15.549  -0.966  1.00  0.00     0.057 A 
ATOM     17  H5  UNL     1      -5.508  15.606   0.972  1.00  0.00     0.166 HD
HETATM   18  S2  UNL     1      -6.716  14.215  -1.842  1.00  0.00    -0.056 SA
HETATM   19  N6  UNL     1      -6.952  11.703  -0.505  1.00  0.00    -0.349 N 
ATOM     20  H6  UNL     1      -7.322  11.221  -1.324  1.00  0.00     0.166 HD
BRANCH  16  21
HETATM   21  C14 UNL     1      -5.846  16.967  -1.420  1.00  0.00     0.043 A 
HETATM   22  C15 UNL     1      -7.000  17.883  -1.060  1.00  0.00     0.012 A 
HETATM   23  C16 UNL     1      -5.635  18.009  -0.419  1.00  0.00     0.012 A 
ENDBRANCH  16  21
ENDBRANCH   6  10
BRANCH   2  24
HETATM   24  C2  UNL     1      -9.756   6.787   3.871  1.00  0.00     0.110 C 
BRANCH  24  25
HETATM   25  C3  UNL     1     -10.318   5.386   3.865  1.00  0.00     0.087 C 
BRANCH  25  26
HETATM   26  C4  UNL     1     -11.001   5.231   5.175  1.00  0.00     0.098 A 
HETATM   27  N1  UNL     1     -10.641   5.999   6.253  1.00  0.00    -0.321 N 
HETATM   28  C5  UNL     1     -11.422   5.704   7.287  1.00  0.00     0.192 A 
ATOM     29  H1  UNL     1      -9.890   6.688   6.261  1.00  0.00     0.169 HD
HETATM   30  S1  UNL     1     -11.386   6.356   8.777  1.00  0.00    -0.039 SA
HETATM   31  N2  UNL     1     -12.264   4.758   6.849  1.00  0.00    -0.275 N 
HETATM   32  N3  UNL     1     -12.002   4.469   5.556  1.00  0.00    -0.287 N 
ATOM     33  H2  UNL     1     -12.996   4.322   7.410  1.00  0.00     0.189 HD
ATOM     34  H3  UNL     1     -12.491   3.783   4.980  1.00  0.00     0.188 HD
ENDBRANCH  25  26
ENDBRANCH  24  25
ENDBRANCH   2  24
TORSDOF 5
ENDMDL
MODEL 3
REMARK VINA RESULT: -7.985007894      2.027      2.255
REMARK  5 active torsions:
REMARK  status: ('A' for Active; 'I' for Inactive)
REMARK    1  A    between atoms: C1_2  and  C2_3 
REMARK       I    between atoms: C1_2  and  N4_14 
REMARK    2  A    between atoms: C2_3  and  C3_4 
REMARK    3  A    between atoms: C3_4  and  C4_5 
REMARK    4  A    between atoms: C8_17  and  C9_19 
REMARK    5  A    between atoms: C13_25  and  C14_26 
ROOT
HETATM    1  O1  UNL     1     -11.049   8.477   1.874  1.00  0.00    -0.273 OA
HETATM    2  C1  UNL     1      -9.971   8.219   2.419  1.00  0.00     0.220 C 
HETATM    3  N4  UNL     1      -8.837   9.069   2.161  1.00  0.00    -0.352 N 
HETATM    4  C6  UNL     1      -8.896  10.131   1.206  1.00  0.00     0.129 C 
HETATM    5  C7  UNL     1      -7.759   9.890   0.243  1.00  0.00     0.070 C 
HETATM    6  C8  UNL     1      -6.414   9.783   0.860  1.00  0.00     0.148 C 
HETATM    7  F1  UNL     1      -5.589   9.141  -0.066  1.00  0.00    -0.236 F 
HETATM    8  C18 UNL     1      -6.357   8.946   2.099  1.00  0.00     0.070 C 
HETATM    9  C19 UNL     1      -7.596   8.882   2.895  1.00  0.00     0.129 C 
ENDROOT
BRANCH   6  10
HETATM   10  C9  UNL     1      -5.812  11.136   1.063  1.00  0.00     0.050 A 
HETATM   11  C10 UNL     1      -6.569  12.288   1.068  1.00  0.00     0.031 A 
HETATM   12  C11 UNL     1      -6.047  13.544   1.262  1.00  0.00     0.034 A 
HETATM   13  C12 UNL     1      -4.665  13.697   1.471  1.00  0.00     0.067 A 
HETATM   14  N5  UNL     1      -4.026  14.817   1.686  1.00  0.00    -0.351 N 
HETATM   15  C17 UNL     1      -3.937  12.542   1.462  1.00  0.00     0.103 A 
HETATM   16  C13 UNL     1      -2.726  14.799   1.880  1.00  0.00     0.057 A 
ATOM     17  H5  UNL     1      -4.534  15.701   1.702  1.00  0.00     0.166 HD
HETATM   18  S2  UNL     1      -2.362  13.134   1.762  1.00  0.00    -0.056 SA
HETATM   19  N6  UNL     1      -4.500  11.306   1.265  1.00  0.00    -0.349 N 
ATOM     20  H6  UNL     1      -3.895  10.486   1.272  1.00  0.00     0.166 HD
BRANCH  16  21
HETATM   21  C14 UNL     1      -1.814  15.970   2.164  1.00  0.00     0.043 A 
HETATM   22  C15 UNL     1      -1.465  16.054   3.638  1.00  0.00     0.012 A 
HETATM   23  C16 UNL     1      -0.437  15.717   2.579  1.00  0.00     0.012 A 
ENDBRANCH  16  21
ENDBRANCH   6  10
BRANCH   2  24
HETATM   24  C2  UNL     1      -9.768   7.081   3.326  1.00  0.00     0.110 C 
BRANCH  24  25
HETATM   25  C3  UNL     1     -10.895   6.079   3.386  1.00  0.00     0.087 C 
BRANCH  25  26
HETATM   26  C4  UNL     1     -10.714   5.361   4.674  1.00  0.00     0.098 A 
HETATM   27  N1  UNL     1      -9.667   5.661   5.508  1.00  0.00    -0.321 N 
HETATM   28  C5  UNL     1      -9.748   4.918   6.606  1.00  0.00     0.192 A 
ATOM     29  H1  UNL     1      -8.939   6.349   5.315  1.00  0.00     0.169 HD
HETATM   30  S1  UNL     1      -8.744   4.923   7.886  1.00  0.00    -0.039 SA
HETATM   31  N2  UNL     1     -10.843   4.161   6.453  1.00  0.00    -0.275 N 
HETATM   32  N3  UNL     1     -11.431   4.433   5.268  1.00  0.00    -0.287 N 
ATOM     33  H2  UNL     1     -11.183   3.480   7.133  1.00  0.00     0.189 HD
ATOM     34  H3  UNL     1     -12.277   3.997   4.900  1.00  0.00     0.188 HD
ENDBRANCH  25  26
ENDBRANCH  24  25
ENDBRANCH   2  24
TORSDOF 5
ENDMDL
MODEL 4
REMARK VINA RESULT: -7.923783807      2.756      9.546
REMARK  5 active torsions:
REMARK  status: ('A' for Active; 'I' for Inactive)
REMARK    1  A    between atoms: C1_2  and  C2_3 
REMARK       I    between atoms: C1_2  and  N4_14 
REMARK    2  A    between atoms: C2_3  and  C3_4 
REMARK    3  A    between atoms: C3_4  and  C4_5 
REMARK    4  A    between atoms: C8_17  and  C9_19 
REMARK    5  A    between atoms: C13_25  and  C14_26 
ROOT
HETATM    1  O1  UNL     1      -2.915  10.053  -0.342  1.00  0.00    -0.273 OA
HETATM    2  C1  UNL     1      -3.421  10.656   0.610  1.00  0.00     0.220 C 
HETATM    3  N4  UNL     1      -4.756  10.310   1.027  1.00  0.00    -0.352 N 
HETATM    4  C6  UNL     1      -5.551   9.371   0.299  1.00  0.00     0.129 C 
HETATM    5  C7  UNL     1      -6.838  10.083  -0.034  1.00  0.00     0.070 C 
HETATM    6  C8  UNL     1      -7.576  10.641   1.126  1.00  0.00     0.148 C 
HETATM    7  F1  UNL     1      -8.454  11.606   0.627  1.00  0.00    -0.236 F 
HETATM    8  C18 UNL     1      -6.723  11.353   2.128  1.00  0.00     0.070 C 
HETATM    9  C19 UNL     1      -5.326  10.895   2.230  1.00  0.00     0.129 C 
ENDROOT
BRANCH   6  10
HETATM   10  C9  UNL     1      -8.443   9.600   1.757  1.00  0.00     0.050 A 
HETATM   11  C10 UNL     1      -9.804   9.545   1.546  1.00  0.00     0.031 A 
HETATM   12  C11 UNL     1     -10.625   8.595   2.103  1.00  0.00     0.034 A 
HETATM   13  C12 UNL     1     -10.077   7.608   2.942  1.00  0.00     0.067 A 
HETATM   14  N5  UNL     1     -10.722   6.635   3.528  1.00  0.00    -0.351 N 
HETATM   15  C17 UNL     1      -8.728   7.684   3.136  1.00  0.00     0.103 A 
HETATM   16  C13 UNL     1     -10.066   5.775   4.276  1.00  0.00     0.057 A 
ATOM     17  H5  UNL     1     -11.730   6.542   3.406  1.00  0.00     0.166 HD
HETATM   18  S2  UNL     1      -8.459   6.344   4.161  1.00  0.00    -0.056 SA
HETATM   19  N6  UNL     1      -7.944   8.651   2.558  1.00  0.00    -0.349 N 
ATOM     20  H6  UNL     1      -6.942   8.646   2.747  1.00  0.00     0.166 HD
BRANCH  16  21
HETATM   21  C14 UNL     1     -10.617   4.578   5.014  1.00  0.00     0.043 A 
HETATM   22  C15 UNL     1     -10.235   4.608   6.482  1.00  0.00     0.012 A 
HETATM   23  C16 UNL     1     -11.664   4.775   6.013  1.00  0.00     0.012 A 
ENDBRANCH  16  21
ENDBRANCH   6  10
BRANCH   2  24
HETATM   24  C2  UNL     1      -2.738  11.723   1.355  1.00  0.00     0.110 C 
BRANCH  24  25
HETATM   25  C3  UNL     1      -2.556  13.027   0.615  1.00  0.00     0.087 C 
BRANCH  25  26
HETATM   26  C4  UNL     1      -3.917  13.612   0.509  1.00  0.00     0.098 A 
HETATM   27  N1  UNL     1      -4.686  13.410  -0.609  1.00  0.00    -0.321 N 
HETATM   28  C5  UNL     1      -5.867  13.995  -0.446  1.00  0.00     0.192 A 
ATOM     29  H1  UNL     1      -4.396  12.892  -1.438  1.00  0.00     0.169 HD
HETATM   30  S1  UNL     1      -7.115  14.023  -1.489  1.00  0.00    -0.039 SA
HETATM   31  N2  UNL     1      -5.831  14.555   0.771  1.00  0.00    -0.275 N 
HETATM   32  N3  UNL     1      -4.634  14.322   1.352  1.00  0.00    -0.287 N 
ATOM     33  H2  UNL     1      -6.595  15.081   1.196  1.00  0.00     0.189 HD
ATOM     34  H3  UNL     1      -4.340  14.638   2.276  1.00  0.00     0.188 HD
ENDBRANCH  25  26
ENDBRANCH  24  25
ENDBRANCH   2  24
TORSDOF 5
ENDMDL
MODEL 5
REMARK VINA RESULT: -7.907950358      3.843      4.480
REMARK  5 active torsions:
REMARK  status: ('A' for Active; 'I' for Inactive)
REMARK    1  A    between atoms: C1_2  and  C2_3 
REMARK       I    between atoms: C1_2  and  N4_14 
REMARK    2  A    between atoms: C2_3  and  C3_4 
REMARK    3  A    between atoms: C3_4  and  C4_5 
REMARK    4  A    between atoms: C8_17  and  C9_19 
REMARK    5  A    between atoms: C13_25  and  C14_26 
ROOT
HETATM    1  O1  UNL     1      -8.426   5.981   5.797  1.00  0.00    -0.273 OA
HETATM    2  C1  UNL     1      -9.164   6.035   4.808  1.00  0.00     0.220 C 
HETATM    3  N4  UNL     1      -8.778   6.862   3.693  1.00  0.00    -0.352 N 
HETATM    4  C6  UNL     1      -7.627   7.709   3.748  1.00  0.00     0.129 C 
HETATM    5  C7  UNL     1      -8.113   9.098   3.415  1.00  0.00     0.070 C 
HETATM    6  C8  UNL     1      -8.827   9.229   2.121  1.00  0.00     0.148 C 
HETATM    7  F1  UNL     1      -9.565  10.413   2.180  1.00  0.00    -0.236 F 
HETATM    8  C18 UNL     1      -9.822   8.148   1.841  1.00  0.00     0.070 C 
HETATM    9  C19 UNL     1      -9.545   6.838   2.458  1.00  0.00     0.129 C 
ENDROOT
BRANCH   6  10
HETATM   10  C9  UNL     1      -7.861   9.415   0.996  1.00  0.00     0.050 A 
HETATM   11  C10 UNL     1      -8.273   9.681  -0.293  1.00  0.00     0.031 A 
HETATM   12  C11 UNL     1      -7.410   9.867  -1.346  1.00  0.00     0.034 A 
HETATM   13  C12 UNL     1      -6.023   9.788  -1.130  1.00  0.00     0.067 A 
HETATM   14  N5  UNL     1      -5.082   9.957  -2.022  1.00  0.00    -0.351 N 
HETATM   15  C17 UNL     1      -5.641   9.523   0.153  1.00  0.00     0.103 A 
HETATM   16  C13 UNL     1      -3.821   9.866  -1.664  1.00  0.00     0.057 A 
ATOM     17  H5  UNL     1      -5.326  10.158  -2.992  1.00  0.00     0.166 HD
HETATM   18  S2  UNL     1      -3.939   9.528   0.007  1.00  0.00    -0.056 SA
HETATM   19  N6  UNL     1      -6.538   9.345   1.177  1.00  0.00    -0.349 N 
ATOM     20  H6  UNL     1      -6.181   9.151   2.112  1.00  0.00     0.166 HD
BRANCH  16  21
HETATM   21  C14 UNL     1      -2.595  10.048  -2.529  1.00  0.00     0.043 A 
HETATM   22  C15 UNL     1      -1.879  11.347  -2.208  1.00  0.00     0.012 A 
HETATM   23  C16 UNL     1      -1.272   9.991  -1.913  1.00  0.00     0.012 A 
ENDBRANCH  16  21
ENDBRANCH   6  10
BRANCH   2  24
HETATM   24  C2  UNL     1     -10.431   5.300   4.694  1.00  0.00     0.110 C 
BRANCH  24  25
HETATM   25  C3  UNL     1     -10.666   4.232   5.734  1.00  0.00     0.087 C 
BRANCH  25  26
HETATM   26  C4  UNL     1     -11.465   4.891   6.800  1.00  0.00     0.098 A 
HETATM   27  N1  UNL     1     -10.857   5.636   7.778  1.00  0.00    -0.321 N 
HETATM   28  C5  UNL     1     -11.782   6.151   8.581  1.00  0.00     0.192 A 
ATOM     29  H1  UNL     1      -9.852   5.773   7.875  1.00  0.00     0.169 HD
HETATM   30  S1  UNL     1     -11.552   7.109   9.875  1.00  0.00    -0.039 SA
HETATM   31  N2  UNL     1     -12.959   5.727   8.100  1.00  0.00    -0.275 N 
HETATM   32  N3  UNL     1     -12.761   4.953   7.011  1.00  0.00    -0.287 N 
ATOM     33  H2  UNL     1     -13.869   5.956   8.498  1.00  0.00     0.189 HD
ATOM     34  H3  UNL     1     -13.486   4.500   6.454  1.00  0.00     0.188 HD
ENDBRANCH  25  26
ENDBRANCH  24  25
ENDBRANCH   2  24
TORSDOF 5
ENDMDL
