MODEL 1
REMARK VINA RESULT: -8.432371161      0.000      0.000
REMARK  6 active torsions:
REMARK  status: ('A' for Active; 'I' for Inactive)
REMARK    1  A    between atoms: C2_2  and  C18_29 
REMARK    2  A    between atoms: N1_3  and  N2_5 
REMARK    3  A    between atoms: N2_5  and  C3_7 
REMARK    4  A    between atoms: C3_7  and  C4_8 
REMARK    5  A    between atoms: C3_7  and  C7_16 
REMARK    6  A    between atoms: C15_24  and  O1_25 
ROOT
HETATM    1  C3  UNL     1      -7.740   9.593  -1.010  1.00  0.00     0.156 C 
ENDROOT
BRANCH   1   2
HETATM    2  N2  UNL     1      -8.788   9.565  -0.009  1.00  0.00    -0.325 N 
ATOM      3  H2  UNL     1      -9.469  10.324   0.017  1.00  0.00     0.181 HD
BRANCH   2   4
HETATM    4  N1  UNL     1      -8.888   8.541   0.907  1.00  0.00    -0.308 N 
HETATM    5  C2  UNL     1      -9.465   8.732   2.049  1.00  0.00     0.033 C 
HETATM    6  C1  UNL     1     -10.007  10.070   2.330  1.00  0.00     0.070 C 
ATOM      7  H1  UNL     1      -8.504   7.623   0.683  1.00  0.00     0.186 HD
BRANCH   5   8
HETATM    8  C18 UNL     1      -9.567   7.647   3.013  1.00  0.00     0.009 A 
HETATM    9  C19 UNL     1     -10.760   6.920   3.035  1.00  0.00     0.015 A 
HETATM   10  C20 UNL     1     -10.985   5.868   3.900  1.00  0.00     0.001 A 
HETATM   11  C21 UNL     1     -10.025   5.492   4.787  1.00  0.00     0.002 A 
HETATM   12  C22 UNL     1      -8.839   6.183   4.796  1.00  0.00     0.025 A 
HETATM   13  C23 UNL     1      -8.621   7.252   3.911  1.00  0.00     0.046 A 
HETATM   14 CL1  UNL     1      -7.093   8.061   4.001  1.00  0.00    -0.083 Cl
ENDBRANCH   5   8
ENDBRANCH   2   4
ENDBRANCH   1   2
BRANCH   1  15
HETATM   15  C4  UNL     1      -8.358  10.279  -2.192  1.00  0.00     0.068 A 
HETATM   16  C5  UNL     1      -8.068  10.228  -3.516  1.00  0.00     0.139 A 
HETATM   17  N3  UNL     1      -8.931  11.039  -4.141  1.00  0.00    -0.291 N 
HETATM   18  C6  UNL     1      -9.051  11.343  -5.554  1.00  0.00     0.178 C 
HETATM   19  N4  UNL     1      -9.752  11.593  -3.236  1.00  0.00    -0.241 N 
HETATM   20  N5  UNL     1      -9.405  11.133  -2.053  1.00  0.00    -0.287 N 
ATOM     21  H4  UNL     1     -10.506  12.251  -3.430  1.00  0.00     0.208 HD
ATOM     22  H5  UNL     1      -9.852  11.379  -1.169  1.00  0.00     0.188 HD
ENDBRANCH   1  15
BRANCH   1  23
HETATM   23  C7  UNL     1      -6.551  10.379  -0.569  1.00  0.00     0.020 C 
HETATM   24  C8  UNL     1      -6.943  11.430   0.446  1.00  0.00     0.012 C 
HETATM   25  C9  UNL     1      -5.797  12.264   0.919  1.00  0.00    -0.011 C 
HETATM   26  C10 UNL     1      -4.679  12.423  -0.048  1.00  0.00     0.009 C 
HETATM   27  C17 UNL     1      -5.364  11.768   2.280  1.00  0.00     0.042 C 
HETATM   28  C11 UNL     1      -3.671  11.325  -0.039  1.00  0.00    -0.011 C 
HETATM   29  C12 UNL     1      -4.105  10.084  -0.741  1.00  0.00     0.010 C 
HETATM   30  C16 UNL     1      -3.268  10.945   1.368  1.00  0.00     0.042 C 
HETATM   31  C13 UNL     1      -5.388   9.568  -0.112  1.00  0.00    -0.005 C 
HETATM   32  C14 UNL     1      -5.278   9.431   1.385  1.00  0.00     0.043 C 
HETATM   33  C15 UNL     1      -4.544  10.524   2.074  1.00  0.00     0.059 C 
BRANCH  33  34
HETATM   34  O1  UNL     1      -4.136  10.029   3.333  1.00  0.00    -0.390 OA
ATOM     35  H1  UNL     1      -3.928  10.779   3.879  1.00  0.00     0.210 HD
ENDBRANCH  33  34
ENDBRANCH   1  23
TORSDOF 6
ENDMDL
MODEL 2
REMARK VINA RESULT: -8.267607536      0.975      1.472
REMARK  6 active torsions:
REMARK  status: ('A' for Active; 'I' for Inactive)
REMARK    1  A    between atoms: C2_2  and  C18_29 
REMARK    2  A    between atoms: N1_3  and  N2_5 
REMARK    3  A    between atoms: N2_5  and  C3_7 
REMARK    4  A    between atoms: C3_7  and  C4_8 
REMARK    5  A    between atoms: C3_7  and  C7_16 
REMARK    6  A    between atoms: C15_24  and  O1_25 
ROOT
HETATM    1  C3  UNL     1      -7.694   9.699  -0.554  1.00  0.00     0.156 C 
ENDROOT
BRANCH   1   2
HETATM    2  N2  UNL     1      -8.933   9.377   0.125  1.00  0.00    -0.325 N 
ATOM      3  H2  UNL     1      -9.773   9.913  -0.094  1.00  0.00     0.181 HD
BRANCH   2   4
HETATM    4  N1  UNL     1      -9.007   8.365   1.057  1.00  0.00    -0.308 N 
HETATM    5  C2  UNL     1      -9.585   8.561   2.198  1.00  0.00     0.033 C 
HETATM    6  C1  UNL     1     -10.157   9.889   2.460  1.00  0.00     0.070 C 
ATOM      7  H1  UNL     1      -8.602   7.453   0.846  1.00  0.00     0.186 HD
BRANCH   5   8
HETATM    8  C18 UNL     1      -9.659   7.489   3.180  1.00  0.00     0.009 A 
HETATM    9  C19 UNL     1     -10.857   6.772   3.255  1.00  0.00     0.015 A 
HETATM   10  C20 UNL     1     -11.057   5.733   4.142  1.00  0.00     0.001 A 
HETATM   11  C21 UNL     1     -10.067   5.360   4.997  1.00  0.00     0.002 A 
HETATM   12  C22 UNL     1      -8.876   6.041   4.953  1.00  0.00     0.025 A 
HETATM   13  C23 UNL     1      -8.683   7.097   4.046  1.00  0.00     0.046 A 
HETATM   14 CL1  UNL     1      -7.146   7.894   4.068  1.00  0.00    -0.083 Cl
ENDBRANCH   5   8
ENDBRANCH   2   4
ENDBRANCH   1   2
BRANCH   1  15
HETATM   15  C4  UNL     1      -8.113  10.161  -1.918  1.00  0.00     0.068 A 
HETATM   16  C5  UNL     1      -7.656   9.848  -3.155  1.00  0.00     0.139 A 
HETATM   17  N3  UNL     1      -8.384  10.546  -4.035  1.00  0.00    -0.291 N 
HETATM   18  C6  UNL     1      -8.302  10.575  -5.482  1.00  0.00     0.178 C 
HETATM   19  N4  UNL     1      -9.285  11.288  -3.372  1.00  0.00    -0.241 N 
HETATM   20  N5  UNL     1      -9.122  11.055  -2.088  1.00  0.00    -0.287 N 
ATOM     21  H4  UNL     1      -9.971  11.916  -3.789  1.00  0.00     0.208 HD
ATOM     22  H5  UNL     1      -9.667  11.480  -1.337  1.00  0.00     0.188 HD
ENDBRANCH   1  15
BRANCH   1  23
HETATM   23  C7  UNL     1      -6.947  10.804   0.116  1.00  0.00     0.020 C 
HETATM   24  C8  UNL     1      -6.502  10.393   1.503  1.00  0.00     0.012 C 
HETATM   25  C9  UNL     1      -5.759  11.463   2.234  1.00  0.00    -0.011 C 
HETATM   26  C10 UNL     1      -6.106  12.858   1.855  1.00  0.00     0.009 C 
HETATM   27  C17 UNL     1      -4.279  11.160   2.168  1.00  0.00     0.042 C 
HETATM   28  C11 UNL     1      -5.379  13.393   0.669  1.00  0.00    -0.011 C 
HETATM   29  C12 UNL     1      -5.894  12.905  -0.642  1.00  0.00     0.010 C 
HETATM   30  C16 UNL     1      -3.900  13.081   0.730  1.00  0.00     0.042 C 
HETATM   31  C13 UNL     1      -5.831  11.388  -0.679  1.00  0.00    -0.005 C 
HETATM   32  C14 UNL     1      -4.466  10.862  -0.312  1.00  0.00     0.043 C 
HETATM   33  C15 UNL     1      -3.790  11.569   0.805  1.00  0.00     0.059 C 
BRANCH  33  34
HETATM   34  O1  UNL     1      -2.408  11.284   0.709  1.00  0.00    -0.390 OA
ATOM     35  H1  UNL     1      -1.972  11.753   1.411  1.00  0.00     0.210 HD
ENDBRANCH  33  34
ENDBRANCH   1  23
TORSDOF 6
ENDMDL
MODEL 3
REMARK VINA RESULT: -8.161018243      3.519      5.762
REMARK  6 active torsions:
REMARK  status: ('A' for Active; 'I' for Inactive)
REMARK    1  A    between atoms: C2_2  and  C18_29 
REMARK    2  A    between atoms: N1_3  and  N2_5 
REMARK    3  A    between atoms: N2_5  and  C3_7 
REMARK    4  A    between atoms: C3_7  and  C4_8 
REMARK    5  A    between atoms: C3_7  and  C7_16 
REMARK    6  A    between atoms: C15_24  and  O1_25 
ROOT
HETATM    1  C3  UNL     1      -6.510   9.160   3.821  1.00  0.00     0.156 C 
ENDROOT
BRANCH   1   2
HETATM    2  N2  UNL     1      -6.702   7.749   3.551  1.00  0.00    -0.325 N 
ATOM      3  H2  UNL     1      -6.181   7.314   2.790  1.00  0.00     0.181 HD
BRANCH   2   4
HETATM    4  N1  UNL     1      -7.571   6.981   4.296  1.00  0.00    -0.308 N 
HETATM    5  C2  UNL     1      -8.768   6.739   3.869  1.00  0.00     0.033 C 
HETATM    6  C1  UNL     1      -9.164   7.306   2.572  1.00  0.00     0.070 C 
ATOM      7  H1  UNL     1      -7.267   6.600   5.191  1.00  0.00     0.186 HD
BRANCH   5   8
HETATM    8  C18 UNL     1      -9.682   5.928   4.660  1.00  0.00     0.009 A 
HETATM    9  C19 UNL     1      -9.166   5.315   5.805  1.00  0.00     0.015 A 
HETATM   10  C20 UNL     1      -9.926   4.521   6.640  1.00  0.00     0.001 A 
HETATM   11  C21 UNL     1     -11.242   4.302   6.370  1.00  0.00     0.002 A 
HETATM   12  C22 UNL     1     -11.783   4.887   5.253  1.00  0.00     0.025 A 
HETATM   13  C23 UNL     1     -11.001   5.694   4.409  1.00  0.00     0.046 A 
HETATM   14 CL1  UNL     1     -11.777   6.386   3.025  1.00  0.00    -0.083 Cl
ENDBRANCH   5   8
ENDBRANCH   2   4
ENDBRANCH   1   2
BRANCH   1  15
HETATM   15  C4  UNL     1      -5.336   9.215   4.754  1.00  0.00     0.068 A 
HETATM   16  C5  UNL     1      -4.020   9.452   4.532  1.00  0.00     0.139 A 
HETATM   17  N3  UNL     1      -3.400   9.386   5.716  1.00  0.00    -0.291 N 
HETATM   18  C6  UNL     1      -1.996   9.561   6.034  1.00  0.00     0.178 C 
HETATM   19  N4  UNL     1      -4.303   9.114   6.672  1.00  0.00    -0.241 N 
HETATM   20  N5  UNL     1      -5.478   9.010   6.089  1.00  0.00    -0.287 N 
ATOM     21  H4  UNL     1      -4.112   9.007   7.668  1.00  0.00     0.208 HD
ATOM     22  H5  UNL     1      -6.357   8.807   6.565  1.00  0.00     0.188 HD
ENDBRANCH   1  15
BRANCH   1  23
HETATM   23  C7  UNL     1      -6.178   9.936   2.590  1.00  0.00     0.020 C 
HETATM   24  C8  UNL     1      -5.826   9.010   1.445  1.00  0.00     0.012 C 
HETATM   25  C9  UNL     1      -5.469   9.727   0.184  1.00  0.00    -0.011 C 
HETATM   26  C10 UNL     1      -4.888  11.083   0.360  1.00  0.00     0.009 C 
HETATM   27  C17 UNL     1      -6.656   9.685  -0.751  1.00  0.00     0.042 C 
HETATM   28  C11 UNL     1      -5.881  12.185   0.511  1.00  0.00    -0.011 C 
HETATM   29  C12 UNL     1      -6.504  12.273   1.861  1.00  0.00     0.010 C 
HETATM   30  C16 UNL     1      -6.995  12.078  -0.507  1.00  0.00     0.042 C 
HETATM   31  C13 UNL     1      -7.187  10.957   2.193  1.00  0.00    -0.005 C 
HETATM   32  C14 UNL     1      -8.126  10.509   1.101  1.00  0.00     0.043 C 
HETATM   33  C15 UNL     1      -7.641  10.723  -0.286  1.00  0.00     0.059 C 
BRANCH  33  34
HETATM   34  O1  UNL     1      -8.770  10.698  -1.136  1.00  0.00    -0.390 OA
ATOM     35  H1  UNL     1      -8.457  10.546  -2.020  1.00  0.00     0.210 HD
ENDBRANCH  33  34
ENDBRANCH   1  23
TORSDOF 6
ENDMDL
MODEL 4
REMARK VINA RESULT: -8.083985355      1.314      2.053
REMARK  6 active torsions:
REMARK  status: ('A' for Active; 'I' for Inactive)
REMARK    1  A    between atoms: C2_2  and  C18_29 
REMARK    2  A    between atoms: N1_3  and  N2_5 
REMARK    3  A    between atoms: N2_5  and  C3_7 
REMARK    4  A    between atoms: C3_7  and  C4_8 
REMARK    5  A    between atoms: C3_7  and  C7_16 
REMARK    6  A    between atoms: C15_24  and  O1_25 
ROOT
HETATM    1  C3  UNL     1      -7.892   9.491  -0.655  1.00  0.00     0.156 C 
ENDROOT
BRANCH   1   2
HETATM    2  N2  UNL     1      -9.085   9.266   0.137  1.00  0.00    -0.325 N 
ATOM      3  H2  UNL     1      -9.898   9.865  -0.008  1.00  0.00     0.181 HD
BRANCH   2   4
HETATM    4  N1  UNL     1      -9.150   8.264   1.080  1.00  0.00    -0.308 N 
HETATM    5  C2  UNL     1      -9.640   8.495   2.255  1.00  0.00     0.033 C 
HETATM    6  C1  UNL     1     -10.123   9.854   2.543  1.00  0.00     0.070 C 
ATOM      7  H1  UNL     1      -8.808   7.331   0.850  1.00  0.00     0.186 HD
BRANCH   5   8
HETATM    8  C18 UNL     1      -9.705   7.433   3.248  1.00  0.00     0.009 A 
HETATM    9  C19 UNL     1     -10.898   6.711   3.336  1.00  0.00     0.015 A 
HETATM   10  C20 UNL     1     -11.090   5.681   4.234  1.00  0.00     0.001 A 
HETATM   11  C21 UNL     1     -10.095   5.322   5.090  1.00  0.00     0.002 A 
HETATM   12  C22 UNL     1      -8.908   6.009   5.034  1.00  0.00     0.025 A 
HETATM   13  C23 UNL     1      -8.724   7.057   4.115  1.00  0.00     0.046 A 
HETATM   14 CL1  UNL     1      -7.191   7.862   4.124  1.00  0.00    -0.083 Cl
ENDBRANCH   5   8
ENDBRANCH   2   4
ENDBRANCH   1   2
BRANCH   1  15
HETATM   15  C4  UNL     1      -8.167  10.759  -1.408  1.00  0.00     0.068 A 
HETATM   16  C5  UNL     1      -7.570  11.309  -2.495  1.00  0.00     0.139 A 
HETATM   17  N3  UNL     1      -8.209  12.455  -2.760  1.00  0.00    -0.291 N 
HETATM   18  C6  UNL     1      -7.967  13.422  -3.813  1.00  0.00     0.178 C 
HETATM   19  N4  UNL     1      -9.191  12.631  -1.863  1.00  0.00    -0.241 N 
HETATM   20  N5  UNL     1      -9.166  11.603  -1.041  1.00  0.00    -0.287 N 
ATOM     21  H4  UNL     1      -9.838  13.418  -1.824  1.00  0.00     0.208 HD
ATOM     22  H5  UNL     1      -9.798  11.462  -0.253  1.00  0.00     0.188 HD
ENDBRANCH   1  15
BRANCH   1  23
HETATM   23  C7  UNL     1      -6.677   9.690   0.187  1.00  0.00     0.020 C 
HETATM   24  C8  UNL     1      -5.422   9.346  -0.584  1.00  0.00     0.012 C 
HETATM   25  C9  UNL     1      -4.167   9.511   0.210  1.00  0.00    -0.011 C 
HETATM   26  C10 UNL     1      -4.310   9.335   1.679  1.00  0.00     0.009 C 
HETATM   27  C17 UNL     1      -3.506  10.811  -0.190  1.00  0.00     0.042 C 
HETATM   28  C11 UNL     1      -4.747  10.550   2.424  1.00  0.00    -0.011 C 
HETATM   29  C12 UNL     1      -6.202  10.851   2.315  1.00  0.00     0.010 C 
HETATM   30  C16 UNL     1      -3.986  11.781   1.985  1.00  0.00     0.042 C 
HETATM   31  C13 UNL     1      -6.578  11.019   0.852  1.00  0.00    -0.005 C 
HETATM   32  C14 UNL     1      -5.683  12.003   0.141  1.00  0.00     0.043 C 
HETATM   33  C15 UNL     1      -4.243  11.928   0.496  1.00  0.00     0.059 C 
BRANCH  33  34
HETATM   34  O1  UNL     1      -3.654  13.160   0.130  1.00  0.00    -0.390 OA
ATOM     35  H1  UNL     1      -3.350  13.578   0.927  1.00  0.00     0.210 HD
ENDBRANCH  33  34
ENDBRANCH   1  23
TORSDOF 6
ENDMDL
MODEL 5
REMARK VINA RESULT: -8.060721972      1.043      1.343
REMARK  6 active torsions:
REMARK  status: ('A' for Active; 'I' for Inactive)
REMARK    1  A    between atoms: C2_2  and  C18_29 
REMARK    2  A    between atoms: N1_3  and  N2_5 
REMARK    3  A    between atoms: N2_5  and  C3_7 
REMARK    4  A    between atoms: C3_7  and  C4_8 
REMARK    5  A    between atoms: C3_7  and  C7_16 
REMARK    6  A    between atoms: C15_24  and  O1_25 
ROOT
HETATM    1  C3  UNL     1      -7.853   9.671  -1.113  1.00  0.00     0.156 C 
ENDROOT
BRANCH   1   2
HETATM    2  N2  UNL     1      -8.921   9.626  -0.135  1.00  0.00    -0.325 N 
ATOM      3  H2  UNL     1      -9.609  10.379  -0.115  1.00  0.00     0.181 HD
BRANCH   2   4
HETATM    4  N1  UNL     1      -9.033   8.591   0.769  1.00  0.00    -0.308 N 
HETATM    5  C2  UNL     1      -9.503   8.801   1.955  1.00  0.00     0.033 C 
HETATM    6  C1  UNL     1      -9.912  10.170   2.302  1.00  0.00     0.070 C 
ATOM      7  H1  UNL     1      -8.742   7.652   0.499  1.00  0.00     0.186 HD
BRANCH   5   8
HETATM    8  C18 UNL     1      -9.618   7.705   2.907  1.00  0.00     0.009 A 
HETATM    9  C19 UNL     1      -8.470   7.357   3.624  1.00  0.00     0.015 A 
HETATM   10  C20 UNL     1      -8.444   6.338   4.554  1.00  0.00     0.001 A 
HETATM   11  C21 UNL     1      -9.568   5.616   4.814  1.00  0.00     0.002 A 
HETATM   12  C22 UNL     1     -10.715   5.929   4.128  1.00  0.00     0.025 A 
HETATM   13  C23 UNL     1     -10.731   6.969   3.183  1.00  0.00     0.046 A 
HETATM   14 CL1  UNL     1     -12.227   7.285   2.371  1.00  0.00    -0.083 Cl
ENDBRANCH   5   8
ENDBRANCH   2   4
ENDBRANCH   1   2
BRANCH   1  15
HETATM   15  C4  UNL     1      -8.410  10.475  -2.250  1.00  0.00     0.068 A 
HETATM   16  C5  UNL     1      -7.991  10.635  -3.530  1.00  0.00     0.139 A 
HETATM   17  N3  UNL     1      -8.854  11.464  -4.129  1.00  0.00    -0.291 N 
HETATM   18  C6  UNL     1      -8.863  11.959  -5.492  1.00  0.00     0.178 C 
HETATM   19  N4  UNL     1      -9.802  11.824  -3.250  1.00  0.00    -0.241 N 
HETATM   20  N5  UNL     1      -9.534  11.225  -2.110  1.00  0.00    -0.287 N 
ATOM     21  H4  UNL     1     -10.588  12.448  -3.433  1.00  0.00     0.208 HD
ATOM     22  H5  UNL     1     -10.083  11.309  -1.254  1.00  0.00     0.188 HD
ENDBRANCH   1  15
BRANCH   1  23
HETATM   23  C7  UNL     1      -6.634  10.359  -0.594  1.00  0.00     0.020 C 
HETATM   24  C8  UNL     1      -7.007  11.493   0.335  1.00  0.00     0.012 C 
HETATM   25  C9  UNL     1      -5.829  12.233   0.880  1.00  0.00    -0.011 C 
HETATM   26  C10 UNL     1      -4.619  12.234   0.018  1.00  0.00     0.009 C 
HETATM   27  C17 UNL     1      -5.574  11.767   2.295  1.00  0.00     0.042 C 
HETATM   28  C11 UNL     1      -3.733  11.045   0.166  1.00  0.00    -0.011 C 
HETATM   29  C12 UNL     1      -4.225   9.818  -0.521  1.00  0.00     0.010 C 
HETATM   30  C16 UNL     1      -3.499  10.698   1.620  1.00  0.00     0.042 C 
HETATM   31  C13 UNL     1      -5.606   9.462   0.003  1.00  0.00    -0.005 C 
HETATM   32  C14 UNL     1      -5.646   9.390   1.509  1.00  0.00     0.043 C 
HETATM   33  C15 UNL     1      -4.870  10.440   2.218  1.00  0.00     0.059 C 
BRANCH  33  34
HETATM   34  O1  UNL     1      -4.628   9.972   3.530  1.00  0.00    -0.390 OA
ATOM     35  H1  UNL     1      -4.317   9.076   3.460  1.00  0.00     0.210 HD
ENDBRANCH  33  34
ENDBRANCH   1  23
TORSDOF 6
ENDMDL
