MODEL 1
REMARK VINA RESULT: -6.135461723      0.000      0.000
REMARK  6 active torsions:
REMARK  status: ('A' for Active; 'I' for Inactive)
REMARK    1  A    between atoms: C2_2  and  N1_3 
REMARK    2  A    between atoms: N1_3  and  C3_4 
REMARK    3  A    between atoms: N1_3  and  C5_7 
REMARK    4  A    between atoms: C3_4  and  C4_5 
REMARK    5  A    between atoms: C8_11  and  N2_12 
REMARK       I    between atoms: N2_12  and  C9_14 
REMARK       I    between atoms: C9_14  and  N3_16 
REMARK    6  A    between atoms: N3_16  and  C11_18 
ROOT
HETATM    1  C5  UNL     1      -5.043  10.196  -0.380  1.00  0.00     0.073 A 
HETATM    2  C6  UNL     1      -4.389   9.288   0.470  1.00  0.00     0.173 A 
HETATM    3  O1  UNL     1      -5.265   8.836   1.320  1.00  0.00    -0.317 OA
HETATM    4  C7  UNL     1      -6.458   9.353   1.130  1.00  0.00     0.122 A 
HETATM    5  C8  UNL     1      -7.674   9.129   1.830  1.00  0.00     0.094 A 
HETATM    6  C16 UNL     1      -8.850   9.714   1.552  1.00  0.00     0.070 A 
HETATM    7 CL1  UNL     1     -10.286   9.325   2.542  1.00  0.00    -0.081 Cl
HETATM    8  C17 UNL     1      -9.130  10.640   0.550  1.00  0.00     0.076 A 
HETATM    9  S2  UNL     1      -7.762  11.020  -0.392  1.00  0.00    -0.095 SA
HETATM   10  C18 UNL     1      -6.344  10.207   0.070  1.00  0.00     0.069 A 
ENDROOT
BRANCH   5  11
HETATM   11  N2  UNL     1      -7.557   8.291   2.767  1.00  0.00    -0.305 N 
HETATM   12  C9  UNL     1      -8.215   7.892   3.883  1.00  0.00     0.323 C 
HETATM   13  O2  UNL     1      -8.074   8.503   4.984  1.00  0.00    -0.247 OA
HETATM   14  N3  UNL     1      -9.091   6.751   3.838  1.00  0.00    -0.334 N 
HETATM   15  C10 UNL     1      -9.243   6.113   2.520  1.00  0.00     0.155 C 
ATOM     16  H2  UNL     1      -6.703   7.746   2.648  1.00  0.00     0.171 HD
BRANCH  14  17
HETATM   17  C11 UNL     1      -9.766   6.220   4.992  1.00  0.00     0.091 C 
HETATM   18  C12 UNL     1      -8.897   5.443   5.912  1.00  0.00     0.053 C 
HETATM   19  C13 UNL     1      -9.634   5.324   7.248  1.00  0.00     0.234 C 
HETATM   20  N4  UNL     1     -11.052   5.344   7.050  1.00  0.00    -0.075 N 
HETATM   21  C14 UNL     1     -11.430   4.632   5.841  1.00  0.00     0.234 C 
ATOM     22  H42 UNL     1     -11.548   4.985   7.865  1.00  0.00     0.277 HD
ATOM     23  H41 UNL     1     -11.415   6.297   7.050  1.00  0.00     0.277 HD
HETATM   24  C15 UNL     1     -10.949   5.344   4.584  1.00  0.00     0.053 C 
ENDBRANCH  14  17
ENDBRANCH   5  11
BRANCH   1  25
HETATM   25  N1  UNL     1      -4.451  10.900  -1.467  1.00  0.00    -0.378 N 
BRANCH  25  26
HETATM   26  C2  UNL     1      -3.405  11.874  -1.131  1.00  0.00     0.118 C 
HETATM   27  C1  UNL     1      -3.895  13.020  -0.311  1.00  0.00     0.026 C 
ENDBRANCH  25  26
BRANCH  25  28
HETATM   28  C3  UNL     1      -4.800  10.659  -2.821  1.00  0.00     0.134 C 
BRANCH  28  29
HETATM   29  C4  UNL     1      -4.925   9.210  -3.221  1.00  0.00     0.106 C 
HETATM   30  S1  UNL     1      -6.518   9.108  -4.140  1.00  0.00    -0.096 SA
ENDBRANCH  28  29
ENDBRANCH  25  28
ENDBRANCH   1  25
TORSDOF 6
ENDMDL
MODEL 2
REMARK VINA RESULT: -6.100652722      1.468      2.221
REMARK  6 active torsions:
REMARK  status: ('A' for Active; 'I' for Inactive)
REMARK    1  A    between atoms: C2_2  and  N1_3 
REMARK    2  A    between atoms: N1_3  and  C3_4 
REMARK    3  A    between atoms: N1_3  and  C5_7 
REMARK    4  A    between atoms: C3_4  and  C4_5 
REMARK    5  A    between atoms: C8_11  and  N2_12 
REMARK       I    between atoms: N2_12  and  C9_14 
REMARK       I    between atoms: C9_14  and  N3_16 
REMARK    6  A    between atoms: N3_16  and  C11_18 
ROOT
HETATM    1  C5  UNL     1      -4.343   9.403   0.133  1.00  0.00     0.073 A 
HETATM    2  C6  UNL     1      -4.082   9.036   1.464  1.00  0.00     0.173 A 
HETATM    3  O1  UNL     1      -5.218   9.007   2.100  1.00  0.00    -0.317 OA
HETATM    4  C7  UNL     1      -6.232   9.320   1.325  1.00  0.00     0.122 A 
HETATM    5  C8  UNL     1      -7.618   9.405   1.624  1.00  0.00     0.094 A 
HETATM    6  C16 UNL     1      -8.582   9.738   0.750  1.00  0.00     0.070 A 
HETATM    7 CL1  UNL     1     -10.282   9.806   1.295  1.00  0.00    -0.081 Cl
HETATM    8  C17 UNL     1      -8.441  10.064  -0.597  1.00  0.00     0.076 A 
HETATM    9  S2  UNL     1      -6.821  10.007  -1.120  1.00  0.00    -0.095 SA
HETATM   10  C18 UNL     1      -5.708   9.572   0.089  1.00  0.00     0.069 A 
ENDROOT
BRANCH   5  11
HETATM   11  N2  UNL     1      -7.883   9.119   2.824  1.00  0.00    -0.305 N 
HETATM   12  C9  UNL     1      -8.852   8.509   3.551  1.00  0.00     0.323 C 
HETATM   13  O2  UNL     1      -9.892   9.134   3.917  1.00  0.00    -0.247 OA
HETATM   14  N3  UNL     1      -8.712   7.128   3.928  1.00  0.00    -0.334 N 
HETATM   15  C10 UNL     1      -7.501   6.450   3.435  1.00  0.00     0.155 C 
ATOM     16  H2  UNL     1      -7.138   9.450   3.438  1.00  0.00     0.171 HD
BRANCH  14  17
HETATM   17  C11 UNL     1      -9.657   6.430   4.759  1.00  0.00     0.091 C 
HETATM   18  C12 UNL     1      -9.042   5.570   5.803  1.00  0.00     0.053 C 
HETATM   19  C13 UNL     1     -10.128   5.254   6.834  1.00  0.00     0.234 C 
HETATM   20  N4  UNL     1     -11.423   5.252   6.224  1.00  0.00    -0.075 N 
HETATM   21  C14 UNL     1     -11.380   4.690   4.885  1.00  0.00     0.234 C 
ATOM     22  H42 UNL     1     -12.111   4.774   6.807  1.00  0.00     0.277 HD
ATOM     23  H41 UNL     1     -11.837   6.185   6.223  1.00  0.00     0.277 HD
HETATM   24  C15 UNL     1     -10.604   5.576   3.919  1.00  0.00     0.053 C 
ENDBRANCH  14  17
ENDBRANCH   5  11
BRANCH   1  25
HETATM   25  N1  UNL     1      -3.377   9.529  -0.905  1.00  0.00    -0.378 N 
BRANCH  25  26
HETATM   26  C2  UNL     1      -2.825   8.283  -1.448  1.00  0.00     0.118 C 
HETATM   27  C1  UNL     1      -3.834   7.435  -2.147  1.00  0.00     0.026 C 
ENDBRANCH  25  26
BRANCH  25  28
HETATM   28  C3  UNL     1      -2.982  10.783  -1.440  1.00  0.00     0.134 C 
BRANCH  28  29
HETATM   29  C4  UNL     1      -2.825  11.904  -0.443  1.00  0.00     0.106 C 
HETATM   30  S1  UNL     1      -4.156  13.105  -0.867  1.00  0.00    -0.096 SA
ENDBRANCH  28  29
ENDBRANCH  25  28
ENDBRANCH   1  25
TORSDOF 6
ENDMDL
MODEL 3
REMARK VINA RESULT: -6.058942716      0.891      1.964
REMARK  6 active torsions:
REMARK  status: ('A' for Active; 'I' for Inactive)
REMARK    1  A    between atoms: C2_2  and  N1_3 
REMARK    2  A    between atoms: N1_3  and  C3_4 
REMARK    3  A    between atoms: N1_3  and  C5_7 
REMARK    4  A    between atoms: C3_4  and  C4_5 
REMARK    5  A    between atoms: C8_11  and  N2_12 
REMARK       I    between atoms: N2_12  and  C9_14 
REMARK       I    between atoms: C9_14  and  N3_16 
REMARK    6  A    between atoms: N3_16  and  C11_18 
ROOT
HETATM    1  C5  UNL     1      -5.043  10.149  -0.380  1.00  0.00     0.073 A 
HETATM    2  C6  UNL     1      -4.386   9.247   0.472  1.00  0.00     0.173 A 
HETATM    3  O1  UNL     1      -5.258   8.801   1.330  1.00  0.00    -0.317 OA
HETATM    4  C7  UNL     1      -6.452   9.317   1.143  1.00  0.00     0.122 A 
HETATM    5  C8  UNL     1      -7.664   9.099   1.851  1.00  0.00     0.094 A 
HETATM    6  C16 UNL     1      -8.841   9.684   1.576  1.00  0.00     0.070 A 
HETATM    7 CL1  UNL     1     -10.272   9.302   2.575  1.00  0.00    -0.081 Cl
HETATM    8  C17 UNL     1      -9.125  10.603   0.568  1.00  0.00     0.076 A 
HETATM    9  S2  UNL     1      -7.762  10.975  -0.384  1.00  0.00    -0.095 SA
HETATM   10  C18 UNL     1      -6.342  10.165   0.076  1.00  0.00     0.069 A 
ENDROOT
BRANCH   5  11
HETATM   11  N2  UNL     1      -7.542   8.268   2.793  1.00  0.00    -0.305 N 
HETATM   12  C9  UNL     1      -8.198   7.873   3.912  1.00  0.00     0.323 C 
HETATM   13  O2  UNL     1      -8.060   8.491   5.009  1.00  0.00    -0.247 OA
HETATM   14  N3  UNL     1      -9.068   6.727   3.874  1.00  0.00    -0.334 N 
HETATM   15  C10 UNL     1      -9.218   6.081   2.560  1.00  0.00     0.155 C 
ATOM     16  H2  UNL     1      -6.686   7.726   2.677  1.00  0.00     0.171 HD
BRANCH  14  17
HETATM   17  C11 UNL     1      -9.741   6.201   5.031  1.00  0.00     0.091 C 
HETATM   18  C12 UNL     1      -8.867   5.432   5.956  1.00  0.00     0.053 C 
HETATM   19  C13 UNL     1      -9.603   5.318   7.293  1.00  0.00     0.234 C 
HETATM   20  N4  UNL     1     -11.021   5.331   7.095  1.00  0.00    -0.075 N 
HETATM   21  C14 UNL     1     -11.397   4.610   5.892  1.00  0.00     0.234 C 
ATOM     22  H42 UNL     1     -11.516   4.975   7.913  1.00  0.00     0.277 HD
ATOM     23  H41 UNL     1     -11.388   6.283   7.090  1.00  0.00     0.277 HD
HETATM   24  C15 UNL     1     -10.921   5.318   4.630  1.00  0.00     0.053 C 
ENDBRANCH  14  17
ENDBRANCH   5  11
BRANCH   1  25
HETATM   25  N1  UNL     1      -4.457  10.845  -1.475  1.00  0.00    -0.378 N 
BRANCH  25  26
HETATM   26  C2  UNL     1      -4.029  10.033  -2.621  1.00  0.00     0.118 C 
HETATM   27  C1  UNL     1      -5.119   9.194  -3.201  1.00  0.00     0.026 C 
ENDBRANCH  25  26
BRANCH  25  28
HETATM   28  C3  UNL     1      -4.321  12.257  -1.506  1.00  0.00     0.134 C 
BRANCH  28  29
HETATM   29  C4  UNL     1      -3.787  12.894  -0.247  1.00  0.00     0.106 C 
HETATM   30  S1  UNL     1      -5.182  13.910   0.398  1.00  0.00    -0.096 SA
ENDBRANCH  28  29
ENDBRANCH  25  28
ENDBRANCH   1  25
TORSDOF 6
ENDMDL
MODEL 4
REMARK VINA RESULT: -6.004868276      4.336      8.848
REMARK  6 active torsions:
REMARK  status: ('A' for Active; 'I' for Inactive)
REMARK    1  A    between atoms: C2_2  and  N1_3 
REMARK    2  A    between atoms: N1_3  and  C3_4 
REMARK    3  A    between atoms: N1_3  and  C5_7 
REMARK    4  A    between atoms: C3_4  and  C4_5 
REMARK    5  A    between atoms: C8_11  and  N2_12 
REMARK       I    between atoms: N2_12  and  C9_14 
REMARK       I    between atoms: C9_14  and  N3_16 
REMARK    6  A    between atoms: N3_16  and  C11_18 
ROOT
HETATM    1  C5  UNL     1      -6.981   9.693   0.202  1.00  0.00     0.073 A 
HETATM    2  C6  UNL     1      -7.878   9.895  -0.860  1.00  0.00     0.173 A 
HETATM    3  O1  UNL     1      -7.220   9.739  -1.973  1.00  0.00    -0.317 OA
HETATM    4  C7  UNL     1      -5.954   9.451  -1.768  1.00  0.00     0.122 A 
HETATM    5  C8  UNL     1      -4.910   9.209  -2.699  1.00  0.00     0.094 A 
HETATM    6  C16 UNL     1      -3.637   8.920  -2.382  1.00  0.00     0.070 A 
HETATM    7 CL1  UNL     1      -2.442   8.650  -3.683  1.00  0.00    -0.081 Cl
HETATM    8  C17 UNL     1      -3.078   8.798  -1.112  1.00  0.00     0.076 A 
HETATM    9  S2  UNL     1      -4.212   9.061   0.132  1.00  0.00    -0.095 SA
HETATM   10  C18 UNL     1      -5.782   9.417  -0.413  1.00  0.00     0.069 A 
ENDROOT
BRANCH   5  11
HETATM   11  N2  UNL     1      -5.293   9.279  -3.900  1.00  0.00    -0.305 N 
HETATM   12  C9  UNL     1      -6.442   9.371  -4.613  1.00  0.00     0.323 C 
HETATM   13  O2  UNL     1      -7.120   8.341  -4.905  1.00  0.00    -0.247 OA
HETATM   14  N3  UNL     1      -6.915  10.654  -5.063  1.00  0.00    -0.334 N 
HETATM   15  C10 UNL     1      -6.103  11.813  -4.654  1.00  0.00     0.155 C 
ATOM     16  H2  UNL     1      -4.489   9.261  -4.528  1.00  0.00     0.171 HD
BRANCH  14  17
HETATM   17  C11 UNL     1      -8.082  10.828  -5.885  1.00  0.00     0.091 C 
HETATM   18  C12 UNL     1      -7.834  11.546  -7.163  1.00  0.00     0.053 C 
HETATM   19  C13 UNL     1      -9.031  11.277  -8.079  1.00  0.00     0.234 C 
HETATM   20  N4  UNL     1     -10.219  11.059  -7.311  1.00  0.00    -0.075 N 
HETATM   21  C14 UNL     1     -10.263  11.920  -6.141  1.00  0.00     0.234 C 
ATOM     22  H42 UNL     1     -11.058  11.164  -7.882  1.00  0.00     0.277 HD
ATOM     23  H41 UNL     1     -10.324  10.077  -7.055  1.00  0.00     0.277 HD
HETATM   24  C15 UNL     1      -9.188  11.556  -5.125  1.00  0.00     0.053 C 
ENDBRANCH  14  17
ENDBRANCH   5  11
BRANCH   1  25
HETATM   25  N1  UNL     1      -7.301   9.748   1.589  1.00  0.00    -0.378 N 
BRANCH  25  26
HETATM   26  C2  UNL     1      -6.503  10.663   2.414  1.00  0.00     0.118 C 
HETATM   27  C1  UNL     1      -6.437  12.053   1.875  1.00  0.00     0.026 C 
ENDBRANCH  25  26
BRANCH  25  28
HETATM   28  C3  UNL     1      -8.362   9.002   2.164  1.00  0.00     0.134 C 
BRANCH  28  29
HETATM   29  C4  UNL     1      -8.225   8.689   3.633  1.00  0.00     0.106 C 
HETATM   30  S1  UNL     1      -8.066   6.855   3.713  1.00  0.00    -0.096 SA
ENDBRANCH  28  29
ENDBRANCH  25  28
ENDBRANCH   1  25
TORSDOF 6
ENDMDL
MODEL 5
REMARK VINA RESULT: -5.994311180      4.104      8.310
REMARK  6 active torsions:
REMARK  status: ('A' for Active; 'I' for Inactive)
REMARK    1  A    between atoms: C2_2  and  N1_3 
REMARK    2  A    between atoms: N1_3  and  C3_4 
REMARK    3  A    between atoms: N1_3  and  C5_7 
REMARK    4  A    between atoms: C3_4  and  C4_5 
REMARK    5  A    between atoms: C8_11  and  N2_12 
REMARK       I    between atoms: N2_12  and  C9_14 
REMARK       I    between atoms: C9_14  and  N3_16 
REMARK    6  A    between atoms: N3_16  and  C11_18 
ROOT
HETATM    1  C5  UNL     1      -7.903   8.976   1.522  1.00  0.00     0.073 A 
HETATM    2  C6  UNL     1      -8.816   9.204   0.478  1.00  0.00     0.173 A 
HETATM    3  O1  UNL     1      -8.146   9.648  -0.547  1.00  0.00    -0.317 OA
HETATM    4  C7  UNL     1      -6.860   9.745  -0.299  1.00  0.00     0.122 A 
HETATM    5  C8  UNL     1      -5.797  10.180  -1.136  1.00  0.00     0.094 A 
HETATM    6  C16 UNL     1      -4.503  10.242  -0.781  1.00  0.00     0.070 A 
HETATM    7 CL1  UNL     1      -3.292  10.823  -1.958  1.00  0.00    -0.081 Cl
HETATM    8  C17 UNL     1      -3.935   9.904   0.446  1.00  0.00     0.076 A 
HETATM    9  S2  UNL     1      -5.088   9.355   1.574  1.00  0.00    -0.095 SA
HETATM   10  C18 UNL     1      -6.684   9.329   0.991  1.00  0.00     0.069 A 
ENDROOT
BRANCH   5  11
HETATM   11  N2  UNL     1      -6.182  10.508  -2.292  1.00  0.00    -0.305 N 
HETATM   12  C9  UNL     1      -7.285  10.421  -3.076  1.00  0.00     0.323 C 
HETATM   13  O2  UNL     1      -7.530   9.379  -3.754  1.00  0.00    -0.247 OA
HETATM   14  N3  UNL     1      -8.204  11.525  -3.158  1.00  0.00    -0.334 N 
HETATM   15  C10 UNL     1      -7.884  12.688  -2.313  1.00  0.00     0.155 C 
ATOM     16  H2  UNL     1      -5.432  10.986  -2.791  1.00  0.00     0.171 HD
BRANCH  14  17
HETATM   17  C11 UNL     1      -9.355  11.541  -4.021  1.00  0.00     0.091 C 
HETATM   18  C12 UNL     1      -9.152  12.259  -5.306  1.00  0.00     0.053 C 
HETATM   19  C13 UNL     1     -10.274  11.829  -6.254  1.00  0.00     0.234 C 
HETATM   20  N4  UNL     1     -11.453  11.482  -5.520  1.00  0.00    -0.075 N 
HETATM   21  C14 UNL     1     -11.642  12.352  -4.373  1.00  0.00     0.234 C 
ATOM     22  H42 UNL     1     -12.278  11.473  -6.121  1.00  0.00     0.277 HD
ATOM     23  H41 UNL     1     -11.446  10.499  -5.246  1.00  0.00     0.277 HD
HETATM   24  C15 UNL     1     -10.567  12.142  -3.314  1.00  0.00     0.053 C 
ENDBRANCH  14  17
ENDBRANCH   5  11
BRANCH   1  25
HETATM   25  N1  UNL     1      -8.220   8.466   2.812  1.00  0.00    -0.378 N 
BRANCH  25  26
HETATM   26  C2  UNL     1      -7.938   9.342   3.955  1.00  0.00     0.118 C 
HETATM   27  C1  UNL     1      -6.926   8.787   4.901  1.00  0.00     0.026 C 
ENDBRANCH  25  26
BRANCH  25  28
HETATM   28  C3  UNL     1      -8.822   7.196   3.012  1.00  0.00     0.134 C 
BRANCH  28  29
HETATM   29  C4  UNL     1     -10.298   7.210   3.321  1.00  0.00     0.106 C 
HETATM   30  S1  UNL     1     -10.611   5.624   4.206  1.00  0.00    -0.096 SA
ENDBRANCH  28  29
ENDBRANCH  25  28
ENDBRANCH   1  25
TORSDOF 6
ENDMDL
