MODEL 1
REMARK VINA RESULT: -7.809234354      0.000      0.000
REMARK  6 active torsions:
REMARK  status: ('A' for Active; 'I' for Inactive)
REMARK    1  A    between atoms: C2_3  and  C3_4 
REMARK    2  A    between atoms: C3_4  and  N2_5 
REMARK    3  A    between atoms: C4_6  and  N3_7 
REMARK    4  A    between atoms: C5_10  and  C6_11 
REMARK    5  A    between atoms: C15_23  and  C16_24 
REMARK    6  A    between atoms: C16_24  and  N5_25 
ROOT
HETATM    1  N1  UNL     1      -3.322  10.637  -1.829  1.00  0.00    -0.197 NA
HETATM    2  C1  UNL     1      -3.581  10.099  -0.835  1.00  0.00     0.061 C 
HETATM    3  C2  UNL     1      -3.876   9.430   0.416  1.00  0.00     0.155 C 
ENDROOT
BRANCH   3   4
HETATM    4  C3  UNL     1      -4.194  10.397   1.559  1.00  0.00     0.052 C 
HETATM    5  C22 UNL     1      -5.215  11.369   0.943  1.00  0.00     0.032 C 
HETATM    6  C23 UNL     1      -4.823  12.725   1.498  1.00  0.00     0.002 C 
HETATM    7  C24 UNL     1      -3.312  12.671   1.585  1.00  0.00     0.002 C 
HETATM    8  C25 UNL     1      -2.938  11.221   1.687  1.00  0.00     0.032 C 
BRANCH   4   9
HETATM    9  N2  UNL     1      -4.760   9.819   2.718  1.00  0.00    -0.305 N 
HETATM   10  C4  UNL     1      -6.018   9.258   2.601  1.00  0.00     0.131 A 
HETATM   11  C5  UNL     1      -6.576   8.697   3.715  1.00  0.00     0.087 A 
HETATM   12  N4  UNL     1      -5.920   8.683   4.916  1.00  0.00    -0.349 N 
HETATM   13  C12 UNL     1      -4.710   9.222   5.032  1.00  0.00     0.077 A 
ATOM     14  H4  UNL     1      -6.363   8.255   5.730  1.00  0.00     0.166 HD
HETATM   15  C13 UNL     1      -4.097   9.196   6.263  1.00  0.00     0.035 A 
HETATM   16  C21 UNL     1      -4.123   9.803   3.901  1.00  0.00     0.137 A 
HETATM   17  C14 UNL     1      -2.847   9.759   6.420  1.00  0.00     0.029 A 
HETATM   18  C15 UNL     1      -2.285  10.327   5.297  1.00  0.00     0.039 A 
HETATM   19  N6  UNL     1      -2.917  10.325   4.142  1.00  0.00    -0.342 N 
ATOM     20  H6  UNL     1      -2.440  10.765   3.356  1.00  0.00     0.167 HD
BRANCH  10  21
HETATM   21  N3  UNL     1      -6.595   9.286   1.469  1.00  0.00    -0.383 N 
ATOM     22  H32 UNL     1      -7.491   8.834   1.286  1.00  0.00     0.157 HD
ATOM     23  H31 UNL     1      -6.141   9.781   0.701  1.00  0.00     0.157 HD
ENDBRANCH  10  21
BRANCH  11  24
HETATM   24  C6  UNL     1      -7.904   8.079   3.635  1.00  0.00    -0.005 A 
HETATM   25  C7  UNL     1      -7.994   6.713   3.809  1.00  0.00     0.017 A 
HETATM   26  C8  UNL     1      -9.219   6.101   3.785  1.00  0.00     0.043 A 
HETATM   27  C9  UNL     1     -10.345   6.901   3.582  1.00  0.00     0.116 A 
HETATM   28  F1  UNL     1     -11.565   6.346   3.551  1.00  0.00    -0.206 F 
HETATM   29  C10 UNL     1     -10.239   8.260   3.411  1.00  0.00     0.043 A 
HETATM   30  C11 UNL     1      -8.999   8.864   3.437  1.00  0.00     0.017 A 
ENDBRANCH  11  24
BRANCH  18  31
HETATM   31  C16 UNL     1      -0.934  10.935   5.452  1.00  0.00     0.329 C 
BRANCH  31  32
HETATM   32  N5  UNL     1      -0.607  11.735   4.280  1.00  0.00     0.094 N 
HETATM   33  C17 UNL     1       0.688  11.259   3.838  1.00  0.00     0.273 C 
HETATM   34  C18 UNL     1       1.507  12.471   3.483  1.00  0.00     0.032 C 
HETATM   35  C19 UNL     1       0.887  13.606   4.244  1.00  0.00     0.032 C 
HETATM   36  C20 UNL     1      -0.485  13.136   4.605  1.00  0.00     0.273 C 
ENDBRANCH  31  32
ENDBRANCH  18  31
ENDBRANCH   4   9
ENDBRANCH   3   4
TORSDOF 6
ENDMDL
MODEL 2
REMARK VINA RESULT: -7.809052703      1.167      1.494
REMARK  6 active torsions:
REMARK  status: ('A' for Active; 'I' for Inactive)
REMARK    1  A    between atoms: C2_3  and  C3_4 
REMARK    2  A    between atoms: C3_4  and  N2_5 
REMARK    3  A    between atoms: C4_6  and  N3_7 
REMARK    4  A    between atoms: C5_10  and  C6_11 
REMARK    5  A    between atoms: C15_23  and  C16_24 
REMARK    6  A    between atoms: C16_24  and  N5_25 
ROOT
HETATM    1  N1  UNL     1      -3.323  10.541  -1.802  1.00  0.00    -0.197 NA
HETATM    2  C1  UNL     1      -3.590  10.019  -0.802  1.00  0.00     0.061 C 
HETATM    3  C2  UNL     1      -3.896   9.371   0.458  1.00  0.00     0.155 C 
ENDROOT
BRANCH   3   4
HETATM    4  C3  UNL     1      -4.324  10.350   1.553  1.00  0.00     0.052 C 
HETATM    5  C22 UNL     1      -5.381  11.230   0.865  1.00  0.00     0.032 C 
HETATM    6  C23 UNL     1      -5.102  12.627   1.388  1.00  0.00     0.002 C 
HETATM    7  C24 UNL     1      -3.596  12.678   1.535  1.00  0.00     0.002 C 
HETATM    8  C25 UNL     1      -3.132  11.261   1.702  1.00  0.00     0.032 C 
BRANCH   4   9
HETATM    9  N2  UNL     1      -4.897   9.772   2.709  1.00  0.00    -0.305 N 
HETATM   10  C4  UNL     1      -6.152   9.207   2.583  1.00  0.00     0.131 A 
HETATM   11  C5  UNL     1      -6.717   8.645   3.693  1.00  0.00     0.087 A 
HETATM   12  N4  UNL     1      -6.071   8.635   4.899  1.00  0.00    -0.349 N 
HETATM   13  C12 UNL     1      -4.864   9.179   5.024  1.00  0.00     0.077 A 
ATOM     14  H4  UNL     1      -6.519   8.207   5.710  1.00  0.00     0.166 HD
HETATM   15  C13 UNL     1      -4.261   9.157   6.260  1.00  0.00     0.035 A 
HETATM   16  C21 UNL     1      -4.270   9.760   3.897  1.00  0.00     0.137 A 
HETATM   17  C14 UNL     1      -3.014   9.725   6.426  1.00  0.00     0.029 A 
HETATM   18  C15 UNL     1      -2.445  10.293   5.306  1.00  0.00     0.039 A 
HETATM   19  N6  UNL     1      -3.068  10.287   4.146  1.00  0.00    -0.342 N 
ATOM     20  H6  UNL     1      -2.586  10.727   3.363  1.00  0.00     0.167 HD
BRANCH  10  21
HETATM   21  N3  UNL     1      -6.720   9.230   1.446  1.00  0.00    -0.383 N 
ATOM     22  H32 UNL     1      -6.218   9.103   0.567  1.00  0.00     0.157 HD
ATOM     23  H31 UNL     1      -7.727   9.386   1.406  1.00  0.00     0.157 HD
ENDBRANCH  10  21
BRANCH  11  24
HETATM   24  C6  UNL     1      -8.042   8.023   3.603  1.00  0.00    -0.005 A 
HETATM   25  C7  UNL     1      -8.128   6.655   3.774  1.00  0.00     0.017 A 
HETATM   26  C8  UNL     1      -9.351   6.039   3.742  1.00  0.00     0.043 A 
HETATM   27  C9  UNL     1     -10.478   6.835   3.533  1.00  0.00     0.116 A 
HETATM   28  F1  UNL     1     -11.696   6.276   3.493  1.00  0.00    -0.206 F 
HETATM   29  C10 UNL     1     -10.376   8.195   3.365  1.00  0.00     0.043 A 
HETATM   30  C11 UNL     1      -9.139   8.804   3.399  1.00  0.00     0.017 A 
ENDBRANCH  11  24
BRANCH  18  31
HETATM   31  C16 UNL     1      -1.097  10.907   5.472  1.00  0.00     0.329 C 
BRANCH  31  32
HETATM   32  N5  UNL     1      -0.876  11.262   6.867  1.00  0.00     0.094 N 
HETATM   33  C17 UNL     1      -0.895  12.710   6.902  1.00  0.00     0.273 C 
HETATM   34  C18 UNL     1       0.233  13.145   7.798  1.00  0.00     0.032 C 
HETATM   35  C19 UNL     1       1.200  11.998   7.803  1.00  0.00     0.032 C 
HETATM   36  C20 UNL     1       0.415  10.817   7.334  1.00  0.00     0.273 C 
ENDBRANCH  31  32
ENDBRANCH  18  31
ENDBRANCH   4   9
ENDBRANCH   3   4
TORSDOF 6
ENDMDL
MODEL 3
REMARK VINA RESULT: -7.658897844      2.980      5.908
REMARK  6 active torsions:
REMARK  status: ('A' for Active; 'I' for Inactive)
REMARK    1  A    between atoms: C2_3  and  C3_4 
REMARK    2  A    between atoms: C3_4  and  N2_5 
REMARK    3  A    between atoms: C4_6  and  N3_7 
REMARK    4  A    between atoms: C5_10  and  C6_11 
REMARK    5  A    between atoms: C15_23  and  C16_24 
REMARK    6  A    between atoms: C16_24  and  N5_25 
ROOT
HETATM    1  N1  UNL     1      -9.259   5.934   5.158  1.00  0.00    -0.197 NA
HETATM    2  C1  UNL     1      -8.491   6.420   4.438  1.00  0.00     0.061 C 
HETATM    3  C2  UNL     1      -7.545   7.013   3.515  1.00  0.00     0.155 C 
ENDROOT
BRANCH   3   4
HETATM    4  C3  UNL     1      -8.073   8.280   2.838  1.00  0.00     0.052 C 
HETATM    5  C22 UNL     1      -8.527   9.162   4.013  1.00  0.00     0.032 C 
HETATM    6  C23 UNL     1      -9.813   9.802   3.524  1.00  0.00     0.002 C 
HETATM    7  C24 UNL     1     -10.464   8.732   2.673  1.00  0.00     0.002 C 
HETATM    8  C25 UNL     1      -9.362   7.829   2.200  1.00  0.00     0.032 C 
BRANCH   4   9
HETATM    9  N2  UNL     1      -7.137   9.002   2.063  1.00  0.00    -0.305 N 
HETATM   10  C4  UNL     1      -7.484   9.302   0.760  1.00  0.00     0.131 A 
HETATM   11  C5  UNL     1      -6.588  10.000   0.001  1.00  0.00     0.087 A 
HETATM   12  N4  UNL     1      -5.378  10.397   0.504  1.00  0.00    -0.349 N 
HETATM   13  C12 UNL     1      -5.040  10.109   1.758  1.00  0.00     0.077 A 
ATOM     14  H4  UNL     1      -4.730  10.918  -0.088  1.00  0.00     0.166 HD
HETATM   15  C13 UNL     1      -3.809  10.517   2.213  1.00  0.00     0.035 A 
HETATM   16  C21 UNL     1      -5.947   9.394   2.550  1.00  0.00     0.137 A 
HETATM   17  C14 UNL     1      -3.422  10.223   3.506  1.00  0.00     0.029 A 
HETATM   18  C15 UNL     1      -4.326   9.517   4.270  1.00  0.00     0.039 A 
HETATM   19  N6  UNL     1      -5.493   9.151   3.783  1.00  0.00    -0.342 N 
ATOM     20  H6  UNL     1      -6.109   8.630   4.407  1.00  0.00     0.167 HD
BRANCH  10  21
HETATM   21  N3  UNL     1      -8.618   8.922   0.328  1.00  0.00    -0.383 N 
ATOM     22  H32 UNL     1      -9.010   8.000   0.521  1.00  0.00     0.157 HD
ATOM     23  H31 UNL     1      -9.165   9.566  -0.242  1.00  0.00     0.157 HD
ENDBRANCH  10  21
BRANCH  11  24
HETATM   24  C6  UNL     1      -6.919  10.351  -1.384  1.00  0.00    -0.005 A 
HETATM   25  C7  UNL     1      -7.685  11.479  -1.600  1.00  0.00     0.017 A 
HETATM   26  C8  UNL     1      -7.981  11.868  -2.881  1.00  0.00     0.043 A 
HETATM   27  C9  UNL     1      -7.487  11.091  -3.930  1.00  0.00     0.116 A 
HETATM   28  F1  UNL     1      -7.751  11.432  -5.199  1.00  0.00    -0.206 F 
HETATM   29  C10 UNL     1      -6.725   9.971  -3.698  1.00  0.00     0.043 A 
HETATM   30  C11 UNL     1      -6.434   9.590  -2.404  1.00  0.00     0.017 A 
ENDBRANCH  11  24
BRANCH  18  31
HETATM   31  C16 UNL     1      -3.922   9.197   5.668  1.00  0.00     0.329 C 
BRANCH  31  32
HETATM   32  N5  UNL     1      -2.937  10.160   6.138  1.00  0.00     0.094 N 
HETATM   33  C17 UNL     1      -1.719   9.401   6.332  1.00  0.00     0.273 C 
HETATM   34  C18 UNL     1      -1.112   9.863   7.630  1.00  0.00     0.032 C 
HETATM   35  C19 UNL     1      -2.249  10.450   8.413  1.00  0.00     0.032 C 
HETATM   36  C20 UNL     1      -3.315  10.736   7.406  1.00  0.00     0.273 C 
ENDBRANCH  31  32
ENDBRANCH  18  31
ENDBRANCH   4   9
ENDBRANCH   3   4
TORSDOF 6
ENDMDL
MODEL 4
REMARK VINA RESULT: -7.375165614      2.532      3.754
REMARK  6 active torsions:
REMARK  status: ('A' for Active; 'I' for Inactive)
REMARK    1  A    between atoms: C2_3  and  C3_4 
REMARK    2  A    between atoms: C3_4  and  N2_5 
REMARK    3  A    between atoms: C4_6  and  N3_7 
REMARK    4  A    between atoms: C5_10  and  C6_11 
REMARK    5  A    between atoms: C15_23  and  C16_24 
REMARK    6  A    between atoms: C16_24  and  N5_25 
ROOT
HETATM    1  N1  UNL     1      -7.833  13.390  -2.779  1.00  0.00    -0.197 NA
HETATM    2  C1  UNL     1      -7.749  12.871  -1.746  1.00  0.00     0.061 C 
HETATM    3  C2  UNL     1      -7.670  12.209  -0.459  1.00  0.00     0.155 C 
ENDROOT
BRANCH   3   4
HETATM    4  C3  UNL     1      -7.136  10.778  -0.547  1.00  0.00     0.052 C 
HETATM    5  C22 UNL     1      -5.776  10.937  -1.248  1.00  0.00     0.032 C 
HETATM    6  C23 UNL     1      -5.700   9.750  -2.190  1.00  0.00     0.002 C 
HETATM    7  C24 UNL     1      -7.128   9.549  -2.654  1.00  0.00     0.002 C 
HETATM    8  C25 UNL     1      -8.012  10.135  -1.592  1.00  0.00     0.032 C 
BRANCH   4   9
HETATM    9  N2  UNL     1      -6.936  10.117   0.686  1.00  0.00    -0.305 N 
HETATM   10  C4  UNL     1      -7.940   9.277   1.129  1.00  0.00     0.131 A 
HETATM   11  C5  UNL     1      -7.759   8.633   2.320  1.00  0.00     0.087 A 
HETATM   12  N4  UNL     1      -6.622   8.804   3.063  1.00  0.00    -0.349 N 
HETATM   13  C12 UNL     1      -5.654   9.611   2.640  1.00  0.00     0.077 A 
ATOM     14  H4  UNL     1      -6.516   8.308   3.948  1.00  0.00     0.166 HD
HETATM   15  C13 UNL     1      -4.537   9.762   3.427  1.00  0.00     0.035 A 
HETATM   16  C21 UNL     1      -5.823  10.281   1.421  1.00  0.00     0.137 A 
HETATM   17  C14 UNL     1      -3.519  10.603   3.023  1.00  0.00     0.029 A 
HETATM   18  C15 UNL     1      -3.703  11.255   1.823  1.00  0.00     0.039 A 
HETATM   19  N6  UNL     1      -4.794  11.075   1.109  1.00  0.00    -0.342 N 
ATOM     20  H6  UNL     1      -4.861  11.591   0.232  1.00  0.00     0.167 HD
BRANCH  10  21
HETATM   21  N3  UNL     1      -8.980   9.139   0.411  1.00  0.00    -0.383 N 
ATOM     22  H32 UNL     1      -9.195   9.740  -0.384  1.00  0.00     0.157 HD
ATOM     23  H31 UNL     1      -9.636   8.392   0.640  1.00  0.00     0.157 HD
ENDBRANCH  10  21
BRANCH  11  24
HETATM   24  C6  UNL     1      -8.793   7.723   2.823  1.00  0.00    -0.005 A 
HETATM   25  C7  UNL     1      -8.419   6.763   3.744  1.00  0.00     0.017 A 
HETATM   26  C8  UNL     1      -9.362   5.921   4.273  1.00  0.00     0.043 A 
HETATM   27  C9  UNL     1     -10.683   6.071   3.849  1.00  0.00     0.116 A 
HETATM   28  F1  UNL     1     -11.640   5.269   4.338  1.00  0.00    -0.206 F 
HETATM   29  C10 UNL     1     -11.040   7.031   2.933  1.00  0.00     0.043 A 
HETATM   30  C11 UNL     1     -10.081   7.873   2.408  1.00  0.00     0.017 A 
ENDBRANCH  11  24
BRANCH  18  31
HETATM   31  C16 UNL     1      -2.611  12.163   1.374  1.00  0.00     0.329 C 
BRANCH  31  32
HETATM   32  N5  UNL     1      -3.174  13.389   0.824  1.00  0.00     0.094 N 
HETATM   33  C17 UNL     1      -2.045  14.125   0.293  1.00  0.00     0.273 C 
HETATM   34  C18 UNL     1      -2.232  15.566   0.687  1.00  0.00     0.032 C 
HETATM   35  C19 UNL     1      -3.135  15.535   1.884  1.00  0.00     0.032 C 
HETATM   36  C20 UNL     1      -3.797  14.196   1.846  1.00  0.00     0.273 C 
ENDBRANCH  31  32
ENDBRANCH  18  31
ENDBRANCH   4   9
ENDBRANCH   3   4
TORSDOF 6
ENDMDL
MODEL 5
REMARK VINA RESULT: -7.365268603      1.387      2.105
REMARK  6 active torsions:
REMARK  status: ('A' for Active; 'I' for Inactive)
REMARK    1  A    between atoms: C2_3  and  C3_4 
REMARK    2  A    between atoms: C3_4  and  N2_5 
REMARK    3  A    between atoms: C4_6  and  N3_7 
REMARK    4  A    between atoms: C5_10  and  C6_11 
REMARK    5  A    between atoms: C15_23  and  C16_24 
REMARK    6  A    between atoms: C16_24  and  N5_25 
ROOT
HETATM    1  N1  UNL     1      -4.334  13.068  -0.860  1.00  0.00    -0.197 NA
HETATM    2  C1  UNL     1      -4.832  12.551   0.050  1.00  0.00     0.061 C 
HETATM    3  C2  UNL     1      -5.480  11.899   1.170  1.00  0.00     0.155 C 
ENDROOT
BRANCH   3   4
HETATM    4  C3  UNL     1      -5.335  10.376   1.150  1.00  0.00     0.052 C 
HETATM    5  C22 UNL     1      -3.844  10.153   0.845  1.00  0.00     0.032 C 
HETATM    6  C23 UNL     1      -3.829   8.972  -0.107  1.00  0.00     0.002 C 
HETATM    7  C24 UNL     1      -5.079   9.149  -0.943  1.00  0.00     0.002 C 
HETATM    8  C25 UNL     1      -6.032   9.969  -0.123  1.00  0.00     0.032 C 
BRANCH   4   9
HETATM    9  N2  UNL     1      -5.656   9.708   2.354  1.00  0.00    -0.305 N 
HETATM   10  C4  UNL     1      -6.861   9.035   2.408  1.00  0.00     0.131 A 
HETATM   11  C5  UNL     1      -7.184   8.386   3.566  1.00  0.00     0.087 A 
HETATM   12  N4  UNL     1      -6.347   8.395   4.649  1.00  0.00    -0.349 N 
HETATM   13  C12 UNL     1      -5.187   9.043   4.602  1.00  0.00     0.077 A 
ATOM     14  H4  UNL     1      -6.616   7.901   5.501  1.00  0.00     0.166 HD
HETATM   15  C13 UNL     1      -4.386   9.035   5.720  1.00  0.00     0.035 A 
HETATM   16  C21 UNL     1      -4.841   9.714   3.422  1.00  0.00     0.137 A 
HETATM   17  C14 UNL     1      -3.182   9.709   5.708  1.00  0.00     0.029 A 
HETATM   18  C15 UNL     1      -2.858  10.364   4.540  1.00  0.00     0.039 A 
HETATM   19  N6  UNL     1      -3.663  10.340   3.498  1.00  0.00    -0.342 N 
ATOM     20  H6  UNL     1      -3.357  10.849   2.669  1.00  0.00     0.167 HD
BRANCH  10  21
HETATM   21  N3  UNL     1      -7.611   9.044   1.381  1.00  0.00    -0.383 N 
ATOM     22  H32 UNL     1      -7.358   9.505   0.507  1.00  0.00     0.157 HD
ATOM     23  H31 UNL     1      -8.513   8.571   1.430  1.00  0.00     0.157 HD
ENDBRANCH  10  21
BRANCH  11  24
HETATM   24  C6  UNL     1      -8.447   7.649   3.664  1.00  0.00    -0.005 A 
HETATM   25  C7  UNL     1      -8.460   6.480   4.400  1.00  0.00     0.017 A 
HETATM   26  C8  UNL     1      -9.629   5.782   4.553  1.00  0.00     0.043 A 
HETATM   27  C9  UNL     1     -10.778   6.292   3.946  1.00  0.00     0.116 A 
HETATM   28  F1  UNL     1     -11.945   5.643   4.069  1.00  0.00    -0.206 F 
HETATM   29  C10 UNL     1     -10.750   7.457   3.218  1.00  0.00     0.043 A 
HETATM   30  C11 UNL     1      -9.566   8.150   3.070  1.00  0.00     0.017 A 
ENDBRANCH  11  24
BRANCH  18  31
HETATM   31  C16 UNL     1      -1.558  11.093   4.512  1.00  0.00     0.329 C 
BRANCH  31  32
HETATM   32  N5  UNL     1      -0.887  10.968   5.799  1.00  0.00     0.094 N 
HETATM   33  C17 UNL     1      -0.683  12.326   6.259  1.00  0.00     0.273 C 
HETATM   34  C18 UNL     1       0.710  12.396   6.825  1.00  0.00     0.032 C 
HETATM   35  C19 UNL     1       1.457  11.267   6.180  1.00  0.00     0.032 C 
HETATM   36  C20 UNL     1       0.404  10.338   5.669  1.00  0.00     0.273 C 
ENDBRANCH  31  32
ENDBRANCH  18  31
ENDBRANCH   4   9
ENDBRANCH   3   4
TORSDOF 6
ENDMDL
