MODEL 1
REMARK VINA RESULT: -7.270222381      0.000      0.000
REMARK  7 active torsions:
REMARK  status: ('A' for Active; 'I' for Inactive)
REMARK    1  A    between atoms: C2_2  and  O1_3 
REMARK    2  A    between atoms: C2_2  and  C14_25 
REMARK    3  A    between atoms: O1_3  and  C3_4 
REMARK       I    between atoms: C3_4  and  N1_6 
REMARK    4  A    between atoms: N1_6  and  C4_8 
REMARK    5  A    between atoms: C7_11  and  C8_12 
REMARK    6  A    between atoms: C8_12  and  N2_13 
REMARK    7  A    between atoms: C10_15  and  C11_16 
ROOT
HETATM    1  C4  UNL     1      -8.212   9.932   0.007  1.00  0.00     0.179 C 
HETATM    2  C5  UNL     1      -8.988  11.232   0.105  1.00  0.00     0.035 C 
HETATM    3  C6  UNL     1      -9.472  11.698  -1.261  1.00  0.00     0.014 C 
HETATM    4  C7  UNL     1      -8.382  12.198  -2.134  1.00  0.00     0.043 C 
HETATM    5  C12 UNL     1      -7.133  12.618  -1.338  1.00  0.00     0.132 C 
HETATM    6  N3  UNL     1      -6.355  11.444  -1.011  1.00  0.00    -0.359 N 
ATOM      7  H3  UNL     1      -5.345  11.519  -1.124  1.00  0.00     0.162 HD
HETATM    8  C13 UNL     1      -6.853  10.196  -0.549  1.00  0.00     0.240 C 
HETATM    9  O3  UNL     1      -6.106   9.182  -0.594  1.00  0.00    -0.271 OA
ENDROOT
BRANCH   1  10
HETATM   10  N1  UNL     1      -8.134   9.379   1.332  1.00  0.00    -0.324 N 
HETATM   11  C3  UNL     1      -9.198   8.758   2.003  1.00  0.00     0.361 C 
HETATM   12  O2  UNL     1     -10.311   8.658   1.443  1.00  0.00    -0.238 OA
ATOM     13  H1  UNL     1      -7.240   9.443   1.819  1.00  0.00     0.165 HD
BRANCH  11  14
HETATM   14  O1  UNL     1      -9.052   8.246   3.281  1.00  0.00    -0.299 OA
BRANCH  14  15
HETATM   15  C2  UNL     1      -9.047   6.850   3.453  1.00  0.00     0.133 C 
HETATM   16  C1  UNL     1      -7.604   6.450   3.722  1.00  0.00     0.040 C 
BRANCH  15  17
HETATM   17  C14 UNL     1      -9.946   6.436   4.586  1.00  0.00     0.015 C 
HETATM   18  C15 UNL     1      -9.106   5.661   5.604  1.00  0.00     0.007 C 
HETATM   19  C16 UNL     1     -10.001   5.189   6.729  1.00  0.00     0.000 C 
HETATM   20  C17 UNL     1     -11.277   4.551   6.250  1.00  0.00     0.000 C 
HETATM   21  C18 UNL     1     -11.161   4.263   4.787  1.00  0.00     0.000 C 
HETATM   22  C19 UNL     1     -11.079   5.613   4.068  1.00  0.00     0.007 C 
ENDBRANCH  15  17
ENDBRANCH  14  15
ENDBRANCH  11  14
ENDBRANCH   1  10
BRANCH   4  23
HETATM   23  C8  UNL     1      -8.838  13.309  -3.009  1.00  0.00     0.078 C 
BRANCH  23  24
HETATM   24  N2  UNL     1     -10.178  13.637  -3.089  1.00  0.00    -0.325 N 
HETATM   25  C9  UNL     1     -10.890  13.472  -4.299  1.00  0.00     0.155 C 
HETATM   26  C10 UNL     1     -12.376  13.474  -4.004  1.00  0.00     0.107 C 
HETATM   27  S1  UNL     1     -12.686  15.080  -3.150  1.00  0.00    -0.066 SA
HETATM   28  S2  UNL     1     -10.645  15.204  -2.408  1.00  0.00     0.022 SA
BRANCH  26  29
HETATM   29  C11 UNL     1     -12.796  12.314  -3.162  1.00  0.00     0.239 C 
HETATM   30  F1  UNL     1     -13.971  12.522  -2.493  1.00  0.00    -0.254 F 
ENDBRANCH  26  29
ENDBRANCH  23  24
ENDBRANCH   4  23
TORSDOF 7
ENDMDL
MODEL 2
REMARK VINA RESULT: -7.072813874      1.047      1.074
REMARK  7 active torsions:
REMARK  status: ('A' for Active; 'I' for Inactive)
REMARK    1  A    between atoms: C2_2  and  O1_3 
REMARK    2  A    between atoms: C2_2  and  C14_25 
REMARK    3  A    between atoms: O1_3  and  C3_4 
REMARK       I    between atoms: C3_4  and  N1_6 
REMARK    4  A    between atoms: N1_6  and  C4_8 
REMARK    5  A    between atoms: C7_11  and  C8_12 
REMARK    6  A    between atoms: C8_12  and  N2_13 
REMARK    7  A    between atoms: C10_15  and  C11_16 
ROOT
HETATM    1  C4  UNL     1      -8.235   9.978  -0.010  1.00  0.00     0.179 C 
HETATM    2  C5  UNL     1      -8.964  11.305   0.086  1.00  0.00     0.035 C 
HETATM    3  C6  UNL     1      -9.442  11.780  -1.279  1.00  0.00     0.014 C 
HETATM    4  C7  UNL     1      -8.340  12.236  -2.163  1.00  0.00     0.043 C 
HETATM    5  C12 UNL     1      -7.072  12.616  -1.378  1.00  0.00     0.132 C 
HETATM    6  N3  UNL     1      -6.334  11.417  -1.050  1.00  0.00    -0.359 N 
ATOM      7  H3  UNL     1      -5.322  11.456  -1.171  1.00  0.00     0.162 HD
HETATM    8  C13 UNL     1      -6.872  10.191  -0.577  1.00  0.00     0.240 C 
HETATM    9  O3  UNL     1      -6.162   9.150  -0.621  1.00  0.00    -0.271 OA
ENDROOT
BRANCH   1  10
HETATM   10  N1  UNL     1      -8.167   9.431   1.318  1.00  0.00    -0.324 N 
HETATM   11  C3  UNL     1      -9.224   8.774   1.967  1.00  0.00     0.361 C 
HETATM   12  O2  UNL     1     -10.320   8.635   1.383  1.00  0.00    -0.238 OA
ATOM     13  H1  UNL     1      -7.286   9.527   1.825  1.00  0.00     0.165 HD
BRANCH  11  14
HETATM   14  O1  UNL     1      -9.088   8.270   3.250  1.00  0.00    -0.299 OA
BRANCH  14  15
HETATM   15  C2  UNL     1      -9.069   6.875   3.429  1.00  0.00     0.133 C 
HETATM   16  C1  UNL     1      -7.618   6.487   3.669  1.00  0.00     0.040 C 
BRANCH  15  17
HETATM   17  C14 UNL     1      -9.942   6.460   4.581  1.00  0.00     0.015 C 
HETATM   18  C15 UNL     1      -9.082   5.672   5.573  1.00  0.00     0.007 C 
HETATM   19  C16 UNL     1      -9.950   5.200   6.718  1.00  0.00     0.000 C 
HETATM   20  C17 UNL     1     -11.243   4.575   6.268  1.00  0.00     0.000 C 
HETATM   21  C18 UNL     1     -11.167   4.295   4.801  1.00  0.00     0.000 C 
HETATM   22  C19 UNL     1     -11.094   5.649   4.088  1.00  0.00     0.007 C 
ENDBRANCH  15  17
ENDBRANCH  14  15
ENDBRANCH  11  14
ENDBRANCH   1  10
BRANCH   4  23
HETATM   23  C8  UNL     1      -8.763  13.357  -3.042  1.00  0.00     0.078 C 
BRANCH  23  24
HETATM   24  N2  UNL     1      -9.893  13.246  -3.831  1.00  0.00    -0.325 N 
HETATM   25  C9  UNL     1      -9.904  12.393  -4.957  1.00  0.00     0.155 C 
HETATM   26  C10 UNL     1     -11.340  12.123  -5.359  1.00  0.00     0.107 C 
HETATM   27  S1  UNL     1     -12.069  13.791  -5.658  1.00  0.00    -0.066 SA
HETATM   28  S2  UNL     1     -10.672  14.765  -4.305  1.00  0.00     0.022 SA
BRANCH  26  29
HETATM   29  C11 UNL     1     -12.098  11.370  -4.314  1.00  0.00     0.239 C 
HETATM   30  F1  UNL     1     -13.184  10.700  -4.805  1.00  0.00    -0.254 F 
ENDBRANCH  26  29
ENDBRANCH  23  24
ENDBRANCH   4  23
TORSDOF 7
ENDMDL
MODEL 3
REMARK VINA RESULT: -6.914712578      0.505      1.058
REMARK  7 active torsions:
REMARK  status: ('A' for Active; 'I' for Inactive)
REMARK    1  A    between atoms: C2_2  and  O1_3 
REMARK    2  A    between atoms: C2_2  and  C14_25 
REMARK    3  A    between atoms: O1_3  and  C3_4 
REMARK       I    between atoms: C3_4  and  N1_6 
REMARK    4  A    between atoms: N1_6  and  C4_8 
REMARK    5  A    between atoms: C7_11  and  C8_12 
REMARK    6  A    between atoms: C8_12  and  N2_13 
REMARK    7  A    between atoms: C10_15  and  C11_16 
ROOT
HETATM    1  C4  UNL     1      -8.327   9.870   0.201  1.00  0.00     0.179 C 
HETATM    2  C5  UNL     1      -9.120  11.162   0.254  1.00  0.00     0.035 C 
HETATM    3  C6  UNL     1      -9.502  11.640  -1.141  1.00  0.00     0.014 C 
HETATM    4  C7  UNL     1      -8.352  12.159  -1.921  1.00  0.00     0.043 C 
HETATM    5  C12 UNL     1      -7.172  12.580  -1.026  1.00  0.00     0.132 C 
HETATM    6  N3  UNL     1      -6.411  11.409  -0.654  1.00  0.00    -0.359 N 
ATOM      7  H3  UNL     1      -5.396  11.494  -0.688  1.00  0.00     0.162 HD
HETATM    8  C13 UNL     1      -6.932  10.152  -0.246  1.00  0.00     0.240 C 
HETATM    9  O3  UNL     1      -6.175   9.144  -0.244  1.00  0.00    -0.271 OA
ENDROOT
BRANCH   1  10
HETATM   10  N1  UNL     1      -8.346   9.302   1.521  1.00  0.00    -0.324 N 
HETATM   11  C3  UNL     1      -9.462   8.690   2.112  1.00  0.00     0.361 C 
HETATM   12  O2  UNL     1     -10.536   8.612   1.478  1.00  0.00    -0.238 OA
ATOM     13  H1  UNL     1      -7.486   9.348   2.069  1.00  0.00     0.165 HD
BRANCH  11  14
HETATM   14  O1  UNL     1      -9.410   8.162   3.391  1.00  0.00    -0.299 OA
BRANCH  14  15
HETATM   15  C2  UNL     1      -8.448   7.177   3.677  1.00  0.00     0.133 C 
HETATM   16  C1  UNL     1      -7.493   7.783   4.693  1.00  0.00     0.040 C 
BRANCH  15  17
HETATM   17  C14 UNL     1      -9.090   5.925   4.211  1.00  0.00     0.015 C 
HETATM   18  C15 UNL     1     -10.608   6.066   4.060  1.00  0.00     0.007 C 
HETATM   19  C16 UNL     1     -11.280   4.840   4.637  1.00  0.00     0.000 C 
HETATM   20  C17 UNL     1     -10.747   4.448   5.990  1.00  0.00     0.000 C 
HETATM   21  C18 UNL     1      -9.927   5.573   6.537  1.00  0.00     0.000 C 
HETATM   22  C19 UNL     1      -8.697   5.713   5.635  1.00  0.00     0.007 C 
ENDBRANCH  15  17
ENDBRANCH  14  15
ENDBRANCH  11  14
ENDBRANCH   1  10
BRANCH   4  23
HETATM   23  C8  UNL     1      -8.749  13.277  -2.817  1.00  0.00     0.078 C 
BRANCH  23  24
HETATM   24  N2  UNL     1     -10.082  13.596  -2.996  1.00  0.00    -0.325 N 
HETATM   25  C9  UNL     1     -10.702  13.421  -4.254  1.00  0.00     0.155 C 
HETATM   26  C10 UNL     1     -12.206  13.413  -4.069  1.00  0.00     0.107 C 
HETATM   27  S1  UNL     1     -12.589  15.020  -3.247  1.00  0.00    -0.066 SA
HETATM   28  S2  UNL     1     -10.608  15.162  -2.357  1.00  0.00     0.022 SA
BRANCH  26  29
HETATM   29  C11 UNL     1     -12.679  12.253  -3.255  1.00  0.00     0.239 C 
HETATM   30  F1  UNL     1     -13.776  12.535  -2.488  1.00  0.00    -0.254 F 
ENDBRANCH  26  29
ENDBRANCH  23  24
ENDBRANCH   4  23
TORSDOF 7
ENDMDL
MODEL 4
REMARK VINA RESULT: -6.779395133      4.295      5.784
REMARK  7 active torsions:
REMARK  status: ('A' for Active; 'I' for Inactive)
REMARK    1  A    between atoms: C2_2  and  O1_3 
REMARK    2  A    between atoms: C2_2  and  C14_25 
REMARK    3  A    between atoms: O1_3  and  C3_4 
REMARK       I    between atoms: C3_4  and  N1_6 
REMARK    4  A    between atoms: N1_6  and  C4_8 
REMARK    5  A    between atoms: C7_11  and  C8_12 
REMARK    6  A    between atoms: C8_12  and  N2_13 
REMARK    7  A    between atoms: C10_15  and  C11_16 
ROOT
HETATM    1  C4  UNL     1      -7.653  10.266   0.704  1.00  0.00     0.179 C 
HETATM    2  C5  UNL     1      -6.376   9.482   0.472  1.00  0.00     0.035 C 
HETATM    3  C6  UNL     1      -5.201  10.404   0.174  1.00  0.00     0.014 C 
HETATM    4  C7  UNL     1      -5.276  11.039  -1.165  1.00  0.00     0.043 C 
HETATM    5  C12 UNL     1      -6.193  10.270  -2.134  1.00  0.00     0.132 C 
HETATM    6  N3  UNL     1      -7.570  10.623  -1.872  1.00  0.00    -0.359 N 
ATOM      7  H3  UNL     1      -8.162  10.788  -2.686  1.00  0.00     0.162 HD
HETATM    8  C13 UNL     1      -8.184  10.764  -0.599  1.00  0.00     0.240 C 
HETATM    9  O3  UNL     1      -9.290  11.362  -0.513  1.00  0.00    -0.271 OA
ENDROOT
BRANCH   1  10
HETATM   10  N1  UNL     1      -8.589   9.381   1.342  1.00  0.00    -0.324 N 
HETATM   11  C3  UNL     1      -8.793   9.298   2.728  1.00  0.00     0.361 C 
HETATM   12  O2  UNL     1      -8.135  10.031   3.498  1.00  0.00    -0.238 OA
ATOM     13  H1  UNL     1      -9.144   8.767   0.744  1.00  0.00     0.165 HD
BRANCH  11  14
HETATM   14  O1  UNL     1      -9.713   8.421   3.276  1.00  0.00    -0.299 OA
BRANCH  14  15
HETATM   15  C2  UNL     1      -9.331   7.083   3.483  1.00  0.00     0.133 C 
HETATM   16  C1  UNL     1      -7.826   7.090   3.704  1.00  0.00     0.040 C 
BRANCH  15  17
HETATM   17  C14 UNL     1     -10.052   6.485   4.660  1.00  0.00     0.015 C 
HETATM   18  C15 UNL     1      -9.033   5.715   5.503  1.00  0.00     0.007 C 
HETATM   19  C16 UNL     1      -9.744   5.060   6.667  1.00  0.00     0.000 C 
HETATM   20  C17 UNL     1     -11.003   4.339   6.267  1.00  0.00     0.000 C 
HETATM   21  C18 UNL     1     -11.031   4.190   4.780  1.00  0.00     0.000 C 
HETATM   22  C19 UNL     1     -11.157   5.598   4.189  1.00  0.00     0.007 C 
ENDBRANCH  15  17
ENDBRANCH  14  15
ENDBRANCH  11  14
ENDBRANCH   1  10
BRANCH   4  23
HETATM   23  C8  UNL     1      -3.929  11.228  -1.765  1.00  0.00     0.078 C 
BRANCH  23  24
HETATM   24  N2  UNL     1      -3.246  10.158  -2.313  1.00  0.00    -0.325 N 
HETATM   25  C9  UNL     1      -2.121   9.609  -1.658  1.00  0.00     0.155 C 
HETATM   26  C10 UNL     1      -1.851   8.225  -2.213  1.00  0.00     0.107 C 
HETATM   27  S1  UNL     1      -1.627   8.480  -4.027  1.00  0.00    -0.066 SA
HETATM   28  S2  UNL     1      -2.852  10.278  -4.036  1.00  0.00     0.022 SA
BRANCH  26  29
HETATM   29  C11 UNL     1      -2.957   7.263  -1.925  1.00  0.00     0.239 C 
HETATM   30  F1  UNL     1      -3.396   7.309  -0.630  1.00  0.00    -0.254 F 
ENDBRANCH  26  29
ENDBRANCH  23  24
ENDBRANCH   4  23
TORSDOF 7
ENDMDL
MODEL 5
REMARK VINA RESULT: -6.766451392      1.399      1.469
REMARK  7 active torsions:
REMARK  status: ('A' for Active; 'I' for Inactive)
REMARK    1  A    between atoms: C2_2  and  O1_3 
REMARK    2  A    between atoms: C2_2  and  C14_25 
REMARK    3  A    between atoms: O1_3  and  C3_4 
REMARK       I    between atoms: C3_4  and  N1_6 
REMARK    4  A    between atoms: N1_6  and  C4_8 
REMARK    5  A    between atoms: C7_11  and  C8_12 
REMARK    6  A    between atoms: C8_12  and  N2_13 
REMARK    7  A    between atoms: C10_15  and  C11_16 
ROOT
HETATM    1  C4  UNL     1      -7.533  10.187   0.500  1.00  0.00     0.179 C 
HETATM    2  C5  UNL     1      -8.518  11.288   0.158  1.00  0.00     0.035 C 
HETATM    3  C6  UNL     1      -8.448  11.662  -1.316  1.00  0.00     0.014 C 
HETATM    4  C7  UNL     1      -7.212  12.399  -1.678  1.00  0.00     0.043 C 
HETATM    5  C12 UNL     1      -6.543  13.064  -0.462  1.00  0.00     0.132 C 
HETATM    6  N3  UNL     1      -5.764  12.079   0.254  1.00  0.00    -0.359 N 
ATOM      7  H3  UNL     1      -4.842  12.372   0.577  1.00  0.00     0.162 HD
HETATM    8  C13 UNL     1      -6.151  10.746   0.557  1.00  0.00     0.240 C 
HETATM    9  O3  UNL     1      -5.271   9.917   0.913  1.00  0.00    -0.271 OA
ENDROOT
BRANCH   1  10
HETATM   10  N1  UNL     1      -7.925   9.641   1.771  1.00  0.00    -0.324 N 
HETATM   11  C3  UNL     1      -8.928   8.675   1.951  1.00  0.00     0.361 C 
HETATM   12  O2  UNL     1      -9.549   8.233   0.961  1.00  0.00    -0.238 OA
ATOM     13  H1  UNL     1      -7.439   9.980   2.602  1.00  0.00     0.165 HD
BRANCH  11  14
HETATM   14  O1  UNL     1      -9.255   8.193   3.207  1.00  0.00    -0.299 OA
BRANCH  14  15
HETATM   15  C2  UNL     1      -9.140   6.813   3.452  1.00  0.00     0.133 C 
HETATM   16  C1  UNL     1      -7.668   6.540   3.723  1.00  0.00     0.040 C 
BRANCH  15  17
HETATM   17  C14 UNL     1      -9.995   6.391   4.615  1.00  0.00     0.015 C 
HETATM   18  C15 UNL     1      -9.107   5.646   5.615  1.00  0.00     0.007 C 
HETATM   19  C16 UNL     1      -9.956   5.167   6.772  1.00  0.00     0.000 C 
HETATM   20  C17 UNL     1     -11.231   4.495   6.338  1.00  0.00     0.000 C 
HETATM   21  C18 UNL     1     -11.152   4.193   4.875  1.00  0.00     0.000 C 
HETATM   22  C19 UNL     1     -11.124   5.536   4.140  1.00  0.00     0.007 C 
ENDBRANCH  15  17
ENDBRANCH  14  15
ENDBRANCH  11  14
ENDBRANCH   1  10
BRANCH   4  23
HETATM   23  C8  UNL     1      -7.458  13.401  -2.748  1.00  0.00     0.078 C 
BRANCH  23  24
HETATM   24  N2  UNL     1      -8.706  13.515  -3.333  1.00  0.00    -0.325 N 
HETATM   25  C9  UNL     1      -8.887  13.231  -4.705  1.00  0.00     0.155 C 
HETATM   26  C10 UNL     1     -10.361  13.003  -4.973  1.00  0.00     0.107 C 
HETATM   27  S1  UNL     1     -11.191  14.546  -4.397  1.00  0.00    -0.066 SA
HETATM   28  S2  UNL     1      -9.611  14.994  -2.970  1.00  0.00     0.022 SA
BRANCH  26  29
HETATM   29  C11 UNL     1     -10.893  11.797  -4.270  1.00  0.00     0.239 C 
HETATM   30  F1  UNL     1      -9.994  10.768  -4.195  1.00  0.00    -0.254 F 
ENDBRANCH  26  29
ENDBRANCH  23  24
ENDBRANCH   4  23
TORSDOF 7
ENDMDL
