MODEL 1
REMARK VINA RESULT: -8.240641032      0.000      0.000
REMARK  7 active torsions:
REMARK  status: ('A' for Active; 'I' for Inactive)
REMARK    1  A    between atoms: N1_2  and  C1_4 
REMARK    2  A    between atoms: C1_4  and  C2_5 
REMARK    3  A    between atoms: C1_4  and  N6_28 
REMARK    4  A    between atoms: C2_5  and  N4_16 
REMARK    5  A    between atoms: N2_6  and  N3_8 
REMARK    6  A    between atoms: N3_8  and  C3_10 
REMARK    7  A    between atoms: N4_16  and  C9_17 
ROOT
HETATM    1  C2  UNL     1      -5.273   9.728   3.158  1.00  0.00     0.232 C 
HETATM    2  N2  UNL     1      -4.189   9.538   3.935  1.00  0.00    -0.274 N 
ATOM      3  H2  UNL     1      -3.289   9.933   3.659  1.00  0.00     0.189 HD
ENDROOT
BRANCH   1   4
HETATM    4  C1  UNL     1      -4.952  10.552   1.923  1.00  0.00     0.472 C 
BRANCH   4   5
HETATM    5  N1  UNL     1      -4.051   9.749   1.125  1.00  0.00    -0.111 N 
HETATM    6  O1  UNL     1      -4.095   8.519   1.214  1.00  0.00    -0.534 OA
HETATM    7  O2  UNL     1      -3.169  10.350   0.288  1.00  0.00    -0.534 OA
ENDBRANCH   4   5
BRANCH   4   8
HETATM    8  N6  UNL     1      -6.182  10.641   1.179  1.00  0.00     0.126 N 
HETATM    9  C16 UNL     1      -6.161   9.923  -0.074  1.00  0.00     0.276 C 
HETATM   10  C17 UNL     1      -7.623   9.532  -0.339  1.00  0.00     0.030 C 
HETATM   11  C18 UNL     1      -8.413  10.792  -0.457  1.00  0.00     0.003 C 
HETATM   12  C19 UNL     1      -7.682  12.049  -0.144  1.00  0.00     0.030 C 
HETATM   13  C20 UNL     1      -6.739  11.943   1.036  1.00  0.00     0.276 C 
ENDBRANCH   4   8
ENDBRANCH   1   4
BRANCH   1  14
HETATM   14  N4  UNL     1      -6.403   9.229   3.502  1.00  0.00    -0.361 NA
BRANCH  14  15
HETATM   15  C9  UNL     1      -7.359   8.473   3.665  1.00  0.00     0.225 A 
HETATM   16  N5  UNL     1      -7.494   7.533   4.639  1.00  0.00    -0.324 N 
HETATM   17  C10 UNL     1      -8.569   6.808   4.677  1.00  0.00     0.052 A 
ATOM     18  H5  UNL     1      -6.756   7.400   5.332  1.00  0.00     0.169 HD
HETATM   19  C11 UNL     1      -8.840   5.795   5.633  1.00  0.00     0.034 A 
HETATM   20  C15 UNL     1      -9.531   7.016   3.731  1.00  0.00     0.039 A 
HETATM   21  C12 UNL     1      -9.999   5.099   5.576  1.00  0.00     0.044 A 
HETATM   22  C13 UNL     1     -10.977   5.294   4.636  1.00  0.00     0.117 A 
HETATM   23  F1  UNL     1     -12.103   4.556   4.650  1.00  0.00    -0.206 F 
HETATM   24  C14 UNL     1     -10.724   6.274   3.706  1.00  0.00     0.063 A 
HETATM   25  S1  UNL     1      -8.852   8.268   2.801  1.00  0.00    -0.037 SA
ENDBRANCH  14  15
ENDBRANCH   1  14
BRANCH   2  26
HETATM   26  N3  UNL     1      -4.292   8.808   5.104  1.00  0.00    -0.299 N 
ATOM     27  H3  UNL     1      -4.436   7.799   5.072  1.00  0.00     0.187 HD
BRANCH  26  28
HETATM   28  C3  UNL     1      -4.194   9.483   6.351  1.00  0.00     0.048 A 
HETATM   29  C4  UNL     1      -5.262   9.470   7.217  1.00  0.00     0.031 A 
HETATM   30  C5  UNL     1      -5.142  10.157   8.403  1.00  0.00     0.002 A 
HETATM   31  C6  UNL     1      -4.010  10.853   8.760  1.00  0.00     0.000 A 
HETATM   32  C7  UNL     1      -2.940  10.854   7.870  1.00  0.00     0.002 A 
HETATM   33  C8  UNL     1      -3.024  10.176   6.673  1.00  0.00     0.031 A 
ENDBRANCH  26  28
ENDBRANCH   2  26
TORSDOF 7
ENDMDL
MODEL 2
REMARK VINA RESULT: -8.006396051      0.467      1.027
REMARK  7 active torsions:
REMARK  status: ('A' for Active; 'I' for Inactive)
REMARK    1  A    between atoms: N1_2  and  C1_4 
REMARK    2  A    between atoms: C1_4  and  C2_5 
REMARK    3  A    between atoms: C1_4  and  N6_28 
REMARK    4  A    between atoms: C2_5  and  N4_16 
REMARK    5  A    between atoms: N2_6  and  N3_8 
REMARK    6  A    between atoms: N3_8  and  C3_10 
REMARK    7  A    between atoms: N4_16  and  C9_17 
ROOT
HETATM    1  C2  UNL     1      -5.126   9.794   2.969  1.00  0.00     0.232 C 
HETATM    2  N2  UNL     1      -4.001   9.677   3.699  1.00  0.00    -0.274 N 
ATOM      3  H2  UNL     1      -3.128  10.081   3.358  1.00  0.00     0.189 HD
ENDROOT
BRANCH   1   4
HETATM    4  C1  UNL     1      -4.891  10.558   1.676  1.00  0.00     0.472 C 
BRANCH   4   5
HETATM    5  N1  UNL     1      -4.040   9.719   0.862  1.00  0.00    -0.111 N 
HETATM    6  O1  UNL     1      -4.137   8.491   0.947  1.00  0.00    -0.534 OA
HETATM    7  O2  UNL     1      -3.145  10.284   0.013  1.00  0.00    -0.534 OA
ENDBRANCH   4   5
BRANCH   4   8
HETATM    8  N6  UNL     1      -6.167  10.609   1.011  1.00  0.00     0.126 N 
HETATM    9  C16 UNL     1      -6.136  10.127  -0.350  1.00  0.00     0.276 C 
HETATM   10  C17 UNL     1      -7.552   9.595  -0.622  1.00  0.00     0.030 C 
HETATM   11  C18 UNL     1      -8.499  10.739  -0.480  1.00  0.00     0.003 C 
HETATM   12  C19 UNL     1      -7.913  12.009   0.024  1.00  0.00     0.030 C 
HETATM   13  C20 UNL     1      -6.891  11.829   1.127  1.00  0.00     0.276 C 
ENDBRANCH   4   8
ENDBRANCH   1   4
BRANCH   1  14
HETATM   14  N4  UNL     1      -6.223   9.285   3.395  1.00  0.00    -0.361 NA
BRANCH  14  15
HETATM   15  C9  UNL     1      -7.205   8.561   3.555  1.00  0.00     0.225 A 
HETATM   16  N5  UNL     1      -7.367   7.615   4.519  1.00  0.00    -0.324 N 
HETATM   17  C10 UNL     1      -8.468   6.928   4.556  1.00  0.00     0.052 A 
ATOM     18  H5  UNL     1      -6.631   7.448   5.206  1.00  0.00     0.169 HD
HETATM   19  C11 UNL     1      -8.769   5.915   5.502  1.00  0.00     0.034 A 
HETATM   20  C15 UNL     1      -9.427   7.182   3.618  1.00  0.00     0.039 A 
HETATM   21  C12 UNL     1      -9.953   5.262   5.444  1.00  0.00     0.044 A 
HETATM   22  C13 UNL     1     -10.929   5.502   4.512  1.00  0.00     0.117 A 
HETATM   23  F1  UNL     1     -12.080   4.805   4.524  1.00  0.00    -0.206 F 
HETATM   24  C14 UNL     1     -10.646   6.483   3.591  1.00  0.00     0.063 A 
HETATM   25  S1  UNL     1      -8.708   8.419   2.698  1.00  0.00    -0.037 SA
ENDBRANCH  14  15
ENDBRANCH   1  14
BRANCH   2  26
HETATM   26  N3  UNL     1      -4.025   9.011   4.909  1.00  0.00    -0.299 N 
ATOM     27  H3  UNL     1      -4.397   8.063   4.970  1.00  0.00     0.187 HD
BRANCH  26  28
HETATM   28  C3  UNL     1      -3.524   9.663   6.069  1.00  0.00     0.048 A 
HETATM   29  C4  UNL     1      -2.198  10.026   6.126  1.00  0.00     0.031 A 
HETATM   30  C5  UNL     1      -1.742  10.630   7.274  1.00  0.00     0.002 A 
HETATM   31  C6  UNL     1      -2.545  10.885   8.363  1.00  0.00     0.000 A 
HETATM   32  C7  UNL     1      -3.883  10.511   8.285  1.00  0.00     0.002 A 
HETATM   33  C8  UNL     1      -4.375   9.904   7.150  1.00  0.00     0.031 A 
ENDBRANCH  26  28
ENDBRANCH   2  26
TORSDOF 7
ENDMDL
MODEL 3
REMARK VINA RESULT: -7.857767339      1.767      2.470
REMARK  7 active torsions:
REMARK  status: ('A' for Active; 'I' for Inactive)
REMARK    1  A    between atoms: N1_2  and  C1_4 
REMARK    2  A    between atoms: C1_4  and  C2_5 
REMARK    3  A    between atoms: C1_4  and  N6_28 
REMARK    4  A    between atoms: C2_5  and  N4_16 
REMARK    5  A    between atoms: N2_6  and  N3_8 
REMARK    6  A    between atoms: N3_8  and  C3_10 
REMARK    7  A    between atoms: N4_16  and  C9_17 
ROOT
HETATM    1  C2  UNL     1      -6.340   8.784   2.731  1.00  0.00     0.232 C 
HETATM    2  N2  UNL     1      -5.464   9.356   3.579  1.00  0.00    -0.274 N 
ATOM      3  H2  UNL     1      -4.871  10.122   3.258  1.00  0.00     0.189 HD
ENDROOT
BRANCH   1   4
HETATM    4  C1  UNL     1      -6.295   9.416   1.350  1.00  0.00     0.472 C 
BRANCH   4   5
HETATM    5  N1  UNL     1      -7.672   9.615   0.953  1.00  0.00    -0.111 N 
HETATM    6  O1  UNL     1      -8.030   9.284  -0.181  1.00  0.00    -0.534 OA
HETATM    7  O2  UNL     1      -8.557  10.160   1.825  1.00  0.00    -0.534 OA
ENDBRANCH   4   5
BRANCH   4   8
HETATM    8  N6  UNL     1      -5.734  10.729   1.537  1.00  0.00     0.126 N 
HETATM    9  C16 UNL     1      -6.320  11.741   0.689  1.00  0.00     0.276 C 
HETATM   10  C17 UNL     1      -6.163  13.057   1.466  1.00  0.00     0.030 C 
HETATM   11  C18 UNL     1      -4.704  13.298   1.658  1.00  0.00     0.003 C 
HETATM   12  C19 UNL     1      -3.801  12.197   1.229  1.00  0.00     0.030 C 
HETATM   13  C20 UNL     1      -4.313  10.810   1.557  1.00  0.00     0.276 C 
ENDBRANCH   4   8
ENDBRANCH   1   4
BRANCH   1  14
HETATM   14  N4  UNL     1      -7.083   7.819   3.132  1.00  0.00    -0.361 NA
BRANCH  14  15
HETATM   15  C9  UNL     1      -7.990   7.158   3.637  1.00  0.00     0.225 A 
HETATM   16  N5  UNL     1      -7.988   6.587   4.871  1.00  0.00    -0.324 N 
HETATM   17  C10 UNL     1      -9.028   5.915   5.261  1.00  0.00     0.052 A 
ATOM     18  H5  UNL     1      -7.178   6.686   5.483  1.00  0.00     0.169 HD
HETATM   19  C11 UNL     1      -9.161   5.269   6.518  1.00  0.00     0.034 A 
HETATM   20  C15 UNL     1     -10.091   5.805   4.411  1.00  0.00     0.039 A 
HETATM   21  C12 UNL     1     -10.295   4.594   6.818  1.00  0.00     0.044 A 
HETATM   22  C13 UNL     1     -11.372   4.473   5.980  1.00  0.00     0.117 A 
HETATM   23  F1  UNL     1     -12.464   3.781   6.356  1.00  0.00    -0.206 F 
HETATM   24  C14 UNL     1     -11.253   5.096   4.760  1.00  0.00     0.063 A 
HETATM   25  S1  UNL     1      -9.557   6.684   3.056  1.00  0.00    -0.037 SA
ENDBRANCH  14  15
ENDBRANCH   1  14
BRANCH   2  26
HETATM   26  N3  UNL     1      -5.365   8.908   4.882  1.00  0.00    -0.299 N 
ATOM     27  H3  UNL     1      -6.024   8.217   5.242  1.00  0.00     0.187 HD
BRANCH  26  28
HETATM   28  C3  UNL     1      -4.333   9.422   5.715  1.00  0.00     0.048 A 
HETATM   29  C4  UNL     1      -4.616   9.759   7.018  1.00  0.00     0.031 A 
HETATM   30  C5  UNL     1      -3.600  10.280   7.785  1.00  0.00     0.002 A 
HETATM   31  C6  UNL     1      -2.323  10.478   7.313  1.00  0.00     0.000 A 
HETATM   32  C7  UNL     1      -2.058  10.131   5.991  1.00  0.00     0.002 A 
HETATM   33  C8  UNL     1      -3.051   9.605   5.193  1.00  0.00     0.031 A 
ENDBRANCH  26  28
ENDBRANCH   2  26
TORSDOF 7
ENDMDL
MODEL 4
REMARK VINA RESULT: -7.833762978      1.384      1.577
REMARK  7 active torsions:
REMARK  status: ('A' for Active; 'I' for Inactive)
REMARK    1  A    between atoms: N1_2  and  C1_4 
REMARK    2  A    between atoms: C1_4  and  C2_5 
REMARK    3  A    between atoms: C1_4  and  N6_28 
REMARK    4  A    between atoms: C2_5  and  N4_16 
REMARK    5  A    between atoms: N2_6  and  N3_8 
REMARK    6  A    between atoms: N3_8  and  C3_10 
REMARK    7  A    between atoms: N4_16  and  C9_17 
ROOT
HETATM    1  C2  UNL     1      -4.915   9.562   2.653  1.00  0.00     0.232 C 
HETATM    2  N2  UNL     1      -4.015   9.586   3.655  1.00  0.00    -0.274 N 
ATOM      3  H2  UNL     1      -3.058   9.888   3.472  1.00  0.00     0.189 HD
ENDROOT
BRANCH   1   4
HETATM    4  C1  UNL     1      -4.314  10.018   1.334  1.00  0.00     0.472 C 
BRANCH   4   5
HETATM    5  N1  UNL     1      -4.620   8.983   0.372  1.00  0.00    -0.111 N 
HETATM    6  O1  UNL     1      -3.832   8.044   0.219  1.00  0.00    -0.534 OA
HETATM    7  O2  UNL     1      -5.765   9.048  -0.352  1.00  0.00    -0.534 OA
ENDBRANCH   4   5
BRANCH   4   8
HETATM    8  N6  UNL     1      -5.070  11.177   0.937  1.00  0.00     0.126 N 
HETATM    9  C16 UNL     1      -4.450  11.946  -0.118  1.00  0.00     0.276 C 
HETATM   10  C17 UNL     1      -5.612  12.625  -0.858  1.00  0.00     0.030 C 
HETATM   11  C18 UNL     1      -6.309  13.515   0.115  1.00  0.00     0.003 C 
HETATM   12  C19 UNL     1      -5.853  13.418   1.527  1.00  0.00     0.030 C 
HETATM   13  C20 UNL     1      -5.551  12.008   1.988  1.00  0.00     0.276 C 
ENDBRANCH   4   8
ENDBRANCH   1   4
BRANCH   1  14
HETATM   14  N4  UNL     1      -6.118   9.180   2.881  1.00  0.00    -0.361 NA
BRANCH  14  15
HETATM   15  C9  UNL     1      -7.116   8.502   3.120  1.00  0.00     0.225 A 
HETATM   16  N5  UNL     1      -7.269   7.614   4.138  1.00  0.00    -0.324 N 
HETATM   17  C10 UNL     1      -8.390   6.971   4.257  1.00  0.00     0.052 A 
ATOM     18  H5  UNL     1      -6.511   7.456   4.802  1.00  0.00     0.169 HD
HETATM   19  C11 UNL     1      -8.686   6.019   5.267  1.00  0.00     0.034 A 
HETATM   20  C15 UNL     1      -9.380   7.211   3.347  1.00  0.00     0.039 A 
HETATM   21  C12 UNL     1      -9.892   5.408   5.292  1.00  0.00     0.044 A 
HETATM   22  C13 UNL     1     -10.898   5.635   4.389  1.00  0.00     0.117 A 
HETATM   23  F1  UNL     1     -12.072   4.982   4.486  1.00  0.00    -0.206 F 
HETATM   24  C14 UNL     1     -10.622   6.556   3.407  1.00  0.00     0.063 A 
HETATM   25  S1  UNL     1      -8.659   8.372   2.334  1.00  0.00    -0.037 SA
ENDBRANCH  14  15
ENDBRANCH   1  14
BRANCH   2  26
HETATM   26  N3  UNL     1      -4.385   9.202   4.930  1.00  0.00    -0.299 N 
ATOM     27  H3  UNL     1      -5.195   8.599   5.073  1.00  0.00     0.187 HD
BRANCH  26  28
HETATM   28  C3  UNL     1      -3.621   9.659   6.039  1.00  0.00     0.048 A 
HETATM   29  C4  UNL     1      -4.263  10.086   7.177  1.00  0.00     0.031 A 
HETATM   30  C5  UNL     1      -3.494  10.547   8.220  1.00  0.00     0.002 A 
HETATM   31  C6  UNL     1      -2.119  10.602   8.176  1.00  0.00     0.000 A 
HETATM   32  C7  UNL     1      -1.488  10.166   7.015  1.00  0.00     0.002 A 
HETATM   33  C8  UNL     1      -2.227   9.696   5.951  1.00  0.00     0.031 A 
ENDBRANCH  26  28
ENDBRANCH   2  26
TORSDOF 7
ENDMDL
MODEL 5
REMARK VINA RESULT: -7.794961818      1.901      2.650
REMARK  7 active torsions:
REMARK  status: ('A' for Active; 'I' for Inactive)
REMARK    1  A    between atoms: N1_2  and  C1_4 
REMARK    2  A    between atoms: C1_4  and  C2_5 
REMARK    3  A    between atoms: C1_4  and  N6_28 
REMARK    4  A    between atoms: C2_5  and  N4_16 
REMARK    5  A    between atoms: N2_6  and  N3_8 
REMARK    6  A    between atoms: N3_8  and  C3_10 
REMARK    7  A    between atoms: N4_16  and  C9_17 
ROOT
HETATM    1  C2  UNL     1      -6.422   8.941   2.559  1.00  0.00     0.232 C 
HETATM    2  N2  UNL     1      -5.456   9.433   3.358  1.00  0.00    -0.274 N 
ATOM      3  H2  UNL     1      -4.878  10.211   3.038  1.00  0.00     0.189 HD
ENDROOT
BRANCH   1   4
HETATM    4  C1  UNL     1      -6.493   9.674   1.230  1.00  0.00     0.472 C 
BRANCH   4   5
HETATM    5  N1  UNL     1      -7.204  10.908   1.488  1.00  0.00    -0.111 N 
HETATM    6  O1  UNL     1      -6.816  11.654   2.391  1.00  0.00    -0.534 OA
HETATM    7  O2  UNL     1      -8.286  11.234   0.738  1.00  0.00    -0.534 OA
ENDBRANCH   4   5
BRANCH   4   8
HETATM    8  N6  UNL     1      -5.139  10.046   0.912  1.00  0.00     0.126 N 
HETATM    9  C16 UNL     1      -5.018  11.348   0.299  1.00  0.00     0.276 C 
HETATM   10  C17 UNL     1      -3.617  11.847   0.685  1.00  0.00     0.030 C 
HETATM   11  C18 UNL     1      -2.625  10.892   0.113  1.00  0.00     0.003 C 
HETATM   12  C19 UNL     1      -3.188   9.666  -0.513  1.00  0.00     0.030 C 
HETATM   13  C20 UNL     1      -4.358   9.066   0.237  1.00  0.00     0.276 C 
ENDBRANCH   4   8
ENDBRANCH   1   4
BRANCH   1  14
HETATM   14  N4  UNL     1      -7.147   7.962   2.959  1.00  0.00    -0.361 NA
BRANCH  14  15
HETATM   15  C9  UNL     1      -8.028   7.282   3.484  1.00  0.00     0.225 A 
HETATM   16  N5  UNL     1      -7.979   6.695   4.709  1.00  0.00    -0.324 N 
HETATM   17  C10 UNL     1      -8.996   6.004   5.124  1.00  0.00     0.052 A 
ATOM     18  H5  UNL     1      -7.151   6.797   5.296  1.00  0.00     0.169 HD
HETATM   19  C11 UNL     1      -9.080   5.340   6.375  1.00  0.00     0.034 A 
HETATM   20  C15 UNL     1     -10.085   5.891   4.307  1.00  0.00     0.039 A 
HETATM   21  C12 UNL     1     -10.194   4.646   6.702  1.00  0.00     0.044 A 
HETATM   22  C13 UNL     1     -11.297   4.521   5.898  1.00  0.00     0.117 A 
HETATM   23  F1  UNL     1     -12.367   3.811   6.300  1.00  0.00    -0.206 F 
HETATM   24  C14 UNL     1     -11.226   5.162   4.684  1.00  0.00     0.063 A 
HETATM   25  S1  UNL     1      -9.607   6.796   2.948  1.00  0.00    -0.037 SA
ENDBRANCH  14  15
ENDBRANCH   1  14
BRANCH   2  26
HETATM   26  N3  UNL     1      -5.245   8.888   4.610  1.00  0.00    -0.299 N 
ATOM     27  H3  UNL     1      -5.818   8.111   4.938  1.00  0.00     0.187 HD
BRANCH  26  28
HETATM   28  C3  UNL     1      -4.217   9.423   5.434  1.00  0.00     0.048 A 
HETATM   29  C4  UNL     1      -4.453   9.618   6.775  1.00  0.00     0.031 A 
HETATM   30  C5  UNL     1      -3.446  10.164   7.536  1.00  0.00     0.002 A 
HETATM   31  C6  UNL     1      -2.221  10.523   7.021  1.00  0.00     0.000 A 
HETATM   32  C7  UNL     1      -2.003  10.318   5.662  1.00  0.00     0.002 A 
HETATM   33  C8  UNL     1      -2.988   9.772   4.869  1.00  0.00     0.031 A 
ENDBRANCH  26  28
ENDBRANCH   2  26
TORSDOF 7
ENDMDL
