MODEL 1
REMARK VINA RESULT: -8.948240047      0.000      0.000
REMARK  4 active torsions:
REMARK  status: ('A' for Active; 'I' for Inactive)
REMARK    1  A    between atoms: S1_3  and  C2_4 
REMARK    2  A    between atoms: C4_6  and  C5_7 
REMARK    3  A    between atoms: C6_10  and  C7_11 
REMARK    4  A    between atoms: N5_24  and  C14_25 
ROOT
HETATM    1  N1  UNL     1      14.484  -7.214 -20.686  1.00  0.00    -0.184 NA
HETATM    2  C1  UNL     1      14.631  -8.313 -21.013  1.00  0.00     0.140 C 
HETATM    3  S1  UNL     1      14.830  -9.990 -21.509  1.00  0.00     0.003 SA
ENDROOT
BRANCH   3   4
HETATM    4  C2  UNL     1      13.885 -11.150 -20.531  1.00  0.00     0.060 C 
HETATM    5  C3  UNL     1      12.949 -10.412 -19.538  1.00  0.00     0.078 C 
HETATM    6  C4  UNL     1      11.826 -11.407 -19.283  1.00  0.00     0.071 C 
HETATM    7  C12 UNL     1      12.479 -12.617 -18.637  1.00  0.00     0.033 C 
HETATM    8  C13 UNL     1      13.355 -13.243 -19.712  1.00  0.00     0.124 C 
HETATM    9  N5  UNL     1      14.431 -12.294 -20.053  1.00  0.00    -0.373 N 
BRANCH   6  10
HETATM   10  C5  UNL     1      10.750 -10.861 -18.459  1.00  0.00     0.152 A 
HETATM   11  N2  UNL     1       9.747 -11.573 -17.925  1.00  0.00    -0.326 N 
HETATM   12  C6  UNL     1       8.941 -10.746 -17.226  1.00  0.00     0.108 A 
ATOM     13  H2  UNL     1       9.615 -12.579 -18.030  1.00  0.00     0.169 HD
HETATM   14  N4  UNL     1       9.503  -9.517 -17.364  1.00  0.00    -0.247 N 
HETATM   15  O1  UNL     1      10.576  -9.635 -18.104  1.00  0.00    -0.222 OA
ATOM     16  H4  UNL     1       9.150  -8.650 -16.960  1.00  0.00     0.196 HD
BRANCH  12  17
HETATM   17  C7  UNL     1       7.707 -11.069 -16.465  1.00  0.00     0.058 C 
HETATM   18  C8  UNL     1       7.035 -12.295 -16.992  1.00  0.00     0.040 C 
HETATM   19  C9  UNL     1       5.672 -12.480 -16.364  1.00  0.00     0.233 C 
HETATM   20  N3  UNL     1       4.861 -11.288 -16.425  1.00  0.00    -0.075 N 
HETATM   21  C10 UNL     1       5.536 -10.248 -15.678  1.00  0.00     0.233 C 
ATOM     22  H32 UNL     1       4.642 -11.008 -17.381  1.00  0.00     0.277 HD
ATOM     23  H31 UNL     1       3.904 -11.445 -16.105  1.00  0.00     0.277 HD
HETATM   24  C11 UNL     1       6.773  -9.871 -16.488  1.00  0.00     0.040 C 
ENDBRANCH  12  17
ENDBRANCH   6  10
BRANCH   9  25
HETATM   25  C14 UNL     1      15.656 -12.762 -19.797  1.00  0.00     0.084 C 
HETATM   26  C15 UNL     1      16.528 -11.758 -19.066  1.00  0.00     0.025 C 
HETATM   27  C16 UNL     1      17.761 -12.619 -18.733  1.00  0.00     0.002 C 
HETATM   28  C17 UNL     1      17.067 -13.825 -18.134  1.00  0.00     0.002 C 
HETATM   29  C18 UNL     1      15.923 -14.042 -19.105  1.00  0.00     0.025 C 
ENDBRANCH   9  25
ENDBRANCH   3   4
TORSDOF 4
ENDMDL
MODEL 2
REMARK VINA RESULT: -8.283984980      0.625      1.146
REMARK  4 active torsions:
REMARK  status: ('A' for Active; 'I' for Inactive)
REMARK    1  A    between atoms: S1_3  and  C2_4 
REMARK    2  A    between atoms: C4_6  and  C5_7 
REMARK    3  A    between atoms: C6_10  and  C7_11 
REMARK    4  A    between atoms: N5_24  and  C14_25 
ROOT
HETATM    1  N1  UNL     1      14.889  -7.857 -20.958  1.00  0.00    -0.184 NA
HETATM    2  C1  UNL     1      14.881  -8.981 -21.233  1.00  0.00     0.140 C 
HETATM    3  S1  UNL     1      14.842 -10.691 -21.647  1.00  0.00     0.003 SA
ENDROOT
BRANCH   3   4
HETATM    4  C2  UNL     1      13.870 -11.685 -20.522  1.00  0.00     0.060 C 
HETATM    5  C3  UNL     1      12.973 -10.795 -19.623  1.00  0.00     0.078 C 
HETATM    6  C4  UNL     1      11.820 -11.710 -19.236  1.00  0.00     0.071 C 
HETATM    7  C12 UNL     1      12.438 -12.851 -18.449  1.00  0.00     0.033 C 
HETATM    8  C13 UNL     1      13.279 -13.638 -19.444  1.00  0.00     0.124 C 
HETATM    9  N5  UNL     1      14.382 -12.779 -19.909  1.00  0.00    -0.373 N 
BRANCH   6  10
HETATM   10  C5  UNL     1      10.773 -11.026 -18.478  1.00  0.00     0.152 A 
HETATM   11  N2  UNL     1       9.510 -11.455 -18.344  1.00  0.00    -0.326 N 
HETATM   12  C6  UNL     1       8.825 -10.578 -17.579  1.00  0.00     0.108 A 
ATOM     13  H2  UNL     1       9.128 -12.306 -18.754  1.00  0.00     0.169 HD
HETATM   14  N4  UNL     1       9.729  -9.614 -17.264  1.00  0.00    -0.247 N 
HETATM   15  O1  UNL     1      10.872  -9.924 -17.819  1.00  0.00    -0.222 OA
ATOM     16  H4  UNL     1       9.548  -8.790 -16.691  1.00  0.00     0.196 HD
BRANCH  12  17
HETATM   17  C7  UNL     1       7.402 -10.622 -17.157  1.00  0.00     0.058 C 
HETATM   18  C8  UNL     1       7.047  -9.471 -16.273  1.00  0.00     0.040 C 
HETATM   19  C9  UNL     1       5.673  -9.651 -15.670  1.00  0.00     0.233 C 
HETATM   20  N3  UNL     1       5.495 -10.946 -15.056  1.00  0.00    -0.075 N 
HETATM   21  C10 UNL     1       5.645 -11.953 -16.085  1.00  0.00     0.233 C 
ATOM     22  H32 UNL     1       6.119 -11.095 -14.264  1.00  0.00     0.277 HD
ATOM     23  H31 UNL     1       4.612 -11.025 -14.552  1.00  0.00     0.277 HD
HETATM   24  C11 UNL     1       7.120 -11.952 -16.477  1.00  0.00     0.040 C 
ENDBRANCH  12  17
ENDBRANCH   6  10
BRANCH   9  25
HETATM   25  C14 UNL     1      15.593 -13.255 -19.606  1.00  0.00     0.084 C 
HETATM   26  C15 UNL     1      16.439 -12.262 -18.831  1.00  0.00     0.025 C 
HETATM   27  C16 UNL     1      17.652 -13.131 -18.455  1.00  0.00     0.002 C 
HETATM   28  C17 UNL     1      16.929 -14.339 -17.895  1.00  0.00     0.002 C 
HETATM   29  C18 UNL     1      15.826 -14.542 -18.915  1.00  0.00     0.025 C 
ENDBRANCH   9  25
ENDBRANCH   3   4
TORSDOF 4
ENDMDL
MODEL 3
REMARK VINA RESULT: -7.970313110      1.555      2.344
REMARK  4 active torsions:
REMARK  status: ('A' for Active; 'I' for Inactive)
REMARK    1  A    between atoms: S1_3  and  C2_4 
REMARK    2  A    between atoms: C4_6  and  C5_7 
REMARK    3  A    between atoms: C6_10  and  C7_11 
REMARK    4  A    between atoms: N5_24  and  C14_25 
ROOT
HETATM    1  N1  UNL     1      13.937  -8.370 -19.932  1.00  0.00    -0.184 NA
HETATM    2  C1  UNL     1      13.749  -9.480 -20.199  1.00  0.00     0.140 C 
HETATM    3  S1  UNL     1      13.437 -11.166 -20.599  1.00  0.00     0.003 SA
ENDROOT
BRANCH   3   4
HETATM    4  C2  UNL     1      12.364 -11.998 -19.435  1.00  0.00     0.060 C 
HETATM    5  C3  UNL     1      11.482 -10.982 -18.663  1.00  0.00     0.078 C 
HETATM    6  C4  UNL     1      10.263 -11.795 -18.249  1.00  0.00     0.071 C 
HETATM    7  C12 UNL     1      10.783 -12.889 -17.334  1.00  0.00     0.033 C 
HETATM    8  C13 UNL     1      11.618 -13.808 -18.213  1.00  0.00     0.124 C 
HETATM    9  N5  UNL     1      12.787 -13.056 -18.703  1.00  0.00    -0.373 N 
BRANCH   6  10
HETATM   10  C5  UNL     1       9.227 -10.990 -17.605  1.00  0.00     0.152 A 
HETATM   11  N2  UNL     1       7.998 -11.421 -17.288  1.00  0.00    -0.326 N 
HETATM   12  C6  UNL     1       7.312 -10.413 -16.708  1.00  0.00     0.108 A 
ATOM     13  H2  UNL     1       7.640 -12.361 -17.457  1.00  0.00     0.169 HD
HETATM   14  N4  UNL     1       8.180  -9.368 -16.693  1.00  0.00    -0.247 N 
HETATM   15  O1  UNL     1       9.304  -9.758 -17.236  1.00  0.00    -0.222 OA
ATOM     16  H4  UNL     1       7.988  -8.438 -16.321  1.00  0.00     0.196 HD
BRANCH  12  17
HETATM   17  C7  UNL     1       5.919 -10.410 -16.192  1.00  0.00     0.058 C 
HETATM   18  C8  UNL     1       5.814  -9.703 -14.880  1.00  0.00     0.040 C 
HETATM   19  C9  UNL     1       4.450  -9.905 -14.261  1.00  0.00     0.233 C 
HETATM   20  N3  UNL     1       4.052 -11.293 -14.221  1.00  0.00    -0.075 N 
HETATM   21  C10 UNL     1       3.979 -11.777 -15.583  1.00  0.00     0.233 C 
ATOM     22  H32 UNL     1       4.662 -11.860 -13.632  1.00  0.00     0.277 HD
ATOM     23  H31 UNL     1       3.186 -11.440 -13.703  1.00  0.00     0.277 HD
HETATM   24  C11 UNL     1       5.415 -11.839 -16.096  1.00  0.00     0.040 C 
ENDBRANCH  12  17
ENDBRANCH   6  10
BRANCH   9  25
HETATM   25  C14 UNL     1      13.956 -13.564 -18.302  1.00  0.00     0.084 C 
HETATM   26  C15 UNL     1      13.893 -15.059 -18.053  1.00  0.00     0.025 C 
HETATM   27  C16 UNL     1      15.378 -15.387 -17.816  1.00  0.00     0.002 C 
HETATM   28  C17 UNL     1      15.981 -14.691 -19.019  1.00  0.00     0.002 C 
HETATM   29  C18 UNL     1      15.232 -13.373 -19.025  1.00  0.00     0.025 C 
ENDBRANCH   9  25
ENDBRANCH   3   4
TORSDOF 4
ENDMDL
MODEL 4
REMARK VINA RESULT: -7.964608926      1.624      1.935
REMARK  4 active torsions:
REMARK  status: ('A' for Active; 'I' for Inactive)
REMARK    1  A    between atoms: S1_3  and  C2_4 
REMARK    2  A    between atoms: C4_6  and  C5_7 
REMARK    3  A    between atoms: C6_10  and  C7_11 
REMARK    4  A    between atoms: N5_24  and  C14_25 
ROOT
HETATM    1  N1  UNL     1      12.126  -6.659 -18.523  1.00  0.00    -0.184 NA
HETATM    2  C1  UNL     1      12.855  -7.251 -19.198  1.00  0.00     0.140 C 
HETATM    3  S1  UNL     1      13.944  -8.166 -20.235  1.00  0.00     0.003 SA
ENDROOT
BRANCH   3   4
HETATM    4  C2  UNL     1      13.599  -9.919 -20.277  1.00  0.00     0.060 C 
HETATM    5  C3  UNL     1      12.554 -10.309 -19.198  1.00  0.00     0.078 C 
HETATM    6  C4  UNL     1      11.914 -11.576 -19.749  1.00  0.00     0.071 C 
HETATM    7  C12 UNL     1      13.029 -12.602 -19.840  1.00  0.00     0.033 C 
HETATM    8  C13 UNL     1      13.970 -12.103 -20.928  1.00  0.00     0.124 C 
HETATM    9  N5  UNL     1      14.576 -10.836 -20.480  1.00  0.00    -0.373 N 
BRANCH   6  10
HETATM   10  C5  UNL     1      10.796 -12.054 -18.939  1.00  0.00     0.152 A 
HETATM   11  N2  UNL     1       9.984 -11.278 -18.206  1.00  0.00    -0.326 N 
HETATM   12  C6  UNL     1       9.067 -12.056 -17.591  1.00  0.00     0.108 A 
ATOM     13  H2  UNL     1      10.049 -10.264 -18.127  1.00  0.00     0.169 HD
HETATM   14  N4  UNL     1       9.364 -13.320 -17.987  1.00  0.00    -0.247 N 
HETATM   15  O1  UNL     1      10.398 -13.270 -18.786  1.00  0.00    -0.222 OA
ATOM     16  H4  UNL     1       8.867 -14.166 -17.708  1.00  0.00     0.196 HD
BRANCH  12  17
HETATM   17  C7  UNL     1       7.966 -11.654 -16.679  1.00  0.00     0.058 C 
HETATM   18  C8  UNL     1       6.729 -12.459 -16.912  1.00  0.00     0.040 C 
HETATM   19  C9  UNL     1       5.558 -11.891 -16.143  1.00  0.00     0.233 C 
HETATM   20  N3  UNL     1       5.388 -10.472 -16.349  1.00  0.00    -0.075 N 
HETATM   21  C10 UNL     1       6.578  -9.804 -15.867  1.00  0.00     0.233 C 
ATOM     22  H32 UNL     1       5.168 -10.237 -17.317  1.00  0.00     0.277 HD
ATOM     23  H31 UNL     1       4.533 -10.111 -15.923  1.00  0.00     0.277 HD
HETATM   24  C11 UNL     1       7.698 -10.167 -16.838  1.00  0.00     0.040 C 
ENDBRANCH  12  17
ENDBRANCH   6  10
BRANCH   9  25
HETATM   25  C14 UNL     1      15.905 -10.893 -20.360  1.00  0.00     0.084 C 
HETATM   26  C15 UNL     1      16.451  -9.883 -19.369  1.00  0.00     0.025 C 
HETATM   27  C16 UNL     1      17.927 -10.310 -19.288  1.00  0.00     0.002 C 
HETATM   28  C17 UNL     1      17.744 -11.797 -19.061  1.00  0.00     0.002 C 
HETATM   29  C18 UNL     1      16.655 -12.133 -20.060  1.00  0.00     0.025 C 
ENDBRANCH   9  25
ENDBRANCH   3   4
TORSDOF 4
ENDMDL
MODEL 5
REMARK VINA RESULT: -7.786007287      1.819      2.183
REMARK  4 active torsions:
REMARK  status: ('A' for Active; 'I' for Inactive)
REMARK    1  A    between atoms: S1_3  and  C2_4 
REMARK    2  A    between atoms: C4_6  and  C5_7 
REMARK    3  A    between atoms: C6_10  and  C7_11 
REMARK    4  A    between atoms: N5_24  and  C14_25 
ROOT
HETATM    1  N1  UNL     1      14.840 -10.576 -22.948  1.00  0.00    -0.184 NA
HETATM    2  C1  UNL     1      14.462 -10.541 -21.855  1.00  0.00     0.140 C 
HETATM    3  S1  UNL     1      13.895 -10.514 -20.189  1.00  0.00     0.003 SA
ENDROOT
BRANCH   3   4
HETATM    4  C2  UNL     1      12.963 -11.964 -19.719  1.00  0.00     0.060 C 
HETATM    5  C3  UNL     1      11.631 -11.573 -19.026  1.00  0.00     0.078 C 
HETATM    6  C4  UNL     1      10.723 -12.768 -19.276  1.00  0.00     0.071 C 
HETATM    7  C12 UNL     1      11.384 -13.947 -18.583  1.00  0.00     0.033 C 
HETATM    8  C13 UNL     1      12.662 -14.225 -19.361  1.00  0.00     0.124 C 
HETATM    9  N5  UNL     1      13.564 -13.068 -19.213  1.00  0.00    -0.373 N 
BRANCH   6  10
HETATM   10  C5  UNL     1       9.354 -12.558 -18.808  1.00  0.00     0.152 A 
HETATM   11  N2  UNL     1       9.009 -12.186 -17.567  1.00  0.00    -0.326 N 
HETATM   12  C6  UNL     1       7.664 -12.087 -17.493  1.00  0.00     0.108 A 
ATOM     13  H2  UNL     1       9.659 -12.005 -16.802  1.00  0.00     0.169 HD
HETATM   14  N4  UNL     1       7.225 -12.414 -18.736  1.00  0.00    -0.247 N 
HETATM   15  O1  UNL     1       8.264 -12.686 -19.483  1.00  0.00    -0.222 OA
ATOM     16  H4  UNL     1       6.251 -12.443 -19.037  1.00  0.00     0.196 HD
BRANCH  12  17
HETATM   17  C7  UNL     1       6.820 -11.711 -16.331  1.00  0.00     0.058 C 
HETATM   18  C8  UNL     1       5.466 -12.338 -16.401  1.00  0.00     0.040 C 
HETATM   19  C9  UNL     1       4.548 -11.769 -15.343  1.00  0.00     0.233 C 
HETATM   20  N3  UNL     1       4.532 -10.326 -15.332  1.00  0.00    -0.075 N 
HETATM   21  C10 UNL     1       5.870  -9.866 -15.027  1.00  0.00     0.233 C 
ATOM     22  H32 UNL     1       4.166  -9.929 -16.197  1.00  0.00     0.277 HD
ATOM     23  H31 UNL     1       3.829  -9.944 -14.698  1.00  0.00     0.277 HD
HETATM   24  C11 UNL     1       6.727 -10.197 -16.246  1.00  0.00     0.040 C 
ENDBRANCH  12  17
ENDBRANCH   6  10
BRANCH   9  25
HETATM   25  C14 UNL     1      14.719 -13.365 -18.611  1.00  0.00     0.084 C 
HETATM   26  C15 UNL     1      14.568 -14.432 -17.543  1.00  0.00     0.025 C 
HETATM   27  C16 UNL     1      16.040 -14.706 -17.184  1.00  0.00     0.002 C 
HETATM   28  C17 UNL     1      16.606 -14.890 -18.578  1.00  0.00     0.002 C 
HETATM   29  C18 UNL     1      15.952 -13.749 -19.333  1.00  0.00     0.025 C 
ENDBRANCH   9  25
ENDBRANCH   3   4
TORSDOF 4
ENDMDL
