MODEL 1
REMARK VINA RESULT: -7.444338891      0.000      0.000
REMARK  4 active torsions:
REMARK  status: ('A' for Active; 'I' for Inactive)
REMARK    1  A    between atoms: C2_2  and  C3_3 
REMARK    2  A    between atoms: C3_3  and  S1_4 
REMARK    3  A    between atoms: S1_4  and  C4_5 
REMARK    4  A    between atoms: N2_8  and  C6_9 
ROOT
HETATM    1  C4  UNL     1      11.361 -13.499 -18.700  1.00  0.00     0.072 A 
HETATM    2  C5  UNL     1      11.554 -14.496 -17.768  1.00  0.00     0.139 A 
HETATM    3  N1  UNL     1      10.575 -15.254 -17.084  1.00  0.00    -0.081 NA
HETATM    4  N2  UNL     1      12.903 -14.630 -17.618  1.00  0.00    -0.314 N 
HETATM    5  C12 UNL     1      13.526 -13.761 -18.414  1.00  0.00     0.139 A 
HETATM    6  N3  UNL     1      14.807 -13.458 -18.667  1.00  0.00    -0.325 N 
ATOM      7  H3  UNL     1      15.513 -13.989 -18.157  1.00  0.00     0.169 HD
HETATM    8  C13 UNL     1      15.239 -12.552 -19.498  1.00  0.00     0.128 A 
HETATM    9  C14 UNL     1      14.226 -11.780 -20.240  1.00  0.00     0.060 A 
HETATM   10  N4  UNL     1      12.973 -12.071 -19.997  1.00  0.00    -0.352 N 
ATOM     11  H4  UNL     1      12.249 -11.552 -20.494  1.00  0.00     0.166 HD
HETATM   12  C15 UNL     1      12.598 -13.011 -19.131  1.00  0.00     0.098 A 
HETATM   13  C16 UNL     1      15.008 -10.857 -21.150  1.00  0.00     0.059 C 
HETATM   14  C17 UNL     1      15.849  -9.847 -20.408  1.00  0.00     0.032 C 
HETATM   15  C18 UNL     1      17.112 -10.756 -19.826  1.00  0.00     0.125 C 
HETATM   16  N5  UNL     1      16.289 -11.851 -20.027  1.00  0.00    -0.365 N 
HETATM   17  C19 UNL     1      16.182 -11.931 -21.453  1.00  0.00     0.135 C 
ENDROOT
BRANCH   4  18
HETATM   18  C6  UNL     1      13.517 -15.568 -16.729  1.00  0.00     0.093 C 
HETATM   19  C7  UNL     1      14.403 -16.562 -17.446  1.00  0.00     0.026 C 
HETATM   20  C8  UNL     1      15.188 -17.367 -16.455  1.00  0.00     0.002 C 
HETATM   21  C9  UNL     1      14.555 -17.353 -15.083  1.00  0.00     0.000 C 
HETATM   22  C10 UNL     1      14.454 -15.964 -14.520  1.00  0.00     0.002 C 
HETATM   23  C11 UNL     1      14.344 -14.930 -15.646  1.00  0.00     0.026 C 
ENDBRANCH   4  18
BRANCH   1  24
HETATM   24  S1  UNL     1       9.810 -12.883 -19.306  1.00  0.00    -0.124 SA
BRANCH  24  25
HETATM   25  C3  UNL     1       8.983 -11.827 -18.104  1.00  0.00     0.079 C 
BRANCH  25  26
HETATM   26  C2  UNL     1       9.947 -11.120 -17.191  1.00  0.00     0.006 C 
HETATM   27  C1  UNL     1      10.512  -9.909 -17.909  1.00  0.00     0.006 C 
ENDBRANCH  25  26
ENDBRANCH  24  25
ENDBRANCH   1  24
TORSDOF 4
ENDMDL
MODEL 2
REMARK VINA RESULT: -7.199040742      1.617      4.992
REMARK  4 active torsions:
REMARK  status: ('A' for Active; 'I' for Inactive)
REMARK    1  A    between atoms: C2_2  and  C3_3 
REMARK    2  A    between atoms: C3_3  and  S1_4 
REMARK    3  A    between atoms: S1_4  and  C4_5 
REMARK    4  A    between atoms: N2_8  and  C6_9 
ROOT
HETATM    1  C4  UNL     1      13.216 -14.766 -17.689  1.00  0.00     0.072 A 
HETATM    2  C5  UNL     1      11.933 -14.460 -17.289  1.00  0.00     0.139 A 
HETATM    3  N1  UNL     1      11.066 -15.223 -16.471  1.00  0.00    -0.081 NA
HETATM    4  N2  UNL     1      11.636 -13.246 -17.837  1.00  0.00    -0.314 N 
HETATM    5  C12 UNL     1      12.680 -12.814 -18.546  1.00  0.00     0.139 A 
HETATM    6  N3  UNL     1      12.939 -11.722 -19.279  1.00  0.00    -0.325 N 
ATOM      7  H3  UNL     1      12.197 -11.024 -19.341  1.00  0.00     0.169 HD
HETATM    8  C13 UNL     1      14.043 -11.463 -19.920  1.00  0.00     0.128 A 
HETATM    9  C14 UNL     1      15.122 -12.465 -19.834  1.00  0.00     0.060 A 
HETATM   10  N4  UNL     1      14.874 -13.534 -19.121  1.00  0.00    -0.352 N 
ATOM     11  H4  UNL     1      15.601 -14.246 -19.045  1.00  0.00     0.166 HD
HETATM   12  C15 UNL     1      13.718 -13.738 -18.490  1.00  0.00     0.098 A 
HETATM   13  C16 UNL     1      16.277 -11.882 -20.618  1.00  0.00     0.059 C 
HETATM   14  C17 UNL     1      15.982 -11.702 -22.088  1.00  0.00     0.032 C 
HETATM   15  C18 UNL     1      14.969 -10.385 -22.115  1.00  0.00     0.125 C 
HETATM   16  N5  UNL     1      14.741 -10.656 -20.777  1.00  0.00    -0.365 N 
HETATM   17  C19 UNL     1      15.996 -10.356 -20.157  1.00  0.00     0.135 C 
ENDROOT
BRANCH   4  18
HETATM   18  C6  UNL     1      10.386 -12.575 -17.658  1.00  0.00     0.093 C 
HETATM   19  C7  UNL     1      10.547 -11.147 -17.190  1.00  0.00     0.026 C 
HETATM   20  C8  UNL     1       9.231 -10.433 -17.238  1.00  0.00     0.002 C 
HETATM   21  C9  UNL     1       8.064 -11.392 -17.235  1.00  0.00     0.000 C 
HETATM   22  C10 UNL     1       8.089 -12.319 -18.417  1.00  0.00     0.002 C 
HETATM   23  C11 UNL     1       9.527 -12.548 -18.895  1.00  0.00     0.026 C 
ENDBRANCH   4  18
BRANCH   1  24
HETATM   24  S1  UNL     1      14.146 -16.224 -17.283  1.00  0.00    -0.124 SA
BRANCH  24  25
HETATM   25  C3  UNL     1      15.453 -15.884 -16.090  1.00  0.00     0.079 C 
BRANCH  25  26
HETATM   26  C2  UNL     1      15.234 -16.579 -14.774  1.00  0.00     0.006 C 
HETATM   27  C1  UNL     1      13.866 -16.202 -14.236  1.00  0.00     0.006 C 
ENDBRANCH  25  26
ENDBRANCH  24  25
ENDBRANCH   1  24
TORSDOF 4
ENDMDL
MODEL 3
REMARK VINA RESULT: -7.163481081      2.016      6.763
REMARK  4 active torsions:
REMARK  status: ('A' for Active; 'I' for Inactive)
REMARK    1  A    between atoms: C2_2  and  C3_3 
REMARK    2  A    between atoms: C3_3  and  S1_4 
REMARK    3  A    between atoms: S1_4  and  C4_5 
REMARK    4  A    between atoms: N2_8  and  C6_9 
ROOT
HETATM    1  C4  UNL     1      14.289 -14.151 -18.602  1.00  0.00     0.072 A 
HETATM    2  C5  UNL     1      15.011 -13.081 -19.085  1.00  0.00     0.139 A 
HETATM    3  N1  UNL     1      16.413 -12.894 -19.071  1.00  0.00    -0.081 NA
HETATM    4  N2  UNL     1      14.103 -12.202 -19.599  1.00  0.00    -0.314 N 
HETATM    5  C12 UNL     1      12.874 -12.696 -19.446  1.00  0.00     0.139 A 
HETATM    6  N3  UNL     1      11.639 -12.274 -19.752  1.00  0.00    -0.325 N 
ATOM      7  H3  UNL     1      11.565 -11.367 -20.214  1.00  0.00     0.169 HD
HETATM    8  C13 UNL     1      10.524 -12.906 -19.518  1.00  0.00     0.128 A 
HETATM    9  C14 UNL     1      10.620 -14.218 -18.853  1.00  0.00     0.060 A 
HETATM   10  N4  UNL     1      11.823 -14.635 -18.551  1.00  0.00    -0.352 N 
ATOM     11  H4  UNL     1      11.922 -15.539 -18.088  1.00  0.00     0.166 HD
HETATM   12  C15 UNL     1      12.926 -13.937 -18.818  1.00  0.00     0.098 A 
HETATM   13  C16 UNL     1       9.198 -14.729 -18.761  1.00  0.00     0.059 C 
HETATM   14  C17 UNL     1       8.305 -13.879 -17.891  1.00  0.00     0.032 C 
HETATM   15  C18 UNL     1       8.029 -12.534 -18.828  1.00  0.00     0.125 C 
HETATM   16  N5  UNL     1       9.155 -12.916 -19.536  1.00  0.00    -0.365 N 
HETATM   17  C19 UNL     1       8.745 -14.121 -20.191  1.00  0.00     0.135 C 
ENDROOT
BRANCH   4  18
HETATM   18  C6  UNL     1      14.454 -10.952 -20.199  1.00  0.00     0.093 C 
HETATM   19  C7  UNL     1      14.756 -11.073 -21.676  1.00  0.00     0.026 C 
HETATM   20  C8  UNL     1      14.894  -9.714 -22.291  1.00  0.00     0.002 C 
HETATM   21  C9  UNL     1      15.202  -8.653 -21.260  1.00  0.00     0.000 C 
HETATM   22  C10 UNL     1      14.122  -8.542 -20.221  1.00  0.00     0.002 C 
HETATM   23  C11 UNL     1      13.405  -9.885 -20.041  1.00  0.00     0.026 C 
ENDBRANCH   4  18
BRANCH   1  24
HETATM   24  S1  UNL     1      14.931 -15.611 -17.819  1.00  0.00    -0.124 SA
BRANCH  24  25
HETATM   25  C3  UNL     1      14.543 -15.663 -16.060  1.00  0.00     0.079 C 
BRANCH  25  26
HETATM   26  C2  UNL     1      15.126 -16.866 -15.371  1.00  0.00     0.006 C 
HETATM   27  C1  UNL     1      14.706 -18.118 -16.119  1.00  0.00     0.006 C 
ENDBRANCH  25  26
ENDBRANCH  24  25
ENDBRANCH   1  24
TORSDOF 4
ENDMDL
MODEL 4
REMARK VINA RESULT: -7.088518551      1.940      5.212
REMARK  4 active torsions:
REMARK  status: ('A' for Active; 'I' for Inactive)
REMARK    1  A    between atoms: C2_2  and  C3_3 
REMARK    2  A    between atoms: C3_3  and  S1_4 
REMARK    3  A    between atoms: S1_4  and  C4_5 
REMARK    4  A    between atoms: N2_8  and  C6_9 
ROOT
HETATM    1  C4  UNL     1      12.916 -13.717 -18.963  1.00  0.00     0.072 A 
HETATM    2  C5  UNL     1      11.663 -13.681 -18.389  1.00  0.00     0.139 A 
HETATM    3  N1  UNL     1      10.894 -14.763 -17.901  1.00  0.00    -0.081 NA
HETATM    4  N2  UNL     1      11.282 -12.371 -18.372  1.00  0.00    -0.314 N 
HETATM    5  C12 UNL     1      12.247 -11.622 -18.908  1.00  0.00     0.139 A 
HETATM    6  N3  UNL     1      12.407 -10.313 -19.145  1.00  0.00    -0.325 N 
ATOM      7  H3  UNL     1      11.642  -9.699 -18.867  1.00  0.00     0.169 HD
HETATM    8  C13 UNL     1      13.444  -9.747 -19.695  1.00  0.00     0.128 A 
HETATM    9  C14 UNL     1      14.557 -10.626 -20.098  1.00  0.00     0.060 A 
HETATM   10  N4  UNL     1      14.405 -11.907 -19.871  1.00  0.00    -0.352 N 
ATOM     11  H4  UNL     1      15.158 -12.540 -20.140  1.00  0.00     0.166 HD
HETATM   12  C15 UNL     1      13.315 -12.422 -19.304  1.00  0.00     0.098 A 
HETATM   13  C16 UNL     1      15.623  -9.703 -20.648  1.00  0.00     0.059 C 
HETATM   14  C17 UNL     1      15.197  -8.962 -21.893  1.00  0.00     0.032 C 
HETATM   15  C18 UNL     1      14.145  -7.814 -21.312  1.00  0.00     0.125 C 
HETATM   16  N5  UNL     1      14.040  -8.619 -20.190  1.00  0.00    -0.365 N 
HETATM   17  C19 UNL     1      15.334  -8.517 -19.585  1.00  0.00     0.135 C 
ENDROOT
BRANCH   4  18
HETATM   18  C6  UNL     1      10.031 -11.911 -17.853  1.00  0.00     0.093 C 
HETATM   19  C7  UNL     1      10.051 -10.445 -17.484  1.00  0.00     0.026 C 
HETATM   20  C8  UNL     1       8.666  -9.971 -17.163  1.00  0.00     0.002 C 
HETATM   21  C9  UNL     1       7.746 -11.112 -16.800  1.00  0.00     0.000 C 
HETATM   22  C10 UNL     1       7.607 -12.107 -17.918  1.00  0.00     0.002 C 
HETATM   23  C11 UNL     1       8.870 -12.123 -18.787  1.00  0.00     0.026 C 
ENDBRANCH   4  18
BRANCH   1  24
HETATM   24  S1  UNL     1      13.922 -15.151 -19.251  1.00  0.00    -0.124 SA
BRANCH  24  25
HETATM   25  C3  UNL     1      14.439 -15.937 -17.714  1.00  0.00     0.079 C 
BRANCH  25  26
HETATM   26  C2  UNL     1      15.841 -15.566 -17.314  1.00  0.00     0.006 C 
HETATM   27  C1  UNL     1      16.451 -14.695 -18.396  1.00  0.00     0.006 C 
ENDBRANCH  25  26
ENDBRANCH  24  25
ENDBRANCH   1  24
TORSDOF 4
ENDMDL
MODEL 5
REMARK VINA RESULT: -7.087693154      1.852      6.354
REMARK  4 active torsions:
REMARK  status: ('A' for Active; 'I' for Inactive)
REMARK    1  A    between atoms: C2_2  and  C3_3 
REMARK    2  A    between atoms: C3_3  and  S1_4 
REMARK    3  A    between atoms: S1_4  and  C4_5 
REMARK    4  A    between atoms: N2_8  and  C6_9 
ROOT
HETATM    1  C4  UNL     1      14.082 -12.826 -19.154  1.00  0.00     0.072 A 
HETATM    2  C5  UNL     1      12.922 -12.082 -19.143  1.00  0.00     0.139 A 
HETATM    3  N1  UNL     1      12.601 -10.952 -19.932  1.00  0.00    -0.081 NA
HETATM    4  N2  UNL     1      12.108 -12.647 -18.205  1.00  0.00    -0.314 N 
HETATM    5  C12 UNL     1      12.726 -13.693 -17.656  1.00  0.00     0.139 A 
HETATM    6  N3  UNL     1      12.411 -14.588 -16.709  1.00  0.00    -0.325 N 
ATOM      7  H3  UNL     1      11.493 -14.494 -16.276  1.00  0.00     0.169 HD
HETATM    8  C13 UNL     1      13.162 -15.567 -16.288  1.00  0.00     0.128 A 
HETATM    9  C14 UNL     1      14.491 -15.713 -16.911  1.00  0.00     0.060 A 
HETATM   10  N4  UNL     1      14.804 -14.840 -17.835  1.00  0.00    -0.352 N 
ATOM     11  H4  UNL     1      15.718 -14.914 -18.282  1.00  0.00     0.166 HD
HETATM   12  C15 UNL     1      13.988 -13.860 -18.219  1.00  0.00     0.098 A 
HETATM   13  C16 UNL     1      15.103 -16.941 -16.272  1.00  0.00     0.059 C 
HETATM   14  C17 UNL     1      15.344 -16.794 -14.789  1.00  0.00     0.032 C 
HETATM   15  C18 UNL     1      13.818 -16.909 -14.141  1.00  0.00     0.125 C 
HETATM   16  N5  UNL     1      13.362 -16.598 -15.411  1.00  0.00    -0.365 N 
HETATM   17  C19 UNL     1      13.707 -17.755 -16.181  1.00  0.00     0.135 C 
ENDROOT
BRANCH   4  18
HETATM   18  C6  UNL     1      10.801 -12.162 -17.887  1.00  0.00     0.093 C 
HETATM   19  C7  UNL     1      10.794 -10.698 -17.508  1.00  0.00     0.026 C 
HETATM   20  C8  UNL     1       9.386 -10.194 -17.407  1.00  0.00     0.002 C 
HETATM   21  C9  UNL     1       8.395 -11.316 -17.203  1.00  0.00     0.000 C 
HETATM   22  C10 UNL     1       8.414 -12.302 -18.336  1.00  0.00     0.002 C 
HETATM   23  C11 UNL     1       9.798 -12.343 -18.995  1.00  0.00     0.026 C 
ENDBRANCH   4  18
BRANCH   1  24
HETATM   24  S1  UNL     1      15.512 -12.569 -20.176  1.00  0.00    -0.124 SA
BRANCH  24  25
HETATM   25  C3  UNL     1      16.953 -12.077 -19.214  1.00  0.00     0.079 C 
BRANCH  25  26
HETATM   26  C2  UNL     1      17.431 -10.690 -19.550  1.00  0.00     0.006 C 
HETATM   27  C1  UNL     1      16.233  -9.824 -19.895  1.00  0.00     0.006 C 
ENDBRANCH  25  26
ENDBRANCH  24  25
ENDBRANCH   1  24
TORSDOF 4
ENDMDL
