MODEL 1
REMARK VINA RESULT: -8.378262885      0.000      0.000
REMARK  4 active torsions:
REMARK  status: ('A' for Active; 'I' for Inactive)
REMARK    1  A    between atoms: C3_6  and  C4_7 
REMARK    2  A    between atoms: C7_10  and  C8_11 
REMARK    3  A    between atoms: C8_11  and  C9_13 
REMARK    4  A    between atoms: N2_16  and  C12_17 
ROOT
HETATM    1  C9  UNL     1      13.578 -13.826 -18.873  1.00  0.00     0.067 A 
HETATM    2  C10 UNL     1      14.853 -14.048 -18.498  1.00  0.00     0.008 A 
HETATM    3  C11 UNL     1      14.874 -14.981 -17.463  1.00  0.00     0.051 A 
HETATM    4  N2  UNL     1      13.604 -15.314 -17.192  1.00  0.00    -0.308 N 
HETATM    5  C18 UNL     1      12.817 -14.653 -17.981  1.00  0.00     0.138 A 
HETATM    6  N3  UNL     1      11.400 -14.558 -17.988  1.00  0.00    -0.081 NA
HETATM    7  C19 UNL     1      16.298 -15.220 -17.161  1.00  0.00     0.226 C 
HETATM    8  O3  UNL     1      16.942 -14.051 -17.496  1.00  0.00    -0.381 OA
HETATM    9  C20 UNL     1      16.317 -13.529 -18.622  1.00  0.00     0.210 C 
ENDROOT
BRANCH   1  10
HETATM   10  C8  UNL     1      12.830 -13.034 -19.831  1.00  0.00     0.201 C 
HETATM   11  O2  UNL     1      12.213 -13.603 -20.755  1.00  0.00    -0.286 OA
BRANCH  10  12
HETATM   12  C7  UNL     1      12.787 -11.543 -19.770  1.00  0.00     0.071 A 
HETATM   13  C2  UNL     1      11.850 -10.750 -19.174  1.00  0.00     0.045 A 
HETATM   14  C1  UNL     1      10.616 -11.041 -18.396  1.00  0.00     0.071 C 
HETATM   15  N1  UNL     1      12.280  -9.429 -19.315  1.00  0.00    -0.265 N 
HETATM   16  O1  UNL     1      13.372  -9.420 -19.932  1.00  0.00    -0.241 OA
ATOM     17  H1  UNL     1      11.787  -8.605 -18.972  1.00  0.00     0.194 HD
HETATM   18  C3  UNL     1      13.731 -10.691 -20.234  1.00  0.00     0.096 A 
BRANCH  18  19
HETATM   19  C4  UNL     1      14.998 -11.001 -20.933  1.00  0.00     0.038 C 
HETATM   20  C5  UNL     1      14.895 -10.644 -22.370  1.00  0.00     0.016 C 
HETATM   21  C6  UNL     1      16.043  -9.885 -20.412  1.00  0.00     0.016 C 
ENDBRANCH  18  19
ENDBRANCH  10  12
ENDBRANCH   1  10
BRANCH   4  22
HETATM   22  C12 UNL     1      13.272 -16.441 -16.321  1.00  0.00    -0.004 C 
HETATM   23  C13 UNL     1      12.775 -16.122 -14.965  1.00  0.00     0.053 C 
HETATM   24  C14 UNL     1      13.777 -16.233 -13.881  1.00  0.00     0.006 C 
HETATM   25  C15 UNL     1      15.122 -16.785 -14.399  1.00  0.00     0.001 C 
HETATM   26  C16 UNL     1      14.729 -18.046 -15.152  1.00  0.00     0.006 C 
HETATM   27  C17 UNL     1      14.248 -17.525 -16.492  1.00  0.00     0.053 C 
ENDBRANCH   4  22
TORSDOF 4
ENDMDL
MODEL 2
REMARK VINA RESULT: -8.342886081      2.182      5.733
REMARK  4 active torsions:
REMARK  status: ('A' for Active; 'I' for Inactive)
REMARK    1  A    between atoms: C3_6  and  C4_7 
REMARK    2  A    between atoms: C7_10  and  C8_11 
REMARK    3  A    between atoms: C8_11  and  C9_13 
REMARK    4  A    between atoms: N2_16  and  C12_17 
ROOT
HETATM    1  C9  UNL     1      14.023 -13.537 -18.790  1.00  0.00     0.067 A 
HETATM    2  C10 UNL     1      15.268 -13.722 -18.313  1.00  0.00     0.008 A 
HETATM    3  C11 UNL     1      16.148 -12.870 -18.978  1.00  0.00     0.051 A 
HETATM    4  N2  UNL     1      15.438 -12.178 -19.879  1.00  0.00    -0.308 N 
HETATM    5  C18 UNL     1      14.197 -12.546 -19.813  1.00  0.00     0.138 A 
HETATM    6  N3  UNL     1      13.098 -12.210 -20.646  1.00  0.00    -0.081 NA
HETATM    7  C19 UNL     1      17.468 -13.081 -18.354  1.00  0.00     0.226 C 
HETATM    8  O3  UNL     1      17.451 -14.379 -17.897  1.00  0.00    -0.381 OA
HETATM    9  C20 UNL     1      16.166 -14.654 -17.445  1.00  0.00     0.210 C 
ENDROOT
BRANCH   1  10
HETATM   10  C8  UNL     1      12.675 -14.037 -18.586  1.00  0.00     0.201 C 
HETATM   11  O2  UNL     1      12.164 -14.799 -19.431  1.00  0.00    -0.286 OA
BRANCH  10  12
HETATM   12  C7  UNL     1      11.855 -13.650 -17.400  1.00  0.00     0.071 A 
HETATM   13  C2  UNL     1      11.993 -14.064 -16.107  1.00  0.00     0.045 A 
HETATM   14  C1  UNL     1      12.953 -14.973 -15.427  1.00  0.00     0.071 C 
HETATM   15  N1  UNL     1      11.046 -13.371 -15.350  1.00  0.00    -0.265 N 
HETATM   16  O1  UNL     1      10.399 -12.608 -16.107  1.00  0.00    -0.241 OA
ATOM     17  H1  UNL     1      10.904 -13.469 -14.345  1.00  0.00     0.194 HD
HETATM   18  C3  UNL     1      10.855 -12.737 -17.376  1.00  0.00     0.096 A 
BRANCH  18  19
HETATM   19  C4  UNL     1      10.305 -11.933 -18.490  1.00  0.00     0.038 C 
HETATM   20  C5  UNL     1       8.880 -11.607 -18.237  1.00  0.00     0.016 C 
HETATM   21  C6  UNL     1      10.988 -10.478 -18.328  1.00  0.00     0.016 C 
ENDBRANCH  18  19
ENDBRANCH  10  12
ENDBRANCH   1  10
BRANCH   4  22
HETATM   22  C12 UNL     1      16.002 -11.030 -20.589  1.00  0.00    -0.004 C 
HETATM   23  C13 UNL     1      16.460  -9.888 -19.768  1.00  0.00     0.053 C 
HETATM   24  C14 UNL     1      15.524  -8.742 -19.698  1.00  0.00     0.006 C 
HETATM   25  C15 UNL     1      14.299  -8.947 -20.615  1.00  0.00     0.001 C 
HETATM   26  C16 UNL     1      14.911  -9.300 -21.961  1.00  0.00     0.006 C 
HETATM   27  C17 UNL     1      15.251 -10.772 -21.824  1.00  0.00     0.053 C 
ENDBRANCH   4  22
TORSDOF 4
ENDMDL
MODEL 3
REMARK VINA RESULT: -8.215320203      1.087      1.560
REMARK  4 active torsions:
REMARK  status: ('A' for Active; 'I' for Inactive)
REMARK    1  A    between atoms: C3_6  and  C4_7 
REMARK    2  A    between atoms: C7_10  and  C8_11 
REMARK    3  A    between atoms: C8_11  and  C9_13 
REMARK    4  A    between atoms: N2_16  and  C12_17 
ROOT
HETATM    1  C9  UNL     1      14.102 -13.696 -18.761  1.00  0.00     0.067 A 
HETATM    2  C10 UNL     1      15.442 -13.588 -18.680  1.00  0.00     0.008 A 
HETATM    3  C11 UNL     1      15.905 -14.377 -17.628  1.00  0.00     0.051 A 
HETATM    4  N2  UNL     1      14.839 -14.952 -17.054  1.00  0.00    -0.308 N 
HETATM    5  C18 UNL     1      13.767 -14.570 -17.674  1.00  0.00     0.138 A 
HETATM    6  N3  UNL     1      12.401 -14.793 -17.359  1.00  0.00    -0.081 NA
HETATM    7  C19 UNL     1      17.375 -14.261 -17.650  1.00  0.00     0.226 C 
HETATM    8  O3  UNL     1      17.634 -13.022 -18.188  1.00  0.00    -0.381 OA
HETATM    9  C20 UNL     1      16.679 -12.774 -19.167  1.00  0.00     0.210 C 
ENDROOT
BRANCH   1  10
HETATM   10  C8  UNL     1      13.000 -13.197 -19.563  1.00  0.00     0.201 C 
HETATM   11  O2  UNL     1      12.496 -13.924 -20.442  1.00  0.00    -0.286 OA
BRANCH  10  12
HETATM   12  C7  UNL     1      12.451 -11.819 -19.391  1.00  0.00     0.071 A 
HETATM   13  C2  UNL     1      11.274 -11.445 -18.809  1.00  0.00     0.045 A 
HETATM   14  C1  UNL     1      10.178 -12.205 -18.153  1.00  0.00     0.071 C 
HETATM   15  N1  UNL     1      11.238 -10.049 -18.815  1.00  0.00    -0.265 N 
HETATM   16  O1  UNL     1      12.290  -9.617 -19.344  1.00  0.00    -0.241 OA
ATOM     17  H1  UNL     1      10.480  -9.474 -18.448  1.00  0.00     0.194 HD
HETATM   18  C3  UNL     1      13.072 -10.660 -19.714  1.00  0.00     0.096 A 
BRANCH  18  19
HETATM   19  C4  UNL     1      14.400 -10.459 -20.336  1.00  0.00     0.038 C 
HETATM   20  C5  UNL     1      14.364 -10.853 -21.766  1.00  0.00     0.016 C 
HETATM   21  C6  UNL     1      14.562  -8.857 -20.461  1.00  0.00     0.016 C 
ENDBRANCH  18  19
ENDBRANCH  10  12
ENDBRANCH   1  10
BRANCH   4  22
HETATM   22  C12 UNL     1      14.979 -16.025 -16.069  1.00  0.00    -0.004 C 
HETATM   23  C13 UNL     1      14.878 -17.414 -16.566  1.00  0.00     0.053 C 
HETATM   24  C14 UNL     1      13.569 -18.072 -16.347  1.00  0.00     0.006 C 
HETATM   25  C15 UNL     1      12.613 -17.183 -15.524  1.00  0.00     0.001 C 
HETATM   26  C16 UNL     1      13.439 -16.794 -14.308  1.00  0.00     0.006 C 
HETATM   27  C17 UNL     1      14.308 -15.659 -14.816  1.00  0.00     0.053 C 
ENDBRANCH   4  22
TORSDOF 4
ENDMDL
MODEL 4
REMARK VINA RESULT: -8.139537479      0.631      2.367
REMARK  4 active torsions:
REMARK  status: ('A' for Active; 'I' for Inactive)
REMARK    1  A    between atoms: C3_6  and  C4_7 
REMARK    2  A    between atoms: C7_10  and  C8_11 
REMARK    3  A    between atoms: C8_11  and  C9_13 
REMARK    4  A    between atoms: N2_16  and  C12_17 
ROOT
HETATM    1  C9  UNL     1      13.638 -13.825 -18.949  1.00  0.00     0.067 A 
HETATM    2  C10 UNL     1      14.917 -14.010 -18.571  1.00  0.00     0.008 A 
HETATM    3  C11 UNL     1      14.971 -15.009 -17.600  1.00  0.00     0.051 A 
HETATM    4  N2  UNL     1      13.716 -15.419 -17.371  1.00  0.00    -0.308 N 
HETATM    5  C18 UNL     1      12.907 -14.744 -18.125  1.00  0.00     0.138 A 
HETATM    6  N3  UNL     1      11.488 -14.715 -18.147  1.00  0.00    -0.081 NA
HETATM    7  C19 UNL     1      16.402 -15.200 -17.293  1.00  0.00     0.226 C 
HETATM    8  O3  UNL     1      16.993 -13.983 -17.541  1.00  0.00    -0.381 OA
HETATM    9  C20 UNL     1      16.357 -13.416 -18.639  1.00  0.00     0.210 C 
ENDROOT
BRANCH   1  10
HETATM   10  C8  UNL     1      12.863 -13.006 -19.863  1.00  0.00     0.201 C 
HETATM   11  O2  UNL     1      12.129 -13.552 -20.710  1.00  0.00    -0.286 OA
BRANCH  10  12
HETATM   12  C7  UNL     1      12.930 -11.515 -19.847  1.00  0.00     0.071 A 
HETATM   13  C2  UNL     1      13.781 -10.700 -20.535  1.00  0.00     0.045 A 
HETATM   14  C1  UNL     1      14.874 -10.962 -21.509  1.00  0.00     0.071 C 
HETATM   15  N1  UNL     1      13.407  -9.384 -20.256  1.00  0.00    -0.265 N 
HETATM   16  O1  UNL     1      12.423  -9.397 -19.478  1.00  0.00    -0.241 OA
ATOM     17  H1  UNL     1      13.860  -8.548 -20.624  1.00  0.00     0.194 HD
HETATM   18  C3  UNL     1      12.087 -10.679 -19.196  1.00  0.00     0.096 A 
BRANCH  18  19
HETATM   19  C4  UNL     1      10.936 -11.012 -18.327  1.00  0.00     0.038 C 
HETATM   20  C5  UNL     1      11.408 -11.547 -17.027  1.00  0.00     0.016 C 
HETATM   21  C6  UNL     1      10.332  -9.585 -17.873  1.00  0.00     0.016 C 
ENDBRANCH  18  19
ENDBRANCH  10  12
ENDBRANCH   1  10
BRANCH   4  22
HETATM   22  C12 UNL     1      13.428 -16.616 -16.581  1.00  0.00    -0.004 C 
HETATM   23  C13 UNL     1      12.595 -16.443 -15.372  1.00  0.00     0.053 C 
HETATM   24  C14 UNL     1      13.337 -16.393 -14.092  1.00  0.00     0.006 C 
HETATM   25  C15 UNL     1      14.844 -16.658 -14.294  1.00  0.00     0.001 C 
HETATM   26  C16 UNL     1      14.879 -17.946 -15.100  1.00  0.00     0.006 C 
HETATM   27  C17 UNL     1      14.611 -17.485 -16.520  1.00  0.00     0.053 C 
ENDBRANCH   4  22
TORSDOF 4
ENDMDL
MODEL 5
REMARK VINA RESULT: -8.035271571      1.228      3.011
REMARK  4 active torsions:
REMARK  status: ('A' for Active; 'I' for Inactive)
REMARK    1  A    between atoms: C3_6  and  C4_7 
REMARK    2  A    between atoms: C7_10  and  C8_11 
REMARK    3  A    between atoms: C8_11  and  C9_13 
REMARK    4  A    between atoms: N2_16  and  C12_17 
ROOT
HETATM    1  C9  UNL     1      14.017 -13.734 -18.652  1.00  0.00     0.067 A 
HETATM    2  C10 UNL     1      15.358 -13.617 -18.630  1.00  0.00     0.008 A 
HETATM    3  C11 UNL     1      15.875 -14.434 -17.626  1.00  0.00     0.051 A 
HETATM    4  N2  UNL     1      14.841 -15.035 -17.020  1.00  0.00    -0.308 N 
HETATM    5  C18 UNL     1      13.739 -14.644 -17.578  1.00  0.00     0.138 A 
HETATM    6  N3  UNL     1      12.391 -14.887 -17.207  1.00  0.00    -0.081 NA
HETATM    7  C19 UNL     1      17.342 -14.305 -17.712  1.00  0.00     0.226 C 
HETATM    8  O3  UNL     1      17.567 -13.048 -18.223  1.00  0.00    -0.381 OA
HETATM    9  C20 UNL     1      16.565 -12.779 -19.148  1.00  0.00     0.210 C 
ENDROOT
BRANCH   1  10
HETATM   10  C8  UNL     1      12.875 -13.220 -19.386  1.00  0.00     0.201 C 
HETATM   11  O2  UNL     1      12.283 -13.955 -20.202  1.00  0.00    -0.286 OA
BRANCH  10  12
HETATM   12  C7  UNL     1      12.388 -11.818 -19.220  1.00  0.00     0.071 A 
HETATM   13  C2  UNL     1      12.933 -10.670 -19.718  1.00  0.00     0.045 A 
HETATM   14  C1  UNL     1      14.119 -10.395 -20.572  1.00  0.00     0.071 C 
HETATM   15  N1  UNL     1      12.082  -9.623 -19.362  1.00  0.00    -0.265 N 
HETATM   16  O1  UNL     1      11.113 -10.087 -18.715  1.00  0.00    -0.241 OA
ATOM     17  H1  UNL     1      12.224  -8.639 -19.591  1.00  0.00     0.194 HD
HETATM   18  C3  UNL     1      11.249 -11.430 -18.600  1.00  0.00     0.096 A 
BRANCH  18  19
HETATM   19  C4  UNL     1      10.235 -12.263 -17.914  1.00  0.00     0.038 C 
HETATM   20  C5  UNL     1       9.389 -11.423 -17.032  1.00  0.00     0.016 C 
HETATM   21  C6  UNL     1       9.177 -12.662 -19.068  1.00  0.00     0.016 C 
ENDBRANCH  18  19
ENDBRANCH  10  12
ENDBRANCH   1  10
BRANCH   4  22
HETATM   22  C12 UNL     1      15.035 -16.136 -16.076  1.00  0.00    -0.004 C 
HETATM   23  C13 UNL     1      14.863 -17.509 -16.597  1.00  0.00     0.053 C 
HETATM   24  C14 UNL     1      13.561 -18.145 -16.292  1.00  0.00     0.006 C 
HETATM   25  C15 UNL     1      12.693 -17.259 -15.373  1.00  0.00     0.001 C 
HETATM   26  C16 UNL     1      13.621 -16.919 -14.218  1.00  0.00     0.006 C 
HETATM   27  C17 UNL     1      14.473 -15.789 -14.765  1.00  0.00     0.053 C 
ENDBRANCH   4  22
TORSDOF 4
ENDMDL
