MODEL 1
REMARK VINA RESULT: -5.095187442      0.000      0.000
REMARK  6 active torsions:
REMARK  status: ('A' for Active; 'I' for Inactive)
REMARK    1  A    between atoms: C1_4  and  N2_5 
REMARK    2  A    between atoms: N3_7  and  N4_9 
REMARK    3  A    between atoms: N4_9  and  C2_11 
REMARK    4  A    between atoms: C2_11  and  N5_13 
REMARK    5  A    between atoms: N5_13  and  C3_15 
REMARK    6  A    between atoms: C3_15  and  C4_16 
ROOT
HETATM    1  N4  UNL     1     -47.673 -61.880  62.420  1.00  0.00    -0.262 N 
ATOM      2  H4  UNL     1     -47.498 -62.585  61.704  1.00  0.00     0.191 HD
ENDROOT
BRANCH   1   3
HETATM    3  N3  UNL     1     -48.104 -62.276  63.678  1.00  0.00    -0.240 N 
HETATM    4  N2  UNL     1     -48.359 -63.413  64.091  1.00  0.00    -0.282 N 
ATOM      5  H2  UNL     1     -48.670 -63.551  65.052  1.00  0.00     0.189 HD
ATOM      6  H3  UNL     1     -48.228 -61.525  64.356  1.00  0.00     0.208 HD
BRANCH   4   7
HETATM    7  C1  UNL     1     -48.217 -64.532  63.216  1.00  0.00     0.192 C 
HETATM    8  N1  UNL     1     -49.327 -65.095  62.868  1.00  0.00    -0.394 N 
ATOM      9  H12 UNL     1     -50.228 -64.753  63.202  1.00  0.00     0.156 HD
ATOM     10  H11 UNL     1     -49.225 -65.894  62.243  1.00  0.00     0.156 HD
ENDBRANCH   4   7
ENDBRANCH   1   3
BRANCH   1  11
HETATM   11  C2  UNL     1     -47.472 -60.504  62.112  1.00  0.00     0.187 C 
HETATM   12  S1  UNL     1     -46.123 -59.761  62.628  1.00  0.00    -0.040 SA
BRANCH  11  13
HETATM   13  N5  UNL     1     -48.450 -59.796  61.387  1.00  0.00    -0.365 N 
ATOM     14  H5  UNL     1     -48.796 -60.201  60.517  1.00  0.00     0.161 HD
BRANCH  13  15
HETATM   15  C3  UNL     1     -48.984 -58.535  61.813  1.00  0.00     0.137 C 
BRANCH  15  16
HETATM   16  C4  UNL     1     -50.113 -58.142  60.911  1.00  0.00     0.134 C 
HETATM   17 CL1  UNL     1     -50.325 -56.372  60.843  1.00  0.00    -0.129 Cl
ENDBRANCH  15  16
ENDBRANCH  13  15
ENDBRANCH  11  13
ENDBRANCH   1  11
TORSDOF 6
ENDMDL
MODEL 2
REMARK VINA RESULT: -5.090249498      3.919      4.681
REMARK  6 active torsions:
REMARK  status: ('A' for Active; 'I' for Inactive)
REMARK    1  A    between atoms: C1_4  and  N2_5 
REMARK    2  A    between atoms: N3_7  and  N4_9 
REMARK    3  A    between atoms: N4_9  and  C2_11 
REMARK    4  A    between atoms: C2_11  and  N5_13 
REMARK    5  A    between atoms: N5_13  and  C3_15 
REMARK    6  A    between atoms: C3_15  and  C4_16 
ROOT
HETATM    1  N4  UNL     1     -47.836 -61.105  63.859  1.00  0.00    -0.262 N 
ATOM      2  H4  UNL     1     -48.345 -60.744  63.052  1.00  0.00     0.191 HD
ENDROOT
BRANCH   1   3
HETATM    3  N3  UNL     1     -48.338 -62.199  64.549  1.00  0.00    -0.240 N 
HETATM    4  N2  UNL     1     -48.434 -63.375  64.181  1.00  0.00    -0.282 N 
ATOM      5  H2  UNL     1     -48.829 -64.077  64.806  1.00  0.00     0.189 HD
ATOM      6  H3  UNL     1     -48.673 -62.006  65.493  1.00  0.00     0.208 HD
BRANCH   4   7
HETATM    7  C1  UNL     1     -47.991 -63.746  62.875  1.00  0.00     0.192 C 
HETATM    8  N1  UNL     1     -48.936 -63.934  62.014  1.00  0.00    -0.394 N 
ATOM      9  H12 UNL     1     -49.918 -63.822  62.263  1.00  0.00     0.156 HD
ATOM     10  H11 UNL     1     -48.619 -64.199  61.081  1.00  0.00     0.156 HD
ENDBRANCH   4   7
ENDBRANCH   1   3
BRANCH   1  11
HETATM   11  C2  UNL     1     -46.621 -60.478  64.258  1.00  0.00     0.187 C 
HETATM   12  S1  UNL     1     -46.092 -59.176  63.445  1.00  0.00    -0.040 SA
BRANCH  11  13
HETATM   13  N5  UNL     1     -45.881 -61.004  65.335  1.00  0.00    -0.365 N 
ATOM     14  H5  UNL     1     -46.311 -61.016  66.260  1.00  0.00     0.161 HD
BRANCH  13  15
HETATM   15  C3  UNL     1     -44.551 -61.524  65.194  1.00  0.00     0.137 C 
BRANCH  15  16
HETATM   16  C4  UNL     1     -44.533 -62.556  64.110  1.00  0.00     0.134 C 
HETATM   17 CL1  UNL     1     -42.889 -62.815  63.466  1.00  0.00    -0.129 Cl
ENDBRANCH  15  16
ENDBRANCH  13  15
ENDBRANCH  11  13
ENDBRANCH   1  11
TORSDOF 6
ENDMDL
MODEL 3
REMARK VINA RESULT: -5.013291255      4.052      4.832
REMARK  6 active torsions:
REMARK  status: ('A' for Active; 'I' for Inactive)
REMARK    1  A    between atoms: C1_4  and  N2_5 
REMARK    2  A    between atoms: N3_7  and  N4_9 
REMARK    3  A    between atoms: N4_9  and  C2_11 
REMARK    4  A    between atoms: C2_11  and  N5_13 
REMARK    5  A    between atoms: N5_13  and  C3_15 
REMARK    6  A    between atoms: C3_15  and  C4_16 
ROOT
HETATM    1  N4  UNL     1     -47.845 -61.909  62.403  1.00  0.00    -0.262 N 
ATOM      2  H4  UNL     1     -48.642 -61.774  61.781  1.00  0.00     0.191 HD
ENDROOT
BRANCH   1   3
HETATM    3  N3  UNL     1     -48.056 -62.380  63.691  1.00  0.00    -0.240 N 
HETATM    4  N2  UNL     1     -48.242 -63.540  64.075  1.00  0.00    -0.282 N 
ATOM      5  H2  UNL     1     -48.385 -63.735  65.066  1.00  0.00     0.189 HD
ATOM      6  H3  UNL     1     -48.058 -61.670  64.423  1.00  0.00     0.208 HD
BRANCH   4   7
HETATM    7  C1  UNL     1     -48.257 -64.606  63.125  1.00  0.00     0.192 C 
HETATM    8  N1  UNL     1     -49.430 -65.079  62.858  1.00  0.00    -0.394 N 
ATOM      9  H12 UNL     1     -50.270 -64.709  63.300  1.00  0.00     0.156 HD
ATOM     10  H11 UNL     1     -49.440 -65.840  62.179  1.00  0.00     0.156 HD
ENDBRANCH   4   7
ENDBRANCH   1   3
BRANCH   1  11
HETATM   11  C2  UNL     1     -46.533 -61.611  61.936  1.00  0.00     0.187 C 
HETATM   12  S1  UNL     1     -45.888 -60.154  62.249  1.00  0.00    -0.040 SA
BRANCH  11  13
HETATM   13  N5  UNL     1     -45.819 -62.568  61.189  1.00  0.00    -0.365 N 
ATOM     14  H5  UNL     1     -46.280 -62.999  60.387  1.00  0.00     0.161 HD
BRANCH  13  15
HETATM   15  C3  UNL     1     -44.477 -62.967  61.501  1.00  0.00     0.137 C 
BRANCH  15  16
HETATM   16  C4  UNL     1     -44.506 -64.027  62.558  1.00  0.00     0.134 C 
HETATM   17 CL1  UNL     1     -42.988 -64.962  62.604  1.00  0.00    -0.129 Cl
ENDBRANCH  15  16
ENDBRANCH  13  15
ENDBRANCH  11  13
ENDBRANCH   1  11
TORSDOF 6
ENDMDL
MODEL 4
REMARK VINA RESULT: -4.979900350      3.229      5.526
REMARK  6 active torsions:
REMARK  status: ('A' for Active; 'I' for Inactive)
REMARK    1  A    between atoms: C1_4  and  N2_5 
REMARK    2  A    between atoms: N3_7  and  N4_9 
REMARK    3  A    between atoms: N4_9  and  C2_11 
REMARK    4  A    between atoms: C2_11  and  N5_13 
REMARK    5  A    between atoms: N5_13  and  C3_15 
REMARK    6  A    between atoms: C3_15  and  C4_16 
ROOT
HETATM    1  N4  UNL     1     -48.042 -59.997  63.035  1.00  0.00    -0.262 N 
ATOM      2  H4  UNL     1     -48.284 -59.178  63.594  1.00  0.00     0.191 HD
ENDROOT
BRANCH   1   3
HETATM    3  N3  UNL     1     -48.354 -60.017  61.683  1.00  0.00    -0.240 N 
HETATM    4  N2  UNL     1     -49.081 -59.251  61.040  1.00  0.00    -0.282 N 
ATOM      5  H2  UNL     1     -49.217 -59.393  60.040  1.00  0.00     0.189 HD
ATOM      6  H3  UNL     1     -47.923 -60.769  61.144  1.00  0.00     0.208 HD
BRANCH   4   7
HETATM    7  C1  UNL     1     -49.729 -58.167  61.705  1.00  0.00     0.192 C 
HETATM    8  N1  UNL     1     -49.757 -57.059  61.040  1.00  0.00    -0.394 N 
ATOM      9  H12 UNL     1     -49.343 -56.982  60.111  1.00  0.00     0.156 HD
ATOM     10  H11 UNL     1     -50.220 -56.285  61.514  1.00  0.00     0.156 HD
ENDBRANCH   4   7
ENDBRANCH   1   3
BRANCH   1  11
HETATM   11  C2  UNL     1     -47.388 -61.100  63.655  1.00  0.00     0.187 C 
HETATM   12  S1  UNL     1     -45.766 -61.164  63.663  1.00  0.00    -0.040 SA
BRANCH  11  13
HETATM   13  N5  UNL     1     -48.152 -62.134  64.231  1.00  0.00    -0.365 N 
ATOM     14  H5  UNL     1     -49.001 -61.885  64.738  1.00  0.00     0.161 HD
BRANCH  13  15
HETATM   15  C3  UNL     1     -47.793 -63.520  64.139  1.00  0.00     0.137 C 
BRANCH  15  16
HETATM   16  C4  UNL     1     -48.082 -64.019  62.757  1.00  0.00     0.134 C 
HETATM   17 CL1  UNL     1     -49.045 -65.520  62.779  1.00  0.00    -0.129 Cl
ENDBRANCH  15  16
ENDBRANCH  13  15
ENDBRANCH  11  13
ENDBRANCH   1  11
TORSDOF 6
ENDMDL
MODEL 5
REMARK VINA RESULT: -4.922440400      4.231      5.144
REMARK  6 active torsions:
REMARK  status: ('A' for Active; 'I' for Inactive)
REMARK    1  A    between atoms: C1_4  and  N2_5 
REMARK    2  A    between atoms: N3_7  and  N4_9 
REMARK    3  A    between atoms: N4_9  and  C2_11 
REMARK    4  A    between atoms: C2_11  and  N5_13 
REMARK    5  A    between atoms: N5_13  and  C3_15 
REMARK    6  A    between atoms: C3_15  and  C4_16 
ROOT
HETATM    1  N4  UNL     1     -47.480 -61.459  61.950  1.00  0.00    -0.262 N 
ATOM      2  H4  UNL     1     -48.096 -60.654  61.832  1.00  0.00     0.191 HD
ENDROOT
BRANCH   1   3
HETATM    3  N3  UNL     1     -48.007 -62.660  62.402  1.00  0.00    -0.240 N 
HETATM    4  N2  UNL     1     -48.225 -63.027  63.562  1.00  0.00    -0.282 N 
ATOM      5  H2  UNL     1     -48.619 -63.950  63.742  1.00  0.00     0.189 HD
ATOM      6  H3  UNL     1     -48.248 -63.335  61.676  1.00  0.00     0.208 HD
BRANCH   4   7
HETATM    7  C1  UNL     1     -47.920 -62.154  64.649  1.00  0.00     0.192 C 
HETATM    8  N1  UNL     1     -46.737 -62.299  65.149  1.00  0.00    -0.394 N 
ATOM      9  H12 UNL     1     -46.083 -62.991  64.783  1.00  0.00     0.156 HD
ATOM     10  H11 UNL     1     -46.519 -61.675  65.925  1.00  0.00     0.156 HD
ENDBRANCH   4   7
ENDBRANCH   1   3
BRANCH   1  11
HETATM   11  C2  UNL     1     -46.094 -61.332  61.647  1.00  0.00     0.187 C 
HETATM   12  S1  UNL     1     -45.296 -59.998  62.114  1.00  0.00    -0.040 SA
BRANCH  11  13
HETATM   13  N5  UNL     1     -45.437 -62.349  60.928  1.00  0.00    -0.365 N 
ATOM     14  H5  UNL     1     -45.872 -62.698  60.074  1.00  0.00     0.161 HD
BRANCH  13  15
HETATM   15  C3  UNL     1     -44.185 -62.918  61.338  1.00  0.00     0.137 C 
BRANCH  15  16
HETATM   16  C4  UNL     1     -44.425 -63.918  62.426  1.00  0.00     0.134 C 
HETATM   17 CL1  UNL     1     -43.000 -64.953  62.704  1.00  0.00    -0.129 Cl
ENDBRANCH  15  16
ENDBRANCH  13  15
ENDBRANCH  11  13
ENDBRANCH   1  11
TORSDOF 6
ENDMDL
