MODEL 1
REMARK VINA RESULT: -5.201012411      0.000      0.000
REMARK  5 active torsions:
REMARK  status: ('A' for Active; 'I' for Inactive)
REMARK    1  A    between atoms: C2_2  and  O1_3 
REMARK    2  A    between atoms: C2_2  and  C3_6 
REMARK    3  A    between atoms: C3_6  and  N1_7 
REMARK    4  A    between atoms: N1_7  and  N2_8 
REMARK    5  A    between atoms: N2_8  and  C4_9 
ROOT
HETATM    1  N1  UNL     1     -47.324 -61.940  64.702  1.00  0.00    -0.144 NA
ENDROOT
BRANCH   1   2
HETATM    2  C3  UNL     1     -47.665 -63.326  64.469  1.00  0.00     0.184 C 
BRANCH   2   3
HETATM    3  C2  UNL     1     -47.683 -63.675  62.996  1.00  0.00     0.145 C 
HETATM    4  C1  UNL     1     -48.625 -64.809  62.684  1.00  0.00     0.065 C 
HETATM    5 CL1  UNL     1     -46.076 -64.069  62.378  1.00  0.00    -0.087 Cl
BRANCH   3   6
HETATM    6  O1  UNL     1     -48.129 -62.532  62.315  1.00  0.00    -0.374 OA
ATOM      7  H1  UNL     1     -47.544 -62.374  61.584  1.00  0.00     0.212 HD
ENDBRANCH   3   6
ENDBRANCH   2   3
ENDBRANCH   1   2
BRANCH   1   8
HETATM    8  N2  UNL     1     -46.102 -61.861  65.384  1.00  0.00    -0.143 NA
BRANCH   8   9
HETATM    9  C4  UNL     1     -45.290 -60.740  64.928  1.00  0.00     0.095 C 
HETATM   10  C5  UNL     1     -45.358 -60.582  63.416  1.00  0.00     0.023 C 
HETATM   11  C6  UNL     1     -44.063 -61.121  62.861  1.00  0.00     0.002 C 
HETATM   12  C7  UNL     1     -43.611 -62.042  63.988  1.00  0.00     0.002 C 
HETATM   13  C8  UNL     1     -43.824 -61.088  65.159  1.00  0.00     0.023 C 
ENDBRANCH   8   9
ENDBRANCH   1   8
TORSDOF 5
ENDMDL
MODEL 2
REMARK VINA RESULT: -5.138147247      7.233      8.660
REMARK  5 active torsions:
REMARK  status: ('A' for Active; 'I' for Inactive)
REMARK    1  A    between atoms: C2_2  and  O1_3 
REMARK    2  A    between atoms: C2_2  and  C3_6 
REMARK    3  A    between atoms: C3_6  and  N1_7 
REMARK    4  A    between atoms: N1_7  and  N2_8 
REMARK    5  A    between atoms: N2_8  and  C4_9 
ROOT
HETATM    1  N1  UNL     1     -40.451 -60.973  59.370  1.00  0.00    -0.144 NA
ENDROOT
BRANCH   1   2
HETATM    2  C3  UNL     1     -39.673 -59.760  59.491  1.00  0.00     0.184 C 
BRANCH   2   3
HETATM    3  C2  UNL     1     -39.954 -59.023  60.783  1.00  0.00     0.145 C 
HETATM    4  C1  UNL     1     -38.742 -58.942  61.675  1.00  0.00     0.065 C 
HETATM    5 CL1  UNL     1     -41.293 -59.735  61.689  1.00  0.00    -0.087 Cl
BRANCH   3   6
HETATM    6  O1  UNL     1     -40.329 -57.717  60.432  1.00  0.00    -0.374 OA
ATOM      7  H1  UNL     1     -40.354 -57.660  59.484  1.00  0.00     0.212 HD
ENDBRANCH   3   6
ENDBRANCH   2   3
ENDBRANCH   1   2
BRANCH   1   8
HETATM    8  N2  UNL     1     -40.488 -61.379  58.029  1.00  0.00    -0.143 NA
BRANCH   8   9
HETATM    9  C4  UNL     1     -41.209 -62.634  57.855  1.00  0.00     0.095 C 
HETATM   10  C5  UNL     1     -41.417 -62.957  56.383  1.00  0.00     0.023 C 
HETATM   11  C6  UNL     1     -42.858 -62.644  56.065  1.00  0.00     0.002 C 
HETATM   12  C7  UNL     1     -43.204 -61.658  57.174  1.00  0.00     0.002 C 
HETATM   13  C8  UNL     1     -42.635 -62.438  58.355  1.00  0.00     0.023 C 
ENDBRANCH   8   9
ENDBRANCH   1   8
TORSDOF 5
ENDMDL
MODEL 3
REMARK VINA RESULT: -5.088452104      2.441      4.186
REMARK  5 active torsions:
REMARK  status: ('A' for Active; 'I' for Inactive)
REMARK    1  A    between atoms: C2_2  and  O1_3 
REMARK    2  A    between atoms: C2_2  and  C3_6 
REMARK    3  A    between atoms: C3_6  and  N1_7 
REMARK    4  A    between atoms: N1_7  and  N2_8 
REMARK    5  A    between atoms: N2_8  and  C4_9 
ROOT
HETATM    1  N1  UNL     1     -45.889 -61.475  65.402  1.00  0.00    -0.144 NA
ENDROOT
BRANCH   1   2
HETATM    2  C3  UNL     1     -45.723 -60.160  64.823  1.00  0.00     0.184 C 
BRANCH   2   3
HETATM    3  C2  UNL     1     -44.428 -60.032  64.049  1.00  0.00     0.145 C 
HETATM    4  C1  UNL     1     -44.627 -60.190  62.564  1.00  0.00     0.065 C 
HETATM    5 CL1  UNL     1     -43.200 -61.178  64.595  1.00  0.00    -0.087 Cl
BRANCH   3   6
HETATM    6  O1  UNL     1     -43.938 -58.740  64.292  1.00  0.00    -0.374 OA
ATOM      7  H1  UNL     1     -43.166 -58.813  64.841  1.00  0.00     0.212 HD
ENDBRANCH   3   6
ENDBRANCH   2   3
ENDBRANCH   1   2
BRANCH   1   8
HETATM    8  N2  UNL     1     -47.114 -62.020  64.993  1.00  0.00    -0.143 NA
BRANCH   8   9
HETATM    9  C4  UNL     1     -46.986 -63.413  64.585  1.00  0.00     0.095 C 
HETATM   10  C5  UNL     1     -45.616 -63.696  63.989  1.00  0.00     0.023 C 
HETATM   11  C6  UNL     1     -45.795 -63.777  62.493  1.00  0.00     0.002 C 
HETATM   12  C7  UNL     1     -47.088 -62.992  62.302  1.00  0.00     0.002 C 
HETATM   13  C8  UNL     1     -47.917 -63.650  63.401  1.00  0.00     0.023 C 
ENDBRANCH   8   9
ENDBRANCH   1   8
TORSDOF 5
ENDMDL
MODEL 4
REMARK VINA RESULT: -5.087304169      0.725      1.471
REMARK  5 active torsions:
REMARK  status: ('A' for Active; 'I' for Inactive)
REMARK    1  A    between atoms: C2_2  and  O1_3 
REMARK    2  A    between atoms: C2_2  and  C3_6 
REMARK    3  A    between atoms: C3_6  and  N1_7 
REMARK    4  A    between atoms: N1_7  and  N2_8 
REMARK    5  A    between atoms: N2_8  and  C4_9 
ROOT
HETATM    1  N1  UNL     1     -47.648 -62.115  64.729  1.00  0.00    -0.144 NA
ENDROOT
BRANCH   1   2
HETATM    2  C3  UNL     1     -47.462 -63.521  64.448  1.00  0.00     0.184 C 
BRANCH   2   3
HETATM    3  C2  UNL     1     -47.723 -63.857  62.995  1.00  0.00     0.145 C 
HETATM    4  C1  UNL     1     -48.645 -65.039  62.834  1.00  0.00     0.065 C 
HETATM    5 CL1  UNL     1     -46.233 -64.157  62.095  1.00  0.00    -0.087 Cl
BRANCH   3   6
HETATM    6  O1  UNL     1     -48.342 -62.735  62.425  1.00  0.00    -0.374 OA
ATOM      7  H1  UNL     1     -48.433 -62.071  63.098  1.00  0.00     0.212 HD
ENDBRANCH   3   6
ENDBRANCH   2   3
ENDBRANCH   1   2
BRANCH   1   8
HETATM    8  N2  UNL     1     -46.484 -61.589  65.306  1.00  0.00    -0.143 NA
BRANCH   8   9
HETATM    9  C4  UNL     1     -45.314 -61.791  64.462  1.00  0.00     0.095 C 
HETATM   10  C5  UNL     1     -44.031 -61.423  65.192  1.00  0.00     0.023 C 
HETATM   11  C6  UNL     1     -43.589 -60.084  64.655  1.00  0.00     0.002 C 
HETATM   12  C7  UNL     1     -44.899 -59.533  64.105  1.00  0.00     0.002 C 
HETATM   13  C8  UNL     1     -45.357 -60.767  63.334  1.00  0.00     0.023 C 
ENDBRANCH   8   9
ENDBRANCH   1   8
TORSDOF 5
ENDMDL
MODEL 5
REMARK VINA RESULT: -5.058615917      1.683      2.088
REMARK  5 active torsions:
REMARK  status: ('A' for Active; 'I' for Inactive)
REMARK    1  A    between atoms: C2_2  and  O1_3 
REMARK    2  A    between atoms: C2_2  and  C3_6 
REMARK    3  A    between atoms: C3_6  and  N1_7 
REMARK    4  A    between atoms: N1_7  and  N2_8 
REMARK    5  A    between atoms: N2_8  and  C4_9 
ROOT
HETATM    1  N1  UNL     1     -45.622 -64.199  63.751  1.00  0.00    -0.144 NA
ENDROOT
BRANCH   1   2
HETATM    2  C3  UNL     1     -46.515 -64.132  62.616  1.00  0.00     0.184 C 
BRANCH   2   3
HETATM    3  C2  UNL     1     -47.961 -63.965  63.030  1.00  0.00     0.145 C 
HETATM    4  C1  UNL     1     -48.103 -63.529  64.466  1.00  0.00     0.065 C 
HETATM    5 CL1  UNL     1     -48.910 -65.433  62.773  1.00  0.00    -0.087 Cl
BRANCH   3   6
HETATM    6  O1  UNL     1     -48.504 -62.963  62.211  1.00  0.00    -0.374 OA
ATOM      7  H1  UNL     1     -48.002 -62.167  62.341  1.00  0.00     0.212 HD
ENDBRANCH   3   6
ENDBRANCH   2   3
ENDBRANCH   1   2
BRANCH   1   8
HETATM    8  N2  UNL     1     -44.513 -63.370  63.531  1.00  0.00    -0.143 NA
BRANCH   8   9
HETATM    9  C4  UNL     1     -44.888 -61.966  63.428  1.00  0.00     0.095 C 
HETATM   10  C5  UNL     1     -43.731 -61.115  62.927  1.00  0.00     0.023 C 
HETATM   11  C6  UNL     1     -43.177 -60.381  64.123  1.00  0.00     0.002 C 
HETATM   12  C7  UNL     1     -43.656 -61.265  65.269  1.00  0.00     0.002 C 
HETATM   13  C8  UNL     1     -45.110 -61.427  64.836  1.00  0.00     0.023 C 
ENDBRANCH   8   9
ENDBRANCH   1   8
TORSDOF 5
ENDMDL
