MODEL 1
REMARK VINA RESULT: -5.685887188      0.000      0.000
REMARK  4 active torsions:
REMARK  status: ('A' for Active; 'I' for Inactive)
REMARK    1  A    between atoms: C4_4  and  C5_5 
REMARK    2  A    between atoms: C5_5  and  N1_6 
REMARK    3  A    between atoms: N1_6  and  C6_9 
REMARK    4  A    between atoms: C6_9  and  C7_10 
ROOT
HETATM    1  C1  UNL     1     -44.108 -61.429  65.130  1.00  0.00     0.037 C 
HETATM    2  C2  UNL     1     -45.212 -61.344  64.423  1.00  0.00    -0.001 C 
HETATM    3  C3  UNL     1     -45.753 -59.990  64.042  1.00  0.00     0.090 C 
HETATM    4  C4  UNL     1     -46.940 -60.256  63.164  1.00  0.00     0.219 C 
HETATM    5  N2  UNL     1     -47.858 -61.169  63.851  1.00  0.00    -0.049 N 
ATOM      6  H21 UNL     1     -48.825 -61.083  63.536  1.00  0.00     0.280 HD
ATOM      7  H22 UNL     1     -48.020 -60.920  64.827  1.00  0.00     0.280 HD
HETATM    8  C8  UNL     1     -47.318 -62.496  63.682  1.00  0.00     0.280 C 
HETATM    9  C9  UNL     1     -48.085 -63.534  64.455  1.00  0.00     0.063 C 
HETATM   10  N3  UNL     1     -45.913 -62.506  64.015  1.00  0.00    -0.367 N 
ATOM     11  H3  UNL     1     -45.402 -63.387  63.954  1.00  0.00     0.161 HD
ENDROOT
BRANCH   4  12
HETATM   12  C5  UNL     1     -47.665 -59.035  62.681  1.00  0.00     0.265 C 
BRANCH  12  13
HETATM   13  N1  UNL     1     -48.773 -59.308  61.812  1.00  0.00    -0.072 N 
ATOM     14  H12 UNL     1     -48.502 -59.520  60.851  1.00  0.00     0.277 HD
ATOM     15  H11 UNL     1     -49.237 -60.197  62.001  1.00  0.00     0.277 HD
BRANCH  13  16
HETATM   16  C6  UNL     1     -49.655 -58.137  61.938  1.00  0.00     0.247 C 
BRANCH  16  17
HETATM   17  C7  UNL     1     -50.186 -57.673  60.612  1.00  0.00     0.142 C 
HETATM   18 CL1  UNL     1     -50.417 -55.936  60.498  1.00  0.00    -0.129 Cl
ENDBRANCH  16  17
ENDBRANCH  13  16
ENDBRANCH  12  13
ENDBRANCH   4  12
TORSDOF 4
ENDMDL
MODEL 2
REMARK VINA RESULT: -5.591542544      7.076      8.080
REMARK  4 active torsions:
REMARK  status: ('A' for Active; 'I' for Inactive)
REMARK    1  A    between atoms: C4_4  and  C5_5 
REMARK    2  A    between atoms: C5_5  and  N1_6 
REMARK    3  A    between atoms: N1_6  and  C6_9 
REMARK    4  A    between atoms: C6_9  and  C7_10 
ROOT
HETATM    1  C1  UNL     1     -43.003 -62.959  56.065  1.00  0.00     0.037 C 
HETATM    2  C2  UNL     1     -42.330 -62.521  57.105  1.00  0.00    -0.001 C 
HETATM    3  C3  UNL     1     -43.068 -62.110  58.352  1.00  0.00     0.090 C 
HETATM    4  C4  UNL     1     -42.010 -61.772  59.361  1.00  0.00     0.219 C 
HETATM    5  N2  UNL     1     -41.083 -60.794  58.784  1.00  0.00    -0.049 N 
ATOM      6  H21 UNL     1     -40.609 -60.223  59.484  1.00  0.00     0.280 HD
ATOM      7  H22 UNL     1     -41.553 -60.031  58.296  1.00  0.00     0.280 HD
HETATM    8  C8  UNL     1     -40.177 -61.536  57.943  1.00  0.00     0.280 C 
HETATM    9  C9  UNL     1     -39.245 -60.643  57.170  1.00  0.00     0.063 C 
HETATM   10  N3  UNL     1     -40.917 -62.422  57.075  1.00  0.00    -0.367 N 
ATOM     11  H3  UNL     1     -40.401 -63.001  56.413  1.00  0.00     0.161 HD
ENDROOT
BRANCH   4  12
HETATM   12  C5  UNL     1     -42.521 -61.302  60.691  1.00  0.00     0.265 C 
BRANCH  12  13
HETATM   13  N1  UNL     1     -43.798 -60.653  60.639  1.00  0.00    -0.072 N 
ATOM     14  H12 UNL     1     -43.746 -59.634  60.668  1.00  0.00     0.277 HD
ATOM     15  H11 UNL     1     -44.260 -60.720  59.731  1.00  0.00     0.277 HD
BRANCH  13  16
HETATM   16  C6  UNL     1     -44.572 -61.242  61.744  1.00  0.00     0.247 C 
BRANCH  16  17
HETATM   17  C7  UNL     1     -45.237 -62.530  61.356  1.00  0.00     0.142 C 
HETATM   18 CL1  UNL     1     -44.862 -63.880  62.416  1.00  0.00    -0.129 Cl
ENDBRANCH  16  17
ENDBRANCH  13  16
ENDBRANCH  12  13
ENDBRANCH   4  12
TORSDOF 4
ENDMDL
MODEL 3
REMARK VINA RESULT: -5.528147531      4.608      5.712
REMARK  4 active torsions:
REMARK  status: ('A' for Active; 'I' for Inactive)
REMARK    1  A    between atoms: C4_4  and  C5_5 
REMARK    2  A    between atoms: C5_5  and  N1_6 
REMARK    3  A    between atoms: N1_6  and  C6_9 
REMARK    4  A    between atoms: C6_9  and  C7_10 
ROOT
HETATM    1  C1  UNL     1     -47.760 -63.920  63.434  1.00  0.00     0.037 C 
HETATM    2  C2  UNL     1     -47.149 -63.052  62.659  1.00  0.00    -0.001 C 
HETATM    3  C3  UNL     1     -45.798 -63.386  62.084  1.00  0.00     0.090 C 
HETATM    4  C4  UNL     1     -45.445 -62.243  61.177  1.00  0.00     0.219 C 
HETATM    5  N2  UNL     1     -45.559 -60.983  61.917  1.00  0.00    -0.049 N 
ATOM      6  H21 UNL     1     -44.975 -60.238  61.538  1.00  0.00     0.280 HD
ATOM      7  H22 UNL     1     -45.134 -61.019  62.844  1.00  0.00     0.280 HD
HETATM    8  C8  UNL     1     -46.962 -60.651  61.944  1.00  0.00     0.280 C 
HETATM    9  C9  UNL     1     -47.253 -59.443  62.793  1.00  0.00     0.063 C 
HETATM   10  N3  UNL     1     -47.736 -61.798  62.357  1.00  0.00    -0.367 N 
ATOM     11  H3  UNL     1     -48.749 -61.702  62.435  1.00  0.00     0.161 HD
ENDROOT
BRANCH   4  12
HETATM   12  C5  UNL     1     -44.107 -62.348  60.506  1.00  0.00     0.265 C 
BRANCH  12  13
HETATM   13  N1  UNL     1     -43.653 -61.132  59.896  1.00  0.00    -0.072 N 
ATOM     14  H12 UNL     1     -44.405 -60.552  59.523  1.00  0.00     0.277 HD
ATOM     15  H11 UNL     1     -43.294 -60.446  60.560  1.00  0.00     0.277 HD
BRANCH  13  16
HETATM   16  C6  UNL     1     -42.670 -61.556  58.886  1.00  0.00     0.247 C 
BRANCH  16  17
HETATM   17  C7  UNL     1     -43.195 -61.425  57.485  1.00  0.00     0.142 C 
HETATM   18 CL1  UNL     1     -42.918 -62.838  56.479  1.00  0.00    -0.129 Cl
ENDBRANCH  16  17
ENDBRANCH  13  16
ENDBRANCH  12  13
ENDBRANCH   4  12
TORSDOF 4
ENDMDL
MODEL 4
REMARK VINA RESULT: -5.527237193      1.621      1.702
REMARK  4 active torsions:
REMARK  status: ('A' for Active; 'I' for Inactive)
REMARK    1  A    between atoms: C4_4  and  C5_5 
REMARK    2  A    between atoms: C5_5  and  N1_6 
REMARK    3  A    between atoms: N1_6  and  C6_9 
REMARK    4  A    between atoms: C6_9  and  C7_10 
ROOT
HETATM    1  C1  UNL     1     -44.166 -63.708  63.477  1.00  0.00     0.037 C 
HETATM    2  C2  UNL     1     -45.312 -63.236  63.039  1.00  0.00    -0.001 C 
HETATM    3  C3  UNL     1     -45.606 -61.763  63.152  1.00  0.00     0.090 C 
HETATM    4  C4  UNL     1     -46.927 -61.556  62.470  1.00  0.00     0.219 C 
HETATM    5  N2  UNL     1     -47.915 -62.477  63.037  1.00  0.00    -0.049 N 
ATOM      6  H21 UNL     1     -48.876 -62.146  62.943  1.00  0.00     0.280 HD
ATOM      7  H22 UNL     1     -47.894 -62.516  64.056  1.00  0.00     0.280 HD
HETATM    8  C8  UNL     1     -47.688 -63.756  62.412  1.00  0.00     0.280 C 
HETATM    9  C9  UNL     1     -48.546 -64.845  62.998  1.00  0.00     0.063 C 
HETATM   10  N3  UNL     1     -46.284 -64.091  62.463  1.00  0.00    -0.367 N 
ATOM     11  H3  UNL     1     -45.979 -64.981  62.068  1.00  0.00     0.161 HD
ENDROOT
BRANCH   4  12
HETATM   12  C5  UNL     1     -47.440 -60.147  62.486  1.00  0.00     0.265 C 
BRANCH  12  13
HETATM   13  N1  UNL     1     -48.465 -59.879  61.519  1.00  0.00    -0.072 N 
ATOM     14  H12 UNL     1     -48.158 -59.982  60.552  1.00  0.00     0.277 HD
ATOM     15  H11 UNL     1     -49.198 -60.588  61.486  1.00  0.00     0.277 HD
BRANCH  13  16
HETATM   16  C6  UNL     1     -48.957 -58.531  61.847  1.00  0.00     0.247 C 
BRANCH  16  17
HETATM   17  C7  UNL     1     -50.061 -58.084  60.933  1.00  0.00     0.142 C 
HETATM   18 CL1  UNL     1     -50.442 -56.374  61.047  1.00  0.00    -0.129 Cl
ENDBRANCH  16  17
ENDBRANCH  13  16
ENDBRANCH  12  13
ENDBRANCH   4  12
TORSDOF 4
ENDMDL
MODEL 5
REMARK VINA RESULT: -5.522834868      7.680      9.066
REMARK  4 active torsions:
REMARK  status: ('A' for Active; 'I' for Inactive)
REMARK    1  A    between atoms: C4_4  and  C5_5 
REMARK    2  A    between atoms: C5_5  and  N1_6 
REMARK    3  A    between atoms: N1_6  and  C6_9 
REMARK    4  A    between atoms: C6_9  and  C7_10 
ROOT
HETATM    1  C1  UNL     1     -43.060 -62.957  56.065  1.00  0.00     0.037 C 
HETATM    2  C2  UNL     1     -42.173 -62.604  56.967  1.00  0.00    -0.001 C 
HETATM    3  C3  UNL     1     -42.630 -62.001  58.269  1.00  0.00     0.090 C 
HETATM    4  C4  UNL     1     -41.390 -61.820  59.095  1.00  0.00     0.219 C 
HETATM    5  N2  UNL     1     -40.400 -61.064  58.323  1.00  0.00    -0.049 N 
ATOM      6  H21 UNL     1     -39.732 -60.560  58.907  1.00  0.00     0.280 HD
ATOM      7  H22 UNL     1     -40.792 -60.250  57.849  1.00  0.00     0.280 HD
HETATM    8  C8  UNL     1     -39.777 -62.004  57.425  1.00  0.00     0.280 C 
HETATM    9  C9  UNL     1     -38.825 -61.342  56.466  1.00  0.00     0.063 C 
HETATM   10  N3  UNL     1     -40.785 -62.776  56.736  1.00  0.00    -0.367 N 
ATOM     11  H3  UNL     1     -40.486 -63.473  56.055  1.00  0.00     0.161 HD
ENDROOT
BRANCH   4  12
HETATM   12  C5  UNL     1     -41.604 -61.198  60.442  1.00  0.00     0.265 C 
BRANCH  12  13
HETATM   13  N1  UNL     1     -40.399 -60.789  61.105  1.00  0.00    -0.072 N 
ATOM     14  H12 UNL     1     -39.577 -61.329  60.835  1.00  0.00     0.277 HD
ATOM     15  H11 UNL     1     -40.049 -59.880  60.801  1.00  0.00     0.277 HD
BRANCH  13  16
HETATM   16  C6  UNL     1     -40.712 -60.857  62.542  1.00  0.00     0.247 C 
BRANCH  16  17
HETATM   17  C7  UNL     1     -42.174 -61.074  62.801  1.00  0.00     0.142 C 
HETATM   18 CL1  UNL     1     -42.529 -62.486  63.783  1.00  0.00    -0.129 Cl
ENDBRANCH  16  17
ENDBRANCH  13  16
ENDBRANCH  12  13
ENDBRANCH   4  12
TORSDOF 4
ENDMDL
