MODEL 1
REMARK VINA RESULT: -4.921788249      0.000      0.000
REMARK  5 active torsions:
REMARK  status: ('A' for Active; 'I' for Inactive)
REMARK    1  A    between atoms: C2_2  and  N1_3 
REMARK    2  A    between atoms: C2_2  and  C3_8 
REMARK    3  A    between atoms: C3_8  and  N2_9 
REMARK    4  A    between atoms: C6_12  and  C7_13 
REMARK    5  A    between atoms: C7_13  and  N3_14 
ROOT
HETATM    1  N2  UNL     1     -45.615 -61.696  63.062  1.00  0.00     0.092 N 
HETATM    2  C4  UNL     1     -45.165 -62.554  61.952  1.00  0.00     0.273 C 
HETATM    3  C5  UNL     1     -46.187 -63.648  61.816  1.00  0.00     0.038 C 
HETATM    4  C6  UNL     1     -46.741 -63.719  63.222  1.00  0.00     0.041 C 
HETATM    5  C8  UNL     1     -46.839 -62.217  63.539  1.00  0.00     0.279 C 
ENDROOT
BRANCH   1   6
HETATM    6  C3  UNL     1     -45.594 -60.367  62.589  1.00  0.00     0.327 C 
BRANCH   6   7
HETATM    7  C2  UNL     1     -44.683 -59.397  63.191  1.00  0.00     0.221 C 
HETATM    8  C1  UNL     1     -45.257 -58.193  63.833  1.00  0.00     0.066 C 
HETATM    9 CL1  UNL     1     -43.611 -60.182  64.400  1.00  0.00    -0.087 Cl
BRANCH   7  10
HETATM   10  N1  UNL     1     -43.774 -58.921  62.131  1.00  0.00    -0.055 N 
ATOM     11  H13 UNL     1     -43.548 -57.930  62.210  1.00  0.00     0.276 HD
ATOM     12  H12 UNL     1     -42.822 -59.277  62.228  1.00  0.00     0.276 HD
ATOM     13  H11 UNL     1     -44.207 -59.165  61.242  1.00  0.00     0.276 HD
ENDBRANCH   7  10
ENDBRANCH   6   7
ENDBRANCH   1   6
BRANCH   4  14
HETATM   14  C7  UNL     1     -48.097 -64.361  63.259  1.00  0.00     0.236 C 
BRANCH  14  15
HETATM   15  N3  UNL     1     -48.841 -63.863  62.111  1.00  0.00    -0.079 N 
ATOM     16  H33 UNL     1     -48.252 -63.384  61.430  1.00  0.00     0.274 HD
ATOM     17  H32 UNL     1     -49.174 -64.606  61.496  1.00  0.00     0.274 HD
ATOM     18  H31 UNL     1     -49.595 -63.275  62.470  1.00  0.00     0.274 HD
ENDBRANCH  14  15
ENDBRANCH   4  14
TORSDOF 5
ENDMDL
MODEL 2
REMARK VINA RESULT: -4.911595834      2.589      4.602
REMARK  5 active torsions:
REMARK  status: ('A' for Active; 'I' for Inactive)
REMARK    1  A    between atoms: C2_2  and  N1_3 
REMARK    2  A    between atoms: C2_2  and  C3_8 
REMARK    3  A    between atoms: C3_8  and  N2_9 
REMARK    4  A    between atoms: C6_12  and  C7_13 
REMARK    5  A    between atoms: C7_13  and  N3_14 
ROOT
HETATM    1  N2  UNL     1     -45.298 -62.686  61.995  1.00  0.00     0.092 N 
HETATM    2  C4  UNL     1     -44.317 -63.744  62.298  1.00  0.00     0.273 C 
HETATM    3  C5  UNL     1     -43.053 -63.374  61.575  1.00  0.00     0.038 C 
HETATM    4  C6  UNL     1     -43.592 -62.548  60.428  1.00  0.00     0.041 C 
HETATM    5  C8  UNL     1     -44.659 -61.729  61.175  1.00  0.00     0.279 C 
ENDROOT
BRANCH   1   6
HETATM    6  C3  UNL     1     -45.835 -62.258  63.228  1.00  0.00     0.327 C 
BRANCH   6   7
HETATM    7  C2  UNL     1     -47.236 -62.525  63.541  1.00  0.00     0.221 C 
HETATM    8  C1  UNL     1     -47.590 -63.835  64.132  1.00  0.00     0.066 C 
HETATM    9 CL1  UNL     1     -47.910 -61.256  64.619  1.00  0.00    -0.087 Cl
BRANCH   7  10
HETATM   10  N1  UNL     1     -48.005 -62.403  62.287  1.00  0.00    -0.055 N 
ATOM     11  H13 UNL     1     -48.448 -63.275  62.001  1.00  0.00     0.276 HD
ATOM     12  H12 UNL     1     -48.857 -61.852  62.390  1.00  0.00     0.276 HD
ATOM     13  H11 UNL     1     -47.366 -62.028  61.587  1.00  0.00     0.276 HD
ENDBRANCH   7  10
ENDBRANCH   6   7
ENDBRANCH   1   6
BRANCH   4  14
HETATM   14  C7  UNL     1     -42.543 -61.649  59.842  1.00  0.00     0.236 C 
BRANCH  14  15
HETATM   15  N3  UNL     1     -43.133 -60.998  58.681  1.00  0.00    -0.079 N 
ATOM     16  H33 UNL     1     -44.035 -61.395  58.415  1.00  0.00     0.274 HD
ATOM     17  H32 UNL     1     -43.458 -60.050  58.875  1.00  0.00     0.274 HD
ATOM     18  H31 UNL     1     -42.443 -61.037  57.930  1.00  0.00     0.274 HD
ENDBRANCH  14  15
ENDBRANCH   4  14
TORSDOF 5
ENDMDL
MODEL 3
REMARK VINA RESULT: -4.844494662      2.812      3.161
REMARK  5 active torsions:
REMARK  status: ('A' for Active; 'I' for Inactive)
REMARK    1  A    between atoms: C2_2  and  N1_3 
REMARK    2  A    between atoms: C2_2  and  C3_8 
REMARK    3  A    between atoms: C3_8  and  N2_9 
REMARK    4  A    between atoms: C6_12  and  C7_13 
REMARK    5  A    between atoms: C7_13  and  N3_14 
ROOT
HETATM    1  N2  UNL     1     -44.758 -62.685  61.981  1.00  0.00     0.092 N 
HETATM    2  C4  UNL     1     -44.512 -62.961  63.408  1.00  0.00     0.273 C 
HETATM    3  C5  UNL     1     -45.666 -63.794  63.887  1.00  0.00     0.038 C 
HETATM    4  C6  UNL     1     -46.761 -63.372  62.931  1.00  0.00     0.041 C 
HETATM    5  C8  UNL     1     -45.959 -63.335  61.619  1.00  0.00     0.279 C 
ENDROOT
BRANCH   1   6
HETATM    6  C3  UNL     1     -43.578 -63.026  61.287  1.00  0.00     0.327 C 
BRANCH   6   7
HETATM    7  C2  UNL     1     -42.808 -61.987  60.608  1.00  0.00     0.221 C 
HETATM    8  C1  UNL     1     -41.608 -61.444  61.283  1.00  0.00     0.066 C 
HETATM    9 CL1  UNL     1     -42.300 -62.524  58.972  1.00  0.00    -0.087 Cl
BRANCH   7  10
HETATM   10  N1  UNL     1     -43.713 -60.847  60.368  1.00  0.00    -0.055 N 
ATOM     11  H13 UNL     1     -43.270 -59.942  60.524  1.00  0.00     0.276 HD
ATOM     12  H12 UNL     1     -43.938 -60.712  59.382  1.00  0.00     0.276 HD
ATOM     13  H11 UNL     1     -44.536 -60.997  60.951  1.00  0.00     0.276 HD
ENDBRANCH   7  10
ENDBRANCH   6   7
ENDBRANCH   1   6
BRANCH   4  14
HETATM   14  C7  UNL     1     -47.862 -64.388  62.855  1.00  0.00     0.236 C 
BRANCH  14  15
HETATM   15  N3  UNL     1     -48.907 -63.828  62.008  1.00  0.00    -0.079 N 
ATOM     16  H33 UNL     1     -48.796 -64.073  61.024  1.00  0.00     0.274 HD
ATOM     17  H32 UNL     1     -49.816 -64.267  62.152  1.00  0.00     0.274 HD
ATOM     18  H31 UNL     1     -48.920 -62.821  62.171  1.00  0.00     0.274 HD
ENDBRANCH  14  15
ENDBRANCH   4  14
TORSDOF 5
ENDMDL
MODEL 4
REMARK VINA RESULT: -4.818585922      3.606      4.386
REMARK  5 active torsions:
REMARK  status: ('A' for Active; 'I' for Inactive)
REMARK    1  A    between atoms: C2_2  and  N1_3 
REMARK    2  A    between atoms: C2_2  and  C3_8 
REMARK    3  A    between atoms: C3_8  and  N2_9 
REMARK    4  A    between atoms: C6_12  and  C7_13 
REMARK    5  A    between atoms: C7_13  and  N3_14 
ROOT
HETATM    1  N2  UNL     1     -43.150 -62.469  61.622  1.00  0.00     0.092 N 
HETATM    2  C4  UNL     1     -43.049 -63.834  62.170  1.00  0.00     0.273 C 
HETATM    3  C5  UNL     1     -44.096 -63.942  63.242  1.00  0.00     0.038 C 
HETATM    4  C6  UNL     1     -44.239 -62.498  63.671  1.00  0.00     0.041 C 
HETATM    5  C8  UNL     1     -44.205 -61.813  62.294  1.00  0.00     0.279 C 
ENDROOT
BRANCH   1   6
HETATM    6  C3  UNL     1     -43.227 -62.594  60.219  1.00  0.00     0.327 C 
BRANCH   6   7
HETATM    7  C2  UNL     1     -42.281 -61.871  59.373  1.00  0.00     0.221 C 
HETATM    8  C1  UNL     1     -41.199 -61.099  60.025  1.00  0.00     0.066 C 
HETATM    9 CL1  UNL     1     -41.506 -62.971  58.184  1.00  0.00    -0.087 Cl
BRANCH   7  10
HETATM   10  N1  UNL     1     -43.053 -60.915  58.557  1.00  0.00    -0.055 N 
ATOM     11  H13 UNL     1     -44.009 -60.786  58.885  1.00  0.00     0.276 HD
ATOM     12  H12 UNL     1     -42.746 -59.948  58.672  1.00  0.00     0.276 HD
ATOM     13  H11 UNL     1     -42.999 -61.242  57.593  1.00  0.00     0.276 HD
ENDBRANCH   7  10
ENDBRANCH   6   7
ENDBRANCH   1   6
BRANCH   4  14
HETATM   14  C7  UNL     1     -45.547 -62.244  64.362  1.00  0.00     0.236 C 
BRANCH  14  15
HETATM   15  N3  UNL     1     -45.258 -61.469  65.561  1.00  0.00    -0.079 N 
ATOM     16  H33 UNL     1     -45.398 -60.467  65.432  1.00  0.00     0.274 HD
ATOM     17  H32 UNL     1     -45.948 -61.604  66.300  1.00  0.00     0.274 HD
ATOM     18  H31 UNL     1     -44.309 -61.706  65.852  1.00  0.00     0.274 HD
ENDBRANCH  14  15
ENDBRANCH   4  14
TORSDOF 5
ENDMDL
MODEL 5
REMARK VINA RESULT: -4.802293884      2.615      4.412
REMARK  5 active torsions:
REMARK  status: ('A' for Active; 'I' for Inactive)
REMARK    1  A    between atoms: C2_2  and  N1_3 
REMARK    2  A    between atoms: C2_2  and  C3_8 
REMARK    3  A    between atoms: C3_8  and  N2_9 
REMARK    4  A    between atoms: C6_12  and  C7_13 
REMARK    5  A    between atoms: C7_13  and  N3_14 
ROOT
HETATM    1  N2  UNL     1     -45.246 -62.427  61.840  1.00  0.00     0.092 N 
HETATM    2  C4  UNL     1     -44.319 -63.517  62.194  1.00  0.00     0.273 C 
HETATM    3  C5  UNL     1     -43.054 -63.270  61.421  1.00  0.00     0.038 C 
HETATM    4  C6  UNL     1     -43.574 -62.493  60.231  1.00  0.00     0.041 C 
HETATM    5  C8  UNL     1     -44.575 -61.566  60.943  1.00  0.00     0.279 C 
ENDROOT
BRANCH   1   6
HETATM    6  C3  UNL     1     -45.727 -61.887  63.051  1.00  0.00     0.327 C 
BRANCH   6   7
HETATM    7  C2  UNL     1     -47.141 -61.546  63.183  1.00  0.00     0.221 C 
HETATM    8  C1  UNL     1     -47.742 -61.536  64.536  1.00  0.00     0.066 C 
HETATM    9 CL1  UNL     1     -47.493 -59.952  62.434  1.00  0.00    -0.087 Cl
BRANCH   7  10
HETATM   10  N1  UNL     1     -47.911 -62.518  62.383  1.00  0.00    -0.055 N 
ATOM     11  H13 UNL     1     -48.775 -62.816  62.835  1.00  0.00     0.276 HD
ATOM     12  H12 UNL     1     -48.336 -62.107  61.551  1.00  0.00     0.276 HD
ATOM     13  H11 UNL     1     -47.280 -63.290  62.174  1.00  0.00     0.276 HD
ENDBRANCH   7  10
ENDBRANCH   6   7
ENDBRANCH   1   6
BRANCH   4  14
HETATM   14  C7  UNL     1     -42.491 -61.697  59.564  1.00  0.00     0.236 C 
BRANCH  14  15
HETATM   15  N3  UNL     1     -43.109 -60.965  58.466  1.00  0.00    -0.079 N 
ATOM     16  H33 UNL     1     -42.471 -60.801  57.687  1.00  0.00     0.274 HD
ATOM     17  H32 UNL     1     -43.800 -61.517  57.957  1.00  0.00     0.274 HD
ATOM     18  H31 UNL     1     -43.493 -60.104  58.856  1.00  0.00     0.274 HD
ENDBRANCH  14  15
ENDBRANCH   4  14
TORSDOF 5
ENDMDL
