MODEL 1
REMARK VINA RESULT: -4.791056621      0.000      0.000
REMARK  3 active torsions:
REMARK  status: ('A' for Active; 'I' for Inactive)
REMARK    1  A    between atoms: C2_2  and  C4_5 
REMARK    2  A    between atoms: C4_5  and  N1_6 
REMARK    3  A    between atoms: N1_6  and  C5_9 
ROOT
HETATM    1  N1  UNL     1     -45.570 -64.075  62.520  1.00  0.00    -0.059 N 
ATOM      2  H11 UNL     1     -45.554 -65.035  62.867  1.00  0.00     0.278 HD
ATOM      3  H12 UNL     1     -45.201 -64.260  61.587  1.00  0.00     0.278 HD
ENDROOT
BRANCH   1   4
HETATM    4  C4  UNL     1     -44.722 -63.189  63.290  1.00  0.00     0.258 C 
BRANCH   4   5
HETATM    5  C2  UNL     1     -43.314 -63.344  62.756  1.00  0.00     0.053 C 
HETATM    6  C1  UNL     1     -43.245 -62.858  61.309  1.00  0.00     0.034 C 
HETATM    7  C3  UNL     1     -42.928 -64.811  62.814  1.00  0.00     0.034 C 
HETATM    8 CL1  UNL     1     -42.237 -62.349  63.731  1.00  0.00    -0.118 Cl
ENDBRANCH   4   5
ENDBRANCH   1   4
BRANCH   1   9
HETATM    9  C5  UNL     1     -46.922 -63.507  62.492  1.00  0.00     0.274 C 
HETATM   10  C6  UNL     1     -47.643 -64.121  63.666  1.00  0.00     0.277 C 
HETATM   11  N2  UNL     1     -48.459 -63.162  64.286  1.00  0.00    -0.064 N 
HETATM   12  C7  UNL     1     -47.810 -61.930  64.525  1.00  0.00     0.308 C 
ATOM     13  H22 UNL     1     -49.316 -63.020  63.751  1.00  0.00     0.278 HD
ATOM     14  H21 UNL     1     -48.856 -63.533  65.149  1.00  0.00     0.278 HD
HETATM   15  S1  UNL     1     -46.776 -61.783  63.036  1.00  0.00    -0.107 SA
ENDBRANCH   1   9
TORSDOF 3
ENDMDL
MODEL 2
REMARK VINA RESULT: -4.785263506      1.433      1.795
REMARK  3 active torsions:
REMARK  status: ('A' for Active; 'I' for Inactive)
REMARK    1  A    between atoms: C2_2  and  C4_5 
REMARK    2  A    between atoms: C4_5  and  N1_6 
REMARK    3  A    between atoms: N1_6  and  C5_9 
ROOT
HETATM    1  N1  UNL     1     -45.227 -62.408  63.962  1.00  0.00    -0.059 N 
ATOM      2  H11 UNL     1     -44.900 -61.705  63.299  1.00  0.00     0.278 HD
ATOM      3  H12 UNL     1     -44.799 -62.016  64.801  1.00  0.00     0.278 HD
ENDROOT
BRANCH   1   4
HETATM    4  C4  UNL     1     -44.737 -63.737  63.655  1.00  0.00     0.258 C 
BRANCH   4   5
HETATM    5  C2  UNL     1     -43.478 -63.568  62.831  1.00  0.00     0.053 C 
HETATM    6  C1  UNL     1     -43.821 -62.985  61.461  1.00  0.00     0.034 C 
HETATM    7  C3  UNL     1     -42.825 -64.927  62.652  1.00  0.00     0.034 C 
HETATM    8 CL1  UNL     1     -42.416 -62.440  63.667  1.00  0.00    -0.118 Cl
ENDBRANCH   4   5
ENDBRANCH   1   4
BRANCH   1   9
HETATM    9  C5  UNL     1     -46.690 -62.467  64.049  1.00  0.00     0.274 C 
HETATM   10  C6  UNL     1     -47.192 -62.059  62.685  1.00  0.00     0.277 C 
HETATM   11  N2  UNL     1     -48.296 -62.846  62.323  1.00  0.00    -0.064 N 
HETATM   12  C7  UNL     1     -48.102 -64.230  62.530  1.00  0.00     0.308 C 
ATOM     13  H22 UNL     1     -49.138 -62.525  62.801  1.00  0.00     0.278 HD
ATOM     14  H21 UNL     1     -48.567 -62.662  61.357  1.00  0.00     0.278 HD
HETATM   15  S1  UNL     1     -47.141 -64.224  64.074  1.00  0.00    -0.107 SA
ENDBRANCH   1   9
TORSDOF 3
ENDMDL
MODEL 3
REMARK VINA RESULT: -4.762842375      0.993      1.365
REMARK  3 active torsions:
REMARK  status: ('A' for Active; 'I' for Inactive)
REMARK    1  A    between atoms: C2_2  and  C4_5 
REMARK    2  A    between atoms: C4_5  and  N1_6 
REMARK    3  A    between atoms: N1_6  and  C5_9 
ROOT
HETATM    1  N1  UNL     1     -45.695 -64.039  62.344  1.00  0.00    -0.059 N 
ATOM      2  H11 UNL     1     -45.676 -65.048  62.500  1.00  0.00     0.278 HD
ATOM      3  H12 UNL     1     -45.327 -64.039  61.393  1.00  0.00     0.278 HD
ENDROOT
BRANCH   1   4
HETATM    4  C4  UNL     1     -44.849 -63.315  63.270  1.00  0.00     0.258 C 
BRANCH   4   5
HETATM    5  C2  UNL     1     -43.443 -63.353  62.712  1.00  0.00     0.053 C 
HETATM    6  C1  UNL     1     -42.526 -62.450  63.536  1.00  0.00     0.034 C 
HETATM    7  C3  UNL     1     -43.473 -62.863  61.275  1.00  0.00     0.034 C 
HETATM    8 CL1  UNL     1     -42.846 -65.005  62.824  1.00  0.00    -0.118 Cl
ENDBRANCH   4   5
ENDBRANCH   1   4
BRANCH   1   9
HETATM    9  C5  UNL     1     -47.049 -63.480  62.426  1.00  0.00     0.274 C 
HETATM   10  C6  UNL     1     -47.666 -64.094  63.658  1.00  0.00     0.277 C 
HETATM   11  N2  UNL     1     -48.434 -63.139  64.340  1.00  0.00    -0.064 N 
HETATM   12  C7  UNL     1     -47.777 -61.901  64.520  1.00  0.00     0.308 C 
ATOM     13  H22 UNL     1     -49.334 -63.004  63.877  1.00  0.00     0.278 HD
ATOM     14  H21 UNL     1     -48.756 -63.508  65.235  1.00  0.00     0.278 HD
HETATM   15  S1  UNL     1     -46.870 -61.753  62.950  1.00  0.00    -0.107 SA
ENDBRANCH   1   9
TORSDOF 3
ENDMDL
MODEL 4
REMARK VINA RESULT: -4.754959225      1.036      1.397
REMARK  3 active torsions:
REMARK  status: ('A' for Active; 'I' for Inactive)
REMARK    1  A    between atoms: C2_2  and  C4_5 
REMARK    2  A    between atoms: C4_5  and  N1_6 
REMARK    3  A    between atoms: N1_6  and  C5_9 
ROOT
HETATM    1  N1  UNL     1     -45.717 -64.095  62.402  1.00  0.00    -0.059 N 
ATOM      2  H11 UNL     1     -45.731 -65.094  62.610  1.00  0.00     0.278 HD
ATOM      3  H12 UNL     1     -45.353 -64.157  61.451  1.00  0.00     0.278 HD
ENDROOT
BRANCH   1   4
HETATM    4  C4  UNL     1     -44.844 -63.351  63.287  1.00  0.00     0.258 C 
BRANCH   4   5
HETATM    5  C2  UNL     1     -43.454 -63.403  62.688  1.00  0.00     0.053 C 
HETATM    6  C1  UNL     1     -42.925 -64.835  62.712  1.00  0.00     0.034 C 
HETATM    7  C3  UNL     1     -42.536 -62.512  63.506  1.00  0.00     0.034 C 
HETATM    8 CL1  UNL     1     -43.553 -62.872  61.012  1.00  0.00    -0.118 Cl
ENDBRANCH   4   5
ENDBRANCH   1   4
BRANCH   1   9
HETATM    9  C5  UNL     1     -47.051 -63.487  62.458  1.00  0.00     0.274 C 
HETATM   10  C6  UNL     1     -47.702 -64.054  63.696  1.00  0.00     0.277 C 
HETATM   11  N2  UNL     1     -48.443 -63.058  64.350  1.00  0.00    -0.064 N 
HETATM   12  C7  UNL     1     -47.744 -61.841  64.511  1.00  0.00     0.308 C 
ATOM     13  H22 UNL     1     -49.332 -62.902  63.874  1.00  0.00     0.278 HD
ATOM     14  H21 UNL     1     -48.786 -63.398  65.248  1.00  0.00     0.278 HD
HETATM   15  S1  UNL     1     -46.817 -61.757  62.949  1.00  0.00    -0.107 SA
ENDBRANCH   1   9
TORSDOF 3
ENDMDL
MODEL 5
REMARK VINA RESULT: -4.726530393      6.821      8.351
REMARK  3 active torsions:
REMARK  status: ('A' for Active; 'I' for Inactive)
REMARK    1  A    between atoms: C2_2  and  C4_5 
REMARK    2  A    between atoms: C4_5  and  N1_6 
REMARK    3  A    between atoms: N1_6  and  C5_9 
ROOT
HETATM    1  N1  UNL     1     -38.806 -59.675  62.429  1.00  0.00    -0.059 N 
ATOM      2  H11 UNL     1     -38.952 -59.560  63.432  1.00  0.00     0.278 HD
ATOM      3  H12 UNL     1     -38.594 -60.673  62.434  1.00  0.00     0.278 HD
ENDROOT
BRANCH   1   4
HETATM    4  C4  UNL     1     -37.708 -58.873  61.928  1.00  0.00     0.258 C 
BRANCH   4   5
HETATM    5  C2  UNL     1     -36.609 -58.925  62.967  1.00  0.00     0.053 C 
HETATM    6  C1  UNL     1     -36.115 -57.514  63.280  1.00  0.00     0.034 C 
HETATM    7  C3  UNL     1     -35.458 -59.751  62.421  1.00  0.00     0.034 C 
HETATM    8 CL1  UNL     1     -37.270 -59.625  64.441  1.00  0.00    -0.118 Cl
ENDBRANCH   4   5
ENDBRANCH   1   4
BRANCH   1   9
HETATM    9  C5  UNL     1     -40.003 -59.356  61.643  1.00  0.00     0.274 C 
HETATM   10  C6  UNL     1     -39.540 -59.297  60.208  1.00  0.00     0.277 C 
HETATM   11  N2  UNL     1     -40.503 -59.874  59.366  1.00  0.00    -0.064 N 
HETATM   12  C7  UNL     1     -40.981 -61.124  59.819  1.00  0.00     0.308 C 
ATOM     13  H22 UNL     1     -41.278 -59.228  59.211  1.00  0.00     0.278 HD
ATOM     14  H21 UNL     1     -40.149 -59.948  58.412  1.00  0.00     0.278 HD
HETATM   15  S1  UNL     1     -41.026 -60.853  61.617  1.00  0.00    -0.107 SA
ENDBRANCH   1   9
TORSDOF 3
ENDMDL
