MODEL 1
REMARK VINA RESULT: -6.209791672      0.000      0.000
REMARK  1 active torsions:
REMARK  status: ('A' for Active; 'I' for Inactive)
REMARK    1  A    between atoms: C1_2  and  C2_5 
ROOT
HETATM    1  C2  UNL     1      13.306  51.887  16.847  1.00  0.00     0.295 C 
HETATM    2  N1  UNL     1      13.976  51.920  15.564  1.00  0.00    -0.108 NA
HETATM    3  N2  UNL     1      15.291  51.560  15.861  1.00  0.00    -0.034 NA
HETATM    4  N3  UNL     1      15.554  51.877  17.173  1.00  0.00    -0.053 NA
HETATM    5  C3  UNL     1      14.365  52.523  17.718  1.00  0.00     0.359 C 
HETATM    6  F4  UNL     1      14.180  52.243  19.048  1.00  0.00    -0.183 F 
HETATM    7  F5  UNL     1      14.453  53.854  17.440  1.00  0.00    -0.183 F 
ENDROOT
BRANCH   1   8
HETATM    8  C1  UNL     1      12.018  52.672  16.863  1.00  0.00     0.413 C 
HETATM    9  F1  UNL     1      11.455  52.745  15.606  1.00  0.00    -0.169 F 
HETATM   10  F2  UNL     1      11.141  51.951  17.676  1.00  0.00    -0.169 F 
HETATM   11  F3  UNL     1      12.182  53.953  17.305  1.00  0.00    -0.169 F 
ENDBRANCH   1   8
TORSDOF 1
ENDMDL
MODEL 2
REMARK VINA RESULT: -6.154428495      0.075      1.180
REMARK  1 active torsions:
REMARK  status: ('A' for Active; 'I' for Inactive)
REMARK    1  A    between atoms: C1_2  and  C2_5 
ROOT
HETATM    1  C2  UNL     1      13.316  51.834  16.872  1.00  0.00     0.295 C 
HETATM    2  N1  UNL     1      13.963  51.891  15.578  1.00  0.00    -0.108 NA
HETATM    3  N2  UNL     1      15.293  51.565  15.852  1.00  0.00    -0.034 NA
HETATM    4  N3  UNL     1      15.569  51.883  17.162  1.00  0.00    -0.053 NA
HETATM    5  C3  UNL     1      14.371  52.494  17.729  1.00  0.00     0.359 C 
HETATM    6  F4  UNL     1      14.217  52.203  19.060  1.00  0.00    -0.183 F 
HETATM    7  F5  UNL     1      14.419  53.828  17.456  1.00  0.00    -0.183 F 
ENDROOT
BRANCH   1   8
HETATM    8  C1  UNL     1      12.008  52.583  16.914  1.00  0.00     0.413 C 
HETATM    9  F1  UNL     1      12.176  53.868  17.386  1.00  0.00    -0.169 F 
HETATM   10  F2  UNL     1      11.576  52.675  15.590  1.00  0.00    -0.169 F 
HETATM   11  F3  UNL     1      11.077  51.982  17.711  1.00  0.00    -0.169 F 
ENDBRANCH   1   8
TORSDOF 1
ENDMDL
MODEL 3
REMARK VINA RESULT: -6.096746475      1.994      2.337
REMARK  1 active torsions:
REMARK  status: ('A' for Active; 'I' for Inactive)
REMARK    1  A    between atoms: C1_2  and  C2_5 
ROOT
HETATM    1  C2  UNL     1      12.848  52.808  17.351  1.00  0.00     0.295 C 
HETATM    2  N1  UNL     1      13.048  51.669  18.222  1.00  0.00    -0.108 NA
HETATM    3  N2  UNL     1      13.876  52.159  19.233  1.00  0.00    -0.034 NA
HETATM    4  N3  UNL     1      14.594  53.225  18.744  1.00  0.00    -0.053 NA
HETATM    5  C3  UNL     1      14.247  53.382  17.335  1.00  0.00     0.359 C 
HETATM    6  F4  UNL     1      14.265  54.694  16.935  1.00  0.00    -0.183 F 
HETATM    7  F5  UNL     1      15.070  52.571  16.613  1.00  0.00    -0.183 F 
ENDROOT
BRANCH   1   8
HETATM    8  C1  UNL     1      12.382  52.424  15.969  1.00  0.00     0.413 C 
HETATM    9  F1  UNL     1      12.037  51.090  15.905  1.00  0.00    -0.169 F 
HETATM   10  F2  UNL     1      11.226  53.169  15.734  1.00  0.00    -0.169 F 
HETATM   11  F3  UNL     1      13.329  52.641  15.010  1.00  0.00    -0.169 F 
ENDBRANCH   1   8
TORSDOF 1
ENDMDL
MODEL 4
REMARK VINA RESULT: -6.024132683      1.639      1.754
REMARK  1 active torsions:
REMARK  status: ('A' for Active; 'I' for Inactive)
REMARK    1  A    between atoms: C1_2  and  C2_5 
ROOT
HETATM    1  C2  UNL     1      12.992  52.561  17.699  1.00  0.00     0.295 C 
HETATM    2  N1  UNL     1      13.736  51.321  17.767  1.00  0.00    -0.108 NA
HETATM    3  N2  UNL     1      15.053  51.729  17.982  1.00  0.00    -0.034 NA
HETATM    4  N3  UNL     1      15.211  53.004  17.490  1.00  0.00    -0.053 NA
HETATM    5  C3  UNL     1      13.945  53.401  16.881  1.00  0.00     0.359 C 
HETATM    6  F4  UNL     1      13.700  54.744  17.014  1.00  0.00    -0.183 F 
HETATM    7  F5  UNL     1      13.953  52.965  15.590  1.00  0.00    -0.183 F 
ENDROOT
BRANCH   1   8
HETATM    8  C1  UNL     1      11.652  52.413  17.024  1.00  0.00     0.413 C 
HETATM    9  F1  UNL     1      11.667  51.402  16.086  1.00  0.00    -0.169 F 
HETATM   10  F2  UNL     1      10.756  52.042  18.028  1.00  0.00    -0.169 F 
HETATM   11  F3  UNL     1      11.252  53.550  16.382  1.00  0.00    -0.169 F 
ENDBRANCH   1   8
TORSDOF 1
ENDMDL
MODEL 5
REMARK VINA RESULT: -5.960210367      1.998      2.257
REMARK  1 active torsions:
REMARK  status: ('A' for Active; 'I' for Inactive)
REMARK    1  A    between atoms: C1_2  and  C2_5 
ROOT
HETATM    1  C2  UNL     1      12.882  52.801  17.447  1.00  0.00     0.295 C 
HETATM    2  N1  UNL     1      13.132  51.649  18.288  1.00  0.00    -0.108 NA
HETATM    3  N2  UNL     1      13.957  52.143  19.300  1.00  0.00    -0.034 NA
HETATM    4  N3  UNL     1      14.632  53.244  18.827  1.00  0.00    -0.053 NA
HETATM    5  C3  UNL     1      14.260  53.422  17.427  1.00  0.00     0.359 C 
HETATM    6  F4  UNL     1      14.229  54.743  17.058  1.00  0.00    -0.183 F 
HETATM    7  F5  UNL     1      15.100  52.657  16.675  1.00  0.00    -0.183 F 
ENDROOT
BRANCH   1   8
HETATM    8  C1  UNL     1      12.411  52.434  16.063  1.00  0.00     0.413 C 
HETATM    9  F1  UNL     1      13.365  52.725  15.110  1.00  0.00    -0.169 F 
HETATM   10  F2  UNL     1      12.235  51.049  16.072  1.00  0.00    -0.169 F 
HETATM   11  F3  UNL     1      11.269  53.088  15.699  1.00  0.00    -0.169 F 
ENDBRANCH   1   8
TORSDOF 1
ENDMDL
