MODEL 1
REMARK VINA RESULT: -5.476738050      0.000      0.000
REMARK  2 active torsions:
REMARK  status: ('A' for Active; 'I' for Inactive)
REMARK    1  A    between atoms: N1_1  and  C1_5 
REMARK    2  A    between atoms: C1_5  and  C2_6 
ROOT
HETATM    1  C1  UNL     1      13.485  52.347  17.289  1.00  0.00     0.504 C 
HETATM    2  N2  UNL     1      12.956  53.603  16.867  1.00  0.00     0.087 N 
ATOM      3  H21 UNL     1      13.392  54.120  16.103  1.00  0.00     0.294 HD
ATOM      4  H22 UNL     1      13.044  54.428  17.459  1.00  0.00     0.294 HD
HETATM    5  C3  UNL     1      11.675  52.960  16.685  1.00  0.00     0.542 C 
HETATM    6  F4  UNL     1      11.327  52.757  15.361  1.00  0.00    -0.149 F 
HETATM    7  F5  UNL     1      10.632  53.568  17.383  1.00  0.00    -0.149 F 
HETATM    8  O1  UNL     1      12.201  51.838  17.320  1.00  0.00    -0.233 OA
ENDROOT
BRANCH   1   9
HETATM    9  N1  UNL     1      14.310  51.765  16.240  1.00  0.00    -0.012 N 
ATOM     10  H13 UNL     1      15.208  51.448  16.606  1.00  0.00     0.280 HD
ATOM     11  H12 UNL     1      13.939  50.868  15.929  1.00  0.00     0.280 HD
ATOM     12  H11 UNL     1      14.433  52.408  15.456  1.00  0.00     0.280 HD
ENDBRANCH   1   9
BRANCH   1  13
HETATM   13  C2  UNL     1      14.175  52.309  18.622  1.00  0.00     0.476 C 
HETATM   14  F1  UNL     1      13.463  51.695  19.597  1.00  0.00    -0.164 F 
HETATM   15  F2  UNL     1      14.453  53.599  19.032  1.00  0.00    -0.164 F 
HETATM   16  F3  UNL     1      15.401  51.668  18.491  1.00  0.00    -0.164 F 
ENDBRANCH   1  13
TORSDOF 2
ENDMDL
MODEL 2
REMARK VINA RESULT: -5.472250694      1.984      3.373
REMARK  2 active torsions:
REMARK  status: ('A' for Active; 'I' for Inactive)
REMARK    1  A    between atoms: N1_1  and  C1_5 
REMARK    2  A    between atoms: C1_5  and  C2_6 
ROOT
HETATM    1  C1  UNL     1      13.392  51.829  17.035  1.00  0.00     0.504 C 
HETATM    2  N2  UNL     1      12.816  52.641  18.057  1.00  0.00     0.087 N 
ATOM      3  H21 UNL     1      11.803  52.730  18.140  1.00  0.00     0.294 HD
ATOM      4  H22 UNL     1      12.889  53.657  18.015  1.00  0.00     0.294 HD
HETATM    5  C3  UNL     1      13.572  51.888  19.031  1.00  0.00     0.542 C 
HETATM    6  F4  UNL     1      12.811  51.006  19.779  1.00  0.00    -0.149 F 
HETATM    7  F5  UNL     1      14.373  52.675  19.857  1.00  0.00    -0.149 F 
HETATM    8  O1  UNL     1      14.258  51.299  17.972  1.00  0.00    -0.233 OA
ENDROOT
BRANCH   1   9
HETATM    9  N1  UNL     1      12.418  50.866  16.542  1.00  0.00    -0.012 N 
ATOM     10  H13 UNL     1      11.733  51.311  15.931  1.00  0.00     0.280 HD
ATOM     11  H12 UNL     1      12.838  50.224  15.870  1.00  0.00     0.280 HD
ATOM     12  H11 UNL     1      11.965  50.363  17.305  1.00  0.00     0.280 HD
ENDBRANCH   1   9
BRANCH   1  13
HETATM   13  C2  UNL     1      14.090  52.538  15.911  1.00  0.00     0.476 C 
HETATM   14  F1  UNL     1      13.417  52.511  14.735  1.00  0.00    -0.164 F 
HETATM   15  F2  UNL     1      15.335  51.973  15.714  1.00  0.00    -0.164 F 
HETATM   16  F3  UNL     1      14.315  53.863  16.267  1.00  0.00    -0.164 F 
ENDBRANCH   1  13
TORSDOF 2
ENDMDL
MODEL 3
REMARK VINA RESULT: -5.457460959      0.065      1.163
REMARK  2 active torsions:
REMARK  status: ('A' for Active; 'I' for Inactive)
REMARK    1  A    between atoms: N1_1  and  C1_5 
REMARK    2  A    between atoms: C1_5  and  C2_6 
ROOT
HETATM    1  C1  UNL     1      13.526  52.367  17.325  1.00  0.00     0.504 C 
HETATM    2  N2  UNL     1      12.979  53.607  16.881  1.00  0.00     0.087 N 
ATOM      3  H21 UNL     1      13.406  54.117  16.107  1.00  0.00     0.294 HD
ATOM      4  H22 UNL     1      13.055  54.445  17.457  1.00  0.00     0.294 HD
HETATM    5  C3  UNL     1      11.707  52.943  16.712  1.00  0.00     0.542 C 
HETATM    6  F4  UNL     1      11.361  52.710  15.392  1.00  0.00    -0.149 F 
HETATM    7  F5  UNL     1      10.656  53.548  17.399  1.00  0.00    -0.149 F 
HETATM    8  O1  UNL     1      12.250  51.841  17.367  1.00  0.00    -0.233 OA
ENDROOT
BRANCH   1   9
HETATM    9  N1  UNL     1      14.359  51.778  16.286  1.00  0.00    -0.012 N 
ATOM     10  H13 UNL     1      15.181  52.352  16.099  1.00  0.00     0.280 HD
ATOM     11  H12 UNL     1      14.826  50.935  16.617  1.00  0.00     0.280 HD
ATOM     12  H11 UNL     1      13.828  51.600  15.433  1.00  0.00     0.280 HD
ENDBRANCH   1   9
BRANCH   1  13
HETATM   13  C2  UNL     1      14.217  52.364  18.658  1.00  0.00     0.476 C 
HETATM   14  F1  UNL     1      14.495  53.599  19.142  1.00  0.00    -0.164 F 
HETATM   15  F2  UNL     1      15.401  51.658  18.560  1.00  0.00    -0.164 F 
HETATM   16  F3  UNL     1      13.434  51.687  19.585  1.00  0.00    -0.164 F 
ENDBRANCH   1  13
TORSDOF 2
ENDMDL
MODEL 4
REMARK VINA RESULT: -5.417396204      1.972      3.334
REMARK  2 active torsions:
REMARK  status: ('A' for Active; 'I' for Inactive)
REMARK    1  A    between atoms: N1_1  and  C1_5 
REMARK    2  A    between atoms: C1_5  and  C2_6 
ROOT
HETATM    1  C1  UNL     1      13.419  51.823  17.016  1.00  0.00     0.504 C 
HETATM    2  N2  UNL     1      12.800  52.590  18.047  1.00  0.00     0.087 N 
ATOM      3  H21 UNL     1      11.784  52.622  18.133  1.00  0.00     0.294 HD
ATOM      4  H22 UNL     1      12.817  53.609  18.017  1.00  0.00     0.294 HD
HETATM    5  C3  UNL     1      13.598  51.869  19.011  1.00  0.00     0.542 C 
HETATM    6  F4  UNL     1      12.889  50.938  19.751  1.00  0.00    -0.149 F 
HETATM    7  F5  UNL     1      14.357  52.689  19.846  1.00  0.00    -0.149 F 
HETATM    8  O1  UNL     1      14.314  51.331  17.945  1.00  0.00    -0.233 OA
ENDROOT
BRANCH   1   9
HETATM    9  N1  UNL     1      12.499  50.814  16.512  1.00  0.00    -0.012 N 
ATOM     10  H13 UNL     1      11.719  51.239  16.010  1.00  0.00     0.280 HD
ATOM     11  H12 UNL     1      12.912  50.283  15.745  1.00  0.00     0.280 HD
ATOM     12  H11 UNL     1      12.170  50.197  17.256  1.00  0.00     0.280 HD
ENDBRANCH   1   9
BRANCH   1  13
HETATM   13  C2  UNL     1      14.074  52.583  15.899  1.00  0.00     0.476 C 
HETATM   14  F1  UNL     1      14.317  53.886  16.182  1.00  0.00    -0.164 F 
HETATM   15  F2  UNL     1      13.276  52.523  14.773  1.00  0.00    -0.164 F 
HETATM   16  F3  UNL     1      15.274  51.967  15.561  1.00  0.00    -0.164 F 
ENDBRANCH   1  13
TORSDOF 2
ENDMDL
MODEL 5
REMARK VINA RESULT: -5.398683203      1.346      3.610
REMARK  2 active torsions:
REMARK  status: ('A' for Active; 'I' for Inactive)
REMARK    1  A    between atoms: N1_1  and  C1_5 
REMARK    2  A    between atoms: C1_5  and  C2_6 
ROOT
HETATM    1  C1  UNL     1      13.440  52.732  17.094  1.00  0.00     0.504 C 
HETATM    2  N2  UNL     1      14.369  51.775  17.602  1.00  0.00     0.087 N 
ATOM      3  H21 UNL     1      15.373  51.938  17.532  1.00  0.00     0.294 HD
ATOM      4  H22 UNL     1      14.495  50.876  17.138  1.00  0.00     0.294 HD
HETATM    5  C3  UNL     1      13.697  51.857  18.879  1.00  0.00     0.542 C 
HETATM    6  F4  UNL     1      14.403  52.548  19.848  1.00  0.00    -0.149 F 
HETATM    7  F5  UNL     1      13.261  50.627  19.369  1.00  0.00    -0.149 F 
HETATM    8  O1  UNL     1      12.700  52.601  18.253  1.00  0.00    -0.233 OA
ENDROOT
BRANCH   1   9
HETATM    9  N1  UNL     1      14.076  54.035  16.960  1.00  0.00    -0.012 N 
ATOM     10  H13 UNL     1      14.308  54.431  17.871  1.00  0.00     0.280 HD
ATOM     11  H12 UNL     1      15.017  53.952  16.577  1.00  0.00     0.280 HD
ATOM     12  H11 UNL     1      13.505  54.678  16.409  1.00  0.00     0.280 HD
ENDBRANCH   1   9
BRANCH   1  13
HETATM   13  C2  UNL     1      12.681  52.355  15.855  1.00  0.00     0.476 C 
HETATM   14  F1  UNL     1      13.395  52.473  14.709  1.00  0.00    -0.164 F 
HETATM   15  F2  UNL     1      11.553  53.146  15.749  1.00  0.00    -0.164 F 
HETATM   16  F3  UNL     1      12.230  51.045  15.968  1.00  0.00    -0.164 F 
ENDBRANCH   1  13
TORSDOF 2
ENDMDL
