MODEL 1
REMARK VINA RESULT: -8.003184008      0.000      0.000
REMARK  9 active torsions:
REMARK  status: ('A' for Active; 'I' for Inactive)
REMARK    1  A    between atoms: C2_2  and  O1_3 
REMARK    2  A    between atoms: C2_2  and  N1_5 
REMARK    3  A    between atoms: N1_5  and  C3_7 
REMARK    4  A    between atoms: C4_8  and  C5_9 
REMARK    5  A    between atoms: C5_9  and  C6_11 
REMARK    6  A    between atoms: C6_11  and  N2_12 
REMARK    7  A    between atoms: N4_16  and  N5_17 
REMARK    8  A    between atoms: C9_24  and  N7_25 
REMARK    9  A    between atoms: C10_30  and  N9_31 
ROOT
HETATM    1  C3  UNL     1     -32.942 -15.045  21.293  1.00  0.00     0.106 A 
HETATM    2  C4  UNL     1     -32.328 -16.247  20.989  1.00  0.00     0.127 A 
HETATM    3  N6  UNL     1     -33.098 -17.366  21.045  1.00  0.00    -0.186 N 
ATOM      4  H6  UNL     1     -32.682 -18.272  20.831  1.00  0.00     0.184 HD
HETATM    5  C9  UNL     1     -34.402 -17.299  21.379  1.00  0.00     0.678 A 
HETATM    6  N8  UNL     1     -34.991 -16.134  21.667  1.00  0.00    -0.175 N 
ATOM      7  H8  UNL     1     -35.979 -16.113  21.915  1.00  0.00     0.186 HD
HETATM    8  C10 UNL     1     -34.288 -14.990  21.633  1.00  0.00     0.143 A 
ENDROOT
BRANCH   2   9
HETATM    9  C5  UNL     1     -30.967 -16.372  20.561  1.00  0.00     0.198 C 
HETATM   10  O2  UNL     1     -30.041 -16.096  21.337  1.00  0.00    -0.289 OA
BRANCH   9  11
HETATM   11  C6  UNL     1     -30.651 -16.828  19.204  1.00  0.00     0.239 C 
BRANCH  11  12
HETATM   12  N2  UNL     1     -29.314 -17.348  19.064  1.00  0.00    -0.233 N 
HETATM   13  N3  UNL     1     -28.412 -16.746  18.280  1.00  0.00    -0.288 N 
HETATM   14  C7  UNL     1     -27.258 -17.438  18.334  1.00  0.00     0.228 A 
ATOM     15  H3  UNL     1     -28.572 -15.901  17.730  1.00  0.00     0.188 HD
HETATM   16  N4  UNL     1     -27.465 -18.474  19.164  1.00  0.00    -0.205 N 
HETATM   17  C8  UNL     1     -28.733 -18.426  19.620  1.00  0.00     0.363 A 
HETATM   18  O3  UNL     1     -29.323 -19.194  20.404  1.00  0.00    -0.243 OA
BRANCH  16  19
HETATM   19  N5  UNL     1     -26.563 -19.473  19.539  1.00  0.00    -0.334 N 
ATOM     20  H52 UNL     1     -25.552 -19.370  19.444  1.00  0.00     0.177 HD
ATOM     21  H51 UNL     1     -26.767 -20.390  19.936  1.00  0.00     0.177 HD
ENDBRANCH  16  19
ENDBRANCH  11  12
ENDBRANCH   9  11
ENDBRANCH   2   9
BRANCH   1  22
HETATM   22  N1  UNL     1     -32.133 -13.888  21.275  1.00  0.00    -0.359 N 
ATOM     23  H1  UNL     1     -31.401 -13.787  21.978  1.00  0.00     0.162 HD
BRANCH  22  24
HETATM   24  C2  UNL     1     -32.308 -12.858  20.308  1.00  0.00     0.213 C 
HETATM   25  C1  UNL     1     -32.477 -11.463  20.820  1.00  0.00     0.063 C 
BRANCH  24  26
HETATM   26  O1  UNL     1     -33.450 -13.113  19.507  1.00  0.00    -0.377 OA
ATOM     27  H1  UNL     1     -33.142 -13.091  18.608  1.00  0.00     0.212 HD
ENDBRANCH  24  26
ENDBRANCH  22  24
ENDBRANCH   1  22
BRANCH   8  28
HETATM   28  N9  UNL     1     -34.860 -13.867  21.883  1.00  0.00    -0.383 N 
ATOM     29  H92 UNL     1     -34.308 -13.060  22.174  1.00  0.00     0.157 HD
ATOM     30  H91 UNL     1     -35.872 -13.769  21.817  1.00  0.00     0.157 HD
ENDBRANCH   8  28
BRANCH   5  31
HETATM   31  N7  UNL     1     -35.071 -18.414  21.410  1.00  0.00    -0.234 N 
ATOM     32  H72 UNL     1     -35.526 -18.778  20.572  1.00  0.00     0.174 HD
ATOM     33  H71 UNL     1     -35.120 -18.909  22.301  1.00  0.00     0.174 HD
ENDBRANCH   5  31
TORSDOF 9
ENDMDL
MODEL 2
REMARK VINA RESULT: -7.868906567      1.111      1.303
REMARK  9 active torsions:
REMARK  status: ('A' for Active; 'I' for Inactive)
REMARK    1  A    between atoms: C2_2  and  O1_3 
REMARK    2  A    between atoms: C2_2  and  N1_5 
REMARK    3  A    between atoms: N1_5  and  C3_7 
REMARK    4  A    between atoms: C4_8  and  C5_9 
REMARK    5  A    between atoms: C5_9  and  C6_11 
REMARK    6  A    between atoms: C6_11  and  N2_12 
REMARK    7  A    between atoms: N4_16  and  N5_17 
REMARK    8  A    between atoms: C9_24  and  N7_25 
REMARK    9  A    between atoms: C10_30  and  N9_31 
ROOT
HETATM    1  C3  UNL     1     -32.869 -15.125  21.351  1.00  0.00     0.106 A 
HETATM    2  C4  UNL     1     -32.245 -16.334  21.099  1.00  0.00     0.127 A 
HETATM    3  N6  UNL     1     -33.020 -17.450  21.144  1.00  0.00    -0.186 N 
ATOM      4  H6  UNL     1     -32.597 -18.361  20.967  1.00  0.00     0.184 HD
HETATM    5  C9  UNL     1     -34.337 -17.374  21.417  1.00  0.00     0.678 A 
HETATM    6  N8  UNL     1     -34.935 -16.202  21.655  1.00  0.00    -0.175 N 
ATOM      7  H8  UNL     1     -35.934 -16.174  21.858  1.00  0.00     0.186 HD
HETATM    8  C10 UNL     1     -34.228 -15.060  21.629  1.00  0.00     0.143 A 
ENDROOT
BRANCH   2   9
HETATM    9  C5  UNL     1     -30.867 -16.470  20.735  1.00  0.00     0.198 C 
HETATM   10  O2  UNL     1     -29.979 -16.327  21.589  1.00  0.00    -0.289 OA
BRANCH   9  11
HETATM   11  C6  UNL     1     -30.487 -16.781  19.354  1.00  0.00     0.239 C 
BRANCH  11  12
HETATM   12  N2  UNL     1     -29.193 -17.402  19.234  1.00  0.00    -0.233 N 
HETATM   13  N3  UNL     1     -28.839 -18.431  20.013  1.00  0.00    -0.288 N 
HETATM   14  C7  UNL     1     -27.589 -18.812  19.690  1.00  0.00     0.228 A 
ATOM     15  H3  UNL     1     -29.421 -18.857  20.734  1.00  0.00     0.188 HD
HETATM   16  N4  UNL     1     -27.179 -18.002  18.699  1.00  0.00    -0.205 N 
HETATM   17  C8  UNL     1     -28.164 -17.127  18.411  1.00  0.00     0.363 A 
HETATM   18  O3  UNL     1     -28.191 -16.215  17.562  1.00  0.00    -0.243 OA
BRANCH  16  19
HETATM   19  N5  UNL     1     -25.951 -18.005  18.032  1.00  0.00    -0.334 N 
ATOM     20  H52 UNL     1     -25.341 -18.823  18.001  1.00  0.00     0.177 HD
ATOM     21  H51 UNL     1     -25.513 -17.245  17.513  1.00  0.00     0.177 HD
ENDBRANCH  16  19
ENDBRANCH  11  12
ENDBRANCH   9  11
ENDBRANCH   2   9
BRANCH   1  22
HETATM   22  N1  UNL     1     -32.056 -13.970  21.346  1.00  0.00    -0.359 N 
ATOM     23  H1  UNL     1     -31.355 -13.857  22.078  1.00  0.00     0.162 HD
BRANCH  22  24
HETATM   24  C2  UNL     1     -32.186 -12.959  20.353  1.00  0.00     0.213 C 
HETATM   25  C1  UNL     1     -32.285 -11.544  20.828  1.00  0.00     0.063 C 
BRANCH  24  26
HETATM   26  O1  UNL     1     -33.343 -13.178  19.563  1.00  0.00    -0.377 OA
ATOM     27  H1  UNL     1     -33.089 -12.966  18.672  1.00  0.00     0.212 HD
ENDBRANCH  24  26
ENDBRANCH  22  24
ENDBRANCH   1  22
BRANCH   8  28
HETATM   28  N9  UNL     1     -34.807 -13.932  21.831  1.00  0.00    -0.383 N 
ATOM     29  H92 UNL     1     -35.547 -13.611  21.206  1.00  0.00     0.157 HD
ATOM     30  H91 UNL     1     -34.525 -13.329  22.604  1.00  0.00     0.157 HD
ENDBRANCH   8  28
BRANCH   5  31
HETATM   31  N7  UNL     1     -35.010 -18.486  21.440  1.00  0.00    -0.234 N 
ATOM     32  H72 UNL     1     -35.045 -19.097  20.623  1.00  0.00     0.174 HD
ATOM     33  H71 UNL     1     -35.496 -18.724  22.305  1.00  0.00     0.174 HD
ENDBRANCH   5  31
TORSDOF 9
ENDMDL
MODEL 3
REMARK VINA RESULT: -6.720484227      1.713      3.469
REMARK  9 active torsions:
REMARK  status: ('A' for Active; 'I' for Inactive)
REMARK    1  A    between atoms: C2_2  and  O1_3 
REMARK    2  A    between atoms: C2_2  and  N1_5 
REMARK    3  A    between atoms: N1_5  and  C3_7 
REMARK    4  A    between atoms: C4_8  and  C5_9 
REMARK    5  A    between atoms: C5_9  and  C6_11 
REMARK    6  A    between atoms: C6_11  and  N2_12 
REMARK    7  A    between atoms: N4_16  and  N5_17 
REMARK    8  A    between atoms: C9_24  and  N7_25 
REMARK    9  A    between atoms: C10_30  and  N9_31 
ROOT
HETATM    1  C3  UNL     1     -33.176 -15.907  21.423  1.00  0.00     0.106 A 
HETATM    2  C4  UNL     1     -31.895 -15.617  20.989  1.00  0.00     0.127 A 
HETATM    3  N6  UNL     1     -31.606 -14.312  20.744  1.00  0.00    -0.186 N 
ATOM      4  H6  UNL     1     -30.673 -14.057  20.420  1.00  0.00     0.184 HD
HETATM    5  C9  UNL     1     -32.531 -13.347  20.920  1.00  0.00     0.678 A 
HETATM    6  N8  UNL     1     -33.766 -13.634  21.344  1.00  0.00    -0.175 N 
ATOM      7  H8  UNL     1     -34.445 -12.883  21.470  1.00  0.00     0.186 HD
HETATM    8  C10 UNL     1     -34.120 -14.903  21.604  1.00  0.00     0.143 A 
ENDROOT
BRANCH   2   9
HETATM    9  C5  UNL     1     -30.852 -16.588  20.850  1.00  0.00     0.198 C 
HETATM   10  O2  UNL     1     -30.305 -17.065  21.856  1.00  0.00    -0.289 OA
BRANCH   9  11
HETATM   11  C6  UNL     1     -30.417 -17.032  19.522  1.00  0.00     0.239 C 
BRANCH  11  12
HETATM   12  N2  UNL     1     -29.133 -17.686  19.520  1.00  0.00    -0.233 N 
HETATM   13  N3  UNL     1     -28.934 -18.831  20.183  1.00  0.00    -0.288 N 
HETATM   14  C7  UNL     1     -27.655 -19.216  20.012  1.00  0.00     0.228 A 
ATOM     15  H3  UNL     1     -29.636 -19.331  20.729  1.00  0.00     0.188 HD
HETATM   16  N4  UNL     1     -27.071 -18.290  19.233  1.00  0.00    -0.205 N 
HETATM   17  C8  UNL     1     -27.978 -17.340  18.924  1.00  0.00     0.363 A 
HETATM   18  O3  UNL     1     -27.845 -16.315  18.229  1.00  0.00    -0.243 OA
BRANCH  16  19
HETATM   19  N5  UNL     1     -25.750 -18.251  18.779  1.00  0.00    -0.334 N 
ATOM     20  H52 UNL     1     -24.948 -18.355  19.402  1.00  0.00     0.177 HD
ATOM     21  H51 UNL     1     -25.415 -18.123  17.825  1.00  0.00     0.177 HD
ENDBRANCH  16  19
ENDBRANCH  11  12
ENDBRANCH   9  11
ENDBRANCH   2   9
BRANCH   1  22
HETATM   22  N1  UNL     1     -33.490 -17.267  21.638  1.00  0.00    -0.359 N 
ATOM     23  H1  UNL     1     -32.758 -17.896  21.967  1.00  0.00     0.162 HD
BRANCH  22  24
HETATM   24  C2  UNL     1     -34.795 -17.786  21.410  1.00  0.00     0.213 C 
HETATM   25  C1  UNL     1     -35.067 -19.180  21.880  1.00  0.00     0.063 C 
BRANCH  24  26
HETATM   26  O1  UNL     1     -35.101 -17.784  20.025  1.00  0.00    -0.377 OA
ATOM     27  H1  UNL     1     -35.899 -17.276  19.940  1.00  0.00     0.212 HD
ENDBRANCH  24  26
ENDBRANCH  22  24
ENDBRANCH   1  22
BRANCH   8  28
HETATM   28  N9  UNL     1     -35.298 -15.175  22.036  1.00  0.00    -0.383 N 
ATOM     29  H92 UNL     1     -35.556 -16.135  22.264  1.00  0.00     0.157 HD
ATOM     30  H91 UNL     1     -36.001 -14.443  22.137  1.00  0.00     0.157 HD
ENDBRANCH   8  28
BRANCH   5  31
HETATM   31  N7  UNL     1     -32.176 -12.123  20.665  1.00  0.00    -0.234 N 
ATOM     32  H72 UNL     1     -32.832 -11.460  20.251  1.00  0.00     0.174 HD
ATOM     33  H71 UNL     1     -31.219 -11.853  20.895  1.00  0.00     0.174 HD
ENDBRANCH   5  31
TORSDOF 9
ENDMDL
MODEL 4
REMARK VINA RESULT: -6.693899177      1.750      3.531
REMARK  9 active torsions:
REMARK  status: ('A' for Active; 'I' for Inactive)
REMARK    1  A    between atoms: C2_2  and  O1_3 
REMARK    2  A    between atoms: C2_2  and  N1_5 
REMARK    3  A    between atoms: N1_5  and  C3_7 
REMARK    4  A    between atoms: C4_8  and  C5_9 
REMARK    5  A    between atoms: C5_9  and  C6_11 
REMARK    6  A    between atoms: C6_11  and  N2_12 
REMARK    7  A    between atoms: N4_16  and  N5_17 
REMARK    8  A    between atoms: C9_24  and  N7_25 
REMARK    9  A    between atoms: C10_30  and  N9_31 
ROOT
HETATM    1  C3  UNL     1     -33.359 -14.876  20.531  1.00  0.00     0.106 A 
HETATM    2  C4  UNL     1     -31.986 -14.835  20.695  1.00  0.00     0.127 A 
HETATM    3  N6  UNL     1     -31.418 -13.609  20.843  1.00  0.00    -0.186 N 
ATOM      4  H6  UNL     1     -30.407 -13.536  20.964  1.00  0.00     0.184 HD
HETATM    5  C9  UNL     1     -32.166 -12.488  20.831  1.00  0.00     0.678 A 
HETATM    6  N8  UNL     1     -33.492 -12.535  20.676  1.00  0.00    -0.175 N 
ATOM      7  H8  UNL     1     -34.033 -11.670  20.673  1.00  0.00     0.186 HD
HETATM    8  C10 UNL     1     -34.119 -13.713  20.524  1.00  0.00     0.143 A 
ENDROOT
BRANCH   2   9
HETATM    9  C5  UNL     1     -31.150 -15.994  20.785  1.00  0.00     0.198 C 
HETATM   10  O2  UNL     1     -30.771 -16.406  21.892  1.00  0.00    -0.289 OA
BRANCH   9  11
HETATM   11  C6  UNL     1     -30.731 -16.708  19.575  1.00  0.00     0.239 C 
BRANCH  11  12
HETATM   12  N2  UNL     1     -29.535 -17.493  19.749  1.00  0.00    -0.233 N 
HETATM   13  N3  UNL     1     -29.521 -18.574  20.538  1.00  0.00    -0.288 N 
HETATM   14  C7  UNL     1     -28.286 -19.111  20.517  1.00  0.00     0.228 A 
ATOM     15  H3  UNL     1     -30.315 -18.933  21.068  1.00  0.00     0.188 HD
HETATM   16  N4  UNL     1     -27.542 -18.344  19.703  1.00  0.00    -0.205 N 
HETATM   17  C8  UNL     1     -28.306 -17.341  19.224  1.00  0.00     0.363 A 
HETATM   18  O3  UNL     1     -28.004 -16.418  18.444  1.00  0.00    -0.243 OA
BRANCH  16  19
HETATM   19  N5  UNL     1     -26.195 -18.497  19.363  1.00  0.00    -0.334 N 
ATOM     20  H52 UNL     1     -25.762 -19.410  19.219  1.00  0.00     0.177 HD
ATOM     21  H51 UNL     1     -25.495 -17.771  19.219  1.00  0.00     0.177 HD
ENDBRANCH  16  19
ENDBRANCH  11  12
ENDBRANCH   9  11
ENDBRANCH   2   9
BRANCH   1  22
HETATM   22  N1  UNL     1     -33.946 -16.146  20.336  1.00  0.00    -0.359 N 
ATOM     23  H1  UNL     1     -34.053 -16.499  19.385  1.00  0.00     0.162 HD
BRANCH  22  24
HETATM   24  C2  UNL     1     -34.391 -16.948  21.424  1.00  0.00     0.213 C 
HETATM   25  C1  UNL     1     -34.918 -18.309  21.098  1.00  0.00     0.063 C 
BRANCH  24  26
HETATM   26  O1  UNL     1     -35.431 -16.295  22.134  1.00  0.00    -0.377 OA
ATOM     27  H1  UNL     1     -35.842 -15.712  21.506  1.00  0.00     0.212 HD
ENDBRANCH  24  26
ENDBRANCH  22  24
ENDBRANCH   1  22
BRANCH   8  28
HETATM   28  N9  UNL     1     -35.396 -13.760  20.401  1.00  0.00    -0.383 N 
ATOM     29  H92 UNL     1     -35.841 -14.546  19.927  1.00  0.00     0.157 HD
ATOM     30  H91 UNL     1     -35.984 -13.005  20.755  1.00  0.00     0.157 HD
ENDBRANCH   8  28
BRANCH   5  31
HETATM   31  N7  UNL     1     -31.547 -11.354  20.979  1.00  0.00    -0.234 N 
ATOM     32  H72 UNL     1     -30.770 -11.095  20.371  1.00  0.00     0.174 HD
ATOM     33  H71 UNL     1     -31.870 -10.736  21.724  1.00  0.00     0.174 HD
ENDBRANCH   5  31
TORSDOF 9
ENDMDL
MODEL 5
REMARK VINA RESULT: -6.558161030      1.527      3.343
REMARK  9 active torsions:
REMARK  status: ('A' for Active; 'I' for Inactive)
REMARK    1  A    between atoms: C2_2  and  O1_3 
REMARK    2  A    between atoms: C2_2  and  N1_5 
REMARK    3  A    between atoms: N1_5  and  C3_7 
REMARK    4  A    between atoms: C4_8  and  C5_9 
REMARK    5  A    between atoms: C5_9  and  C6_11 
REMARK    6  A    between atoms: C6_11  and  N2_12 
REMARK    7  A    between atoms: N4_16  and  N5_17 
REMARK    8  A    between atoms: C9_24  and  N7_25 
REMARK    9  A    between atoms: C10_30  and  N9_31 
ROOT
HETATM    1  C3  UNL     1     -33.359 -14.837  20.509  1.00  0.00     0.106 A 
HETATM    2  C4  UNL     1     -32.005 -14.787  20.788  1.00  0.00     0.127 A 
HETATM    3  N6  UNL     1     -31.439 -13.555  20.882  1.00  0.00    -0.186 N 
ATOM      4  H6  UNL     1     -30.442 -13.475  21.084  1.00  0.00     0.184 HD
HETATM    5  C9  UNL     1     -32.171 -12.436  20.713  1.00  0.00     0.678 A 
HETATM    6  N8  UNL     1     -33.480 -12.491  20.447  1.00  0.00    -0.175 N 
ATOM      7  H8  UNL     1     -34.009 -11.628  20.326  1.00  0.00     0.186 HD
HETATM    8  C10 UNL     1     -34.103 -13.675  20.340  1.00  0.00     0.143 A 
ENDROOT
BRANCH   2   9
HETATM    9  C5  UNL     1     -31.192 -15.936  21.046  1.00  0.00     0.198 C 
HETATM   10  O2  UNL     1     -30.521 -16.006  22.087  1.00  0.00    -0.289 OA
BRANCH   9  11
HETATM   11  C6  UNL     1     -31.141 -17.045  20.088  1.00  0.00     0.239 C 
BRANCH  11  12
HETATM   12  N2  UNL     1     -29.804 -17.414  19.698  1.00  0.00    -0.233 N 
HETATM   13  N3  UNL     1     -29.181 -16.803  18.683  1.00  0.00    -0.288 N 
HETATM   14  C7  UNL     1     -27.956 -17.341  18.538  1.00  0.00     0.228 A 
ATOM     15  H3  UNL     1     -29.572 -16.054  18.111  1.00  0.00     0.188 HD
HETATM   16  N4  UNL     1     -27.833 -18.291  19.480  1.00  0.00    -0.205 N 
HETATM   17  C8  UNL     1     -28.972 -18.343  20.202  1.00  0.00     0.363 A 
HETATM   18  O3  UNL     1     -29.267 -19.079  21.162  1.00  0.00    -0.243 OA
BRANCH  16  19
HETATM   19  N5  UNL     1     -26.740 -19.125  19.729  1.00  0.00    -0.334 N 
ATOM     20  H52 UNL     1     -25.942 -19.194  19.097  1.00  0.00     0.177 HD
ATOM     21  H51 UNL     1     -26.589 -19.745  20.525  1.00  0.00     0.177 HD
ENDBRANCH  16  19
ENDBRANCH  11  12
ENDBRANCH   9  11
ENDBRANCH   2   9
BRANCH   1  22
HETATM   22  N1  UNL     1     -33.940 -16.116  20.370  1.00  0.00    -0.359 N 
ATOM     23  H1  UNL     1     -34.023 -16.522  19.438  1.00  0.00     0.162 HD
BRANCH  22  24
HETATM   24  C2  UNL     1     -34.412 -16.857  21.490  1.00  0.00     0.213 C 
HETATM   25  C1  UNL     1     -34.907 -18.245  21.230  1.00  0.00     0.063 C 
BRANCH  24  26
HETATM   26  O1  UNL     1     -35.487 -16.180  22.121  1.00  0.00    -0.377 OA
ATOM     27  H1  UNL     1     -35.096 -15.433  22.559  1.00  0.00     0.212 HD
ENDBRANCH  24  26
ENDBRANCH  22  24
ENDBRANCH   1  22
BRANCH   8  28
HETATM   28  N9  UNL     1     -35.366 -13.728  20.111  1.00  0.00    -0.383 N 
ATOM     29  H92 UNL     1     -35.928 -14.491  20.489  1.00  0.00     0.157 HD
ATOM     30  H91 UNL     1     -35.823 -13.024  19.533  1.00  0.00     0.157 HD
ENDBRANCH   8  28
BRANCH   5  31
HETATM   31  N7  UNL     1     -31.555 -11.295  20.819  1.00  0.00    -0.234 N 
ATOM     32  H72 UNL     1     -31.138 -11.003  21.703  1.00  0.00     0.174 HD
ATOM     33  H71 UNL     1     -31.504 -10.709  19.986  1.00  0.00     0.174 HD
ENDBRANCH   5  31
TORSDOF 9
ENDMDL
