MODEL 1
REMARK VINA RESULT: -7.648152413      0.000      0.000
REMARK  9 active torsions:
REMARK  status: ('A' for Active; 'I' for Inactive)
REMARK    1  A    between atoms: C2_2  and  O1_3 
REMARK    2  A    between atoms: C2_2  and  C3_5 
REMARK    3  A    between atoms: C2_2  and  C10_30 
REMARK    4  A    between atoms: C3_5  and  C4_6 
REMARK    5  A    between atoms: C4_6  and  N1_7 
REMARK    6  A    between atoms: C5_8  and  N2_9 
REMARK    7  A    between atoms: C6_14  and  N4_15 
REMARK    8  A    between atoms: C8_21  and  N7_22 
REMARK    9  A    between atoms: N7_22  and  N8_24 
ROOT
HETATM    1  N1  UNL     1     -31.615 -16.419  20.482  1.00  0.00    -0.013 N 
HETATM    2  C5  UNL     1     -32.093 -16.993  21.612  1.00  0.00     0.707 A 
HETATM    3  N3  UNL     1     -31.440 -17.978  22.249  1.00  0.00    -0.021 N 
ATOM      4  H3  UNL     1     -31.827 -18.389  23.100  1.00  0.00     0.203 HD
HETATM    5  C6  UNL     1     -30.272 -18.416  21.753  1.00  0.00     0.713 A 
HETATM    6  N5  UNL     1     -29.771 -17.865  20.630  1.00  0.00     0.041 N 
HETATM    7  C7  UNL     1     -28.650 -18.084  19.910  1.00  0.00     0.203 A 
HETATM    8  N6  UNL     1     -27.682 -19.060  20.256  1.00  0.00    -0.077 NA
HETATM    9  C8  UNL     1     -28.610 -17.231  18.821  1.00  0.00     0.178 A 
HETATM   10  N9  UNL     1     -29.737 -16.494  18.911  1.00  0.00    -0.170 N 
ATOM     11  H9  UNL     1     -30.013 -15.764  18.256  1.00  0.00     0.186 HD
HETATM   12  C9  UNL     1     -30.442 -16.867  19.996  1.00  0.00     0.723 A 
ENDROOT
BRANCH   1  13
HETATM   13  C4  UNL     1     -32.311 -15.372  19.807  1.00  0.00     0.170 C 
BRANCH  13  14
HETATM   14  C3  UNL     1     -32.281 -14.059  20.556  1.00  0.00     0.068 C 
BRANCH  14  15
HETATM   15  C2  UNL     1     -33.610 -13.353  20.459  1.00  0.00     0.134 C 
HETATM   16  C1  UNL     1     -34.267 -13.287  21.800  1.00  0.00     0.056 C 
BRANCH  15  17
HETATM   17  O1  UNL     1     -34.485 -14.013  19.586  1.00  0.00    -0.381 OA
ATOM     18  H1  UNL     1     -34.581 -13.475  18.810  1.00  0.00     0.211 HD
ENDBRANCH  15  17
BRANCH  15  19
HETATM   19  C10 UNL     1     -33.379 -12.003  19.888  1.00  0.00     0.265 C 
HETATM   20  N10 UNL     1     -33.501 -10.860  20.721  1.00  0.00    -0.059 NA
HETATM   21  O2  UNL     1     -33.075 -11.802  18.681  1.00  0.00    -0.273 OA
ENDBRANCH  15  19
ENDBRANCH  14  15
ENDBRANCH  13  14
ENDBRANCH   1  13
BRANCH   2  22
HETATM   22  N2  UNL     1     -33.198 -16.581  22.082  1.00  0.00    -0.233 N 
ATOM     23  H22 UNL     1     -34.050 -17.102  21.873  1.00  0.00     0.174 HD
ATOM     24  H21 UNL     1     -33.200 -15.739  22.657  1.00  0.00     0.174 HD
ENDBRANCH   2  22
BRANCH   5  25
HETATM   25  N4  UNL     1     -29.592 -19.352  22.305  1.00  0.00    -0.233 N 
ATOM     26  H42 UNL     1     -29.545 -19.360  23.324  1.00  0.00     0.174 HD
ATOM     27  H41 UNL     1     -29.110 -20.074  21.769  1.00  0.00     0.174 HD
ENDBRANCH   5  25
BRANCH   9  28
HETATM   28  N7  UNL     1     -27.583 -17.171  17.838  1.00  0.00    -0.289 N 
ATOM     29  H7  UNL     1     -27.780 -16.658  16.979  1.00  0.00     0.188 HD
BRANCH  28  30
HETATM   30  N8  UNL     1     -26.341 -17.757  17.961  1.00  0.00    -0.344 N 
ATOM     31  H82 UNL     1     -26.155 -18.252  18.834  1.00  0.00     0.176 HD
ATOM     32  H81 UNL     1     -25.611 -17.729  17.250  1.00  0.00     0.176 HD
ENDBRANCH  28  30
ENDBRANCH   9  28
TORSDOF 9
ENDMDL
MODEL 2
REMARK VINA RESULT: -6.854820429      1.647      2.467
REMARK  9 active torsions:
REMARK  status: ('A' for Active; 'I' for Inactive)
REMARK    1  A    between atoms: C2_2  and  O1_3 
REMARK    2  A    between atoms: C2_2  and  C3_5 
REMARK    3  A    between atoms: C2_2  and  C10_30 
REMARK    4  A    between atoms: C3_5  and  C4_6 
REMARK    5  A    between atoms: C4_6  and  N1_7 
REMARK    6  A    between atoms: C5_8  and  N2_9 
REMARK    7  A    between atoms: C6_14  and  N4_15 
REMARK    8  A    between atoms: C8_21  and  N7_22 
REMARK    9  A    between atoms: N7_22  and  N8_24 
ROOT
HETATM    1  N1  UNL     1     -30.501 -17.121  20.051  1.00  0.00    -0.013 N 
HETATM    2  C5  UNL     1     -29.987 -17.880  21.049  1.00  0.00     0.707 A 
HETATM    3  N3  UNL     1     -28.739 -18.374  21.005  1.00  0.00    -0.021 N 
ATOM      4  H3  UNL     1     -28.380 -18.942  21.774  1.00  0.00     0.203 HD
HETATM    5  C6  UNL     1     -27.969 -18.113  19.937  1.00  0.00     0.713 A 
HETATM    6  N5  UNL     1     -28.453 -17.361  18.928  1.00  0.00     0.041 N 
HETATM    7  C7  UNL     1     -27.934 -16.937  17.756  1.00  0.00     0.203 A 
HETATM    8  N6  UNL     1     -26.620 -17.251  17.329  1.00  0.00    -0.077 NA
HETATM    9  C8  UNL     1     -28.866 -16.176  17.071  1.00  0.00     0.178 A 
HETATM   10  N9  UNL     1     -29.956 -16.157  17.867  1.00  0.00    -0.170 N 
ATOM     11  H9  UNL     1     -30.829 -15.677  17.652  1.00  0.00     0.186 HD
HETATM   12  C9  UNL     1     -29.718 -16.866  18.986  1.00  0.00     0.723 A 
ENDROOT
BRANCH   1  13
HETATM   13  C4  UNL     1     -31.827 -16.596  20.101  1.00  0.00     0.170 C 
BRANCH  13  14
HETATM   14  C3  UNL     1     -31.922 -15.289  20.856  1.00  0.00     0.068 C 
BRANCH  14  15
HETATM   15  C2  UNL     1     -33.261 -14.635  20.633  1.00  0.00     0.134 C 
HETATM   16  C1  UNL     1     -34.074 -14.664  21.888  1.00  0.00     0.056 C 
BRANCH  15  17
HETATM   17  O1  UNL     1     -33.996 -15.285  19.633  1.00  0.00    -0.381 OA
ATOM     18  H1  UNL     1     -33.571 -15.111  18.801  1.00  0.00     0.211 HD
ENDBRANCH  15  17
BRANCH  15  19
HETATM   19  C10 UNL     1     -33.028 -13.249  20.156  1.00  0.00     0.265 C 
HETATM   20  N10 UNL     1     -34.014 -12.606  19.362  1.00  0.00    -0.059 NA
HETATM   21  O2  UNL     1     -31.985 -12.590  20.417  1.00  0.00    -0.273 OA
ENDBRANCH  15  19
ENDBRANCH  14  15
ENDBRANCH  13  14
ENDBRANCH   1  13
BRANCH   2  22
HETATM   22  N2  UNL     1     -30.713 -18.128  22.059  1.00  0.00    -0.233 N 
ATOM     23  H22 UNL     1     -31.003 -19.091  22.237  1.00  0.00     0.174 HD
ATOM     24  H21 UNL     1     -30.986 -17.356  22.666  1.00  0.00     0.174 HD
ENDBRANCH   2  22
BRANCH   5  25
HETATM   25  N4  UNL     1     -26.770 -18.551  19.823  1.00  0.00    -0.233 N 
ATOM     26  H42 UNL     1     -26.215 -18.626  20.676  1.00  0.00     0.174 HD
ATOM     27  H41 UNL     1     -26.363 -18.821  18.927  1.00  0.00     0.174 HD
ENDBRANCH   5  25
BRANCH   9  28
HETATM   28  N7  UNL     1     -28.679 -15.562  15.801  1.00  0.00    -0.289 N 
ATOM     29  H7  UNL     1     -27.827 -15.020  15.659  1.00  0.00     0.188 HD
BRANCH  28  30
HETATM   30  N8  UNL     1     -29.566 -15.646  14.748  1.00  0.00    -0.344 N 
ATOM     31  H82 UNL     1     -29.197 -16.013  13.871  1.00  0.00     0.176 HD
ATOM     32  H81 UNL     1     -30.546 -15.369  14.790  1.00  0.00     0.176 HD
ENDBRANCH  28  30
ENDBRANCH   9  28
TORSDOF 9
ENDMDL
MODEL 3
REMARK VINA RESULT: -6.832728988      0.988      1.194
REMARK  9 active torsions:
REMARK  status: ('A' for Active; 'I' for Inactive)
REMARK    1  A    between atoms: C2_2  and  O1_3 
REMARK    2  A    between atoms: C2_2  and  C3_5 
REMARK    3  A    between atoms: C2_2  and  C10_30 
REMARK    4  A    between atoms: C3_5  and  C4_6 
REMARK    5  A    between atoms: C4_6  and  N1_7 
REMARK    6  A    between atoms: C5_8  and  N2_9 
REMARK    7  A    between atoms: C6_14  and  N4_15 
REMARK    8  A    between atoms: C8_21  and  N7_22 
REMARK    9  A    between atoms: N7_22  and  N8_24 
ROOT
HETATM    1  N1  UNL     1     -31.787 -15.942  20.653  1.00  0.00    -0.013 N 
HETATM    2  C5  UNL     1     -32.267 -16.435  21.820  1.00  0.00     0.707 A 
HETATM    3  N3  UNL     1     -31.697 -17.476  22.448  1.00  0.00    -0.021 N 
ATOM      4  H3  UNL     1     -32.082 -17.823  23.327  1.00  0.00     0.203 HD
HETATM    5  C6  UNL     1     -30.614 -18.055  21.905  1.00  0.00     0.713 A 
HETATM    6  N5  UNL     1     -30.114 -17.586  20.744  1.00  0.00     0.041 N 
HETATM    7  C7  UNL     1     -29.066 -17.946  19.974  1.00  0.00     0.203 A 
HETATM    8  N6  UNL     1     -28.198 -19.020  20.294  1.00  0.00    -0.077 NA
HETATM    9  C8  UNL     1     -28.987 -17.124  18.863  1.00  0.00     0.178 A 
HETATM   10  N9  UNL     1     -30.016 -16.262  18.992  1.00  0.00    -0.170 N 
ATOM     11  H9  UNL     1     -30.242 -15.517  18.333  1.00  0.00     0.186 HD
HETATM   12  C9  UNL     1     -30.701 -16.530  20.119  1.00  0.00     0.723 A 
ENDROOT
BRANCH   1  13
HETATM   13  C4  UNL     1     -32.394 -14.835  19.988  1.00  0.00     0.170 C 
BRANCH  13  14
HETATM   14  C3  UNL     1     -31.872 -13.496  20.461  1.00  0.00     0.068 C 
BRANCH  14  15
HETATM   15  C2  UNL     1     -33.006 -12.543  20.738  1.00  0.00     0.134 C 
HETATM   16  C1  UNL     1     -32.478 -11.197  21.121  1.00  0.00     0.056 C 
BRANCH  15  17
HETATM   17  O1  UNL     1     -33.821 -12.996  21.784  1.00  0.00    -0.381 OA
ATOM     18  H1  UNL     1     -33.480 -12.635  22.594  1.00  0.00     0.211 HD
ENDBRANCH  15  17
BRANCH  15  19
HETATM   19  C10 UNL     1     -33.864 -12.477  19.529  1.00  0.00     0.265 C 
HETATM   20  N10 UNL     1     -33.589 -11.511  18.526  1.00  0.00    -0.059 NA
HETATM   21  O2  UNL     1     -34.848 -13.242  19.332  1.00  0.00    -0.273 OA
ENDBRANCH  15  19
ENDBRANCH  14  15
ENDBRANCH  13  14
ENDBRANCH   1  13
BRANCH   2  22
HETATM   22  N2  UNL     1     -33.291 -15.890  22.334  1.00  0.00    -0.233 N 
ATOM     23  H22 UNL     1     -33.230 -15.515  23.281  1.00  0.00     0.174 HD
ATOM     24  H21 UNL     1     -34.148 -15.842  21.783  1.00  0.00     0.174 HD
ENDBRANCH   2  22
BRANCH   5  25
HETATM   25  N4  UNL     1     -30.017 -19.052  22.445  1.00  0.00    -0.233 N 
ATOM     26  H42 UNL     1     -29.987 -19.085  23.464  1.00  0.00     0.174 HD
ATOM     27  H41 UNL     1     -29.582 -19.796  21.899  1.00  0.00     0.174 HD
ENDBRANCH   5  25
BRANCH   9  28
HETATM   28  N7  UNL     1     -28.013 -17.202  17.828  1.00  0.00    -0.289 N 
ATOM     29  H7  UNL     1     -28.305 -16.946  16.885  1.00  0.00     0.188 HD
BRANCH  28  30
HETATM   30  N8  UNL     1     -26.704 -17.599  18.006  1.00  0.00    -0.344 N 
ATOM     31  H82 UNL     1     -26.138 -17.030  18.636  1.00  0.00     0.176 HD
ATOM     32  H81 UNL     1     -26.275 -18.408  17.558  1.00  0.00     0.176 HD
ENDBRANCH  28  30
ENDBRANCH   9  28
TORSDOF 9
ENDMDL
MODEL 4
REMARK VINA RESULT: -6.185282268      1.283      1.584
REMARK  9 active torsions:
REMARK  status: ('A' for Active; 'I' for Inactive)
REMARK    1  A    between atoms: C2_2  and  O1_3 
REMARK    2  A    between atoms: C2_2  and  C3_5 
REMARK    3  A    between atoms: C2_2  and  C10_30 
REMARK    4  A    between atoms: C3_5  and  C4_6 
REMARK    5  A    between atoms: C4_6  and  N1_7 
REMARK    6  A    between atoms: C5_8  and  N2_9 
REMARK    7  A    between atoms: C6_14  and  N4_15 
REMARK    8  A    between atoms: C8_21  and  N7_22 
REMARK    9  A    between atoms: N7_22  and  N8_24 
ROOT
HETATM    1  N1  UNL     1     -31.249 -16.572  20.670  1.00  0.00    -0.013 N 
HETATM    2  C5  UNL     1     -31.708 -17.218  21.770  1.00  0.00     0.707 A 
HETATM    3  N3  UNL     1     -31.066 -18.269  22.306  1.00  0.00    -0.021 N 
ATOM      4  H3  UNL     1     -31.437 -18.733  23.135  1.00  0.00     0.203 HD
HETATM    5  C6  UNL     1     -29.930 -18.702  21.735  1.00  0.00     0.713 A 
HETATM    6  N5  UNL     1     -29.450 -18.080  20.640  1.00  0.00     0.041 N 
HETATM    7  C7  UNL     1     -28.363 -18.277  19.864  1.00  0.00     0.203 A 
HETATM    8  N6  UNL     1     -27.417 -19.306  20.097  1.00  0.00    -0.077 NA
HETATM    9  C8  UNL     1     -28.332 -17.343  18.843  1.00  0.00     0.178 A 
HETATM   10  N9  UNL     1     -29.430 -16.581  19.031  1.00  0.00    -0.170 N 
ATOM     11  H9  UNL     1     -29.704 -15.794  18.444  1.00  0.00     0.186 HD
HETATM   12  C9  UNL     1     -30.110 -17.016  20.109  1.00  0.00     0.723 A 
ENDROOT
BRANCH   1  13
HETATM   13  C4  UNL     1     -31.933 -15.455  20.105  1.00  0.00     0.170 C 
BRANCH  13  14
HETATM   14  C3  UNL     1     -31.907 -14.230  20.991  1.00  0.00     0.068 C 
BRANCH  14  15
HETATM   15  C2  UNL     1     -33.110 -13.357  20.739  1.00  0.00     0.134 C 
HETATM   16  C1  UNL     1     -32.878 -12.474  19.555  1.00  0.00     0.056 C 
BRANCH  15  17
HETATM   17  O1  UNL     1     -33.393 -12.535  21.837  1.00  0.00    -0.381 OA
ATOM     18  H1  UNL     1     -33.837 -13.064  22.489  1.00  0.00     0.211 HD
ENDBRANCH  15  17
BRANCH  15  19
HETATM   19  C10 UNL     1     -34.291 -14.236  20.552  1.00  0.00     0.265 C 
HETATM   20  N10 UNL     1     -34.858 -14.897  21.673  1.00  0.00    -0.059 NA
HETATM   21  O2  UNL     1     -34.837 -14.438  19.433  1.00  0.00    -0.273 OA
ENDBRANCH  15  19
ENDBRANCH  14  15
ENDBRANCH  13  14
ENDBRANCH   1  13
BRANCH   2  22
HETATM   22  N2  UNL     1     -32.781 -16.810  22.310  1.00  0.00    -0.233 N 
ATOM     23  H22 UNL     1     -32.953 -17.023  23.294  1.00  0.00     0.174 HD
ATOM     24  H21 UNL     1     -33.442 -16.279  21.744  1.00  0.00     0.174 HD
ENDBRANCH   2  22
BRANCH   5  25
HETATM   25  N4  UNL     1     -29.264 -19.699  22.187  1.00  0.00    -0.233 N 
ATOM     26  H42 UNL     1     -29.184 -20.521  21.589  1.00  0.00     0.174 HD
ATOM     27  H41 UNL     1     -28.821 -19.695  23.106  1.00  0.00     0.174 HD
ENDBRANCH   5  25
BRANCH   9  28
HETATM   28  N7  UNL     1     -27.338 -17.238  17.830  1.00  0.00    -0.289 N 
ATOM     29  H7  UNL     1     -27.541 -16.641  17.029  1.00  0.00     0.188 HD
BRANCH  28  30
HETATM   30  N8  UNL     1     -26.120 -17.885  17.853  1.00  0.00    -0.344 N 
ATOM     31  H82 UNL     1     -25.968 -18.541  18.618  1.00  0.00     0.176 HD
ATOM     32  H81 UNL     1     -25.377 -17.751  17.167  1.00  0.00     0.176 HD
ENDBRANCH  28  30
ENDBRANCH   9  28
TORSDOF 9
ENDMDL
MODEL 5
REMARK VINA RESULT: -6.006736419      2.399      3.691
REMARK  9 active torsions:
REMARK  status: ('A' for Active; 'I' for Inactive)
REMARK    1  A    between atoms: C2_2  and  O1_3 
REMARK    2  A    between atoms: C2_2  and  C3_5 
REMARK    3  A    between atoms: C2_2  and  C10_30 
REMARK    4  A    between atoms: C3_5  and  C4_6 
REMARK    5  A    between atoms: C4_6  and  N1_7 
REMARK    6  A    between atoms: C5_8  and  N2_9 
REMARK    7  A    between atoms: C6_14  and  N4_15 
REMARK    8  A    between atoms: C8_21  and  N7_22 
REMARK    9  A    between atoms: N7_22  and  N8_24 
ROOT
HETATM    1  N1  UNL     1     -29.990 -17.476  19.776  1.00  0.00    -0.013 N 
HETATM    2  C5  UNL     1     -29.416 -18.264  20.718  1.00  0.00     0.707 A 
HETATM    3  N3  UNL     1     -28.136 -18.661  20.639  1.00  0.00    -0.021 N 
ATOM      4  H3  UNL     1     -27.732 -19.253  21.365  1.00  0.00     0.203 HD
HETATM    5  C6  UNL     1     -27.392 -18.267  19.592  1.00  0.00     0.713 A 
HETATM    6  N5  UNL     1     -27.936 -17.483  18.640  1.00  0.00     0.041 N 
HETATM    7  C7  UNL     1     -27.457 -16.940  17.501  1.00  0.00     0.203 A 
HETATM    8  N6  UNL     1     -26.125 -17.124  17.052  1.00  0.00    -0.077 NA
HETATM    9  C8  UNL     1     -28.445 -16.203  16.872  1.00  0.00     0.178 A 
HETATM   10  N9  UNL     1     -29.529 -16.321  17.667  1.00  0.00    -0.170 N 
ATOM     11  H9  UNL     1     -30.437 -15.893  17.487  1.00  0.00     0.186 HD
HETATM   12  C9  UNL     1     -29.234 -17.089  18.733  1.00  0.00     0.723 A 
ENDROOT
BRANCH   1  13
HETATM   13  C4  UNL     1     -31.351 -17.056  19.864  1.00  0.00     0.170 C 
BRANCH  13  14
HETATM   14  C3  UNL     1     -31.508 -15.651  20.399  1.00  0.00     0.068 C 
BRANCH  14  15
HETATM   15  C2  UNL     1     -32.530 -15.606  21.505  1.00  0.00     0.134 C 
HETATM   16  C1  UNL     1     -33.423 -14.417  21.346  1.00  0.00     0.056 C 
BRANCH  15  17
HETATM   17  O1  UNL     1     -31.927 -15.521  22.767  1.00  0.00    -0.381 OA
ATOM     18  H1  UNL     1     -32.485 -15.975  23.387  1.00  0.00     0.211 HD
ENDBRANCH  15  17
BRANCH  15  19
HETATM   19  C10 UNL     1     -33.294 -16.878  21.485  1.00  0.00     0.265 C 
HETATM   20  N10 UNL     1     -34.520 -16.948  20.772  1.00  0.00    -0.059 NA
HETATM   21  O2  UNL     1     -32.915 -17.926  22.075  1.00  0.00    -0.273 OA
ENDBRANCH  15  19
ENDBRANCH  14  15
ENDBRANCH  13  14
ENDBRANCH   1  13
BRANCH   2  22
HETATM   22  N2  UNL     1     -30.117 -18.637  21.707  1.00  0.00    -0.233 N 
ATOM     23  H22 UNL     1     -31.078 -18.942  21.548  1.00  0.00     0.174 HD
ATOM     24  H21 UNL     1     -29.697 -18.622  22.637  1.00  0.00     0.174 HD
ENDBRANCH   2  22
BRANCH   5  25
HETATM   25  N4  UNL     1     -26.165 -18.606  19.448  1.00  0.00    -0.233 N 
ATOM     26  H42 UNL     1     -25.734 -19.142  20.200  1.00  0.00     0.174 HD
ATOM     27  H41 UNL     1     -25.618 -18.361  18.622  1.00  0.00     0.174 HD
ENDBRANCH   5  25
BRANCH   9  28
HETATM   28  N7  UNL     1     -28.311 -15.488  15.649  1.00  0.00    -0.289 N 
ATOM     29  H7  UNL     1     -27.390 -15.113  15.419  1.00  0.00     0.188 HD
BRANCH  28  30
HETATM   30  N8  UNL     1     -29.334 -15.264  14.752  1.00  0.00    -0.344 N 
ATOM     31  H82 UNL     1     -29.212 -14.482  14.108  1.00  0.00     0.176 HD
ATOM     32  H81 UNL     1     -30.187 -15.819  14.692  1.00  0.00     0.176 HD
ENDBRANCH  28  30
ENDBRANCH   9  28
TORSDOF 9
ENDMDL
