MODEL 1
REMARK VINA RESULT: -7.465654539      0.000      0.000
REMARK  8 active torsions:
REMARK  status: ('A' for Active; 'I' for Inactive)
REMARK    1  A    between atoms: N1_1  and  C1_4 
REMARK    2  A    between atoms: N4_9  and  C2_10 
REMARK    3  A    between atoms: C2_10  and  C3_11 
REMARK    4  A    between atoms: C3_11  and  S1_12 
REMARK    5  A    between atoms: S1_12  and  C4_13 
REMARK    6  A    between atoms: C5_16  and  C6_17 
REMARK    7  A    between atoms: N9_25  and  N10_27 
REMARK    8  A    between atoms: N10_27  and  N11_29 
ROOT
HETATM    1  C1  UNL     1     -27.622 -18.873  19.752  1.00  0.00     0.706 A 
HETATM    2  N2  UNL     1     -28.500 -19.010  20.744  1.00  0.00    -0.117 N 
ATOM      3  H2  UNL     1     -28.330 -19.692  21.483  1.00  0.00     0.207 HD
HETATM    4  N3  UNL     1     -29.575 -18.279  20.772  1.00  0.00    -0.212 N 
ATOM      5  H3  UNL     1     -30.226 -18.409  21.547  1.00  0.00     0.209 HD
HETATM    6  N4  UNL     1     -29.879 -17.353  19.832  1.00  0.00    -0.106 N 
HETATM    7  C8  UNL     1     -29.028 -17.194  18.838  1.00  0.00     0.730 A 
HETATM    8  N9  UNL     1     -29.214 -16.327  17.926  1.00  0.00    -0.116 N 
ATOM      9  H9  UNL     1     -30.040 -15.730  17.950  1.00  0.00     0.207 HD
HETATM   10  N12 UNL     1     -27.894 -17.966  18.806  1.00  0.00    -0.018 N 
ATOM     11  H12 UNL     1     -27.235 -17.843  18.036  1.00  0.00     0.203 HD
ENDROOT
BRANCH   6  12
HETATM   12  C2  UNL     1     -31.111 -16.625  19.942  1.00  0.00     0.180 C 
BRANCH  12  13
HETATM   13  C3  UNL     1     -31.945 -16.987  21.137  1.00  0.00     0.105 C 
BRANCH  13  14
HETATM   14  S1  UNL     1     -33.421 -16.041  21.393  1.00  0.00    -0.092 SA
BRANCH  14  15
HETATM   15  C4  UNL     1     -33.268 -14.350  20.817  1.00  0.00     0.146 A 
HETATM   16  N5  UNL     1     -32.328 -13.450  21.123  1.00  0.00    -0.330 N 
HETATM   17  C5  UNL     1     -32.553 -12.267  20.485  1.00  0.00     0.141 A 
ATOM     18  H5  UNL     1     -31.544 -13.627  21.751  1.00  0.00     0.168 HD
HETATM   19  C7  UNL     1     -33.715 -12.478  19.744  1.00  0.00     0.150 A 
HETATM   20  N7  UNL     1     -34.291 -11.468  18.927  1.00  0.00    -0.080 NA
HETATM   21  N8  UNL     1     -34.115 -13.745  19.971  1.00  0.00    -0.323 N 
ATOM     22  H8  UNL     1     -34.940 -14.181  19.559  1.00  0.00     0.169 HD
BRANCH  17  23
HETATM   23  C6  UNL     1     -31.771 -11.053  20.551  1.00  0.00     0.284 C 
HETATM   24  N6  UNL     1     -31.684 -10.332  21.754  1.00  0.00    -0.056 NA
HETATM   25  O1  UNL     1     -31.174 -10.652  19.536  1.00  0.00    -0.269 OA
ENDBRANCH  17  23
ENDBRANCH  14  15
ENDBRANCH  13  14
ENDBRANCH  12  13
ENDBRANCH   6  12
BRANCH   8  26
HETATM   26  N10 UNL     1     -28.288 -16.194  16.894  1.00  0.00    -0.235 N 
ATOM     27  H10 UNL     1     -27.346 -16.564  17.019  1.00  0.00     0.208 HD
BRANCH  26  28
HETATM   28  N11 UNL     1     -28.621 -15.564  15.690  1.00  0.00    -0.330 N 
ATOM     29 2H11 UNL     1     -29.582 -15.639  15.356  1.00  0.00     0.178 HD
ATOM     30 1H11 UNL     1     -27.929 -15.040  15.153  1.00  0.00     0.178 HD
ENDBRANCH  26  28
ENDBRANCH   8  26
BRANCH   1  31
HETATM   31  N1  UNL     1     -26.551 -19.571  19.679  1.00  0.00    -0.233 N 
ATOM     32  H12 UNL     1     -26.593 -20.532  19.341  1.00  0.00     0.174 HD
ATOM     33  H11 UNL     1     -25.639 -19.204  19.949  1.00  0.00     0.174 HD
ENDBRANCH   1  31
TORSDOF 8
ENDMDL
MODEL 2
REMARK VINA RESULT: -7.065047614      1.026      1.033
REMARK  8 active torsions:
REMARK  status: ('A' for Active; 'I' for Inactive)
REMARK    1  A    between atoms: N1_1  and  C1_4 
REMARK    2  A    between atoms: N4_9  and  C2_10 
REMARK    3  A    between atoms: C2_10  and  C3_11 
REMARK    4  A    between atoms: C3_11  and  S1_12 
REMARK    5  A    between atoms: S1_12  and  C4_13 
REMARK    6  A    between atoms: C5_16  and  C6_17 
REMARK    7  A    between atoms: N9_25  and  N10_27 
REMARK    8  A    between atoms: N10_27  and  N11_29 
ROOT
HETATM    1  C1  UNL     1     -26.716 -18.261  19.049  1.00  0.00     0.706 A 
HETATM    2  N2  UNL     1     -27.393 -18.625  20.136  1.00  0.00    -0.117 N 
ATOM      3  H2  UNL     1     -26.948 -19.215  20.838  1.00  0.00     0.207 HD
HETATM    4  N3  UNL     1     -28.621 -18.232  20.304  1.00  0.00    -0.212 N 
ATOM      5  H3  UNL     1     -29.110 -18.529  21.150  1.00  0.00     0.209 HD
HETATM    6  N4  UNL     1     -29.288 -17.451  19.422  1.00  0.00    -0.106 N 
HETATM    7  C8  UNL     1     -28.644 -17.073  18.337  1.00  0.00     0.730 A 
HETATM    8  N9  UNL     1     -29.177 -16.314  17.468  1.00  0.00    -0.116 N 
ATOM      9  H9  UNL     1     -30.131 -15.978  17.600  1.00  0.00     0.207 HD
HETATM   10  N12 UNL     1     -27.348 -17.487  18.157  1.00  0.00    -0.018 N 
ATOM     11  H12 UNL     1     -26.849 -17.196  17.316  1.00  0.00     0.203 HD
ENDROOT
BRANCH   6  12
HETATM   12  C2  UNL     1     -30.655 -17.105  19.691  1.00  0.00     0.180 C 
BRANCH  12  13
HETATM   13  C3  UNL     1     -31.057 -17.226  21.132  1.00  0.00     0.105 C 
BRANCH  13  14
HETATM   14  S1  UNL     1     -32.634 -16.550  21.576  1.00  0.00    -0.092 SA
BRANCH  14  15
HETATM   15  C4  UNL     1     -32.864 -14.876  20.978  1.00  0.00     0.146 A 
HETATM   16  N5  UNL     1     -32.159 -13.782  21.280  1.00  0.00    -0.330 N 
HETATM   17  C5  UNL     1     -32.639 -12.688  20.623  1.00  0.00     0.141 A 
ATOM     18  H5  UNL     1     -31.364 -13.766  21.920  1.00  0.00     0.168 HD
HETATM   19  C7  UNL     1     -33.713 -13.169  19.873  1.00  0.00     0.150 A 
HETATM   20  N7  UNL     1     -34.493 -12.327  19.035  1.00  0.00    -0.080 NA
HETATM   21  N8  UNL     1     -33.815 -14.491  20.114  1.00  0.00    -0.323 N 
ATOM     22  H8  UNL     1     -34.513 -15.108  19.700  1.00  0.00     0.169 HD
BRANCH  17  23
HETATM   23  C6  UNL     1     -32.156 -11.328  20.680  1.00  0.00     0.284 C 
HETATM   24  N6  UNL     1     -30.789 -11.054  20.511  1.00  0.00    -0.056 NA
HETATM   25  O1  UNL     1     -32.961 -10.400  20.880  1.00  0.00    -0.269 OA
ENDBRANCH  17  23
ENDBRANCH  14  15
ENDBRANCH  13  14
ENDBRANCH  12  13
ENDBRANCH   6  12
BRANCH   8  26
HETATM   26  N10 UNL     1     -28.459 -15.940  16.334  1.00  0.00    -0.235 N 
ATOM     27  H10 UNL     1     -27.441 -16.006  16.346  1.00  0.00     0.208 HD
BRANCH  26  28
HETATM   28  N11 UNL     1     -29.101 -15.476  15.181  1.00  0.00    -0.330 N 
ATOM     29 2H11 UNL     1     -28.867 -14.543  14.840  1.00  0.00     0.178 HD
ATOM     30 1H11 UNL     1     -29.788 -16.046  14.687  1.00  0.00     0.178 HD
ENDBRANCH  26  28
ENDBRANCH   8  26
BRANCH   1  31
HETATM   31  N1  UNL     1     -25.507 -18.623  18.837  1.00  0.00    -0.233 N 
ATOM     32  H12 UNL     1     -25.308 -19.359  18.160  1.00  0.00     0.174 HD
ATOM     33  H11 UNL     1     -24.715 -18.203  19.323  1.00  0.00     0.174 HD
ENDBRANCH   1  31
TORSDOF 8
ENDMDL
MODEL 3
REMARK VINA RESULT: -6.961000687      1.474      3.175
REMARK  8 active torsions:
REMARK  status: ('A' for Active; 'I' for Inactive)
REMARK    1  A    between atoms: N1_1  and  C1_4 
REMARK    2  A    between atoms: N4_9  and  C2_10 
REMARK    3  A    between atoms: C2_10  and  C3_11 
REMARK    4  A    between atoms: C3_11  and  S1_12 
REMARK    5  A    between atoms: S1_12  and  C4_13 
REMARK    6  A    between atoms: C5_16  and  C6_17 
REMARK    7  A    between atoms: N9_25  and  N10_27 
REMARK    8  A    between atoms: N10_27  and  N11_29 
ROOT
HETATM    1  C1  UNL     1     -29.509 -17.118  19.137  1.00  0.00     0.706 A 
HETATM    2  N2  UNL     1     -30.590 -16.366  18.940  1.00  0.00    -0.117 N 
ATOM      3  H2  UNL     1     -30.666 -15.795  18.099  1.00  0.00     0.207 HD
HETATM    4  N3  UNL     1     -31.549 -16.358  19.818  1.00  0.00    -0.212 N 
ATOM      5  H3  UNL     1     -32.364 -15.771  19.635  1.00  0.00     0.209 HD
HETATM    6  N4  UNL     1     -31.529 -17.082  20.961  1.00  0.00    -0.106 N 
HETATM    7  C8  UNL     1     -30.471 -17.838  21.183  1.00  0.00     0.730 A 
HETATM    8  N9  UNL     1     -30.377 -18.577  22.213  1.00  0.00    -0.116 N 
ATOM      9  H9  UNL     1     -31.133 -18.598  22.897  1.00  0.00     0.207 HD
HETATM   10  N12 UNL     1     -29.458 -17.848  20.258  1.00  0.00    -0.018 N 
ATOM     11  H12 UNL     1     -28.638 -18.431  20.430  1.00  0.00     0.203 HD
ENDROOT
BRANCH   6  12
HETATM   12  C2  UNL     1     -32.627 -16.970  21.879  1.00  0.00     0.180 C 
BRANCH  12  13
HETATM   13  C3  UNL     1     -33.955 -16.701  21.233  1.00  0.00     0.105 C 
BRANCH  13  14
HETATM   14  S1  UNL     1     -34.778 -15.204  21.702  1.00  0.00    -0.092 SA
BRANCH  14  15
HETATM   15  C4  UNL     1     -34.063 -13.750  20.935  1.00  0.00     0.146 A 
HETATM   16  N5  UNL     1     -33.039 -13.004  21.361  1.00  0.00    -0.330 N 
HETATM   17  C5  UNL     1     -32.787 -11.976  20.502  1.00  0.00     0.141 A 
ATOM     18  H5  UNL     1     -32.514 -13.182  22.218  1.00  0.00     0.168 HD
HETATM   19  C7  UNL     1     -33.734 -12.121  19.488  1.00  0.00     0.150 A 
HETATM   20  N7  UNL     1     -33.807 -11.231  18.383  1.00  0.00    -0.080 NA
HETATM   21  N8  UNL     1     -34.483 -13.201  19.785  1.00  0.00    -0.323 N 
ATOM     22  H8  UNL     1     -35.255 -13.551  19.219  1.00  0.00     0.169 HD
BRANCH  17  23
HETATM   23  C6  UNL     1     -31.771 -10.954  20.606  1.00  0.00     0.284 C 
HETATM   24  N6  UNL     1     -31.539 -10.307  21.831  1.00  0.00    -0.056 NA
HETATM   25  O1  UNL     1     -31.102 -10.652  19.601  1.00  0.00    -0.269 OA
ENDBRANCH  17  23
ENDBRANCH  14  15
ENDBRANCH  13  14
ENDBRANCH  12  13
ENDBRANCH   6  12
BRANCH   8  26
HETATM   26  N10 UNL     1     -29.240 -19.358  22.407  1.00  0.00    -0.235 N 
ATOM     27  H10 UNL     1     -28.722 -19.695  21.595  1.00  0.00     0.208 HD
BRANCH  26  28
HETATM   28  N11 UNL     1     -28.793 -19.692  23.690  1.00  0.00    -0.330 N 
ATOM     29 2H11 UNL     1     -27.987 -20.312  23.774  1.00  0.00     0.178 HD
ATOM     30 1H11 UNL     1     -29.253 -19.331  24.526  1.00  0.00     0.178 HD
ENDBRANCH  26  28
ENDBRANCH   8  26
BRANCH   1  31
HETATM   31  N1  UNL     1     -28.538 -17.159  18.303  1.00  0.00    -0.233 N 
ATOM     32  H12 UNL     1     -28.729 -17.174  17.301  1.00  0.00     0.174 HD
ATOM     33  H11 UNL     1     -27.562 -17.178  18.598  1.00  0.00     0.174 HD
ENDBRANCH   1  31
TORSDOF 8
ENDMDL
MODEL 4
REMARK VINA RESULT: -6.819269651      1.107      2.780
REMARK  8 active torsions:
REMARK  status: ('A' for Active; 'I' for Inactive)
REMARK    1  A    between atoms: N1_1  and  C1_4 
REMARK    2  A    between atoms: N4_9  and  C2_10 
REMARK    3  A    between atoms: C2_10  and  C3_11 
REMARK    4  A    between atoms: C3_11  and  S1_12 
REMARK    5  A    between atoms: S1_12  and  C4_13 
REMARK    6  A    between atoms: C5_16  and  C6_17 
REMARK    7  A    between atoms: N9_25  and  N10_27 
REMARK    8  A    between atoms: N10_27  and  N11_29 
ROOT
HETATM    1  C1  UNL     1     -27.514 -18.653  19.421  1.00  0.00     0.706 A 
HETATM    2  N2  UNL     1     -27.868 -17.602  18.684  1.00  0.00    -0.117 N 
ATOM      3  H2  UNL     1     -27.302 -17.331  17.880  1.00  0.00     0.207 HD
HETATM    4  N3  UNL     1     -28.934 -16.921  18.985  1.00  0.00    -0.212 N 
ATOM      5  H3  UNL     1     -29.176 -16.122  18.397  1.00  0.00     0.209 HD
HETATM    6  N4  UNL     1     -29.740 -17.211  20.033  1.00  0.00    -0.106 N 
HETATM    7  C8  UNL     1     -29.416 -18.247  20.781  1.00  0.00     0.730 A 
HETATM    8  N9  UNL     1     -30.129 -18.614  21.767  1.00  0.00    -0.116 N 
ATOM      9  H9  UNL     1     -30.981 -18.103  21.999  1.00  0.00     0.207 HD
HETATM   10  N12 UNL     1     -28.291 -18.967  20.465  1.00  0.00    -0.018 N 
ATOM     11  H12 UNL     1     -28.038 -19.768  21.045  1.00  0.00     0.203 HD
ENDROOT
BRANCH   6  12
HETATM   12  C2  UNL     1     -30.873 -16.370  20.296  1.00  0.00     0.180 C 
BRANCH  12  13
HETATM   13  C3  UNL     1     -31.960 -17.021  21.100  1.00  0.00     0.105 C 
BRANCH  13  14
HETATM   14  S1  UNL     1     -33.456 -16.094  21.312  1.00  0.00    -0.092 SA
BRANCH  14  15
HETATM   15  C4  UNL     1     -33.300 -14.393  20.768  1.00  0.00     0.146 A 
HETATM   16  N5  UNL     1     -32.369 -13.495  21.105  1.00  0.00    -0.330 N 
HETATM   17  C5  UNL     1     -32.588 -12.302  20.482  1.00  0.00     0.141 A 
ATOM     18  H5  UNL     1     -31.597 -13.678  21.745  1.00  0.00     0.168 HD
HETATM   19  C7  UNL     1     -33.735 -12.506  19.716  1.00  0.00     0.150 A 
HETATM   20  N7  UNL     1     -34.300 -11.485  18.905  1.00  0.00    -0.080 NA
HETATM   21  N8  UNL     1     -34.133 -13.778  19.915  1.00  0.00    -0.323 N 
ATOM     22  H8  UNL     1     -34.948 -14.211  19.481  1.00  0.00     0.169 HD
BRANCH  17  23
HETATM   23  C6  UNL     1     -31.813 -11.086  20.584  1.00  0.00     0.284 C 
HETATM   24  N6  UNL     1     -31.794 -10.357  21.784  1.00  0.00    -0.056 NA
HETATM   25  O1  UNL     1     -31.162 -10.691  19.599  1.00  0.00    -0.269 OA
ENDBRANCH  17  23
ENDBRANCH  14  15
ENDBRANCH  13  14
ENDBRANCH  12  13
ENDBRANCH   6  12
BRANCH   8  26
HETATM   26  N10 UNL     1     -29.747 -19.715  22.531  1.00  0.00    -0.235 N 
ATOM     27  H10 UNL     1     -29.973 -20.653  22.201  1.00  0.00     0.208 HD
BRANCH  26  28
HETATM   28  N11 UNL     1     -29.061 -19.562  23.741  1.00  0.00    -0.330 N 
ATOM     29 2H11 UNL     1     -29.426 -18.895  24.422  1.00  0.00     0.178 HD
ATOM     30 1H11 UNL     1     -28.218 -20.098  23.947  1.00  0.00     0.178 HD
ENDBRANCH  26  28
ENDBRANCH   8  26
BRANCH   1  31
HETATM   31  N1  UNL     1     -26.473 -19.354  19.166  1.00  0.00    -0.233 N 
ATOM     32  H12 UNL     1     -25.608 -18.895  18.883  1.00  0.00     0.174 HD
ATOM     33  H11 UNL     1     -26.468 -20.371  19.232  1.00  0.00     0.174 HD
ENDBRANCH   1  31
TORSDOF 8
ENDMDL
MODEL 5
REMARK VINA RESULT: -6.758864063      0.873      2.516
REMARK  8 active torsions:
REMARK  status: ('A' for Active; 'I' for Inactive)
REMARK    1  A    between atoms: N1_1  and  C1_4 
REMARK    2  A    between atoms: N4_9  and  C2_10 
REMARK    3  A    between atoms: C2_10  and  C3_11 
REMARK    4  A    between atoms: C3_11  and  S1_12 
REMARK    5  A    between atoms: S1_12  and  C4_13 
REMARK    6  A    between atoms: C5_16  and  C6_17 
REMARK    7  A    between atoms: N9_25  and  N10_27 
REMARK    8  A    between atoms: N10_27  and  N11_29 
ROOT
HETATM    1  C1  UNL     1     -29.433 -16.600  17.561  1.00  0.00     0.706 A 
HETATM    2  N2  UNL     1     -30.667 -16.360  18.001  1.00  0.00    -0.117 N 
ATOM      3  H2  UNL     1     -31.334 -15.875  17.401  1.00  0.00     0.207 HD
HETATM    4  N3  UNL     1     -31.023 -16.742  19.191  1.00  0.00    -0.212 N 
ATOM      5  H3  UNL     1     -31.977 -16.542  19.495  1.00  0.00     0.209 HD
HETATM    6  N4  UNL     1     -30.201 -17.389  20.050  1.00  0.00    -0.106 N 
HETATM    7  C8  UNL     1     -28.974 -17.642  19.643  1.00  0.00     0.730 A 
HETATM    8  N9  UNL     1     -28.141 -18.273  20.368  1.00  0.00    -0.116 N 
ATOM      9  H9  UNL     1     -28.415 -18.600  21.294  1.00  0.00     0.207 HD
HETATM   10  N12 UNL     1     -28.595 -17.239  18.387  1.00  0.00    -0.018 N 
ATOM     11  H12 UNL     1     -27.645 -17.434  18.072  1.00  0.00     0.203 HD
ENDROOT
BRANCH   6  12
HETATM   12  C2  UNL     1     -30.688 -17.734  21.356  1.00  0.00     0.180 C 
BRANCH  12  13
HETATM   13  C3  UNL     1     -31.410 -16.625  22.065  1.00  0.00     0.105 C 
BRANCH  13  14
HETATM   14  S1  UNL     1     -32.983 -16.148  21.402  1.00  0.00    -0.092 SA
BRANCH  14  15
HETATM   15  C4  UNL     1     -33.004 -14.452  20.821  1.00  0.00     0.146 A 
HETATM   16  N5  UNL     1     -32.123 -13.478  21.069  1.00  0.00    -0.330 N 
HETATM   17  C5  UNL     1     -32.482 -12.319  20.449  1.00  0.00     0.141 A 
ATOM     18  H5  UNL     1     -31.290 -13.588  21.648  1.00  0.00     0.168 HD
HETATM   19  C7  UNL     1     -33.668 -12.627  19.781  1.00  0.00     0.150 A 
HETATM   20  N7  UNL     1     -34.373 -11.669  19.004  1.00  0.00    -0.080 NA
HETATM   21  N8  UNL     1     -33.948 -13.921  20.030  1.00  0.00    -0.323 N 
ATOM     22  H8  UNL     1     -34.759 -14.423  19.670  1.00  0.00     0.169 HD
BRANCH  17  23
HETATM   23  C6  UNL     1     -31.799 -11.046  20.469  1.00  0.00     0.284 C 
HETATM   24  N6  UNL     1     -31.623 -10.356  21.680  1.00  0.00    -0.056 NA
HETATM   25  O1  UNL     1     -31.367 -10.565  19.406  1.00  0.00    -0.269 OA
ENDBRANCH  17  23
ENDBRANCH  14  15
ENDBRANCH  13  14
ENDBRANCH  12  13
ENDBRANCH   6  12
BRANCH   8  26
HETATM   26  N10 UNL     1     -26.853 -18.517  19.897  1.00  0.00    -0.235 N 
ATOM     27  H10 UNL     1     -26.185 -17.748  19.852  1.00  0.00     0.208 HD
BRANCH  26  28
HETATM   28  N11 UNL     1     -26.456 -19.794  19.484  1.00  0.00    -0.330 N 
ATOM     29 2H11 UNL     1     -27.149 -20.394  19.038  1.00  0.00     0.178 HD
ATOM     30 1H11 UNL     1     -25.500 -20.125  19.621  1.00  0.00     0.178 HD
ENDBRANCH  26  28
ENDBRANCH   8  26
BRANCH   1  31
HETATM   31  N1  UNL     1     -29.034 -16.242  16.398  1.00  0.00    -0.233 N 
ATOM     32  H12 UNL     1     -29.713 -16.086  15.654  1.00  0.00     0.174 HD
ATOM     33  H11 UNL     1     -28.049 -16.105  16.175  1.00  0.00     0.174 HD
ENDBRANCH   1  31
TORSDOF 8
ENDMDL
