MODEL 1
REMARK VINA RESULT: -7.497005871      0.000      0.000
REMARK  9 active torsions:
REMARK  status: ('A' for Active; 'I' for Inactive)
REMARK    1  A    between atoms: N1_1  and  N2_4 
REMARK    2  A    between atoms: N2_4  and  N3_6 
REMARK    3  A    between atoms: N4_8  and  C1_10 
REMARK    4  A    between atoms: C1_10  and  O1_11 
REMARK    5  A    between atoms: C1_10  and  N5_13 
REMARK       I    between atoms: N5_13  and  C2_15 
REMARK       I    between atoms: C2_15  and  N7_20 
REMARK    6  A    between atoms: N6_16  and  O2_18 
REMARK    7  A    between atoms: N7_20  and  N8_22 
REMARK       I    between atoms: N9_24  and  C3_26 
REMARK    8  A    between atoms: C3_26  and  C4_28 
REMARK    9  A    between atoms: C6_32  and  C7_33 
ROOT
HETATM    1  N5  UNL     1      68.832  67.287 279.950  1.00  0.00    -0.177 N 
ATOM      2  H5  UNL     1      68.243  66.493 280.199  1.00  0.00     0.182 HD
HETATM    3  C2  UNL     1      69.389  68.170 280.938  1.00  0.00     0.716 C 
HETATM    4  N6  UNL     1      70.554  67.845 281.385  1.00  0.00    -0.097 N 
ATOM      5  H6  UNL     1      71.010  67.005 281.028  1.00  0.00     0.213 HD
HETATM    6  N7  UNL     1      68.669  69.303 281.357  1.00  0.00    -0.116 N 
ATOM      7  H7  UNL     1      68.046  69.235 282.162  1.00  0.00     0.207 HD
ENDROOT
BRANCH   1   8
HETATM    8  C1  UNL     1      69.169  67.602 278.560  1.00  0.00     0.358 C 
BRANCH   8   9
HETATM    9  N4  UNL     1      68.545  66.641 277.690  1.00  0.00    -0.274 N 
HETATM   10  N3  UNL     1      69.268  66.127 276.777  1.00  0.00    -0.229 N 
ATOM     11  H3  UNL     1      70.248  66.388 276.669  1.00  0.00     0.209 HD
ATOM     12  H4  UNL     1      67.565  66.381 277.801  1.00  0.00     0.186 HD
BRANCH  10  13
HETATM   13  N2  UNL     1      68.675  65.201 275.935  1.00  0.00    -0.235 N 
ATOM     14  H2  UNL     1      67.700  65.311 275.656  1.00  0.00     0.209 HD
BRANCH  13  15
HETATM   15  N1  UNL     1      69.413  64.124 275.474  1.00  0.00    -0.330 N 
ATOM     16  H12 UNL     1      70.426  64.211 275.397  1.00  0.00     0.178 HD
ATOM     17  H11 UNL     1      68.937  63.258 275.219  1.00  0.00     0.178 HD
ENDBRANCH  13  15
ENDBRANCH  10  13
ENDBRANCH   8   9
BRANCH   8  18
HETATM   18  O1  UNL     1      70.531  67.695 278.413  1.00  0.00    -0.358 OA
ATOM     19  H1  UNL     1      70.982  68.057 279.168  1.00  0.00     0.214 HD
ENDBRANCH   8  18
ENDBRANCH   1   8
BRANCH   4  20
HETATM   20  O2  UNL     1      71.187  68.600 282.323  1.00  0.00    -0.276 OA
ATOM     21  H2  UNL     1      71.865  68.233 282.877  1.00  0.00     0.245 HD
ENDBRANCH   4  20
BRANCH   6  22
HETATM   22  N8  UNL     1      68.797  70.515 280.690  1.00  0.00    -0.226 N 
HETATM   23  N9  UNL     1      67.895  71.111 280.069  1.00  0.00    -0.249 N 
HETATM   24  C3  UNL     1      66.558  70.667 279.922  1.00  0.00     0.289 C 
ATOM     25  H9  UNL     1      68.141  71.996 279.627  1.00  0.00     0.192 HD
HETATM   26  O3  UNL     1      66.040  69.930 280.797  1.00  0.00    -0.264 OA
ATOM     27  H8  UNL     1      69.715  70.960 280.710  1.00  0.00     0.209 HD
BRANCH  24  28
HETATM   28  C4  UNL     1      65.807  71.082 278.745  1.00  0.00     0.119 A 
HETATM   29  C5  UNL     1      64.488  71.503 278.762  1.00  0.00     0.125 A 
HETATM   30  N10 UNL     1      64.174  71.793 277.487  1.00  0.00    -0.346 N 
HETATM   31  C6  UNL     1      65.244  71.573 276.669  1.00  0.00     0.172 A 
ATOM     32  H10 UNL     1      63.263  72.130 277.174  1.00  0.00     0.167 HD
HETATM   33  N12 UNL     1      66.241  71.133 277.476  1.00  0.00    -0.333 N 
ATOM     34  H12 UNL     1      67.179  70.878 277.165  1.00  0.00     0.168 HD
BRANCH  31  35
HETATM   35  C7  UNL     1      65.271  71.777 275.235  1.00  0.00     0.298 C 
HETATM   36  N11 UNL     1      65.653  70.729 274.385  1.00  0.00    -0.054 NA
HETATM   37  O4  UNL     1      64.951  72.889 274.768  1.00  0.00    -0.268 OA
ENDBRANCH  31  35
ENDBRANCH  24  28
ENDBRANCH   6  22
TORSDOF 9
ENDMDL
MODEL 2
REMARK VINA RESULT: -7.260175810      1.557      1.961
REMARK  9 active torsions:
REMARK  status: ('A' for Active; 'I' for Inactive)
REMARK    1  A    between atoms: N1_1  and  N2_4 
REMARK    2  A    between atoms: N2_4  and  N3_6 
REMARK    3  A    between atoms: N4_8  and  C1_10 
REMARK    4  A    between atoms: C1_10  and  O1_11 
REMARK    5  A    between atoms: C1_10  and  N5_13 
REMARK       I    between atoms: N5_13  and  C2_15 
REMARK       I    between atoms: C2_15  and  N7_20 
REMARK    6  A    between atoms: N6_16  and  O2_18 
REMARK    7  A    between atoms: N7_20  and  N8_22 
REMARK       I    between atoms: N9_24  and  C3_26 
REMARK    8  A    between atoms: C3_26  and  C4_28 
REMARK    9  A    between atoms: C6_32  and  C7_33 
ROOT
HETATM    1  N5  UNL     1      69.696  67.886 281.657  1.00  0.00    -0.177 N 
ATOM      2  H5  UNL     1      69.313  66.954 281.815  1.00  0.00     0.182 HD
HETATM    3  C2  UNL     1      69.175  69.052 282.316  1.00  0.00     0.716 C 
HETATM    4  N6  UNL     1      69.732  69.355 283.438  1.00  0.00    -0.097 N 
ATOM      5  H6  UNL     1      70.490  68.773 283.793  1.00  0.00     0.213 HD
HETATM    6  N7  UNL     1      68.123  69.782 281.732  1.00  0.00    -0.116 N 
ATOM      7  H7  UNL     1      67.158  69.551 281.967  1.00  0.00     0.207 HD
ENDROOT
BRANCH   1   8
HETATM    8  C1  UNL     1      70.814  68.125 280.742  1.00  0.00     0.358 C 
BRANCH   8   9
HETATM    9  N4  UNL     1      70.557  67.458 279.493  1.00  0.00    -0.274 N 
HETATM   10  N3  UNL     1      69.347  67.404 279.100  1.00  0.00    -0.229 N 
ATOM     11  H3  UNL     1      68.594  67.817 279.651  1.00  0.00     0.209 HD
ATOM     12  H4  UNL     1      71.312  67.047 278.945  1.00  0.00     0.186 HD
BRANCH  10  13
HETATM   13  N2  UNL     1      69.091  66.764 277.899  1.00  0.00    -0.235 N 
ATOM     14  H2  UNL     1      69.790  66.768 277.156  1.00  0.00     0.209 HD
BRANCH  13  15
HETATM   15  N1  UNL     1      67.880  66.120 277.712  1.00  0.00    -0.330 N 
ATOM     16  H12 UNL     1      67.331  65.843 278.527  1.00  0.00     0.178 HD
ATOM     17  H11 UNL     1      67.551  65.929 276.766  1.00  0.00     0.178 HD
ENDBRANCH  13  15
ENDBRANCH  10  13
ENDBRANCH   8   9
BRANCH   8  18
HETATM   18  O1  UNL     1      71.998  67.766 281.339  1.00  0.00    -0.358 OA
ATOM     19  H1  UNL     1      72.518  68.500 281.647  1.00  0.00     0.214 HD
ENDBRANCH   8  18
ENDBRANCH   1   8
BRANCH   4  20
HETATM   20  O2  UNL     1      69.328  70.437 284.158  1.00  0.00    -0.276 OA
ATOM     21  H2  UNL     1      69.760  70.680 284.969  1.00  0.00     0.245 HD
ENDBRANCH   4  20
BRANCH   6  22
HETATM   22  N8  UNL     1      68.383  70.815 280.841  1.00  0.00    -0.226 N 
HETATM   23  N9  UNL     1      67.558  71.345 280.069  1.00  0.00    -0.249 N 
HETATM   24  C3  UNL     1      66.191  70.995 279.951  1.00  0.00     0.289 C 
ATOM     25  H9  UNL     1      67.899  72.096 279.470  1.00  0.00     0.192 HD
HETATM   26  O3  UNL     1      65.582  70.500 280.932  1.00  0.00    -0.264 OA
ATOM     27  H8  UNL     1      69.337  71.175 280.814  1.00  0.00     0.209 HD
BRANCH  24  28
HETATM   28  C4  UNL     1      65.517  71.221 278.680  1.00  0.00     0.119 A 
HETATM   29  C5  UNL     1      64.165  71.486 278.542  1.00  0.00     0.125 A 
HETATM   30  N10 UNL     1      63.947  71.631 277.224  1.00  0.00    -0.346 N 
HETATM   31  C6  UNL     1      65.108  71.469 276.526  1.00  0.00     0.172 A 
ATOM     32  H10 UNL     1      63.039  71.833 276.803  1.00  0.00     0.167 HD
HETATM   33  N12 UNL     1      66.064  71.216 277.454  1.00  0.00    -0.333 N 
ATOM     34  H12 UNL     1      67.050  71.047 277.251  1.00  0.00     0.168 HD
BRANCH  31  35
HETATM   35  C7  UNL     1      65.251  71.555 275.087  1.00  0.00     0.298 C 
HETATM   36  N11 UNL     1      64.865  72.723 274.413  1.00  0.00    -0.054 NA
HETATM   37  O4  UNL     1      65.718  70.584 274.458  1.00  0.00    -0.268 OA
ENDBRANCH  31  35
ENDBRANCH  24  28
ENDBRANCH   6  22
TORSDOF 9
ENDMDL
MODEL 3
REMARK VINA RESULT: -6.610802465      3.047      6.649
REMARK  9 active torsions:
REMARK  status: ('A' for Active; 'I' for Inactive)
REMARK    1  A    between atoms: N1_1  and  N2_4 
REMARK    2  A    between atoms: N2_4  and  N3_6 
REMARK    3  A    between atoms: N4_8  and  C1_10 
REMARK    4  A    between atoms: C1_10  and  O1_11 
REMARK    5  A    between atoms: C1_10  and  N5_13 
REMARK       I    between atoms: N5_13  and  C2_15 
REMARK       I    between atoms: C2_15  and  N7_20 
REMARK    6  A    between atoms: N6_16  and  O2_18 
REMARK    7  A    between atoms: N7_20  and  N8_22 
REMARK       I    between atoms: N9_24  and  C3_26 
REMARK    8  A    between atoms: C3_26  and  C4_28 
REMARK    9  A    between atoms: C6_32  and  C7_33 
ROOT
HETATM    1  N5  UNL     1      68.000  70.355 279.979  1.00  0.00    -0.177 N 
ATOM      2  H5  UNL     1      68.516  71.190 279.702  1.00  0.00     0.182 HD
HETATM    3  C2  UNL     1      68.646  69.088 280.188  1.00  0.00     0.716 C 
HETATM    4  N6  UNL     1      69.049  68.858 281.391  1.00  0.00    -0.097 N 
ATOM      5  H6  UNL     1      68.896  69.562 282.113  1.00  0.00     0.213 HD
HETATM    6  N7  UNL     1      68.804  68.191 279.117  1.00  0.00    -0.116 N 
ATOM      7  H7  UNL     1      69.653  68.225 278.552  1.00  0.00     0.207 HD
ENDROOT
BRANCH   1   8
HETATM    8  C1  UNL     1      66.551  70.368 280.191  1.00  0.00     0.358 C 
BRANCH   8   9
HETATM    9  N4  UNL     1      65.924  71.131 279.145  1.00  0.00    -0.274 N 
HETATM   10  N3  UNL     1      64.756  71.582 279.373  1.00  0.00    -0.229 N 
ATOM     11  H3  UNL     1      64.287  71.407 280.262  1.00  0.00     0.209 HD
ATOM     12  H4  UNL     1      66.397  71.304 278.258  1.00  0.00     0.186 HD
BRANCH  10  13
HETATM   13  N2  UNL     1      64.146  72.317 278.371  1.00  0.00    -0.235 N 
ATOM     14  H2  UNL     1      63.294  72.844 278.567  1.00  0.00     0.209 HD
BRANCH  13  15
HETATM   15  N1  UNL     1      64.697  72.333 277.101  1.00  0.00    -0.330 N 
ATOM     16  H12 UNL     1      65.653  72.665 276.977  1.00  0.00     0.178 HD
ATOM     17  H11 UNL     1      64.142  72.013 276.307  1.00  0.00     0.178 HD
ENDBRANCH  13  15
ENDBRANCH  10  13
ENDBRANCH   8   9
BRANCH   8  18
HETATM   18  O1  UNL     1      66.263  70.807 281.460  1.00  0.00    -0.358 OA
ATOM     19  H1  UNL     1      66.855  70.483 282.130  1.00  0.00     0.214 HD
ENDBRANCH   8  18
ENDBRANCH   1   8
BRANCH   4  20
HETATM   20  O2  UNL     1      69.675  67.695 281.717  1.00  0.00    -0.276 OA
ATOM     21  H2  UNL     1      69.310  67.102 282.363  1.00  0.00     0.245 HD
ENDBRANCH   4  20
BRANCH   6  22
HETATM   22  N8  UNL     1      67.819  67.259 278.817  1.00  0.00    -0.226 N 
HETATM   23  N9  UNL     1      67.951  66.260 278.082  1.00  0.00    -0.249 N 
HETATM   24  C3  UNL     1      69.137  65.880 277.407  1.00  0.00     0.289 C 
ATOM     25  H9  UNL     1      67.134  65.665 277.956  1.00  0.00     0.192 HD
HETATM   26  O3  UNL     1      70.257  66.201 277.874  1.00  0.00    -0.264 OA
ATOM     27  H8  UNL     1      66.901  67.404 279.238  1.00  0.00     0.209 HD
BRANCH  24  28
HETATM   28  C4  UNL     1      69.024  65.116 276.172  1.00  0.00     0.119 A 
HETATM   29  C5  UNL     1      69.724  63.951 275.901  1.00  0.00     0.125 A 
HETATM   30  N10 UNL     1      69.340  63.565 274.672  1.00  0.00    -0.346 N 
HETATM   31  C6  UNL     1      68.427  64.439 274.159  1.00  0.00     0.172 A 
ATOM     32  H10 UNL     1      69.685  62.734 274.190  1.00  0.00     0.167 HD
HETATM   33  N12 UNL     1      68.250  65.390 275.110  1.00  0.00    -0.333 N 
ATOM     34  H12 UNL     1      67.625  66.191 275.030  1.00  0.00     0.168 HD
BRANCH  31  35
HETATM   35  C7  UNL     1      67.796  64.339 272.858  1.00  0.00     0.298 C 
HETATM   36  N11 UNL     1      68.518  64.670 271.703  1.00  0.00    -0.054 NA
HETATM   37  O4  UNL     1      66.610  63.958 272.779  1.00  0.00    -0.268 OA
ENDBRANCH  31  35
ENDBRANCH  24  28
ENDBRANCH   6  22
TORSDOF 9
ENDMDL
MODEL 4
REMARK VINA RESULT: -6.578873062      3.088      6.609
REMARK  9 active torsions:
REMARK  status: ('A' for Active; 'I' for Inactive)
REMARK    1  A    between atoms: N1_1  and  N2_4 
REMARK    2  A    between atoms: N2_4  and  N3_6 
REMARK    3  A    between atoms: N4_8  and  C1_10 
REMARK    4  A    between atoms: C1_10  and  O1_11 
REMARK    5  A    between atoms: C1_10  and  N5_13 
REMARK       I    between atoms: N5_13  and  C2_15 
REMARK       I    between atoms: C2_15  and  N7_20 
REMARK    6  A    between atoms: N6_16  and  O2_18 
REMARK    7  A    between atoms: N7_20  and  N8_22 
REMARK       I    between atoms: N9_24  and  C3_26 
REMARK    8  A    between atoms: C3_26  and  C4_28 
REMARK    9  A    between atoms: C6_32  and  C7_33 
ROOT
HETATM    1  N5  UNL     1      67.178  71.219 278.976  1.00  0.00    -0.177 N 
ATOM      2  H5  UNL     1      67.663  71.973 278.490  1.00  0.00     0.182 HD
HETATM    3  C2  UNL     1      67.832  70.388 279.950  1.00  0.00     0.716 C 
HETATM    4  N6  UNL     1      67.764  70.798 281.170  1.00  0.00    -0.097 N 
ATOM      5  H6  UNL     1      67.267  71.663 281.380  1.00  0.00     0.213 HD
HETATM    6  N7  UNL     1      68.489  69.212 279.546  1.00  0.00    -0.116 N 
ATOM      7  H7  UNL     1      69.480  69.245 279.307  1.00  0.00     0.207 HD
ENDROOT
BRANCH   1   8
HETATM    8  C1  UNL     1      65.768  70.913 278.729  1.00  0.00     0.358 C 
BRANCH   8   9
HETATM    9  N4  UNL     1      65.017  71.120 279.939  1.00  0.00    -0.274 N 
HETATM   10  N3  UNL     1      64.460  70.101 280.461  1.00  0.00    -0.229 N 
ATOM     11  H3  UNL     1      64.545  69.178 280.036  1.00  0.00     0.209 HD
ATOM     12  H4  UNL     1      64.935  72.045 280.362  1.00  0.00     0.186 HD
BRANCH  10  13
HETATM   13  N2  UNL     1      63.736  70.292 281.625  1.00  0.00    -0.235 N 
ATOM     14  H2  UNL     1      63.678  71.219 282.048  1.00  0.00     0.209 HD
BRANCH  13  15
HETATM   15  N1  UNL     1      63.090  69.218 282.213  1.00  0.00    -0.330 N 
ATOM     16  H12 UNL     1      62.421  68.678 281.664  1.00  0.00     0.178 HD
ATOM     17  H11 UNL     1      63.289  68.980 283.185  1.00  0.00     0.178 HD
ENDBRANCH  13  15
ENDBRANCH  10  13
ENDBRANCH   8   9
BRANCH   8  18
HETATM   18  O1  UNL     1      65.644  69.653 278.197  1.00  0.00    -0.358 OA
ATOM     19  H1  UNL     1      66.439  69.316 277.803  1.00  0.00     0.214 HD
ENDBRANCH   8  18
ENDBRANCH   1   8
BRANCH   4  20
HETATM   20  O2  UNL     1      68.343  70.099 282.184  1.00  0.00    -0.276 OA
ATOM     21  H2  UNL     1      69.259  70.216 282.404  1.00  0.00     0.245 HD
ENDBRANCH   4  20
BRANCH   6  22
HETATM   22  N8  UNL     1      67.806  68.005 279.469  1.00  0.00    -0.226 N 
HETATM   23  N9  UNL     1      68.179  66.988 278.851  1.00  0.00    -0.249 N 
HETATM   24  C3  UNL     1      69.375  66.865 278.104  1.00  0.00     0.289 C 
ATOM     25  H9  UNL     1      67.567  66.173 278.886  1.00  0.00     0.192 HD
HETATM   26  O3  UNL     1      70.379  67.555 278.406  1.00  0.00    -0.264 OA
ATOM     27  H8  UNL     1      66.916  67.944 279.964  1.00  0.00     0.209 HD
BRANCH  24  28
HETATM   28  C4  UNL     1      69.412  65.927 276.989  1.00  0.00     0.119 A 
HETATM   29  C5  UNL     1      70.510  65.155 276.647  1.00  0.00     0.125 A 
HETATM   30  N10 UNL     1      70.137  64.434 275.575  1.00  0.00    -0.346 N 
HETATM   31  C6  UNL     1      68.849  64.721 275.230  1.00  0.00     0.172 A 
ATOM     32  H10 UNL     1      70.734  63.766 275.087  1.00  0.00     0.167 HD
HETATM   33  N12 UNL     1      68.425  65.649 276.124  1.00  0.00    -0.333 N 
ATOM     34  H12 UNL     1      67.496  66.072 276.135  1.00  0.00     0.168 HD
BRANCH  31  35
HETATM   35  C7  UNL     1      68.116  64.134 274.126  1.00  0.00     0.298 C 
HETATM   36  N11 UNL     1      68.519  64.385 272.806  1.00  0.00    -0.054 NA
HETATM   37  O4  UNL     1      67.129  63.408 274.362  1.00  0.00    -0.268 OA
ENDBRANCH  31  35
ENDBRANCH  24  28
ENDBRANCH   6  22
TORSDOF 9
ENDMDL
MODEL 5
REMARK VINA RESULT: -6.529698909      2.500      6.495
REMARK  9 active torsions:
REMARK  status: ('A' for Active; 'I' for Inactive)
REMARK    1  A    between atoms: N1_1  and  N2_4 
REMARK    2  A    between atoms: N2_4  and  N3_6 
REMARK    3  A    between atoms: N4_8  and  C1_10 
REMARK    4  A    between atoms: C1_10  and  O1_11 
REMARK    5  A    between atoms: C1_10  and  N5_13 
REMARK       I    between atoms: N5_13  and  C2_15 
REMARK       I    between atoms: C2_15  and  N7_20 
REMARK    6  A    between atoms: N6_16  and  O2_18 
REMARK    7  A    between atoms: N7_20  and  N8_22 
REMARK       I    between atoms: N9_24  and  C3_26 
REMARK    8  A    between atoms: C3_26  and  C4_28 
REMARK    9  A    between atoms: C6_32  and  C7_33 
ROOT
HETATM    1  N5  UNL     1      66.866  71.210 279.004  1.00  0.00    -0.177 N 
ATOM      2  H5  UNL     1      67.279  71.988 278.490  1.00  0.00     0.182 HD
HETATM    3  C2  UNL     1      67.619  70.429 279.947  1.00  0.00     0.716 C 
HETATM    4  N6  UNL     1      67.586  70.844 281.168  1.00  0.00    -0.097 N 
ATOM      5  H6  UNL     1      67.045  71.678 281.398  1.00  0.00     0.213 HD
HETATM    6  N7  UNL     1      68.329  69.294 279.517  1.00  0.00    -0.116 N 
ATOM      7  H7  UNL     1      69.303  69.388 279.230  1.00  0.00     0.207 HD
ENDROOT
BRANCH   1   8
HETATM    8  C1  UNL     1      65.468  70.813 278.828  1.00  0.00     0.358 C 
BRANCH   8   9
HETATM    9  N4  UNL     1      64.969  71.363 277.596  1.00  0.00    -0.274 N 
HETATM   10  N3  UNL     1      65.824  71.650 276.698  1.00  0.00    -0.229 N 
ATOM     11  H3  UNL     1      66.821  71.496 276.848  1.00  0.00     0.209 HD
ATOM     12  H4  UNL     1      63.971  71.516 277.448  1.00  0.00     0.186 HD
BRANCH  10  13
HETATM   13  N2  UNL     1      65.351  72.181 275.509  1.00  0.00    -0.235 N 
ATOM     14  H2  UNL     1      65.334  73.191 275.369  1.00  0.00     0.209 HD
BRANCH  13  15
HETATM   15  N1  UNL     1      64.902  71.332 274.512  1.00  0.00    -0.330 N 
ATOM     16  H12 UNL     1      65.207  71.486 273.551  1.00  0.00     0.178 HD
ATOM     17  H11 UNL     1      64.272  70.564 274.748  1.00  0.00     0.178 HD
ENDBRANCH  13  15
ENDBRANCH  10  13
ENDBRANCH   8   9
BRANCH   8  18
HETATM   18  O1  UNL     1      64.736  71.159 279.938  1.00  0.00    -0.358 OA
ATOM     19  H1  UNL     1      65.261  71.422 280.685  1.00  0.00     0.214 HD
ENDBRANCH   8  18
ENDBRANCH   1   8
BRANCH   4  20
HETATM   20  O2  UNL     1      68.256  70.191 282.155  1.00  0.00    -0.276 OA
ATOM     21  H2  UNL     1      68.182  69.250 282.263  1.00  0.00     0.245 HD
ENDBRANCH   4  20
BRANCH   6  22
HETATM   22  N8  UNL     1      67.721  68.045 279.480  1.00  0.00    -0.226 N 
HETATM   23  N9  UNL     1      68.165  67.029 278.910  1.00  0.00    -0.249 N 
HETATM   24  C3  UNL     1      69.380  66.948 278.187  1.00  0.00     0.289 C 
ATOM     25  H9  UNL     1      67.603  66.181 278.970  1.00  0.00     0.192 HD
HETATM   26  O3  UNL     1      70.335  67.711 278.475  1.00  0.00    -0.264 OA
ATOM     27  H8  UNL     1      66.828  67.951 279.964  1.00  0.00     0.209 HD
BRANCH  24  28
HETATM   28  C4  UNL     1      69.492  65.970 277.113  1.00  0.00     0.119 A 
HETATM   29  C5  UNL     1      70.666  65.332 276.750  1.00  0.00     0.125 A 
HETATM   30  N10 UNL     1      70.347  64.518 275.730  1.00  0.00    -0.346 N 
HETATM   31  C6  UNL     1      69.018  64.617 275.436  1.00  0.00     0.172 A 
ATOM     32  H10 UNL     1      71.005  63.910 275.242  1.00  0.00     0.167 HD
HETATM   33  N12 UNL     1      68.514  65.525 276.309  1.00  0.00    -0.333 N 
ATOM     34  H12 UNL     1      67.539  65.824 276.348  1.00  0.00     0.168 HD
BRANCH  31  35
HETATM   35  C7  UNL     1      68.322  63.888 274.395  1.00  0.00     0.298 C 
HETATM   36  N11 UNL     1      68.455  62.494 274.309  1.00  0.00    -0.054 NA
HETATM   37  O4  UNL     1      67.609  64.509 273.582  1.00  0.00    -0.268 OA
ENDBRANCH  31  35
ENDBRANCH  24  28
ENDBRANCH   6  22
TORSDOF 9
ENDMDL
