MODEL 1
REMARK VINA RESULT: -5.518471725      0.000      0.000
REMARK  9 active torsions:
REMARK  status: ('A' for Active; 'I' for Inactive)
REMARK    1  A    between atoms: N4_11  and  C5_12 
REMARK    2  A    between atoms: C5_12  and  C6_13 
REMARK    3  A    between atoms: C6_13  and  C7_14 
REMARK    4  A    between atoms: C7_14  and  N5_15 
REMARK    5  A    between atoms: N5_15  and  N6_17 
REMARK    6  A    between atoms: C8_20  and  N8_21 
REMARK    7  A    between atoms: C9_26  and  N10_27 
REMARK    8  A    between atoms: N10_27  and  N11_29 
REMARK    9  A    between atoms: C11_33  and  N12_34 
ROOT
HETATM    1  C6  UNL     1      67.506  70.456 281.176  1.00  0.00     0.041 C 
ENDROOT
BRANCH   1   2
HETATM    2  C5  UNL     1      67.680  68.976 280.931  1.00  0.00     0.136 C 
BRANCH   2   3
HETATM    3  N4  UNL     1      69.076  68.590 281.085  1.00  0.00    -0.293 N 
HETATM    4  C4  UNL     1      69.788  68.888 282.219  1.00  0.00     0.328 A 
HETATM    5  N3  UNL     1      71.012  68.393 282.024  1.00  0.00    -0.292 N 
HETATM    6  O1  UNL     1      69.321  69.503 283.200  1.00  0.00    -0.246 OA
HETATM    7  C3  UNL     1      71.091  67.801 280.820  1.00  0.00     0.141 A 
ATOM      8  H3  UNL     1      71.779  68.454 282.694  1.00  0.00     0.172 HD
HETATM    9  N2  UNL     1      72.066  67.166 280.157  1.00  0.00    -0.336 N 
HETATM   10  C10 UNL     1      69.833  67.933 280.218  1.00  0.00     0.127 A 
HETATM   11  C2  UNL     1      71.860  66.657 278.930  1.00  0.00     0.185 A 
ATOM     12  H2  UNL     1      72.983  67.068 280.591  1.00  0.00     0.168 HD
HETATM   13  N1  UNL     1      70.669  66.766 278.325  1.00  0.00    -0.332 N 
HETATM   14  C1  UNL     1      70.397  66.234 277.005  1.00  0.00     0.158 C 
HETATM   15  C11 UNL     1      69.643  67.400 278.952  1.00  0.00     0.133 A 
BRANCH  15  16
HETATM   16  N12 UNL     1      68.494  67.513 278.394  1.00  0.00    -0.383 N 
ATOM     17 2H12 UNL     1      68.422  67.410 277.382  1.00  0.00     0.157 HD
ATOM     18 1H12 UNL     1      67.657  67.705 278.945  1.00  0.00     0.157 HD
ENDBRANCH  15  16
ENDBRANCH   2   3
ENDBRANCH   1   2
BRANCH   1  19
HETATM   19  C7  UNL     1      67.493  71.218 279.880  1.00  0.00     0.143 C 
BRANCH  19  20
HETATM   20  N5  UNL     1      66.819  70.443 278.850  1.00  0.00    -0.300 N 
ATOM     21  H5  UNL     1      66.964  69.434 278.797  1.00  0.00     0.182 HD
BRANCH  20  22
HETATM   22  N6  UNL     1      65.975  71.072 277.932  1.00  0.00    -0.008 N 
HETATM   23  N7  UNL     1      66.258  71.219 276.644  1.00  0.00    -0.096 N 
HETATM   24  C8  UNL     1      65.251  71.861 276.038  1.00  0.00     0.707 A 
ATOM     25  H7  UNL     1      67.110  70.894 276.187  1.00  0.00     0.208 HD
HETATM   26  N9  UNL     1      64.337  72.106 276.989  1.00  0.00    -0.017 N 
HETATM   27  C9  UNL     1      64.791  71.610 278.183  1.00  0.00     0.747 A 
ATOM     28  H9  UNL     1      63.448  72.584 276.846  1.00  0.00     0.203 HD
BRANCH  24  29
HETATM   29  N8  UNL     1      65.126  72.205 274.785  1.00  0.00    -0.233 N 
ATOM     30  H82 UNL     1      65.624  71.764 274.012  1.00  0.00     0.174 HD
ATOM     31  H81 UNL     1      64.545  72.933 274.371  1.00  0.00     0.174 HD
ENDBRANCH  24  29
BRANCH  27  32
HETATM   32  N10 UNL     1      64.094  71.724 279.234  1.00  0.00    -0.135 N 
ATOM     33  H10 UNL     1      63.654  72.635 279.370  1.00  0.00     0.205 HD
BRANCH  32  34
HETATM   34  N11 UNL     1      63.846  70.796 280.216  1.00  0.00    -0.331 N 
ATOM     35 2H11 UNL     1      64.481  69.997 280.207  1.00  0.00     0.177 HD
ATOM     36 1H11 UNL     1      63.126  70.799 280.939  1.00  0.00     0.177 HD
ENDBRANCH  32  34
ENDBRANCH  27  32
ENDBRANCH  20  22
ENDBRANCH  19  20
ENDBRANCH   1  19
TORSDOF 9
ENDMDL
MODEL 2
REMARK VINA RESULT: -5.380626995      1.102      1.481
REMARK  9 active torsions:
REMARK  status: ('A' for Active; 'I' for Inactive)
REMARK    1  A    between atoms: N4_11  and  C5_12 
REMARK    2  A    between atoms: C5_12  and  C6_13 
REMARK    3  A    between atoms: C6_13  and  C7_14 
REMARK    4  A    between atoms: C7_14  and  N5_15 
REMARK    5  A    between atoms: N5_15  and  N6_17 
REMARK    6  A    between atoms: C8_20  and  N8_21 
REMARK    7  A    between atoms: C9_26  and  N10_27 
REMARK    8  A    between atoms: N10_27  and  N11_29 
REMARK    9  A    between atoms: C11_33  and  N12_34 
ROOT
HETATM    1  C6  UNL     1      68.637  69.930 280.426  1.00  0.00     0.041 C 
ENDROOT
BRANCH   1   2
HETATM    2  C5  UNL     1      68.686  68.457 280.754  1.00  0.00     0.136 C 
BRANCH   2   3
HETATM    3  N4  UNL     1      69.909  67.855 280.241  1.00  0.00    -0.293 N 
HETATM    4  C4  UNL     1      71.107  67.980 280.899  1.00  0.00     0.328 A 
HETATM    5  N3  UNL     1      72.000  67.316 280.162  1.00  0.00    -0.292 N 
HETATM    6  O1  UNL     1      71.258  68.605 281.969  1.00  0.00    -0.246 OA
HETATM    7  C3  UNL     1      71.409  66.785 279.078  1.00  0.00     0.141 A 
ATOM      8  H3  UNL     1      72.990  67.224 280.391  1.00  0.00     0.172 HD
HETATM    9  N2  UNL     1      71.845  66.046 278.049  1.00  0.00    -0.336 N 
HETATM   10  C10 UNL     1      70.056  67.139 279.136  1.00  0.00     0.127 A 
HETATM   11  C2  UNL     1      71.010  65.641 277.077  1.00  0.00     0.185 A 
ATOM     12  H2  UNL     1      72.830  65.786 278.002  1.00  0.00     0.168 HD
HETATM   13  N1  UNL     1      69.708  65.963 277.102  1.00  0.00    -0.332 N 
HETATM   14  C1  UNL     1      68.769  65.551 276.079  1.00  0.00     0.158 C 
HETATM   15  C11 UNL     1      69.213  66.710 278.122  1.00  0.00     0.133 A 
BRANCH  15  16
HETATM   16  N12 UNL     1      67.970  67.027 278.169  1.00  0.00    -0.383 N 
ATOM     17 2H12 UNL     1      67.546  67.237 279.073  1.00  0.00     0.157 HD
ATOM     18 1H12 UNL     1      67.405  67.071 277.321  1.00  0.00     0.157 HD
ENDBRANCH  15  16
ENDBRANCH   2   3
ENDBRANCH   1   2
BRANCH   1  19
HETATM   19  C7  UNL     1      67.226  70.447 280.475  1.00  0.00     0.143 C 
BRANCH  19  20
HETATM   20  N5  UNL     1      66.449  69.885 279.381  1.00  0.00    -0.300 N 
ATOM     21  H5  UNL     1      66.408  68.873 279.254  1.00  0.00     0.182 HD
BRANCH  20  22
HETATM   22  N6  UNL     1      65.758  70.724 278.503  1.00  0.00    -0.008 N 
HETATM   23  N7  UNL     1      66.176  71.021 277.279  1.00  0.00    -0.096 N 
HETATM   24  C8  UNL     1      65.295  71.844 276.697  1.00  0.00     0.707 A 
ATOM     25  H7  UNL     1      67.034  70.676 276.849  1.00  0.00     0.208 HD
HETATM   26  N9  UNL     1      64.321  72.047 277.597  1.00  0.00    -0.017 N 
HETATM   27  C9  UNL     1      64.610  71.342 278.735  1.00  0.00     0.747 A 
ATOM     28  H9  UNL     1      63.497  72.632 277.456  1.00  0.00     0.203 HD
BRANCH  24  29
HETATM   29  N8  UNL     1      65.323  72.374 275.504  1.00  0.00    -0.233 N 
ATOM     30  H82 UNL     1      64.755  72.059 274.718  1.00  0.00     0.174 HD
ATOM     31  H81 UNL     1      65.883  73.152 275.157  1.00  0.00     0.174 HD
ENDBRANCH  24  29
BRANCH  27  32
HETATM   32  N10 UNL     1      63.829  71.379 279.731  1.00  0.00    -0.135 N 
ATOM     33  H10 UNL     1      63.256  72.220 279.807  1.00  0.00     0.205 HD
BRANCH  32  34
HETATM   34  N11 UNL     1      63.644  70.447 280.724  1.00  0.00    -0.331 N 
ATOM     35 2H11 UNL     1      63.609  69.482 280.392  1.00  0.00     0.177 HD
ATOM     36 1H11 UNL     1      63.540  70.588 281.729  1.00  0.00     0.177 HD
ENDBRANCH  32  34
ENDBRANCH  27  32
ENDBRANCH  20  22
ENDBRANCH  19  20
ENDBRANCH   1  19
TORSDOF 9
ENDMDL
MODEL 3
REMARK VINA RESULT: -5.272354848      8.478     11.915
REMARK  9 active torsions:
REMARK  status: ('A' for Active; 'I' for Inactive)
REMARK    1  A    between atoms: N4_11  and  C5_12 
REMARK    2  A    between atoms: C5_12  and  C6_13 
REMARK    3  A    between atoms: C6_13  and  C7_14 
REMARK    4  A    between atoms: C7_14  and  N5_15 
REMARK    5  A    between atoms: N5_15  and  N6_17 
REMARK    6  A    between atoms: C8_20  and  N8_21 
REMARK    7  A    between atoms: C9_26  and  N10_27 
REMARK    8  A    between atoms: N10_27  and  N11_29 
REMARK    9  A    between atoms: C11_33  and  N12_34 
ROOT
HETATM    1  C6  UNL     1      65.639  61.342 272.410  1.00  0.00     0.041 C 
ENDROOT
BRANCH   1   2
HETATM    2  C5  UNL     1      65.982  61.427 270.942  1.00  0.00     0.136 C 
BRANCH   2   3
HETATM    3  N4  UNL     1      65.847  62.795 270.460  1.00  0.00    -0.293 N 
HETATM    4  C4  UNL     1      66.892  63.683 270.503  1.00  0.00     0.328 A 
HETATM    5  N3  UNL     1      66.425  64.823 269.989  1.00  0.00    -0.292 N 
HETATM    6  O1  UNL     1      68.027  63.411 270.947  1.00  0.00    -0.246 OA
HETATM    7  C3  UNL     1      65.137  64.682 269.630  1.00  0.00     0.141 A 
ATOM      8  H3  UNL     1      66.969  65.680 269.883  1.00  0.00     0.172 HD
HETATM    9  N2  UNL     1      64.229  65.498 269.080  1.00  0.00    -0.336 N 
HETATM   10  C10 UNL     1      64.770  63.366 269.938  1.00  0.00     0.127 A 
HETATM   11  C2  UNL     1      62.979  65.079 268.821  1.00  0.00     0.185 A 
ATOM     12  H2  UNL     1      64.492  66.457 268.854  1.00  0.00     0.168 HD
HETATM   13  N1  UNL     1      62.594  63.827 269.105  1.00  0.00    -0.332 N 
HETATM   14  C1  UNL     1      61.259  63.328 268.845  1.00  0.00     0.158 C 
HETATM   15  C11 UNL     1      63.475  62.955 269.663  1.00  0.00     0.133 A 
BRANCH  15  16
HETATM   16  N12 UNL     1      63.131  61.751 269.940  1.00  0.00    -0.383 N 
ATOM     17 2H12 UNL     1      63.052  61.071 269.183  1.00  0.00     0.157 HD
ATOM     18 1H12 UNL     1      62.935  61.466 270.900  1.00  0.00     0.157 HD
ENDBRANCH  15  16
ENDBRANCH   2   3
ENDBRANCH   1   2
BRANCH   1  19
HETATM   19  C7  UNL     1      66.871  61.098 273.237  1.00  0.00     0.143 C 
BRANCH  19  20
HETATM   20  N5  UNL     1      67.248  62.312 273.945  1.00  0.00    -0.300 N 
ATOM     21  H5  UNL     1      66.606  63.105 273.970  1.00  0.00     0.182 HD
BRANCH  20  22
HETATM   22  N6  UNL     1      68.484  62.397 274.590  1.00  0.00    -0.008 N 
HETATM   23  N7  UNL     1      69.283  61.359 274.801  1.00  0.00    -0.096 N 
HETATM   24  C8  UNL     1      70.385  61.769 275.440  1.00  0.00     0.707 A 
ATOM     25  H7  UNL     1      69.087  60.399 274.520  1.00  0.00     0.208 HD
HETATM   26  N9  UNL     1      70.245  63.092 275.617  1.00  0.00    -0.017 N 
HETATM   27  C9  UNL     1      69.048  63.489 275.083  1.00  0.00     0.747 A 
ATOM     28  H9  UNL     1      70.920  63.702 276.077  1.00  0.00     0.203 HD
BRANCH  24  29
HETATM   29  N8  UNL     1      71.418  61.075 275.834  1.00  0.00    -0.233 N 
ATOM     30  H82 UNL     1      71.397  60.382 276.582  1.00  0.00     0.174 HD
ATOM     31  H81 UNL     1      72.377  61.094 275.490  1.00  0.00     0.174 HD
ENDBRANCH  24  29
BRANCH  27  32
HETATM   32  N10 UNL     1      68.693  64.704 275.132  1.00  0.00    -0.135 N 
ATOM     33  H10 UNL     1      68.342  65.094 274.257  1.00  0.00     0.205 HD
BRANCH  32  34
HETATM   34  N11 UNL     1      68.714  65.571 276.198  1.00  0.00    -0.331 N 
ATOM     35 2H11 UNL     1      69.056  66.506 275.971  1.00  0.00     0.177 HD
ATOM     36 1H11 UNL     1      68.437  65.409 277.166  1.00  0.00     0.177 HD
ENDBRANCH  32  34
ENDBRANCH  27  32
ENDBRANCH  20  22
ENDBRANCH  19  20
ENDBRANCH   1  19
TORSDOF 9
ENDMDL
MODEL 4
REMARK VINA RESULT: -5.242974286      3.729      6.797
REMARK  9 active torsions:
REMARK  status: ('A' for Active; 'I' for Inactive)
REMARK    1  A    between atoms: N4_11  and  C5_12 
REMARK    2  A    between atoms: C5_12  and  C6_13 
REMARK    3  A    between atoms: C6_13  and  C7_14 
REMARK    4  A    between atoms: C7_14  and  N5_15 
REMARK    5  A    between atoms: N5_15  and  N6_17 
REMARK    6  A    between atoms: C8_20  and  N8_21 
REMARK    7  A    between atoms: C9_26  and  N10_27 
REMARK    8  A    between atoms: N10_27  and  N11_29 
REMARK    9  A    between atoms: C11_33  and  N12_34 
ROOT
HETATM    1  C6  UNL     1      68.757  66.115 278.114  1.00  0.00     0.041 C 
ENDROOT
BRANCH   1   2
HETATM    2  C5  UNL     1      69.663  67.322 278.173  1.00  0.00     0.136 C 
BRANCH   2   3
HETATM    3  N4  UNL     1      69.588  67.958 279.481  1.00  0.00    -0.293 N 
HETATM    4  C4  UNL     1      70.573  67.795 280.422  1.00  0.00     0.328 A 
HETATM    5  N3  UNL     1      70.188  68.508 281.483  1.00  0.00    -0.292 N 
HETATM    6  O1  UNL     1      71.598  67.103 280.252  1.00  0.00    -0.246 OA
HETATM    7  C3  UNL     1      69.008  69.105 281.241  1.00  0.00     0.141 A 
ATOM      8  H3  UNL     1      70.714  68.587 282.353  1.00  0.00     0.172 HD
HETATM    9  N2  UNL     1      68.209  69.909 281.955  1.00  0.00    -0.336 N 
HETATM   10  C10 UNL     1      68.626  68.745 279.943  1.00  0.00     0.127 A 
HETATM   11  C2  UNL     1      67.053  70.374 281.449  1.00  0.00     0.185 A 
ATOM     12  H2  UNL     1      68.483  70.174 282.900  1.00  0.00     0.168 HD
HETATM   13  N1  UNL     1      66.658  70.047 280.210  1.00  0.00    -0.332 N 
HETATM   14  C1  UNL     1      65.423  70.521 279.620  1.00  0.00     0.158 C 
HETATM   15  C11 UNL     1      67.430  69.235 279.442  1.00  0.00     0.133 A 
BRANCH  15  16
HETATM   16  N12 UNL     1      67.074  68.912 278.252  1.00  0.00    -0.383 N 
ATOM     17 2H12 UNL     1      67.277  67.972 277.912  1.00  0.00     0.157 HD
ATOM     18 1H12 UNL     1      66.595  69.578 277.646  1.00  0.00     0.157 HD
ENDBRANCH  15  16
ENDBRANCH   2   3
ENDBRANCH   1   2
BRANCH   1  19
HETATM   19  C7  UNL     1      68.236  65.901 276.719  1.00  0.00     0.143 C 
BRANCH  19  20
HETATM   20  N5  UNL     1      69.110  64.992 275.993  1.00  0.00    -0.300 N 
ATOM     21  H5  UNL     1      70.094  64.916 276.255  1.00  0.00     0.182 HD
BRANCH  20  22
HETATM   22  N6  UNL     1      68.609  64.224 274.940  1.00  0.00    -0.008 N 
HETATM   23  N7  UNL     1      67.979  64.730 273.887  1.00  0.00    -0.096 N 
HETATM   24  C8  UNL     1      67.626  63.737 273.061  1.00  0.00     0.707 A 
ATOM     25  H7  UNL     1      67.793  65.720 273.732  1.00  0.00     0.208 HD
HETATM   26  N9  UNL     1      68.056  62.603 273.634  1.00  0.00    -0.017 N 
HETATM   27  C9  UNL     1      68.677  62.907 274.817  1.00  0.00     0.747 A 
ATOM     28  H9  UNL     1      67.940  61.665 273.250  1.00  0.00     0.203 HD
BRANCH  24  29
HETATM   29  N8  UNL     1      66.993  63.798 271.921  1.00  0.00    -0.233 N 
ATOM     30  H82 UNL     1      67.354  64.252 271.082  1.00  0.00     0.174 HD
ATOM     31  H81 UNL     1      66.077  63.426 271.672  1.00  0.00     0.174 HD
ENDBRANCH  24  29
BRANCH  27  32
HETATM   32  N10 UNL     1      69.167  61.991 275.540  1.00  0.00    -0.135 N 
ATOM     33  H10 UNL     1      68.554  61.638 276.276  1.00  0.00     0.205 HD
BRANCH  32  34
HETATM   34  N11 UNL     1      70.408  61.404 275.475  1.00  0.00    -0.331 N 
ATOM     35 2H11 UNL     1      70.846  61.452 274.554  1.00  0.00     0.177 HD
ATOM     36 1H11 UNL     1      70.940  60.937 276.209  1.00  0.00     0.177 HD
ENDBRANCH  32  34
ENDBRANCH  27  32
ENDBRANCH  20  22
ENDBRANCH  19  20
ENDBRANCH   1  19
TORSDOF 9
ENDMDL
MODEL 5
REMARK VINA RESULT: -5.231526959      3.906      6.819
REMARK  9 active torsions:
REMARK  status: ('A' for Active; 'I' for Inactive)
REMARK    1  A    between atoms: N4_11  and  C5_12 
REMARK    2  A    between atoms: C5_12  and  C6_13 
REMARK    3  A    between atoms: C6_13  and  C7_14 
REMARK    4  A    between atoms: C7_14  and  N5_15 
REMARK    5  A    between atoms: N5_15  and  N6_17 
REMARK    6  A    between atoms: C8_20  and  N8_21 
REMARK    7  A    between atoms: C9_26  and  N10_27 
REMARK    8  A    between atoms: N10_27  and  N11_29 
REMARK    9  A    between atoms: C11_33  and  N12_34 
ROOT
HETATM    1  C6  UNL     1      69.202  65.943 277.794  1.00  0.00     0.041 C 
ENDROOT
BRANCH   1   2
HETATM    2  C5  UNL     1      70.237  67.042 277.772  1.00  0.00     0.136 C 
BRANCH   2   3
HETATM    3  N4  UNL     1      70.690  67.349 279.122  1.00  0.00    -0.293 N 
HETATM    4  C4  UNL     1      71.898  66.906 279.598  1.00  0.00     0.328 A 
HETATM    5  N3  UNL     1      71.990  67.364 280.848  1.00  0.00    -0.292 N 
HETATM    6  O1  UNL     1      72.702  66.215 278.937  1.00  0.00    -0.246 OA
HETATM    7  C3  UNL     1      70.893  68.071 281.169  1.00  0.00     0.141 A 
ATOM      8  H3  UNL     1      72.781  67.201 281.471  1.00  0.00     0.172 HD
HETATM    9  N2  UNL     1      70.496  68.727 282.267  1.00  0.00    -0.336 N 
HETATM   10  C10 UNL     1      70.055  68.057 280.046  1.00  0.00     0.127 A 
HETATM   11  C2  UNL     1      69.315  69.367 282.311  1.00  0.00     0.185 A 
ATOM     12  H2  UNL     1      71.103  68.740 283.087  1.00  0.00     0.168 HD
HETATM   13  N1  UNL     1      68.490  69.372 281.255  1.00  0.00    -0.332 N 
HETATM   14  C1  UNL     1      67.208  70.047 281.252  1.00  0.00     0.158 C 
HETATM   15  C11 UNL     1      68.842  68.724 280.114  1.00  0.00     0.133 A 
BRANCH  15  16
HETATM   16  N12 UNL     1      68.070  68.718 279.089  1.00  0.00    -0.383 N 
ATOM     17 2H12 UNL     1      68.206  69.421 278.362  1.00  0.00     0.157 HD
ATOM     18 1H12 UNL     1      67.327  68.026 278.993  1.00  0.00     0.157 HD
ENDBRANCH  15  16
ENDBRANCH   2   3
ENDBRANCH   1   2
BRANCH   1  19
HETATM   19  C7  UNL     1      68.546  65.794 276.449  1.00  0.00     0.143 C 
BRANCH  19  20
HETATM   20  N5  UNL     1      69.284  64.842 275.634  1.00  0.00    -0.300 N 
ATOM     21  H5  UNL     1      70.287  64.721 275.777  1.00  0.00     0.182 HD
BRANCH  20  22
HETATM   22  N6  UNL     1      68.626  64.092 274.655  1.00  0.00    -0.008 N 
HETATM   23  N7  UNL     1      68.022  64.621 273.598  1.00  0.00    -0.096 N 
HETATM   24  C8  UNL     1      67.490  63.642 272.856  1.00  0.00     0.707 A 
ATOM     25  H7  UNL     1      67.972  65.616 273.385  1.00  0.00     0.208 HD
HETATM   26  N9  UNL     1      67.782  62.493 273.485  1.00  0.00    -0.017 N 
HETATM   27  C9  UNL     1      68.498  62.775 274.619  1.00  0.00     0.747 A 
ATOM     28  H9  UNL     1      67.515  61.561 273.170  1.00  0.00     0.203 HD
BRANCH  24  29
HETATM   29  N8  UNL     1      66.815  63.725 271.742  1.00  0.00    -0.233 N 
ATOM     30  H82 UNL     1      66.334  64.564 271.417  1.00  0.00     0.174 HD
ATOM     31  H81 UNL     1      66.653  63.012 271.031  1.00  0.00     0.174 HD
ENDBRANCH  24  29
BRANCH  27  32
HETATM   32  N10 UNL     1      68.889  61.842 275.381  1.00  0.00    -0.135 N 
ATOM     33  H10 UNL     1      68.213  61.538 276.082  1.00  0.00     0.205 HD
BRANCH  32  34
HETATM   34  N11 UNL     1      70.094  61.182 275.397  1.00  0.00    -0.331 N 
ATOM     35 2H11 UNL     1      70.170  60.433 274.709  1.00  0.00     0.177 HD
ATOM     36 1H11 UNL     1      70.906  61.339 275.994  1.00  0.00     0.177 HD
ENDBRANCH  32  34
ENDBRANCH  27  32
ENDBRANCH  20  22
ENDBRANCH  19  20
ENDBRANCH   1  19
TORSDOF 9
ENDMDL
