MODEL 1
REMARK VINA RESULT: -7.575020086      0.000      0.000
REMARK  12 active torsions:
REMARK  status: ('A' for Active; 'I' for Inactive)
REMARK       I    between atoms: C1_4  and  N3_6 
REMARK    1  A    between atoms: N3_6  and  C2_8 
REMARK    2  A    between atoms: C2_8  and  C3_9 
REMARK    3  A    between atoms: C3_9  and  C4_10 
REMARK    4  A    between atoms: C4_10  and  N4_11 
REMARK    5  A    between atoms: N4_11  and  C5_12 
REMARK    6  A    between atoms: C5_12  and  C6_13 
REMARK       I    between atoms: C6_13  and  N5_15 
REMARK    7  A    between atoms: N5_15  and  C7_17 
REMARK    8  A    between atoms: C7_17  and  C8_18 
REMARK    9  A    between atoms: C8_18  and  C9_19 
REMARK   10  A    between atoms: C9_19  and  N6_20 
REMARK   11  A    between atoms: N6_20  and  C10_22 
REMARK   12  A    between atoms: N7_23  and  N8_25 
ROOT
HETATM    1  C5  UNL     1     -16.947  22.012 -17.476  1.00  0.00     0.349 C 
ENDROOT
BRANCH   1   2
HETATM    2  N4  UNL     1     -16.730  21.653 -18.876  1.00  0.00     0.004 N 
HETATM    3  C11 UNL     1     -17.012  20.249 -19.026  1.00  0.00     0.257 A 
HETATM    4  C12 UNL     1     -15.592  19.982 -19.298  1.00  0.00     0.140 A 
HETATM    5  C13 UNL     1     -15.412  21.447 -19.238  1.00  0.00     0.320 A 
HETATM    6  O2  UNL     1     -14.363  22.081 -19.466  1.00  0.00    -0.265 OA
BRANCH   2   7
HETATM    7  C4  UNL     1     -17.620  22.408 -19.698  1.00  0.00     0.249 C 
BRANCH   7   8
HETATM    8  C3  UNL     1     -17.101  23.251 -20.779  1.00  0.00     0.048 C 
BRANCH   8   9
HETATM    9  C2  UNL     1     -16.947  24.718 -20.549  1.00  0.00     0.124 C 
BRANCH   9  10
HETATM   10  N3  UNL     1     -16.183  25.361 -21.613  1.00  0.00    -0.365 N 
HETATM   11  C1  UNL     1     -15.542  26.595 -21.354  1.00  0.00     0.181 C 
HETATM   12  N1  UNL     1     -15.349  27.455 -22.305  1.00  0.00    -0.374 N 
HETATM   13  N2  UNL     1     -15.088  26.951 -20.057  1.00  0.00    -0.064 NA
ATOM     14  H12 UNL     1     -14.886  28.345 -22.118  1.00  0.00     0.158 HD
ATOM     15  H11 UNL     1     -15.675  27.200 -23.237  1.00  0.00     0.158 HD
ATOM     16  H3  UNL     1     -16.113  24.927 -22.534  1.00  0.00     0.162 HD
ENDBRANCH   9  10
ENDBRANCH   8   9
ENDBRANCH   7   8
ENDBRANCH   2   7
ENDBRANCH   1   2
BRANCH   1  17
HETATM   17  C6  UNL     1     -15.769  22.406 -16.729  1.00  0.00     0.244 C 
HETATM   18  O1  UNL     1     -15.146  21.685 -15.918  1.00  0.00    -0.272 OA
HETATM   19  N5  UNL     1     -15.241  23.722 -16.902  1.00  0.00    -0.360 N 
ATOM     20  H5  UNL     1     -15.715  24.354 -17.547  1.00  0.00     0.162 HD
BRANCH  19  21
HETATM   21  C7  UNL     1     -14.070  24.202 -16.210  1.00  0.00     0.124 C 
BRANCH  21  22
HETATM   22  C8  UNL     1     -12.801  24.192 -16.974  1.00  0.00     0.039 C 
BRANCH  22  23
HETATM   23  C9  UNL     1     -12.230  25.527 -17.325  1.00  0.00     0.122 C 
BRANCH  23  24
HETATM   24  N6  UNL     1     -11.544  26.214 -16.283  1.00  0.00    -0.385 N 
ATOM     25  H6  UNL     1     -11.955  26.141 -15.352  1.00  0.00     0.160 HD
BRANCH  24  26
HETATM   26  C10 UNL     1     -10.374  26.975 -16.383  1.00  0.00     0.192 C 
HETATM   27  N7  UNL     1     -10.302  28.253 -16.257  1.00  0.00    -0.303 N 
ATOM     28  H7  UNL     1      -9.391  28.702 -16.353  1.00  0.00     0.187 HD
BRANCH  27  29
HETATM   29  N8  UNL     1     -11.409  29.048 -15.996  1.00  0.00    -0.344 N 
ATOM     30  H82 UNL     1     -11.245  29.964 -15.579  1.00  0.00     0.176 HD
ATOM     31  H81 UNL     1     -12.363  28.751 -16.203  1.00  0.00     0.176 HD
ENDBRANCH  27  29
ENDBRANCH  24  26
ENDBRANCH  23  24
ENDBRANCH  22  23
ENDBRANCH  21  22
ENDBRANCH  19  21
ENDBRANCH   1  17
TORSDOF 12
ENDMDL
MODEL 2
REMARK VINA RESULT: -7.263190749      2.231      3.028
REMARK  12 active torsions:
REMARK  status: ('A' for Active; 'I' for Inactive)
REMARK       I    between atoms: C1_4  and  N3_6 
REMARK    1  A    between atoms: N3_6  and  C2_8 
REMARK    2  A    between atoms: C2_8  and  C3_9 
REMARK    3  A    between atoms: C3_9  and  C4_10 
REMARK    4  A    between atoms: C4_10  and  N4_11 
REMARK    5  A    between atoms: N4_11  and  C5_12 
REMARK    6  A    between atoms: C5_12  and  C6_13 
REMARK       I    between atoms: C6_13  and  N5_15 
REMARK    7  A    between atoms: N5_15  and  C7_17 
REMARK    8  A    between atoms: C7_17  and  C8_18 
REMARK    9  A    between atoms: C8_18  and  C9_19 
REMARK   10  A    between atoms: C9_19  and  N6_20 
REMARK   11  A    between atoms: N6_20  and  C10_22 
REMARK   12  A    between atoms: N7_23  and  N8_25 
ROOT
HETATM    1  C5  UNL     1     -16.216  22.220 -17.425  1.00  0.00     0.349 C 
ENDROOT
BRANCH   1   2
HETATM    2  N4  UNL     1     -16.479  21.798 -18.799  1.00  0.00     0.004 N 
HETATM    3  C11 UNL     1     -16.866  20.412 -18.774  1.00  0.00     0.257 A 
HETATM    4  C12 UNL     1     -15.625  20.041 -19.469  1.00  0.00     0.140 A 
HETATM    5  C13 UNL     1     -15.360  21.492 -19.551  1.00  0.00     0.320 A 
HETATM    6  O2  UNL     1     -14.408  22.047 -20.136  1.00  0.00    -0.265 OA
BRANCH   2   7
HETATM    7  C4  UNL     1     -17.546  22.581 -19.335  1.00  0.00     0.249 C 
BRANCH   7   8
HETATM    8  C3  UNL     1     -17.367  23.327 -20.585  1.00  0.00     0.048 C 
BRANCH   8   9
HETATM    9  C2  UNL     1     -17.129  24.799 -20.524  1.00  0.00     0.124 C 
BRANCH   9  10
HETATM   10  N3  UNL     1     -16.214  25.248 -21.569  1.00  0.00    -0.365 N 
HETATM   11  C1  UNL     1     -15.492  26.450 -21.386  1.00  0.00     0.181 C 
HETATM   12  N1  UNL     1     -15.135  27.172 -22.402  1.00  0.00    -0.374 N 
HETATM   13  N2  UNL     1     -15.131  26.923 -20.097  1.00  0.00    -0.064 NA
ATOM     14  H12 UNL     1     -14.613  28.039 -22.269  1.00  0.00     0.158 HD
ATOM     15  H11 UNL     1     -15.394  26.833 -23.328  1.00  0.00     0.158 HD
ATOM     16  H3  UNL     1     -16.098  24.702 -22.423  1.00  0.00     0.162 HD
ENDBRANCH   9  10
ENDBRANCH   8   9
ENDBRANCH   7   8
ENDBRANCH   2   7
ENDBRANCH   1   2
BRANCH   1  17
HETATM   17  C6  UNL     1     -15.342  23.365 -17.266  1.00  0.00     0.244 C 
HETATM   18  O1  UNL     1     -15.690  24.564 -17.351  1.00  0.00    -0.272 OA
HETATM   19  N5  UNL     1     -13.957  23.153 -16.987  1.00  0.00    -0.360 N 
ATOM     20  H5  UNL     1     -13.619  22.193 -16.914  1.00  0.00     0.162 HD
BRANCH  19  21
HETATM   21  C7  UNL     1     -13.013  24.228 -16.804  1.00  0.00     0.124 C 
BRANCH  21  22
HETATM   22  C8  UNL     1     -11.898  24.300 -17.776  1.00  0.00     0.039 C 
BRANCH  22  23
HETATM   23  C9  UNL     1     -12.168  25.049 -19.040  1.00  0.00     0.122 C 
BRANCH  23  24
HETATM   24  N6  UNL     1     -11.890  24.359 -20.254  1.00  0.00    -0.385 N 
ATOM     25  H6  UNL     1     -11.173  23.635 -20.205  1.00  0.00     0.160 HD
BRANCH  24  26
HETATM   26  C10 UNL     1     -12.482  24.555 -21.507  1.00  0.00     0.192 C 
HETATM   27  N7  UNL     1     -11.930  24.303 -22.642  1.00  0.00    -0.303 N 
ATOM     28  H7  UNL     1     -12.459  24.490 -23.494  1.00  0.00     0.187 HD
BRANCH  27  29
HETATM   29  N8  UNL     1     -10.647  23.788 -22.756  1.00  0.00    -0.344 N 
ATOM     30  H82 UNL     1     -10.196  23.844 -23.669  1.00  0.00     0.176 HD
ATOM     31  H81 UNL     1     -10.149  23.364 -21.973  1.00  0.00     0.176 HD
ENDBRANCH  27  29
ENDBRANCH  24  26
ENDBRANCH  23  24
ENDBRANCH  22  23
ENDBRANCH  21  22
ENDBRANCH  19  21
ENDBRANCH   1  17
TORSDOF 12
ENDMDL
MODEL 3
REMARK VINA RESULT: -6.914911347      1.004      1.361
REMARK  12 active torsions:
REMARK  status: ('A' for Active; 'I' for Inactive)
REMARK       I    between atoms: C1_4  and  N3_6 
REMARK    1  A    between atoms: N3_6  and  C2_8 
REMARK    2  A    between atoms: C2_8  and  C3_9 
REMARK    3  A    between atoms: C3_9  and  C4_10 
REMARK    4  A    between atoms: C4_10  and  N4_11 
REMARK    5  A    between atoms: N4_11  and  C5_12 
REMARK    6  A    between atoms: C5_12  and  C6_13 
REMARK       I    between atoms: C6_13  and  N5_15 
REMARK    7  A    between atoms: N5_15  and  C7_17 
REMARK    8  A    between atoms: C7_17  and  C8_18 
REMARK    9  A    between atoms: C8_18  and  C9_19 
REMARK   10  A    between atoms: C9_19  and  N6_20 
REMARK   11  A    between atoms: N6_20  and  C10_22 
REMARK   12  A    between atoms: N7_23  and  N8_25 
ROOT
HETATM    1  C5  UNL     1     -16.820  21.992 -17.396  1.00  0.00     0.349 C 
ENDROOT
BRANCH   1   2
HETATM    2  N4  UNL     1     -16.703  21.652 -18.812  1.00  0.00     0.004 N 
HETATM    3  C11 UNL     1     -17.061  20.267 -18.970  1.00  0.00     0.257 A 
HETATM    4  C12 UNL     1     -15.674  19.938 -19.331  1.00  0.00     0.140 A 
HETATM    5  C13 UNL     1     -15.420  21.391 -19.255  1.00  0.00     0.320 A 
HETATM    6  O2  UNL     1     -14.356  21.980 -19.534  1.00  0.00    -0.265 OA
BRANCH   2   7
HETATM    7  C4  UNL     1     -17.602  22.466 -19.566  1.00  0.00     0.249 C 
BRANCH   7   8
HETATM    8  C3  UNL     1     -17.115  23.263 -20.697  1.00  0.00     0.048 C 
BRANCH   8   9
HETATM    9  C2  UNL     1     -16.992  24.742 -20.544  1.00  0.00     0.124 C 
BRANCH   9  10
HETATM   10  N3  UNL     1     -16.213  25.340 -21.623  1.00  0.00    -0.365 N 
HETATM   11  C1  UNL     1     -15.516  26.548 -21.385  1.00  0.00     0.181 C 
HETATM   12  N1  UNL     1     -15.296  27.389 -22.348  1.00  0.00    -0.374 N 
HETATM   13  N2  UNL     1     -15.033  26.898 -20.097  1.00  0.00    -0.064 NA
ATOM     14  H12 UNL     1     -14.793  28.260 -22.176  1.00  0.00     0.158 HD
ATOM     15  H11 UNL     1     -15.643  27.137 -23.273  1.00  0.00     0.158 HD
ATOM     16  H3  UNL     1     -16.171  24.893 -22.539  1.00  0.00     0.162 HD
ENDBRANCH   9  10
ENDBRANCH   8   9
ENDBRANCH   7   8
ENDBRANCH   2   7
ENDBRANCH   1   2
BRANCH   1  17
HETATM   17  C6  UNL     1     -15.596  22.392 -16.732  1.00  0.00     0.244 C 
HETATM   18  O1  UNL     1     -14.921  21.679 -15.956  1.00  0.00    -0.272 OA
HETATM   19  N5  UNL     1     -15.078  23.705 -16.955  1.00  0.00    -0.360 N 
ATOM     20  H5  UNL     1     -15.593  24.330 -17.575  1.00  0.00     0.162 HD
BRANCH  19  21
HETATM   21  C7  UNL     1     -13.863  24.190 -16.347  1.00  0.00     0.124 C 
BRANCH  21  22
HETATM   22  C8  UNL     1     -12.676  24.283 -17.227  1.00  0.00     0.039 C 
BRANCH  22  23
HETATM   23  C9  UNL     1     -12.393  25.628 -17.816  1.00  0.00     0.122 C 
BRANCH  23  24
HETATM   24  N6  UNL     1     -11.225  26.290 -17.343  1.00  0.00    -0.385 N 
ATOM     25  H6  UNL     1     -11.104  27.257 -17.643  1.00  0.00     0.160 HD
BRANCH  24  26
HETATM   26  C10 UNL     1     -10.222  25.772 -16.515  1.00  0.00     0.192 C 
HETATM   27  N7  UNL     1      -9.150  25.186 -16.917  1.00  0.00    -0.303 N 
ATOM     28  H7  UNL     1      -8.489  24.845 -16.219  1.00  0.00     0.187 HD
BRANCH  27  29
HETATM   29  N8  UNL     1      -8.854  24.997 -18.260  1.00  0.00    -0.344 N 
ATOM     30  H82 UNL     1      -9.037  24.076 -18.658  1.00  0.00     0.176 HD
ATOM     31  H81 UNL     1      -8.468  25.734 -18.850  1.00  0.00     0.176 HD
ENDBRANCH  27  29
ENDBRANCH  24  26
ENDBRANCH  23  24
ENDBRANCH  22  23
ENDBRANCH  21  22
ENDBRANCH  19  21
ENDBRANCH   1  17
TORSDOF 12
ENDMDL
MODEL 4
REMARK VINA RESULT: -6.856032076      3.066      7.844
REMARK  12 active torsions:
REMARK  status: ('A' for Active; 'I' for Inactive)
REMARK       I    between atoms: C1_4  and  N3_6 
REMARK    1  A    between atoms: N3_6  and  C2_8 
REMARK    2  A    between atoms: C2_8  and  C3_9 
REMARK    3  A    between atoms: C3_9  and  C4_10 
REMARK    4  A    between atoms: C4_10  and  N4_11 
REMARK    5  A    between atoms: N4_11  and  C5_12 
REMARK    6  A    between atoms: C5_12  and  C6_13 
REMARK       I    between atoms: C6_13  and  N5_15 
REMARK    7  A    between atoms: N5_15  and  C7_17 
REMARK    8  A    between atoms: C7_17  and  C8_18 
REMARK    9  A    between atoms: C8_18  and  C9_19 
REMARK   10  A    between atoms: C9_19  and  N6_20 
REMARK   11  A    between atoms: N6_20  and  C10_22 
REMARK   12  A    between atoms: N7_23  and  N8_25 
ROOT
HETATM    1  C5  UNL     1     -11.475  24.653 -16.274  1.00  0.00     0.349 C 
ENDROOT
BRANCH   1   2
HETATM    2  N4  UNL     1     -10.750  25.711 -16.973  1.00  0.00     0.004 N 
HETATM    3  C11 UNL     1     -10.158  26.574 -15.985  1.00  0.00     0.257 A 
HETATM    4  C12 UNL     1     -11.057  27.667 -16.385  1.00  0.00     0.140 A 
HETATM    5  C13 UNL     1     -11.529  26.753 -17.444  1.00  0.00     0.320 A 
HETATM    6  O2  UNL     1     -12.345  27.014 -18.350  1.00  0.00    -0.265 OA
BRANCH   2   7
HETATM    7  C4  UNL     1      -9.722  25.127 -17.773  1.00  0.00     0.249 C 
BRANCH   7   8
HETATM    8  C3  UNL     1      -8.466  24.681 -17.163  1.00  0.00     0.048 C 
BRANCH   8   9
HETATM    9  C2  UNL     1      -7.171  25.116 -17.763  1.00  0.00     0.124 C 
BRANCH   9  10
HETATM   10  N3  UNL     1      -7.146  26.550 -18.033  1.00  0.00    -0.365 N 
HETATM   11  C1  UNL     1      -6.839  27.003 -19.337  1.00  0.00     0.181 C 
HETATM   12  N1  UNL     1      -6.269  28.153 -19.523  1.00  0.00    -0.374 N 
HETATM   13  N2  UNL     1      -7.131  26.230 -20.491  1.00  0.00    -0.064 NA
ATOM     14  H12 UNL     1      -6.047  28.480 -20.464  1.00  0.00     0.158 HD
ATOM     15  H11 UNL     1      -6.059  28.708 -18.694  1.00  0.00     0.158 HD
ATOM     16  H3  UNL     1      -7.348  27.218 -17.289  1.00  0.00     0.162 HD
ENDBRANCH   9  10
ENDBRANCH   8   9
ENDBRANCH   7   8
ENDBRANCH   2   7
ENDBRANCH   1   2
BRANCH   1  17
HETATM   17  C6  UNL     1     -12.762  24.286 -16.831  1.00  0.00     0.244 C 
HETATM   18  O1  UNL     1     -12.960  23.867 -17.993  1.00  0.00    -0.272 OA
HETATM   19  N5  UNL     1     -13.931  24.396 -16.017  1.00  0.00    -0.360 N 
ATOM     20  H5  UNL     1     -13.827  24.738 -15.062  1.00  0.00     0.162 HD
BRANCH  19  21
HETATM   21  C7  UNL     1     -15.252  24.047 -16.480  1.00  0.00     0.124 C 
BRANCH  21  22
HETATM   22  C8  UNL     1     -15.679  22.645 -16.261  1.00  0.00     0.039 C 
BRANCH  22  23
HETATM   23  C9  UNL     1     -16.442  22.004 -17.375  1.00  0.00     0.122 C 
BRANCH  23  24
HETATM   24  N6  UNL     1     -15.672  21.292 -18.338  1.00  0.00    -0.385 N 
ATOM     25  H6  UNL     1     -14.743  20.994 -18.039  1.00  0.00     0.160 HD
BRANCH  24  26
HETATM   26  C10 UNL     1     -16.037  20.952 -19.645  1.00  0.00     0.192 C 
HETATM   27  N7  UNL     1     -16.428  19.789 -20.033  1.00  0.00    -0.303 N 
ATOM     28  H7  UNL     1     -16.666  19.657 -21.016  1.00  0.00     0.187 HD
BRANCH  27  29
HETATM   29  N8  UNL     1     -16.540  18.707 -19.171  1.00  0.00    -0.344 N 
ATOM     30  H82 UNL     1     -16.659  18.906 -18.178  1.00  0.00     0.176 HD
ATOM     31  H81 UNL     1     -16.509  17.740 -19.492  1.00  0.00     0.176 HD
ENDBRANCH  27  29
ENDBRANCH  24  26
ENDBRANCH  23  24
ENDBRANCH  22  23
ENDBRANCH  21  22
ENDBRANCH  19  21
ENDBRANCH   1  17
TORSDOF 12
ENDMDL
MODEL 5
REMARK VINA RESULT: -6.707907369      2.970      7.950
REMARK  12 active torsions:
REMARK  status: ('A' for Active; 'I' for Inactive)
REMARK       I    between atoms: C1_4  and  N3_6 
REMARK    1  A    between atoms: N3_6  and  C2_8 
REMARK    2  A    between atoms: C2_8  and  C3_9 
REMARK    3  A    between atoms: C3_9  and  C4_10 
REMARK    4  A    between atoms: C4_10  and  N4_11 
REMARK    5  A    between atoms: N4_11  and  C5_12 
REMARK    6  A    between atoms: C5_12  and  C6_13 
REMARK       I    between atoms: C6_13  and  N5_15 
REMARK    7  A    between atoms: N5_15  and  C7_17 
REMARK    8  A    between atoms: C7_17  and  C8_18 
REMARK    9  A    between atoms: C8_18  and  C9_19 
REMARK   10  A    between atoms: C9_19  and  N6_20 
REMARK   11  A    between atoms: N6_20  and  C10_22 
REMARK   12  A    between atoms: N7_23  and  N8_25 
ROOT
HETATM    1  C5  UNL     1     -11.537  24.749 -16.211  1.00  0.00     0.349 C 
ENDROOT
BRANCH   1   2
HETATM    2  N4  UNL     1     -10.807  25.765 -16.965  1.00  0.00     0.004 N 
HETATM    3  C11 UNL     1     -10.174  26.651 -16.023  1.00  0.00     0.257 A 
HETATM    4  C12 UNL     1     -11.059  27.747 -16.442  1.00  0.00     0.140 A 
HETATM    5  C13 UNL     1     -11.575  26.806 -17.456  1.00  0.00     0.320 A 
HETATM    6  O2  UNL     1     -12.406  27.052 -18.352  1.00  0.00    -0.265 OA
BRANCH   2   7
HETATM    7  C4  UNL     1      -9.811  25.131 -17.767  1.00  0.00     0.249 C 
BRANCH   7   8
HETATM    8  C3  UNL     1      -8.439  25.648 -17.798  1.00  0.00     0.048 C 
BRANCH   8   9
HETATM    9  C2  UNL     1      -7.324  24.780 -17.319  1.00  0.00     0.124 C 
BRANCH   9  10
HETATM   10  N3  UNL     1      -7.587  24.234 -15.991  1.00  0.00    -0.365 N 
HETATM   11  C1  UNL     1      -7.545  22.834 -15.799  1.00  0.00     0.181 C 
HETATM   12  N1  UNL     1      -8.271  22.267 -14.886  1.00  0.00    -0.374 N 
HETATM   13  N2  UNL     1      -6.722  21.989 -16.589  1.00  0.00    -0.064 NA
ATOM     14  H12 UNL     1      -8.240  21.257 -14.747  1.00  0.00     0.158 HD
ATOM     15  H11 UNL     1      -8.862  22.874 -14.319  1.00  0.00     0.158 HD
ATOM     16  H3  UNL     1      -7.799  24.856 -15.211  1.00  0.00     0.162 HD
ENDBRANCH   9  10
ENDBRANCH   8   9
ENDBRANCH   7   8
ENDBRANCH   2   7
ENDBRANCH   1   2
BRANCH   1  17
HETATM   17  C6  UNL     1     -12.803  24.323 -16.775  1.00  0.00     0.244 C 
HETATM   18  O1  UNL     1     -12.976  23.902 -17.941  1.00  0.00    -0.272 OA
HETATM   19  N5  UNL     1     -13.979  24.369 -15.966  1.00  0.00    -0.360 N 
ATOM     20  H5  UNL     1     -13.895  24.711 -15.008  1.00  0.00     0.162 HD
BRANCH  19  21
HETATM   21  C7  UNL     1     -15.279  23.958 -16.435  1.00  0.00     0.124 C 
BRANCH  21  22
HETATM   22  C8  UNL     1     -15.597  22.516 -16.322  1.00  0.00     0.039 C 
BRANCH  22  23
HETATM   23  C9  UNL     1     -16.170  21.867 -17.540  1.00  0.00     0.122 C 
BRANCH  23  24
HETATM   24  N6  UNL     1     -16.835  22.727 -18.459  1.00  0.00    -0.385 N 
ATOM     25  H6  UNL     1     -16.772  23.727 -18.264  1.00  0.00     0.160 HD
BRANCH  24  26
HETATM   26  C10 UNL     1     -17.565  22.366 -19.596  1.00  0.00     0.192 C 
HETATM   27  N7  UNL     1     -17.777  23.118 -20.619  1.00  0.00    -0.303 N 
ATOM     28  H7  UNL     1     -18.328  22.748 -21.392  1.00  0.00     0.187 HD
BRANCH  27  29
HETATM   29  N8  UNL     1     -17.286  24.414 -20.714  1.00  0.00    -0.344 N 
ATOM     30  H82 UNL     1     -16.314  24.530 -20.997  1.00  0.00     0.176 HD
ATOM     31  H81 UNL     1     -17.855  25.236 -20.514  1.00  0.00     0.176 HD
ENDBRANCH  27  29
ENDBRANCH  24  26
ENDBRANCH  23  24
ENDBRANCH  22  23
ENDBRANCH  21  22
ENDBRANCH  19  21
ENDBRANCH   1  17
TORSDOF 12
ENDMDL
