MODEL 1
REMARK VINA RESULT: -6.936447117      0.000      0.000
REMARK  12 active torsions:
REMARK  status: ('A' for Active; 'I' for Inactive)
REMARK    1  A    between atoms: C1_2  and  N2_4 
REMARK    2  A    between atoms: N2_4  and  C2_6 
REMARK    3  A    between atoms: C2_6  and  C3_7 
REMARK    4  A    between atoms: C3_7  and  C4_8 
REMARK    5  A    between atoms: C4_8  and  C5_9 
REMARK    6  A    between atoms: C5_9  and  N3_10 
REMARK       I    between atoms: N3_10  and  C6_12 
REMARK    7  A    between atoms: C6_12  and  C7_14 
REMARK    8  A    between atoms: C7_14  and  N4_15 
REMARK    9  A    between atoms: N4_15  and  C8_16 
REMARK   10  A    between atoms: C8_16  and  C9_17 
REMARK   11  A    between atoms: C9_17  and  C10_18 
REMARK   12  A    between atoms: C10_18  and  N5_19 
ROOT
HETATM    1  N3  UNL     1     -16.567  25.297 -21.241  1.00  0.00    -0.360 N 
ATOM      2  H3  UNL     1     -16.552  24.954 -22.201  1.00  0.00     0.162 HD
HETATM    3  C6  UNL     1     -15.979  26.554 -20.970  1.00  0.00     0.243 C 
HETATM    4  O1  UNL     1     -16.004  26.964 -19.773  1.00  0.00    -0.272 OA
ENDROOT
BRANCH   3   5
HETATM    5  C7  UNL     1     -15.345  27.422 -21.954  1.00  0.00     0.339 C 
BRANCH   5   6
HETATM    6  N4  UNL     1     -16.123  28.560 -22.384  1.00  0.00    -0.056 N 
HETATM    7  C12 UNL     1     -16.874  28.333 -23.582  1.00  0.00     0.266 A 
HETATM    8  C13 UNL     1     -17.580  28.482 -22.273  1.00  0.00     0.266 A 
BRANCH   6   9
HETATM    9  C8  UNL     1     -15.555  29.830 -22.079  1.00  0.00     0.239 C 
BRANCH   9  10
HETATM   10  C9  UNL     1     -15.962  30.941 -23.003  1.00  0.00     0.048 C 
BRANCH  10  11
HETATM   11  C10 UNL     1     -14.788  31.802 -23.422  1.00  0.00     0.123 C 
BRANCH  11  12
HETATM   12  N5  UNL     1     -13.684  31.556 -22.538  1.00  0.00    -0.367 N 
HETATM   13  C11 UNL     1     -12.547  32.125 -22.585  1.00  0.00     0.196 C 
HETATM   14  N6  UNL     1     -12.143  33.100 -23.504  1.00  0.00    -0.067 NA
HETATM   15  N7  UNL     1     -11.585  31.718 -21.591  1.00  0.00    -0.067 NA
ATOM     16  H5  UNL     1     -13.824  30.861 -21.805  1.00  0.00     0.161 HD
ENDBRANCH  11  12
ENDBRANCH  10  11
ENDBRANCH   9  10
ENDBRANCH   6   9
ENDBRANCH   5   6
ENDBRANCH   3   5
BRANCH   1  17
HETATM   17  C5  UNL     1     -17.185  24.478 -20.237  1.00  0.00     0.122 C 
BRANCH  17  18
HETATM   18  C4  UNL     1     -17.538  23.108 -20.753  1.00  0.00     0.021 C 
BRANCH  18  19
HETATM   19  C3  UNL     1     -17.216  22.078 -19.659  1.00  0.00     0.021 C 
BRANCH  19  20
HETATM   20  C2  UNL     1     -16.835  22.855 -18.438  1.00  0.00     0.121 C 
BRANCH  20  21
HETATM   21  N2  UNL     1     -16.143  22.055 -17.463  1.00  0.00    -0.369 N 
ATOM     22  H2  UNL     1     -16.233  21.039 -17.463  1.00  0.00     0.161 HD
BRANCH  21  23
HETATM   23  C1  UNL     1     -15.331  22.715 -16.501  1.00  0.00     0.180 C 
HETATM   24  N1  UNL     1     -14.777  22.021 -15.398  1.00  0.00    -0.070 NA
HETATM   25  S1  UNL     1     -15.028  24.318 -16.668  1.00  0.00    -0.044 SA
ENDBRANCH  21  23
ENDBRANCH  20  21
ENDBRANCH  19  20
ENDBRANCH  18  19
ENDBRANCH  17  18
ENDBRANCH   1  17
TORSDOF 12
ENDMDL
MODEL 2
REMARK VINA RESULT: -6.913131641      3.942      6.839
REMARK  12 active torsions:
REMARK  status: ('A' for Active; 'I' for Inactive)
REMARK    1  A    between atoms: C1_2  and  N2_4 
REMARK    2  A    between atoms: N2_4  and  C2_6 
REMARK    3  A    between atoms: C2_6  and  C3_7 
REMARK    4  A    between atoms: C3_7  and  C4_8 
REMARK    5  A    between atoms: C4_8  and  C5_9 
REMARK    6  A    between atoms: C5_9  and  N3_10 
REMARK       I    between atoms: N3_10  and  C6_12 
REMARK    7  A    between atoms: C6_12  and  C7_14 
REMARK    8  A    between atoms: C7_14  and  N4_15 
REMARK    9  A    between atoms: N4_15  and  C8_16 
REMARK   10  A    between atoms: C8_16  and  C9_17 
REMARK   11  A    between atoms: C9_17  and  C10_18 
REMARK   12  A    between atoms: C10_18  and  N5_19 
ROOT
HETATM    1  N3  UNL     1     -15.535  23.788 -17.102  1.00  0.00    -0.360 N 
ATOM      2  H3  UNL     1     -15.907  24.484 -17.748  1.00  0.00     0.162 HD
HETATM    3  C6  UNL     1     -16.068  22.479 -17.148  1.00  0.00     0.243 C 
HETATM    4  O1  UNL     1     -15.597  21.628 -16.338  1.00  0.00    -0.272 OA
ENDROOT
BRANCH   3   5
HETATM    5  C7  UNL     1     -17.117  22.023 -18.051  1.00  0.00     0.339 C 
BRANCH   5   6
HETATM    6  N4  UNL     1     -16.693  21.685 -19.389  1.00  0.00    -0.056 N 
HETATM    7  C12 UNL     1     -15.303  21.357 -19.495  1.00  0.00     0.266 A 
HETATM    8  C13 UNL     1     -16.340  20.294 -19.671  1.00  0.00     0.266 A 
BRANCH   6   9
HETATM    9  C8  UNL     1     -17.389  22.361 -20.432  1.00  0.00     0.239 C 
BRANCH   9  10
HETATM   10  C9  UNL     1     -17.418  23.857 -20.306  1.00  0.00     0.048 C 
BRANCH  10  11
HETATM   11  C10 UNL     1     -16.389  24.530 -21.189  1.00  0.00     0.123 C 
BRANCH  11  12
HETATM   12  N5  UNL     1     -16.694  25.930 -21.286  1.00  0.00    -0.367 N 
HETATM   13  C11 UNL     1     -16.066  26.874 -20.708  1.00  0.00     0.196 C 
HETATM   14  N6  UNL     1     -14.957  26.742 -19.866  1.00  0.00    -0.067 NA
HETATM   15  N7  UNL     1     -16.553  28.210 -20.951  1.00  0.00    -0.067 NA
ATOM     16  H5  UNL     1     -17.488  26.191 -21.871  1.00  0.00     0.161 HD
ENDBRANCH  11  12
ENDBRANCH  10  11
ENDBRANCH   9  10
ENDBRANCH   6   9
ENDBRANCH   5   6
ENDBRANCH   3   5
BRANCH   1  17
HETATM   17  C5  UNL     1     -14.496  24.190 -16.196  1.00  0.00     0.122 C 
BRANCH  17  18
HETATM   18  C4  UNL     1     -13.132  23.756 -16.661  1.00  0.00     0.021 C 
BRANCH  18  19
HETATM   19  C3  UNL     1     -12.150  24.917 -16.436  1.00  0.00     0.021 C 
BRANCH  19  20
HETATM   20  C2  UNL     1     -12.319  25.851 -17.593  1.00  0.00     0.121 C 
BRANCH  20  21
HETATM   21  N2  UNL     1     -11.140  26.633 -17.854  1.00  0.00    -0.369 N 
ATOM     22  H2  UNL     1     -10.642  26.546 -18.740  1.00  0.00     0.161 HD
BRANCH  21  23
HETATM   23  C1  UNL     1     -10.686  27.528 -16.847  1.00  0.00     0.180 C 
HETATM   24  N1  UNL     1     -11.562  28.449 -16.224  1.00  0.00    -0.070 NA
HETATM   25  S1  UNL     1      -9.109  27.496 -16.395  1.00  0.00    -0.044 SA
ENDBRANCH  21  23
ENDBRANCH  20  21
ENDBRANCH  19  20
ENDBRANCH  18  19
ENDBRANCH  17  18
ENDBRANCH   1  17
TORSDOF 12
ENDMDL
MODEL 3
REMARK VINA RESULT: -6.870124802      3.929      6.834
REMARK  12 active torsions:
REMARK  status: ('A' for Active; 'I' for Inactive)
REMARK    1  A    between atoms: C1_2  and  N2_4 
REMARK    2  A    between atoms: N2_4  and  C2_6 
REMARK    3  A    between atoms: C2_6  and  C3_7 
REMARK    4  A    between atoms: C3_7  and  C4_8 
REMARK    5  A    between atoms: C4_8  and  C5_9 
REMARK    6  A    between atoms: C5_9  and  N3_10 
REMARK       I    between atoms: N3_10  and  C6_12 
REMARK    7  A    between atoms: C6_12  and  C7_14 
REMARK    8  A    between atoms: C7_14  and  N4_15 
REMARK    9  A    between atoms: N4_15  and  C8_16 
REMARK   10  A    between atoms: C8_16  and  C9_17 
REMARK   11  A    between atoms: C9_17  and  C10_18 
REMARK   12  A    between atoms: C10_18  and  N5_19 
ROOT
HETATM    1  N3  UNL     1     -15.420  23.813 -17.042  1.00  0.00    -0.360 N 
ATOM      2  H3  UNL     1     -15.795  24.521 -17.672  1.00  0.00     0.162 HD
HETATM    3  C6  UNL     1     -15.966  22.510 -17.099  1.00  0.00     0.243 C 
HETATM    4  O1  UNL     1     -15.491  21.643 -16.308  1.00  0.00    -0.272 OA
ENDROOT
BRANCH   3   5
HETATM    5  C7  UNL     1     -17.031  22.075 -17.993  1.00  0.00     0.339 C 
BRANCH   5   6
HETATM    6  N4  UNL     1     -16.624  21.724 -19.333  1.00  0.00    -0.056 N 
HETATM    7  C12 UNL     1     -15.232  21.413 -19.458  1.00  0.00     0.266 A 
HETATM    8  C13 UNL     1     -16.258  20.334 -19.602  1.00  0.00     0.266 A 
BRANCH   6   9
HETATM    9  C8  UNL     1     -17.346  22.377 -20.374  1.00  0.00     0.239 C 
BRANCH   9  10
HETATM   10  C9  UNL     1     -17.381  23.874 -20.275  1.00  0.00     0.048 C 
BRANCH  10  11
HETATM   11  C10 UNL     1     -16.378  24.537 -21.195  1.00  0.00     0.123 C 
BRANCH  11  12
HETATM   12  N5  UNL     1     -16.661  25.943 -21.267  1.00  0.00    -0.367 N 
HETATM   13  C11 UNL     1     -16.034  26.865 -20.653  1.00  0.00     0.196 C 
HETATM   14  N6  UNL     1     -14.948  26.697 -19.788  1.00  0.00    -0.067 NA
HETATM   15  N7  UNL     1     -16.496  28.212 -20.876  1.00  0.00    -0.067 NA
ATOM     16  H5  UNL     1     -17.436  26.229 -21.865  1.00  0.00     0.161 HD
ENDBRANCH  11  12
ENDBRANCH  10  11
ENDBRANCH   9  10
ENDBRANCH   6   9
ENDBRANCH   5   6
ENDBRANCH   3   5
BRANCH   1  17
HETATM   17  C5  UNL     1     -14.365  24.193 -16.145  1.00  0.00     0.122 C 
BRANCH  17  18
HETATM   18  C4  UNL     1     -13.000  23.935 -16.725  1.00  0.00     0.021 C 
BRANCH  18  19
HETATM   19  C3  UNL     1     -12.295  25.286 -16.927  1.00  0.00     0.021 C 
BRANCH  19  20
HETATM   20  C2  UNL     1     -11.898  25.351 -18.368  1.00  0.00     0.121 C 
BRANCH  20  21
HETATM   21  N2  UNL     1     -10.580  24.826 -18.606  1.00  0.00    -0.369 N 
ATOM     22  H2  UNL     1     -10.436  24.045 -19.247  1.00  0.00     0.161 HD
BRANCH  21  23
HETATM   23  C1  UNL     1      -9.482  25.421 -17.926  1.00  0.00     0.180 C 
HETATM   24  N1  UNL     1      -9.170  26.793 -18.084  1.00  0.00    -0.070 NA
HETATM   25  S1  UNL     1      -8.555  24.500 -16.936  1.00  0.00    -0.044 SA
ENDBRANCH  21  23
ENDBRANCH  20  21
ENDBRANCH  19  20
ENDBRANCH  18  19
ENDBRANCH  17  18
ENDBRANCH   1  17
TORSDOF 12
ENDMDL
MODEL 4
REMARK VINA RESULT: -6.842949742      3.713      6.904
REMARK  12 active torsions:
REMARK  status: ('A' for Active; 'I' for Inactive)
REMARK    1  A    between atoms: C1_2  and  N2_4 
REMARK    2  A    between atoms: N2_4  and  C2_6 
REMARK    3  A    between atoms: C2_6  and  C3_7 
REMARK    4  A    between atoms: C3_7  and  C4_8 
REMARK    5  A    between atoms: C4_8  and  C5_9 
REMARK    6  A    between atoms: C5_9  and  N3_10 
REMARK       I    between atoms: N3_10  and  C6_12 
REMARK    7  A    between atoms: C6_12  and  C7_14 
REMARK    8  A    between atoms: C7_14  and  N4_15 
REMARK    9  A    between atoms: N4_15  and  C8_16 
REMARK   10  A    between atoms: C8_16  and  C9_17 
REMARK   11  A    between atoms: C9_17  and  C10_18 
REMARK   12  A    between atoms: C10_18  and  N5_19 
ROOT
HETATM    1  N3  UNL     1     -16.833  21.748 -18.556  1.00  0.00    -0.360 N 
ATOM      2  H3  UNL     1     -17.581  21.685 -17.866  1.00  0.00     0.162 HD
HETATM    3  C6  UNL     1     -15.505  21.888 -18.092  1.00  0.00     0.243 C 
HETATM    4  O1  UNL     1     -14.589  21.968 -18.961  1.00  0.00    -0.272 OA
ENDROOT
BRANCH   3   5
HETATM    5  C7  UNL     1     -15.097  21.948 -16.694  1.00  0.00     0.339 C 
BRANCH   5   6
HETATM    6  N4  UNL     1     -14.714  23.251 -16.205  1.00  0.00    -0.056 N 
HETATM    7  C12 UNL     1     -15.636  24.294 -16.537  1.00  0.00     0.266 A 
HETATM    8  C13 UNL     1     -15.497  23.840 -15.120  1.00  0.00     0.266 A 
BRANCH   6   9
HETATM    9  C8  UNL     1     -13.309  23.481 -16.137  1.00  0.00     0.239 C 
BRANCH   9  10
HETATM   10  C9  UNL     1     -12.816  24.629 -16.970  1.00  0.00     0.048 C 
BRANCH  10  11
HETATM   11  C10 UNL     1     -11.428  25.079 -16.567  1.00  0.00     0.123 C 
BRANCH  11  12
HETATM   12  N5  UNL     1     -11.500  26.413 -16.040  1.00  0.00    -0.367 N 
HETATM   13  C11 UNL     1     -11.580  27.484 -16.723  1.00  0.00     0.196 C 
HETATM   14  N6  UNL     1     -11.615  27.580 -18.118  1.00  0.00    -0.067 NA
HETATM   15  N7  UNL     1     -11.641  28.717 -15.977  1.00  0.00    -0.067 NA
ATOM     16  H5  UNL     1     -11.485  26.511 -15.025  1.00  0.00     0.161 HD
ENDBRANCH  11  12
ENDBRANCH  10  11
ENDBRANCH   9  10
ENDBRANCH   6   9
ENDBRANCH   5   6
ENDBRANCH   3   5
BRANCH   1  17
HETATM   17  C5  UNL     1     -17.186  21.690 -19.946  1.00  0.00     0.122 C 
BRANCH  17  18
HETATM   18  C4  UNL     1     -17.855  22.952 -20.420  1.00  0.00     0.021 C 
BRANCH  18  19
HETATM   19  C3  UNL     1     -16.824  23.788 -21.195  1.00  0.00     0.021 C 
BRANCH  19  20
HETATM   20  C2  UNL     1     -16.824  25.150 -20.576  1.00  0.00     0.121 C 
BRANCH  20  21
HETATM   21  N2  UNL     1     -16.659  26.201 -21.544  1.00  0.00    -0.369 N 
ATOM     22  H2  UNL     1     -17.167  26.181 -22.428  1.00  0.00     0.161 HD
BRANCH  21  23
HETATM   23  C1  UNL     1     -15.771  27.269 -21.238  1.00  0.00     0.180 C 
HETATM   24  N1  UNL     1     -14.918  27.222 -20.109  1.00  0.00    -0.070 NA
HETATM   25  S1  UNL     1     -15.733  28.587 -22.213  1.00  0.00    -0.044 SA
ENDBRANCH  21  23
ENDBRANCH  20  21
ENDBRANCH  19  20
ENDBRANCH  18  19
ENDBRANCH  17  18
ENDBRANCH   1  17
TORSDOF 12
ENDMDL
MODEL 5
REMARK VINA RESULT: -6.728132061      4.052      7.250
REMARK  12 active torsions:
REMARK  status: ('A' for Active; 'I' for Inactive)
REMARK    1  A    between atoms: C1_2  and  N2_4 
REMARK    2  A    between atoms: N2_4  and  C2_6 
REMARK    3  A    between atoms: C2_6  and  C3_7 
REMARK    4  A    between atoms: C3_7  and  C4_8 
REMARK    5  A    between atoms: C4_8  and  C5_9 
REMARK    6  A    between atoms: C5_9  and  N3_10 
REMARK       I    between atoms: N3_10  and  C6_12 
REMARK    7  A    between atoms: C6_12  and  C7_14 
REMARK    8  A    between atoms: C7_14  and  N4_15 
REMARK    9  A    between atoms: N4_15  and  C8_16 
REMARK   10  A    between atoms: C8_16  and  C9_17 
REMARK   11  A    between atoms: C9_17  and  C10_18 
REMARK   12  A    between atoms: C10_18  and  N5_19 
ROOT
HETATM    1  N3  UNL     1     -14.856  23.685 -17.133  1.00  0.00    -0.360 N 
ATOM      2  H3  UNL     1     -15.147  24.369 -17.831  1.00  0.00     0.162 HD
HETATM    3  C6  UNL     1     -15.632  22.513 -16.981  1.00  0.00     0.243 C 
HETATM    4  O1  UNL     1     -15.259  21.674 -16.110  1.00  0.00    -0.272 OA
ENDROOT
BRANCH   3   5
HETATM    5  C7  UNL     1     -16.829  22.184 -17.745  1.00  0.00     0.339 C 
BRANCH   5   6
HETATM    6  N4  UNL     1     -16.608  21.731 -19.098  1.00  0.00    -0.056 N 
HETATM    7  C12 UNL     1     -15.273  21.280 -19.352  1.00  0.00     0.266 A 
HETATM    8  C13 UNL     1     -16.402  20.300 -19.322  1.00  0.00     0.266 A 
BRANCH   6   9
HETATM    9  C8  UNL     1     -17.380  22.399 -20.093  1.00  0.00     0.239 C 
BRANCH   9  10
HETATM   10  C9  UNL     1     -17.322  23.897 -20.035  1.00  0.00     0.048 C 
BRANCH  10  11
HETATM   11  C10 UNL     1     -16.434  24.482 -21.113  1.00  0.00     0.123 C 
BRANCH  11  12
HETATM   12  N5  UNL     1     -16.692  25.890 -21.223  1.00  0.00    -0.367 N 
HETATM   13  C11 UNL     1     -16.037  26.818 -20.648  1.00  0.00     0.196 C 
HETATM   14  N6  UNL     1     -14.939  26.656 -19.796  1.00  0.00    -0.067 NA
HETATM   15  N7  UNL     1     -16.477  28.167 -20.906  1.00  0.00    -0.067 NA
ATOM     16  H5  UNL     1     -17.471  26.174 -21.817  1.00  0.00     0.161 HD
ENDBRANCH  11  12
ENDBRANCH  10  11
ENDBRANCH   9  10
ENDBRANCH   6   9
ENDBRANCH   5   6
ENDBRANCH   3   5
BRANCH   1  17
HETATM   17  C5  UNL     1     -13.679  23.962 -16.359  1.00  0.00     0.122 C 
BRANCH  17  18
HETATM   18  C4  UNL     1     -12.647  24.729 -17.142  1.00  0.00     0.021 C 
BRANCH  18  19
HETATM   19  C3  UNL     1     -11.481  25.074 -16.203  1.00  0.00     0.021 C 
BRANCH  19  20
HETATM   20  C2  UNL     1     -11.101  26.492 -16.494  1.00  0.00     0.121 C 
BRANCH  20  21
HETATM   21  N2  UNL     1     -10.020  26.959 -15.668  1.00  0.00    -0.369 N 
ATOM     22  H2  UNL     1     -10.134  27.044 -14.657  1.00  0.00     0.161 HD
BRANCH  21  23
HETATM   23  C1  UNL     1      -8.789  27.301 -16.293  1.00  0.00     0.180 C 
HETATM   24  N1  UNL     1      -7.887  28.217 -15.700  1.00  0.00    -0.070 NA
HETATM   25  S1  UNL     1      -8.404  26.620 -17.735  1.00  0.00    -0.044 SA
ENDBRANCH  21  23
ENDBRANCH  20  21
ENDBRANCH  19  20
ENDBRANCH  18  19
ENDBRANCH  17  18
ENDBRANCH   1  17
TORSDOF 12
ENDMDL
