MODEL 1
REMARK VINA RESULT: -6.325332637      0.000      0.000
REMARK  12 active torsions:
REMARK  status: ('A' for Active; 'I' for Inactive)
REMARK    1  A    between atoms: N1_2  and  C3_4 
REMARK    2  A    between atoms: N1_2  and  C7_12 
REMARK    3  A    between atoms: C3_4  and  C4_5 
REMARK    4  A    between atoms: C4_5  and  C5_6 
REMARK    5  A    between atoms: C5_6  and  N2_7 
REMARK    6  A    between atoms: C7_12  and  C8_13 
REMARK    7  A    between atoms: C10_15  and  N5_16 
REMARK    8  A    between atoms: C11_20  and  C12_21 
REMARK    9  A    between atoms: C12_21  and  C13_22 
REMARK       I    between atoms: C13_22  and  N6_24 
REMARK   10  A    between atoms: N6_24  and  C14_26 
REMARK   11  A    between atoms: C14_26  and  C15_27 
REMARK   12  A    between atoms: C15_27  and  N7_28 
ROOT
HETATM    1  C8  UNL     1     -15.373  22.395 -17.333  1.00  0.00     0.150 C 
HETATM    2  C9  UNL     1     -16.262  23.329 -16.616  1.00  0.00     0.069 C 
HETATM    3  C10 UNL     1     -15.239  24.204 -15.847  1.00  0.00     0.218 C 
HETATM    4  C11 UNL     1     -14.012  23.827 -16.538  1.00  0.00     0.180 C 
HETATM    5  O2  UNL     1     -14.164  22.414 -16.627  1.00  0.00    -0.373 OA
ENDROOT
BRANCH   1   6
HETATM    6  C7  UNL     1     -15.858  21.071 -17.708  1.00  0.00     0.268 C 
BRANCH   6   7
HETATM    7  N1  UNL     1     -16.238  20.784 -19.028  1.00  0.00    -0.072 N 
HETATM    8  C1  UNL     1     -15.165  21.312 -19.909  1.00  0.00     0.272 C 
HETATM    9  C2  UNL     1     -16.307  19.388 -19.387  1.00  0.00     0.272 C 
BRANCH   7  10
HETATM   10  C3  UNL     1     -17.407  21.526 -19.388  1.00  0.00     0.238 C 
BRANCH  10  11
HETATM   11  C4  UNL     1     -17.226  22.472 -20.529  1.00  0.00     0.047 C 
BRANCH  11  12
HETATM   12  C5  UNL     1     -17.425  23.904 -20.080  1.00  0.00     0.123 C 
BRANCH  12  13
HETATM   13  N2  UNL     1     -17.092  24.849 -21.114  1.00  0.00    -0.367 N 
HETATM   14  C6  UNL     1     -16.441  25.930 -20.925  1.00  0.00     0.196 C 
HETATM   15  N3  UNL     1     -15.948  26.365 -19.667  1.00  0.00    -0.067 NA
HETATM   16  N4  UNL     1     -16.196  26.758 -22.066  1.00  0.00    -0.067 NA
ATOM     17  H2  UNL     1     -17.397  24.640 -22.065  1.00  0.00     0.161 HD
ENDBRANCH  12  13
ENDBRANCH  11  12
ENDBRANCH  10  11
ENDBRANCH   7  10
ENDBRANCH   6   7
ENDBRANCH   1   6
BRANCH   3  18
HETATM   18  N5  UNL     1     -15.447  23.925 -14.494  1.00  0.00    -0.072 N 
ATOM     19  H53 UNL     1     -14.814  24.427 -13.871  1.00  0.00     0.274 HD
ATOM     20  H52 UNL     1     -16.314  24.314 -14.125  1.00  0.00     0.274 HD
ATOM     21  H51 UNL     1     -15.385  22.910 -14.411  1.00  0.00     0.274 HD
ENDBRANCH   3  18
BRANCH   4  22
HETATM   22  C12 UNL     1     -12.685  24.255 -16.166  1.00  0.00     0.080 C 
BRANCH  22  23
HETATM   23  C13 UNL     1     -11.956  25.268 -16.885  1.00  0.00     0.239 C 
HETATM   24  O1  UNL     1     -12.494  26.098 -17.631  1.00  0.00    -0.269 OA
HETATM   25  N6  UNL     1     -10.554  25.364 -16.765  1.00  0.00    -0.356 N 
ATOM     26  H6  UNL     1     -10.079  24.695 -16.158  1.00  0.00     0.162 HD
BRANCH  25  27
HETATM   27  C14 UNL     1      -9.749  26.348 -17.448  1.00  0.00     0.150 C 
BRANCH  27  28
HETATM   28  C15 UNL     1      -9.444  27.511 -16.530  1.00  0.00     0.249 C 
BRANCH  28  29
HETATM   29  N7  UNL     1     -10.598  28.337 -16.288  1.00  0.00    -0.078 N 
ATOM     30  H73 UNL     1     -11.439  27.919 -16.687  1.00  0.00     0.274 HD
ATOM     31  H72 UNL     1     -10.860  28.323 -15.302  1.00  0.00     0.274 HD
ATOM     32  H71 UNL     1     -10.469  29.292 -16.621  1.00  0.00     0.274 HD
ENDBRANCH  28  29
ENDBRANCH  27  28
ENDBRANCH  25  27
ENDBRANCH  22  23
ENDBRANCH   4  22
TORSDOF 12
ENDMDL
MODEL 2
REMARK VINA RESULT: -6.069972190      2.475      4.756
REMARK  12 active torsions:
REMARK  status: ('A' for Active; 'I' for Inactive)
REMARK    1  A    between atoms: N1_2  and  C3_4 
REMARK    2  A    between atoms: N1_2  and  C7_12 
REMARK    3  A    between atoms: C3_4  and  C4_5 
REMARK    4  A    between atoms: C4_5  and  C5_6 
REMARK    5  A    between atoms: C5_6  and  N2_7 
REMARK    6  A    between atoms: C7_12  and  C8_13 
REMARK    7  A    between atoms: C10_15  and  N5_16 
REMARK    8  A    between atoms: C11_20  and  C12_21 
REMARK    9  A    between atoms: C12_21  and  C13_22 
REMARK       I    between atoms: C13_22  and  N6_24 
REMARK   10  A    between atoms: N6_24  and  C14_26 
REMARK   11  A    between atoms: C14_26  and  C15_27 
REMARK   12  A    between atoms: C15_27  and  N7_28 
ROOT
HETATM    1  C8  UNL     1     -17.379  23.480 -19.946  1.00  0.00     0.150 C 
HETATM    2  C9  UNL     1     -16.920  22.175 -20.462  1.00  0.00     0.069 C 
HETATM    3  C10 UNL     1     -16.317  21.532 -19.187  1.00  0.00     0.218 C 
HETATM    4  C11 UNL     1     -16.857  22.426 -18.171  1.00  0.00     0.180 C 
HETATM    5  O2  UNL     1     -16.644  23.698 -18.775  1.00  0.00    -0.373 OA
ENDROOT
BRANCH   1   6
HETATM    6  C7  UNL     1     -17.477  24.624 -20.845  1.00  0.00     0.268 C 
BRANCH   6   7
HETATM    7  N1  UNL     1     -16.384  25.479 -21.055  1.00  0.00    -0.072 N 
HETATM    8  C1  UNL     1     -15.968  25.981 -19.720  1.00  0.00     0.272 C 
HETATM    9  C2  UNL     1     -15.182  24.871 -21.571  1.00  0.00     0.272 C 
BRANCH   7  10
HETATM   10  C3  UNL     1     -16.789  26.647 -21.776  1.00  0.00     0.238 C 
BRANCH  10  11
HETATM   11  C4  UNL     1     -15.722  27.676 -21.959  1.00  0.00     0.047 C 
BRANCH  11  12
HETATM   12  C5  UNL     1     -16.262  29.065 -21.697  1.00  0.00     0.123 C 
BRANCH  12  13
HETATM   13  N2  UNL     1     -15.632  30.058 -22.530  1.00  0.00    -0.367 N 
HETATM   14  C6  UNL     1     -14.618  30.752 -22.187  1.00  0.00     0.196 C 
HETATM   15  N3  UNL     1     -13.957  30.651 -20.936  1.00  0.00    -0.067 NA
HETATM   16  N4  UNL     1     -14.118  31.698 -23.138  1.00  0.00    -0.067 NA
ATOM     17  H2  UNL     1     -16.025  30.218 -23.457  1.00  0.00     0.161 HD
ENDBRANCH  12  13
ENDBRANCH  11  12
ENDBRANCH  10  11
ENDBRANCH   7  10
ENDBRANCH   6   7
ENDBRANCH   1   6
BRANCH   3  18
HETATM   18  N5  UNL     1     -14.946  21.426 -19.431  1.00  0.00    -0.072 N 
ATOM     19  H53 UNL     1     -14.576  22.173 -20.018  1.00  0.00     0.274 HD
ATOM     20  H52 UNL     1     -14.368  21.617 -18.613  1.00  0.00     0.274 HD
ATOM     21  H51 UNL     1     -14.808  20.493 -19.821  1.00  0.00     0.274 HD
ENDBRANCH   3  18
BRANCH   4  22
HETATM   22  C12 UNL     1     -16.531  22.379 -16.766  1.00  0.00     0.080 C 
BRANCH  22  23
HETATM   23  C13 UNL     1     -15.209  22.641 -16.256  1.00  0.00     0.239 C 
HETATM   24  O1  UNL     1     -14.691  21.995 -15.334  1.00  0.00    -0.269 OA
HETATM   25  N6  UNL     1     -14.422  23.675 -16.803  1.00  0.00    -0.356 N 
ATOM     26  H6  UNL     1     -14.818  24.227 -17.564  1.00  0.00     0.162 HD
BRANCH  25  27
HETATM   27  C14 UNL     1     -13.090  24.003 -16.353  1.00  0.00     0.150 C 
BRANCH  27  28
HETATM   28  C15 UNL     1     -12.481  25.070 -17.235  1.00  0.00     0.249 C 
BRANCH  28  29
HETATM   29  N7  UNL     1     -11.891  26.140 -16.474  1.00  0.00    -0.078 N 
ATOM     30  H73 UNL     1     -12.299  27.040 -16.728  1.00  0.00     0.274 HD
ATOM     31  H72 UNL     1     -12.181  26.099 -15.497  1.00  0.00     0.274 HD
ATOM     32  H71 UNL     1     -10.875  26.161 -16.556  1.00  0.00     0.274 HD
ENDBRANCH  28  29
ENDBRANCH  27  28
ENDBRANCH  25  27
ENDBRANCH  22  23
ENDBRANCH   4  22
TORSDOF 12
ENDMDL
MODEL 3
REMARK VINA RESULT: -6.019367668      3.117      5.170
REMARK  12 active torsions:
REMARK  status: ('A' for Active; 'I' for Inactive)
REMARK    1  A    between atoms: N1_2  and  C3_4 
REMARK    2  A    between atoms: N1_2  and  C7_12 
REMARK    3  A    between atoms: C3_4  and  C4_5 
REMARK    4  A    between atoms: C4_5  and  C5_6 
REMARK    5  A    between atoms: C5_6  and  N2_7 
REMARK    6  A    between atoms: C7_12  and  C8_13 
REMARK    7  A    between atoms: C10_15  and  N5_16 
REMARK    8  A    between atoms: C11_20  and  C12_21 
REMARK    9  A    between atoms: C12_21  and  C13_22 
REMARK       I    between atoms: C13_22  and  N6_24 
REMARK   10  A    between atoms: N6_24  and  C14_26 
REMARK   11  A    between atoms: C14_26  and  C15_27 
REMARK   12  A    between atoms: C15_27  and  N7_28 
ROOT
HETATM    1  C8  UNL     1     -16.871  23.327 -20.948  1.00  0.00     0.150 C 
HETATM    2  C9  UNL     1     -17.524  24.576 -20.512  1.00  0.00     0.069 C 
HETATM    3  C10 UNL     1     -16.495  25.641 -20.969  1.00  0.00     0.218 C 
HETATM    4  C11 UNL     1     -15.667  24.832 -21.854  1.00  0.00     0.180 C 
HETATM    5  O2  UNL     1     -15.514  23.643 -21.085  1.00  0.00    -0.373 OA
ENDROOT
BRANCH   1   6
HETATM    6  C7  UNL     1     -17.154  22.076 -20.253  1.00  0.00     0.268 C 
BRANCH   6   7
HETATM    7  N1  UNL     1     -16.302  21.594 -19.247  1.00  0.00    -0.072 N 
HETATM    8  C1  UNL     1     -16.600  20.149 -19.086  1.00  0.00     0.272 C 
HETATM    9  C2  UNL     1     -14.889  21.612 -19.540  1.00  0.00     0.272 C 
BRANCH   7  10
HETATM   10  C3  UNL     1     -16.632  22.182 -17.985  1.00  0.00     0.238 C 
BRANCH  10  11
HETATM   11  C4  UNL     1     -15.587  22.031 -16.928  1.00  0.00     0.047 C 
BRANCH  11  12
HETATM   12  C5  UNL     1     -15.272  23.365 -16.286  1.00  0.00     0.123 C 
BRANCH  12  13
HETATM   13  N2  UNL     1     -13.854  23.579 -16.148  1.00  0.00    -0.367 N 
HETATM   14  C6  UNL     1     -13.201  24.504 -16.736  1.00  0.00     0.196 C 
HETATM   15  N3  UNL     1     -13.772  25.461 -17.615  1.00  0.00    -0.067 NA
HETATM   16  N4  UNL     1     -11.793  24.574 -16.488  1.00  0.00    -0.067 NA
ATOM     17  H2  UNL     1     -13.336  22.948 -15.538  1.00  0.00     0.161 HD
ENDBRANCH  12  13
ENDBRANCH  11  12
ENDBRANCH  10  11
ENDBRANCH   7  10
ENDBRANCH   6   7
ENDBRANCH   1   6
BRANCH   3  18
HETATM   18  N5  UNL     1     -15.994  26.209 -19.795  1.00  0.00    -0.072 N 
ATOM     19  H53 UNL     1     -16.658  26.199 -19.021  1.00  0.00     0.274 HD
ATOM     20  H52 UNL     1     -15.273  25.646 -19.344  1.00  0.00     0.274 HD
ATOM     21  H51 UNL     1     -15.681  27.145 -20.055  1.00  0.00     0.274 HD
ENDBRANCH   3  18
BRANCH   4  22
HETATM   22  C12 UNL     1     -14.454  25.279 -22.495  1.00  0.00     0.080 C 
BRANCH  22  23
HETATM   23  C13 UNL     1     -13.140  24.906 -22.039  1.00  0.00     0.239 C 
HETATM   24  O1  UNL     1     -12.734  25.104 -20.885  1.00  0.00    -0.269 OA
HETATM   25  N6  UNL     1     -12.229  24.277 -22.913  1.00  0.00    -0.356 N 
ATOM     26  H6  UNL     1     -12.530  24.099 -23.871  1.00  0.00     0.162 HD
BRANCH  25  27
HETATM   27  C14 UNL     1     -10.896  23.870 -22.537  1.00  0.00     0.150 C 
BRANCH  27  28
HETATM   28  C15 UNL     1      -9.864  24.727 -23.236  1.00  0.00     0.249 C 
BRANCH  28  29
HETATM   29  N7  UNL     1      -9.292  24.071 -24.382  1.00  0.00    -0.078 N 
ATOM     30  H73 UNL     1      -8.503  23.483 -24.113  1.00  0.00     0.274 HD
ATOM     31  H72 UNL     1      -9.917  23.351 -24.744  1.00  0.00     0.274 HD
ATOM     32  H71 UNL     1      -9.026  24.730 -25.114  1.00  0.00     0.274 HD
ENDBRANCH  28  29
ENDBRANCH  27  28
ENDBRANCH  25  27
ENDBRANCH  22  23
ENDBRANCH   4  22
TORSDOF 12
ENDMDL
MODEL 4
REMARK VINA RESULT: -5.974108233      2.144      5.445
REMARK  12 active torsions:
REMARK  status: ('A' for Active; 'I' for Inactive)
REMARK    1  A    between atoms: N1_2  and  C3_4 
REMARK    2  A    between atoms: N1_2  and  C7_12 
REMARK    3  A    between atoms: C3_4  and  C4_5 
REMARK    4  A    between atoms: C4_5  and  C5_6 
REMARK    5  A    between atoms: C5_6  and  N2_7 
REMARK    6  A    between atoms: C7_12  and  C8_13 
REMARK    7  A    between atoms: C10_15  and  N5_16 
REMARK    8  A    between atoms: C11_20  and  C12_21 
REMARK    9  A    between atoms: C12_21  and  C13_22 
REMARK       I    between atoms: C13_22  and  N6_24 
REMARK   10  A    between atoms: N6_24  and  C14_26 
REMARK   11  A    between atoms: C14_26  and  C15_27 
REMARK   12  A    between atoms: C15_27  and  N7_28 
ROOT
HETATM    1  C8  UNL     1     -12.827  24.546 -17.297  1.00  0.00     0.150 C 
HETATM    2  C9  UNL     1     -11.684  25.387 -16.890  1.00  0.00     0.069 C 
HETATM    3  C10 UNL     1     -10.853  25.436 -18.199  1.00  0.00     0.218 C 
HETATM    4  C11 UNL     1     -11.838  24.926 -19.144  1.00  0.00     0.180 C 
HETATM    5  O2  UNL     1     -12.385  23.832 -18.416  1.00  0.00    -0.373 OA
ENDROOT
BRANCH   1   6
HETATM    6  C7  UNL     1     -13.546  23.763 -16.298  1.00  0.00     0.268 C 
BRANCH   6   7
HETATM    7  N1  UNL     1     -14.942  23.623 -16.352  1.00  0.00    -0.072 N 
HETATM    8  C1  UNL     1     -15.421  23.545 -14.949  1.00  0.00     0.272 C 
HETATM    9  C2  UNL     1     -15.679  24.738 -16.894  1.00  0.00     0.272 C 
BRANCH   7  10
HETATM   10  C3  UNL     1     -15.298  22.365 -16.933  1.00  0.00     0.238 C 
BRANCH  10  11
HETATM   11  C4  UNL     1     -16.767  22.103 -17.015  1.00  0.00     0.047 C 
BRANCH  11  12
HETATM   12  C5  UNL     1     -17.209  21.954 -18.455  1.00  0.00     0.123 C 
BRANCH  12  13
HETATM   13  N2  UNL     1     -17.088  20.597 -18.922  1.00  0.00    -0.367 N 
HETATM   14  C6  UNL     1     -16.111  20.155 -19.615  1.00  0.00     0.196 C 
HETATM   15  N3  UNL     1     -14.999  20.932 -20.029  1.00  0.00    -0.067 NA
HETATM   16  N4  UNL     1     -16.150  18.776 -19.998  1.00  0.00    -0.067 NA
ATOM     17  H2  UNL     1     -17.834  19.944 -18.683  1.00  0.00     0.161 HD
ENDBRANCH  12  13
ENDBRANCH  11  12
ENDBRANCH  10  11
ENDBRANCH   7  10
ENDBRANCH   6   7
ENDBRANCH   1   6
BRANCH   3  18
HETATM   18  N5  UNL     1      -9.669  24.752 -17.918  1.00  0.00    -0.072 N 
ATOM     19  H53 UNL     1      -9.498  24.622 -16.921  1.00  0.00     0.274 HD
ATOM     20  H52 UNL     1      -9.698  23.763 -18.166  1.00  0.00     0.274 HD
ATOM     21  H51 UNL     1      -8.932  25.272 -18.396  1.00  0.00     0.274 HD
ENDBRANCH   3  18
BRANCH   4  22
HETATM   22  C12 UNL     1     -11.583  24.640 -20.535  1.00  0.00     0.080 C 
BRANCH  22  23
HETATM   23  C13 UNL     1     -12.623  24.589 -21.531  1.00  0.00     0.239 C 
HETATM   24  O1  UNL     1     -12.555  23.897 -22.557  1.00  0.00    -0.269 OA
HETATM   25  N6  UNL     1     -13.803  25.346 -21.375  1.00  0.00    -0.356 N 
ATOM     26  H6  UNL     1     -13.892  25.927 -20.541  1.00  0.00     0.162 HD
BRANCH  25  27
HETATM   27  C14 UNL     1     -14.892  25.350 -22.322  1.00  0.00     0.150 C 
BRANCH  27  28
HETATM   28  C15 UNL     1     -16.090  26.074 -21.747  1.00  0.00     0.249 C 
BRANCH  28  29
HETATM   29  N7  UNL     1     -16.878  25.232 -20.885  1.00  0.00    -0.078 N 
ATOM     30  H73 UNL     1     -17.456  24.589 -21.427  1.00  0.00     0.274 HD
ATOM     31  H72 UNL     1     -16.291  24.553 -20.398  1.00  0.00     0.274 HD
ATOM     32  H71 UNL     1     -17.442  25.769 -20.228  1.00  0.00     0.274 HD
ENDBRANCH  28  29
ENDBRANCH  27  28
ENDBRANCH  25  27
ENDBRANCH  22  23
ENDBRANCH   4  22
TORSDOF 12
ENDMDL
MODEL 5
REMARK VINA RESULT: -5.939572288      4.426      8.865
REMARK  12 active torsions:
REMARK  status: ('A' for Active; 'I' for Inactive)
REMARK    1  A    between atoms: N1_2  and  C3_4 
REMARK    2  A    between atoms: N1_2  and  C7_12 
REMARK    3  A    between atoms: C3_4  and  C4_5 
REMARK    4  A    between atoms: C4_5  and  C5_6 
REMARK    5  A    between atoms: C5_6  and  N2_7 
REMARK    6  A    between atoms: C7_12  and  C8_13 
REMARK    7  A    between atoms: C10_15  and  N5_16 
REMARK    8  A    between atoms: C11_20  and  C12_21 
REMARK    9  A    between atoms: C12_21  and  C13_22 
REMARK       I    between atoms: C13_22  and  N6_24 
REMARK   10  A    between atoms: N6_24  and  C14_26 
REMARK   11  A    between atoms: C14_26  and  C15_27 
REMARK   12  A    between atoms: C15_27  and  N7_28 
ROOT
HETATM    1  C8  UNL     1      -8.429  26.711 -17.674  1.00  0.00     0.150 C 
HETATM    2  C9  UNL     1      -8.884  27.343 -16.420  1.00  0.00     0.069 C 
HETATM    3  C10 UNL     1     -10.338  26.816 -16.316  1.00  0.00     0.218 C 
HETATM    4  C11 UNL     1     -10.294  25.750 -17.309  1.00  0.00     0.180 C 
HETATM    5  O2  UNL     1      -9.598  26.388 -18.374  1.00  0.00    -0.373 OA
ENDROOT
BRANCH   1   6
HETATM    6  C7  UNL     1      -7.378  27.340 -18.466  1.00  0.00     0.268 C 
BRANCH   6   7
HETATM    7  N1  UNL     1      -6.047  26.902 -18.385  1.00  0.00    -0.072 N 
HETATM    8  C1  UNL     1      -5.384  27.304 -19.652  1.00  0.00     0.272 C 
HETATM    9  C2  UNL     1      -5.229  27.519 -17.370  1.00  0.00     0.272 C 
BRANCH   7  10
HETATM   10  C3  UNL     1      -5.988  25.472 -18.377  1.00  0.00     0.238 C 
BRANCH  10  11
HETATM   11  C4  UNL     1      -5.453  24.871 -17.118  1.00  0.00     0.047 C 
BRANCH  11  12
HETATM   12  C5  UNL     1      -6.232  23.631 -16.738  1.00  0.00     0.123 C 
BRANCH  12  13
HETATM   13  N2  UNL     1      -7.420  23.945 -15.987  1.00  0.00    -0.367 N 
HETATM   14  C6  UNL     1      -8.114  23.092 -15.338  1.00  0.00     0.196 C 
HETATM   15  N3  UNL     1      -7.819  21.706 -15.260  1.00  0.00    -0.067 NA
HETATM   16  N4  UNL     1      -9.269  23.576 -14.646  1.00  0.00    -0.067 NA
ATOM     17  H2  UNL     1      -7.730  24.917 -15.972  1.00  0.00     0.161 HD
ENDBRANCH  12  13
ENDBRANCH  11  12
ENDBRANCH  10  11
ENDBRANCH   7  10
ENDBRANCH   6   7
ENDBRANCH   1   6
BRANCH   3  18
HETATM   18  N5  UNL     1     -11.156  27.938 -16.464  1.00  0.00    -0.072 N 
ATOM     19  H53 UNL     1     -10.647  28.821 -16.443  1.00  0.00     0.274 HD
ATOM     20  H52 UNL     1     -11.541  28.043 -17.404  1.00  0.00     0.274 HD
ATOM     21  H51 UNL     1     -11.868  27.857 -15.738  1.00  0.00     0.274 HD
ENDBRANCH   3  18
BRANCH   4  22
HETATM   22  C12 UNL     1     -11.427  24.964 -17.733  1.00  0.00     0.080 C 
BRANCH  22  23
HETATM   23  C13 UNL     1     -12.149  25.220 -18.953  1.00  0.00     0.239 C 
HETATM   24  O1  UNL     1     -13.051  26.064 -19.051  1.00  0.00    -0.269 OA
HETATM   25  N6  UNL     1     -11.850  24.498 -20.128  1.00  0.00    -0.356 N 
ATOM     26  H6  UNL     1     -11.113  23.795 -20.082  1.00  0.00     0.162 HD
BRANCH  25  27
HETATM   27  C14 UNL     1     -12.523  24.693 -21.390  1.00  0.00     0.150 C 
BRANCH  27  28
HETATM   28  C15 UNL     1     -11.634  24.260 -22.535  1.00  0.00     0.249 C 
BRANCH  28  29
HETATM   29  N7  UNL     1     -10.245  24.207 -22.162  1.00  0.00    -0.078 N 
ATOM     30  H73 UNL     1     -10.087  23.513 -21.431  1.00  0.00     0.274 HD
ATOM     31  H72 UNL     1      -9.680  23.794 -22.905  1.00  0.00     0.274 HD
ATOM     32  H71 UNL     1      -9.881  25.119 -21.886  1.00  0.00     0.274 HD
ENDBRANCH  28  29
ENDBRANCH  27  28
ENDBRANCH  25  27
ENDBRANCH  22  23
ENDBRANCH   4  22
TORSDOF 12
ENDMDL
