MODEL 1
REMARK VINA RESULT: -7.305160438      0.000      0.000
REMARK  11 active torsions:
REMARK  status: ('A' for Active; 'I' for Inactive)
REMARK    1  A    between atoms: N1_2  and  C2_3 
REMARK    2  A    between atoms: C2_3  and  C3_4 
REMARK    3  A    between atoms: C3_4  and  O1_5 
REMARK    4  A    between atoms: O1_5  and  C4_6 
REMARK    5  A    between atoms: C4_6  and  C5_7 
REMARK    6  A    between atoms: C5_7  and  N2_8 
REMARK    7  A    between atoms: N2_8  and  C6_11 
REMARK    8  A    between atoms: C6_11  and  C7_12 
REMARK    9  A    between atoms: C7_12  and  C8_13 
REMARK   10  A    between atoms: C8_13  and  C9_14 
REMARK   11  A    between atoms: C9_14  and  N3_15 
ROOT
HETATM    1  O1  UNL     1      11.414  22.417  19.943  1.00  0.00    -0.388 OA
ENDROOT
BRANCH   1   2
HETATM    2  C3  UNL     1      10.881  23.640  19.633  1.00  0.00     0.198 C 
BRANCH   2   3
HETATM    3  C2  UNL     1       9.613  23.510  18.872  1.00  0.00     0.301 C 
BRANCH   3   4
HETATM    4  N1  UNL     1       8.586  24.441  19.331  1.00  0.00     0.076 N 
HETATM    5  C1  UNL     1       8.013  23.904  20.536  1.00  0.00     0.313 C 
HETATM    6  N6  UNL     1       9.179  25.667  19.641  1.00  0.00    -0.159 N 
HETATM    7  C11 UNL     1       9.051  26.570  18.531  1.00  0.00     0.347 C 
ATOM      8  H6  UNL     1       9.636  25.889  20.526  1.00  0.00     0.199 HD
HETATM    9  O2  UNL     1       9.665  27.643  18.328  1.00  0.00    -0.245 OA
HETATM   10  N7  UNL     1       8.047  25.958  17.697  1.00  0.00    -0.271 N 
HETATM   11  C12 UNL     1       7.642  24.759  18.335  1.00  0.00     0.306 C 
ATOM     12  H7  UNL     1       7.693  26.321  16.811  1.00  0.00     0.173 HD
HETATM   13  N8  UNL     1       6.588  24.095  18.038  1.00  0.00    -0.363 N 
ATOM     14  H82 UNL     1       6.297  23.232  18.497  1.00  0.00     0.159 HD
ATOM     15  H81 UNL     1       5.904  24.324  17.317  1.00  0.00     0.159 HD
ENDBRANCH   3   4
ENDBRANCH   2   3
ENDBRANCH   1   2
BRANCH   1  16
HETATM   16  C4  UNL     1      12.044  21.819  18.880  1.00  0.00     0.195 C 
BRANCH  16  17
HETATM   17  C5  UNL     1      13.477  21.414  19.253  1.00  0.00     0.258 C 
BRANCH  17  18
HETATM   18  N2  UNL     1      13.403  20.789  20.560  1.00  0.00    -0.073 N 
ATOM     19  H22 UNL     1      12.592  21.109  21.091  1.00  0.00     0.277 HD
ATOM     20  H21 UNL     1      13.159  19.800  20.497  1.00  0.00     0.277 HD
BRANCH  18  21
HETATM   21  C6  UNL     1      14.650  20.999  21.285  1.00  0.00     0.232 C 
BRANCH  21  22
HETATM   22  C7  UNL     1      14.455  20.975  22.762  1.00  0.00     0.029 C 
BRANCH  22  23
HETATM   23  C8  UNL     1      15.062  22.170  23.410  1.00  0.00     0.021 C 
BRANCH  23  24
HETATM   24  C9  UNL     1      14.010  23.016  24.053  1.00  0.00     0.122 C 
BRANCH  24  25
HETATM   25  N3  UNL     1      14.296  24.440  23.911  1.00  0.00    -0.367 N 
HETATM   26  C10 UNL     1      13.383  25.309  23.710  1.00  0.00     0.196 C 
HETATM   27  N4  UNL     1      12.027  24.898  23.616  1.00  0.00    -0.067 NA
HETATM   28  N5  UNL     1      13.728  26.679  23.583  1.00  0.00    -0.067 NA
ATOM     29  H3  UNL     1      15.264  24.754  23.975  1.00  0.00     0.161 HD
ENDBRANCH  24  25
ENDBRANCH  23  24
ENDBRANCH  22  23
ENDBRANCH  21  22
ENDBRANCH  18  21
ENDBRANCH  17  18
ENDBRANCH  16  17
ENDBRANCH   1  16
TORSDOF 11
ENDMDL
MODEL 2
REMARK VINA RESULT: -7.243166536      1.090      1.368
REMARK  11 active torsions:
REMARK  status: ('A' for Active; 'I' for Inactive)
REMARK    1  A    between atoms: N1_2  and  C2_3 
REMARK    2  A    between atoms: C2_3  and  C3_4 
REMARK    3  A    between atoms: C3_4  and  O1_5 
REMARK    4  A    between atoms: O1_5  and  C4_6 
REMARK    5  A    between atoms: C4_6  and  C5_7 
REMARK    6  A    between atoms: C5_7  and  N2_8 
REMARK    7  A    between atoms: N2_8  and  C6_11 
REMARK    8  A    between atoms: C6_11  and  C7_12 
REMARK    9  A    between atoms: C7_12  and  C8_13 
REMARK   10  A    between atoms: C8_13  and  C9_14 
REMARK   11  A    between atoms: C9_14  and  N3_15 
ROOT
HETATM    1  O1  UNL     1      11.752  21.940  19.747  1.00  0.00    -0.388 OA
ENDROOT
BRANCH   1   2
HETATM    2  C3  UNL     1      11.300  23.122  19.222  1.00  0.00     0.198 C 
BRANCH   2   3
HETATM    3  C2  UNL     1       9.829  23.110  19.026  1.00  0.00     0.301 C 
BRANCH   3   4
HETATM    4  N1  UNL     1       9.185  24.316  19.535  1.00  0.00     0.076 N 
HETATM    5  C1  UNL     1       9.952  24.781  20.661  1.00  0.00     0.313 C 
HETATM    6  N6  UNL     1       9.215  25.307  18.551  1.00  0.00    -0.159 N 
HETATM    7  C11 UNL     1       7.969  25.328  17.837  1.00  0.00     0.347 C 
ATOM      8  H6  UNL     1      10.006  25.925  18.367  1.00  0.00     0.199 HD
HETATM    9  O2  UNL     1       7.711  25.881  16.743  1.00  0.00    -0.245 OA
HETATM   10  N7  UNL     1       7.075  24.564  18.672  1.00  0.00    -0.271 N 
HETATM   11  C12 UNL     1       7.814  24.141  19.805  1.00  0.00     0.306 C 
ATOM     12  H7  UNL     1       6.093  24.365  18.481  1.00  0.00     0.173 HD
HETATM   13  N8  UNL     1       7.297  23.682  20.882  1.00  0.00    -0.363 N 
ATOM     14  H82 UNL     1       7.828  23.377  21.697  1.00  0.00     0.159 HD
ATOM     15  H81 UNL     1       6.304  23.555  21.078  1.00  0.00     0.159 HD
ENDBRANCH   3   4
ENDBRANCH   2   3
ENDBRANCH   1   2
BRANCH   1  16
HETATM   16  C4  UNL     1      12.883  21.473  19.128  1.00  0.00     0.195 C 
BRANCH  16  17
HETATM   17  C5  UNL     1      13.937  21.051  20.162  1.00  0.00     0.258 C 
BRANCH  17  18
HETATM   18  N2  UNL     1      13.239  20.278  21.171  1.00  0.00    -0.073 N 
ATOM     19  H22 UNL     1      12.232  20.442  21.150  1.00  0.00     0.277 HD
ATOM     20  H21 UNL     1      13.231  19.281  20.951  1.00  0.00     0.277 HD
BRANCH  18  21
HETATM   21  C6  UNL     1      13.809  20.543  22.486  1.00  0.00     0.232 C 
BRANCH  21  22
HETATM   22  C7  UNL     1      15.075  21.324  22.406  1.00  0.00     0.029 C 
BRANCH  22  23
HETATM   23  C8  UNL     1      15.297  22.128  23.639  1.00  0.00     0.021 C 
BRANCH  23  24
HETATM   24  C9  UNL     1      14.087  22.942  23.966  1.00  0.00     0.122 C 
BRANCH  24  25
HETATM   25  N3  UNL     1      14.335  24.372  23.815  1.00  0.00    -0.367 N 
HETATM   26  C10 UNL     1      13.394  25.229  23.724  1.00  0.00     0.196 C 
HETATM   27  N4  UNL     1      12.042  24.798  23.768  1.00  0.00    -0.067 NA
HETATM   28  N5  UNL     1      13.704  26.606  23.580  1.00  0.00    -0.067 NA
ATOM     29  H3  UNL     1      15.300  24.701  23.780  1.00  0.00     0.161 HD
ENDBRANCH  24  25
ENDBRANCH  23  24
ENDBRANCH  22  23
ENDBRANCH  21  22
ENDBRANCH  18  21
ENDBRANCH  17  18
ENDBRANCH  16  17
ENDBRANCH   1  16
TORSDOF 11
ENDMDL
MODEL 3
REMARK VINA RESULT: -7.132122968      1.862      3.859
REMARK  11 active torsions:
REMARK  status: ('A' for Active; 'I' for Inactive)
REMARK    1  A    between atoms: N1_2  and  C2_3 
REMARK    2  A    between atoms: C2_3  and  C3_4 
REMARK    3  A    between atoms: C3_4  and  O1_5 
REMARK    4  A    between atoms: O1_5  and  C4_6 
REMARK    5  A    between atoms: C4_6  and  C5_7 
REMARK    6  A    between atoms: C5_7  and  N2_8 
REMARK    7  A    between atoms: N2_8  and  C6_11 
REMARK    8  A    between atoms: C6_11  and  C7_12 
REMARK    9  A    between atoms: C7_12  and  C8_13 
REMARK   10  A    between atoms: C8_13  and  C9_14 
REMARK   11  A    between atoms: C9_14  and  N3_15 
ROOT
HETATM    1  O1  UNL     1      10.207  24.089  22.948  1.00  0.00    -0.388 OA
ENDROOT
BRANCH   1   2
HETATM    2  C3  UNL     1       9.401  23.492  22.015  1.00  0.00     0.198 C 
BRANCH   2   3
HETATM    3  C2  UNL     1       9.665  24.009  20.648  1.00  0.00     0.301 C 
BRANCH   3   4
HETATM    4  N1  UNL     1       8.473  24.570  20.021  1.00  0.00     0.076 N 
HETATM    5  C1  UNL     1       7.326  24.067  20.729  1.00  0.00     0.313 C 
HETATM    6  N6  UNL     1       8.491  25.960  20.156  1.00  0.00    -0.159 N 
HETATM    7  C11 UNL     1       9.015  26.563  18.962  1.00  0.00     0.347 C 
ATOM      8  H6  UNL     1       8.177  26.472  20.981  1.00  0.00     0.199 HD
HETATM    9  O2  UNL     1       9.422  27.737  18.799  1.00  0.00    -0.245 OA
HETATM   10  N7  UNL     1       8.964  25.504  17.984  1.00  0.00    -0.271 N 
HETATM   11  C12 UNL     1       8.429  24.360  18.629  1.00  0.00     0.306 C 
ATOM     12  H7  UNL     1       9.259  25.566  17.010  1.00  0.00     0.173 HD
HETATM   13  N8  UNL     1       7.985  23.324  18.023  1.00  0.00    -0.363 N 
ATOM     14  H82 UNL     1       7.600  22.501  18.486  1.00  0.00     0.159 HD
ATOM     15  H81 UNL     1       7.953  23.172  17.015  1.00  0.00     0.159 HD
ENDBRANCH   3   4
ENDBRANCH   2   3
ENDBRANCH   1   2
BRANCH   1  16
HETATM   16  C4  UNL     1      10.248  23.408  24.138  1.00  0.00     0.195 C 
BRANCH  16  17
HETATM   17  C5  UNL     1      11.082  24.173  25.176  1.00  0.00     0.258 C 
BRANCH  17  18
HETATM   18  N2  UNL     1      12.352  24.473  24.544  1.00  0.00    -0.073 N 
ATOM     19  H22 UNL     1      12.232  24.871  23.613  1.00  0.00     0.277 HD
ATOM     20  H21 UNL     1      12.821  25.264  24.985  1.00  0.00     0.277 HD
BRANCH  18  21
HETATM   21  C6  UNL     1      13.193  23.282  24.524  1.00  0.00     0.232 C 
BRANCH  21  22
HETATM   22  C7  UNL     1      14.438  23.482  23.731  1.00  0.00     0.029 C 
BRANCH  22  23
HETATM   23  C8  UNL     1      15.168  22.200  23.532  1.00  0.00     0.021 C 
BRANCH  23  24
HETATM   24  C9  UNL     1      14.812  21.585  22.218  1.00  0.00     0.122 C 
BRANCH  24  25
HETATM   25  N3  UNL     1      14.669  20.135  22.315  1.00  0.00    -0.367 N 
HETATM   26  C10 UNL     1      13.533  19.559  22.384  1.00  0.00     0.196 C 
HETATM   27  N4  UNL     1      12.345  20.336  22.367  1.00  0.00    -0.067 NA
HETATM   28  N5  UNL     1      13.463  18.145  22.476  1.00  0.00    -0.067 NA
ATOM     29  H3  UNL     1      15.511  19.560  22.330  1.00  0.00     0.161 HD
ENDBRANCH  24  25
ENDBRANCH  23  24
ENDBRANCH  22  23
ENDBRANCH  21  22
ENDBRANCH  18  21
ENDBRANCH  17  18
ENDBRANCH  16  17
ENDBRANCH   1  16
TORSDOF 11
ENDMDL
MODEL 4
REMARK VINA RESULT: -6.969650362      1.527      1.938
REMARK  11 active torsions:
REMARK  status: ('A' for Active; 'I' for Inactive)
REMARK    1  A    between atoms: N1_2  and  C2_3 
REMARK    2  A    between atoms: C2_3  and  C3_4 
REMARK    3  A    between atoms: C3_4  and  O1_5 
REMARK    4  A    between atoms: O1_5  and  C4_6 
REMARK    5  A    between atoms: C4_6  and  C5_7 
REMARK    6  A    between atoms: C5_7  and  N2_8 
REMARK    7  A    between atoms: N2_8  and  C6_11 
REMARK    8  A    between atoms: C6_11  and  C7_12 
REMARK    9  A    between atoms: C7_12  and  C8_13 
REMARK   10  A    between atoms: C8_13  and  C9_14 
REMARK   11  A    between atoms: C9_14  and  N3_15 
ROOT
HETATM    1  O1  UNL     1      11.571  22.189  19.935  1.00  0.00    -0.388 OA
ENDROOT
BRANCH   1   2
HETATM    2  C3  UNL     1      10.821  23.041  19.169  1.00  0.00     0.198 C 
BRANCH   2   3
HETATM    3  C2  UNL     1       9.701  23.635  19.943  1.00  0.00     0.301 C 
BRANCH   3   4
HETATM    4  N1  UNL     1       8.546  23.948  19.108  1.00  0.00     0.076 N 
HETATM    5  C1  UNL     1       8.660  23.182  17.896  1.00  0.00     0.313 C 
HETATM    6  N6  UNL     1       7.380  23.548  19.765  1.00  0.00    -0.159 N 
HETATM    7  C11 UNL     1       6.790  24.668  20.445  1.00  0.00     0.347 C 
ATOM      8  H6  UNL     1       7.002  22.600  19.762  1.00  0.00     0.199 HD
HETATM    9  O2  UNL     1       5.908  24.659  21.334  1.00  0.00    -0.245 OA
HETATM   10  N7  UNL     1       7.448  25.813  19.867  1.00  0.00    -0.271 N 
HETATM   11  C12 UNL     1       8.368  25.330  18.903  1.00  0.00     0.306 C 
ATOM     12  H7  UNL     1       7.283  26.791  20.108  1.00  0.00     0.173 HD
HETATM   13  N8  UNL     1       8.928  26.049  18.005  1.00  0.00    -0.363 N 
ATOM     14  H82 UNL     1       9.590  25.702  17.311  1.00  0.00     0.159 HD
ATOM     15  H81 UNL     1       8.800  27.050  17.855  1.00  0.00     0.159 HD
ENDBRANCH   3   4
ENDBRANCH   2   3
ENDBRANCH   1   2
BRANCH   1  16
HETATM   16  C4  UNL     1      12.525  21.516  19.215  1.00  0.00     0.195 C 
BRANCH  16  17
HETATM   17  C5  UNL     1      13.745  21.197  20.090  1.00  0.00     0.258 C 
BRANCH  17  18
HETATM   18  N2  UNL     1      13.311  20.210  21.060  1.00  0.00    -0.073 N 
ATOM     19  H22 UNL     1      12.296  20.111  21.076  1.00  0.00     0.277 HD
ATOM     20  H21 UNL     1      13.549  19.261  20.773  1.00  0.00     0.277 HD
BRANCH  18  21
HETATM   21  C6  UNL     1      13.849  20.534  22.376  1.00  0.00     0.232 C 
BRANCH  21  22
HETATM   22  C7  UNL     1      15.030  21.438  22.297  1.00  0.00     0.029 C 
BRANCH  22  23
HETATM   23  C8  UNL     1      15.278  22.124  23.594  1.00  0.00     0.021 C 
BRANCH  23  24
HETATM   24  C9  UNL     1      14.088  22.931  24.003  1.00  0.00     0.122 C 
BRANCH  24  25
HETATM   25  N3  UNL     1      14.338  24.365  23.889  1.00  0.00    -0.367 N 
HETATM   26  C10 UNL     1      13.400  25.218  23.750  1.00  0.00     0.196 C 
HETATM   27  N4  UNL     1      12.050  24.780  23.699  1.00  0.00    -0.067 NA
HETATM   28  N5  UNL     1      13.710  26.599  23.646  1.00  0.00    -0.067 NA
ATOM     29  H3  UNL     1      15.301  24.698  23.922  1.00  0.00     0.161 HD
ENDBRANCH  24  25
ENDBRANCH  23  24
ENDBRANCH  22  23
ENDBRANCH  21  22
ENDBRANCH  18  21
ENDBRANCH  17  18
ENDBRANCH  16  17
ENDBRANCH   1  16
TORSDOF 11
ENDMDL
MODEL 5
REMARK VINA RESULT: -6.966286918      2.816      4.134
REMARK  11 active torsions:
REMARK  status: ('A' for Active; 'I' for Inactive)
REMARK    1  A    between atoms: N1_2  and  C2_3 
REMARK    2  A    between atoms: C2_3  and  C3_4 
REMARK    3  A    between atoms: C3_4  and  O1_5 
REMARK    4  A    between atoms: O1_5  and  C4_6 
REMARK    5  A    between atoms: C4_6  and  C5_7 
REMARK    6  A    between atoms: C5_7  and  N2_8 
REMARK    7  A    between atoms: N2_8  and  C6_11 
REMARK    8  A    between atoms: C6_11  and  C7_12 
REMARK    9  A    between atoms: C7_12  and  C8_13 
REMARK   10  A    between atoms: C8_13  and  C9_14 
REMARK   11  A    between atoms: C9_14  and  N3_15 
ROOT
HETATM    1  O1  UNL     1       7.837  24.122  21.135  1.00  0.00    -0.388 OA
ENDROOT
BRANCH   1   2
HETATM    2  C3  UNL     1       6.642  24.202  20.471  1.00  0.00     0.198 C 
BRANCH   2   3
HETATM    3  C2  UNL     1       6.828  24.171  18.998  1.00  0.00     0.301 C 
BRANCH   3   4
HETATM    4  N1  UNL     1       6.678  25.487  18.386  1.00  0.00     0.076 N 
HETATM    5  C1  UNL     1       5.273  25.723  18.188  1.00  0.00     0.313 C 
HETATM    6  N6  UNL     1       7.162  26.462  19.262  1.00  0.00    -0.159 N 
HETATM    7  C11 UNL     1       8.513  26.806  18.916  1.00  0.00     0.347 C 
ATOM      8  H6  UNL     1       6.634  26.870  20.034  1.00  0.00     0.199 HD
HETATM    9  O2  UNL     1       9.355  27.430  19.603  1.00  0.00    -0.245 OA
HETATM   10  N7  UNL     1       8.682  26.269  17.589  1.00  0.00    -0.271 N 
HETATM   11  C12 UNL     1       7.459  25.651  17.225  1.00  0.00     0.306 C 
ATOM     12  H7  UNL     1       9.526  26.322  17.018  1.00  0.00     0.173 HD
HETATM   13  N8  UNL     1       7.142  25.309  16.034  1.00  0.00    -0.363 N 
ATOM     14  H82 UNL     1       6.262  24.864  15.771  1.00  0.00     0.159 HD
ATOM     15  H81 UNL     1       7.707  25.427  15.193  1.00  0.00     0.159 HD
ENDBRANCH   3   4
ENDBRANCH   2   3
ENDBRANCH   1   2
BRANCH   1  16
HETATM   16  C4  UNL     1       8.792  23.423  20.441  1.00  0.00     0.195 C 
BRANCH  16  17
HETATM   17  C5  UNL     1      10.150  24.137  20.512  1.00  0.00     0.258 C 
BRANCH  17  18
HETATM   18  N2  UNL     1      10.765  23.984  19.208  1.00  0.00    -0.073 N 
ATOM     19  H22 UNL     1      10.155  24.305  18.457  1.00  0.00     0.277 HD
ATOM     20  H21 UNL     1      11.533  24.641  19.068  1.00  0.00     0.277 HD
BRANCH  18  21
HETATM   21  C6  UNL     1      11.188  22.602  19.016  1.00  0.00     0.232 C 
BRANCH  21  22
HETATM   22  C7  UNL     1      12.642  22.493  18.709  1.00  0.00     0.029 C 
BRANCH  22  23
HETATM   23  C8  UNL     1      13.180  21.158  19.091  1.00  0.00     0.021 C 
BRANCH  23  24
HETATM   24  C9  UNL     1      13.899  21.231  20.399  1.00  0.00     0.122 C 
BRANCH  24  25
HETATM   25  N3  UNL     1      14.028  19.918  21.024  1.00  0.00    -0.367 N 
HETATM   26  C10 UNL     1      13.305  19.550  22.008  1.00  0.00     0.196 C 
HETATM   27  N4  UNL     1      12.330  20.437  22.537  1.00  0.00    -0.067 NA
HETATM   28  N5  UNL     1      13.480  18.259  22.569  1.00  0.00    -0.067 NA
ATOM     29  H3  UNL     1      14.724  19.268  20.658  1.00  0.00     0.161 HD
ENDBRANCH  24  25
ENDBRANCH  23  24
ENDBRANCH  22  23
ENDBRANCH  21  22
ENDBRANCH  18  21
ENDBRANCH  17  18
ENDBRANCH  16  17
ENDBRANCH   1  16
TORSDOF 11
ENDMDL
