MODEL 1
REMARK VINA RESULT: -6.881767813      0.000      0.000
REMARK  13 active torsions:
REMARK  status: ('A' for Active; 'I' for Inactive)
REMARK    1  A    between atoms: N1_1  and  C1_5 
REMARK    2  A    between atoms: C1_5  and  C2_6 
REMARK    3  A    between atoms: C2_6  and  C3_7 
REMARK    4  A    between atoms: C3_7  and  N2_8 
REMARK    5  A    between atoms: N2_8  and  C4_10 
REMARK    6  A    between atoms: C4_10  and  C5_11 
REMARK    7  A    between atoms: C5_11  and  C6_12 
REMARK    8  A    between atoms: C6_12  and  N3_13 
REMARK       I    between atoms: C7_15  and  N5_17 
REMARK    9  A    between atoms: N5_17  and  C8_19 
REMARK   10  A    between atoms: C8_19  and  C9_20 
REMARK   11  A    between atoms: C9_20  and  N6_21 
REMARK   12  A    between atoms: N6_21  and  C10_22 
REMARK   13  A    between atoms: C10_22  and  C11_23 
ROOT
HETATM    1  N3  UNL     1      13.546  25.149  24.970  1.00  0.00    -0.364 N 
ATOM      2  H3  UNL     1      13.905  24.675  25.798  1.00  0.00     0.162 HD
HETATM    3  C7  UNL     1      13.882  24.713  23.802  1.00  0.00     0.184 C 
HETATM    4  N4  UNL     1      13.420  25.329  22.588  1.00  0.00    -0.064 NA
HETATM    5  N5  UNL     1      14.739  23.583  23.635  1.00  0.00    -0.363 N 
ATOM      6  H5  UNL     1      15.749  23.690  23.538  1.00  0.00     0.162 HD
ENDROOT
BRANCH   1   7
HETATM    7  C6  UNL     1      12.676  26.293  25.137  1.00  0.00     0.127 C 
BRANCH   7   8
HETATM    8  C5  UNL     1      13.434  27.466  25.782  1.00  0.00     0.064 C 
BRANCH   8   9
HETATM    9  C4  UNL     1      12.807  28.770  25.375  1.00  0.00     0.061 C 
BRANCH   9  10
HETATM   10  N2  UNL     1      12.707  29.792  26.299  1.00  0.00    -0.382 N 
ATOM     11  H2  UNL     1      13.425  29.820  27.023  1.00  0.00     0.163 HD
BRANCH  10  12
HETATM   12  C3  UNL     1      11.744  30.778  26.354  1.00  0.00     0.061 C 
BRANCH  12  13
HETATM   13  C2  UNL     1      12.019  32.079  27.048  1.00  0.00     0.072 C 
BRANCH  13  14
HETATM   14  C1  UNL     1      10.631  32.667  27.402  1.00  0.00     0.234 C 
BRANCH  14  15
HETATM   15  N1  UNL     1      10.123  32.014  28.570  1.00  0.00    -0.079 N 
ATOM     16  H13 UNL     1       9.675  31.125  28.351  1.00  0.00     0.274 HD
ATOM     17  H12 UNL     1      10.868  31.659  29.168  1.00  0.00     0.274 HD
ATOM     18  H11 UNL     1       9.498  32.649  29.067  1.00  0.00     0.274 HD
ENDBRANCH  14  15
ENDBRANCH  13  14
ENDBRANCH  12  13
ENDBRANCH  10  12
ENDBRANCH   9  10
ENDBRANCH   8   9
ENDBRANCH   7   8
ENDBRANCH   1   7
BRANCH   5  19
HETATM   19  C8  UNL     1      14.123  22.300  23.608  1.00  0.00     0.150 C 
BRANCH  19  20
HETATM   20  C9  UNL     1      14.841  21.224  22.880  1.00  0.00     0.257 C 
BRANCH  20  21
HETATM   21  N6  UNL     1      14.184  20.653  21.750  1.00  0.00    -0.058 N 
HETATM   22  C12 UNL     1      12.769  20.424  21.846  1.00  0.00     0.239 C 
HETATM   23  C13 UNL     1      13.023  19.085  22.489  1.00  0.00     0.056 C 
HETATM   24  C14 UNL     1      14.363  19.188  21.796  1.00  0.00     0.239 C 
BRANCH  21  25
HETATM   25  C10 UNL     1      14.592  21.213  20.471  1.00  0.00     0.336 C 
BRANCH  25  26
HETATM   26  C11 UNL     1      13.453  21.705  19.685  1.00  0.00     0.257 C 
HETATM   27  N7  UNL     1      12.933  20.956  18.619  1.00  0.00    -0.061 NA
HETATM   28  O1  UNL     1      12.935  22.806  19.962  1.00  0.00    -0.275 OA
ENDBRANCH  25  26
ENDBRANCH  21  25
ENDBRANCH  20  21
ENDBRANCH  19  20
ENDBRANCH   5  19
TORSDOF 13
ENDMDL
MODEL 2
REMARK VINA RESULT: -6.684586141      3.865      7.451
REMARK  13 active torsions:
REMARK  status: ('A' for Active; 'I' for Inactive)
REMARK    1  A    between atoms: N1_1  and  C1_5 
REMARK    2  A    between atoms: C1_5  and  C2_6 
REMARK    3  A    between atoms: C2_6  and  C3_7 
REMARK    4  A    between atoms: C3_7  and  N2_8 
REMARK    5  A    between atoms: N2_8  and  C4_10 
REMARK    6  A    between atoms: C4_10  and  C5_11 
REMARK    7  A    between atoms: C5_11  and  C6_12 
REMARK    8  A    between atoms: C6_12  and  N3_13 
REMARK       I    between atoms: C7_15  and  N5_17 
REMARK    9  A    between atoms: N5_17  and  C8_19 
REMARK   10  A    between atoms: C8_19  and  C9_20 
REMARK   11  A    between atoms: C9_20  and  N6_21 
REMARK   12  A    between atoms: N6_21  and  C10_22 
REMARK   13  A    between atoms: C10_22  and  C11_23 
ROOT
HETATM    1  N3  UNL     1      14.060  21.450  20.856  1.00  0.00    -0.364 N 
ATOM      2  H3  UNL     1      14.217  22.434  20.642  1.00  0.00     0.162 HD
HETATM    3  C7  UNL     1      14.516  20.969  21.964  1.00  0.00     0.184 C 
HETATM    4  N4  UNL     1      14.337  19.592  22.336  1.00  0.00    -0.064 NA
HETATM    5  N5  UNL     1      15.233  21.774  22.900  1.00  0.00    -0.363 N 
ATOM      6  H5  UNL     1      16.250  21.841  22.876  1.00  0.00     0.162 HD
ENDROOT
BRANCH   1   7
HETATM    7  C6  UNL     1      13.332  20.633  19.910  1.00  0.00     0.127 C 
BRANCH   7   8
HETATM    8  C5  UNL     1      13.076  21.406  18.604  1.00  0.00     0.064 C 
BRANCH   8   9
HETATM    9  C4  UNL     1      12.989  22.880  18.888  1.00  0.00     0.061 C 
BRANCH   9  10
HETATM   10  N2  UNL     1      11.768  23.435  19.216  1.00  0.00    -0.382 N 
ATOM     11  H2  UNL     1      11.794  24.306  19.747  1.00  0.00     0.163 HD
BRANCH  10  12
HETATM   12  C3  UNL     1      10.516  22.945  18.907  1.00  0.00     0.061 C 
BRANCH  12  13
HETATM   13  C2  UNL     1       9.290  23.781  19.129  1.00  0.00     0.072 C 
BRANCH  13  14
HETATM   14  C1  UNL     1       9.441  24.377  20.551  1.00  0.00     0.234 C 
BRANCH  14  15
HETATM   15  N1  UNL     1       8.940  23.442  21.511  1.00  0.00    -0.079 N 
ATOM     16  H13 UNL     1       9.500  22.590  21.550  1.00  0.00     0.274 HD
ATOM     17  H12 UNL     1       9.088  23.756  22.470  1.00  0.00     0.274 HD
ATOM     18  H11 UNL     1       7.957  23.249  21.315  1.00  0.00     0.274 HD
ENDBRANCH  14  15
ENDBRANCH  13  14
ENDBRANCH  12  13
ENDBRANCH  10  12
ENDBRANCH   9  10
ENDBRANCH   8   9
ENDBRANCH   7   8
ENDBRANCH   1   7
BRANCH   5  19
HETATM   19  C8  UNL     1      14.465  22.479  23.870  1.00  0.00     0.150 C 
BRANCH  19  20
HETATM   20  C9  UNL     1      14.371  23.952  23.711  1.00  0.00     0.257 C 
BRANCH  20  21
HETATM   21  N6  UNL     1      13.256  24.602  24.317  1.00  0.00    -0.058 N 
HETATM   22  C12 UNL     1      12.433  25.433  23.482  1.00  0.00     0.239 C 
HETATM   23  C13 UNL     1      13.358  26.598  23.720  1.00  0.00     0.056 C 
HETATM   24  C14 UNL     1      13.732  25.837  24.971  1.00  0.00     0.239 C 
BRANCH  21  25
HETATM   25  C10 UNL     1      12.490  23.764  25.226  1.00  0.00     0.336 C 
BRANCH  25  26
HETATM   26  C11 UNL     1      11.065  23.709  24.875  1.00  0.00     0.257 C 
HETATM   27  N7  UNL     1      10.598  22.833  23.884  1.00  0.00    -0.061 NA
HETATM   28  O1  UNL     1      10.251  24.449  25.462  1.00  0.00    -0.275 OA
ENDBRANCH  25  26
ENDBRANCH  21  25
ENDBRANCH  20  21
ENDBRANCH  19  20
ENDBRANCH   5  19
TORSDOF 13
ENDMDL
MODEL 3
REMARK VINA RESULT: -6.407850042      3.549      7.417
REMARK  13 active torsions:
REMARK  status: ('A' for Active; 'I' for Inactive)
REMARK    1  A    between atoms: N1_1  and  C1_5 
REMARK    2  A    between atoms: C1_5  and  C2_6 
REMARK    3  A    between atoms: C2_6  and  C3_7 
REMARK    4  A    between atoms: C3_7  and  N2_8 
REMARK    5  A    between atoms: N2_8  and  C4_10 
REMARK    6  A    between atoms: C4_10  and  C5_11 
REMARK    7  A    between atoms: C5_11  and  C6_12 
REMARK    8  A    between atoms: C6_12  and  N3_13 
REMARK       I    between atoms: C7_15  and  N5_17 
REMARK    9  A    between atoms: N5_17  and  C8_19 
REMARK   10  A    between atoms: C8_19  and  C9_20 
REMARK   11  A    between atoms: C9_20  and  N6_21 
REMARK   12  A    between atoms: N6_21  and  C10_22 
REMARK   13  A    between atoms: C10_22  and  C11_23 
ROOT
HETATM    1  N3  UNL     1      14.247  21.228  21.067  1.00  0.00    -0.364 N 
ATOM      2  H3  UNL     1      15.127  21.715  20.894  1.00  0.00     0.162 HD
HETATM    3  C7  UNL     1      13.817  21.122  22.279  1.00  0.00     0.184 C 
HETATM    4  N4  UNL     1      12.589  20.449  22.604  1.00  0.00    -0.064 NA
HETATM    5  N5  UNL     1      14.536  21.666  23.387  1.00  0.00    -0.363 N 
ATOM      6  H5  UNL     1      15.210  21.108  23.911  1.00  0.00     0.162 HD
ENDROOT
BRANCH   1   7
HETATM    7  C6  UNL     1      13.516  20.678  19.946  1.00  0.00     0.127 C 
BRANCH   7   8
HETATM    8  C5  UNL     1      13.217  21.768  18.901  1.00  0.00     0.064 C 
BRANCH   8   9
HETATM    9  C4  UNL     1      11.759  22.127  18.936  1.00  0.00     0.061 C 
BRANCH   9  10
HETATM   10  N2  UNL     1      11.389  23.439  19.160  1.00  0.00    -0.382 N 
ATOM     11  H2  UNL     1      12.050  24.154  18.855  1.00  0.00     0.163 HD
BRANCH  10  12
HETATM   12  C3  UNL     1      10.227  23.892  19.750  1.00  0.00     0.061 C 
BRANCH  12  13
HETATM   13  C2  UNL     1       9.105  24.434  18.914  1.00  0.00     0.072 C 
BRANCH  13  14
HETATM   14  C1  UNL     1       8.993  25.934  19.285  1.00  0.00     0.234 C 
BRANCH  14  15
HETATM   15  N1  UNL     1       9.259  26.729  18.126  1.00  0.00    -0.079 N 
ATOM     16  H13 UNL     1       9.884  26.261  17.470  1.00  0.00     0.274 HD
ATOM     17  H12 UNL     1       8.444  26.810  17.518  1.00  0.00     0.274 HD
ATOM     18  H11 UNL     1       9.616  27.640  18.416  1.00  0.00     0.274 HD
ENDBRANCH  14  15
ENDBRANCH  13  14
ENDBRANCH  12  13
ENDBRANCH  10  12
ENDBRANCH   9  10
ENDBRANCH   8   9
ENDBRANCH   7   8
ENDBRANCH   1   7
BRANCH   5  19
HETATM   19  C8  UNL     1      14.268  23.023  23.729  1.00  0.00     0.150 C 
BRANCH  19  20
HETATM   20  C9  UNL     1      13.210  23.265  24.740  1.00  0.00     0.257 C 
BRANCH  20  21
HETATM   21  N6  UNL     1      12.293  24.325  24.481  1.00  0.00    -0.058 N 
HETATM   22  C12 UNL     1      11.509  24.814  25.582  1.00  0.00     0.239 C 
HETATM   23  C13 UNL     1      10.480  23.741  25.334  1.00  0.00     0.056 C 
HETATM   24  C14 UNL     1      11.050  23.745  23.933  1.00  0.00     0.239 C 
BRANCH  21  25
HETATM   25  C10 UNL     1      12.820  25.384  23.635  1.00  0.00     0.336 C 
BRANCH  25  26
HETATM   26  C11 UNL     1      13.205  26.576  24.402  1.00  0.00     0.257 C 
HETATM   27  N7  UNL     1      14.330  26.564  25.240  1.00  0.00    -0.061 NA
HETATM   28  O1  UNL     1      12.528  27.620  24.312  1.00  0.00    -0.275 OA
ENDBRANCH  25  26
ENDBRANCH  21  25
ENDBRANCH  20  21
ENDBRANCH  19  20
ENDBRANCH   5  19
TORSDOF 13
ENDMDL
MODEL 4
REMARK VINA RESULT: -6.400807986      6.168     10.043
REMARK  13 active torsions:
REMARK  status: ('A' for Active; 'I' for Inactive)
REMARK    1  A    between atoms: N1_1  and  C1_5 
REMARK    2  A    between atoms: C1_5  and  C2_6 
REMARK    3  A    between atoms: C2_6  and  C3_7 
REMARK    4  A    between atoms: C3_7  and  N2_8 
REMARK    5  A    between atoms: N2_8  and  C4_10 
REMARK    6  A    between atoms: C4_10  and  C5_11 
REMARK    7  A    between atoms: C5_11  and  C6_12 
REMARK    8  A    between atoms: C6_12  and  N3_13 
REMARK       I    between atoms: C7_15  and  N5_17 
REMARK    9  A    between atoms: N5_17  and  C8_19 
REMARK   10  A    between atoms: C8_19  and  C9_20 
REMARK   11  A    between atoms: C9_20  and  N6_21 
REMARK   12  A    between atoms: N6_21  and  C10_22 
REMARK   13  A    between atoms: C10_22  and  C11_23 
ROOT
HETATM    1  N3  UNL     1      10.334  24.185  19.214  1.00  0.00    -0.364 N 
ATOM      2  H3  UNL     1       9.840  24.179  18.322  1.00  0.00     0.162 HD
HETATM    3  C7  UNL     1       9.782  24.754  20.233  1.00  0.00     0.184 C 
HETATM    4  N4  UNL     1      10.416  24.806  21.522  1.00  0.00    -0.064 NA
HETATM    5  N5  UNL     1       8.500  25.376  20.149  1.00  0.00    -0.363 N 
ATOM      6  H5  UNL     1       8.401  26.369  19.938  1.00  0.00     0.162 HD
ENDROOT
BRANCH   1   7
HETATM    7  C6  UNL     1      11.633  23.554  19.302  1.00  0.00     0.127 C 
BRANCH   7   8
HETATM    8  C5  UNL     1      11.559  22.086  18.844  1.00  0.00     0.064 C 
BRANCH   8   9
HETATM    9  C4  UNL     1      12.935  21.483  18.826  1.00  0.00     0.061 C 
BRANCH   9  10
HETATM   10  N2  UNL     1      13.350  20.708  19.892  1.00  0.00    -0.382 N 
ATOM     11  H2  UNL     1      12.896  19.801  19.997  1.00  0.00     0.163 HD
BRANCH  10  12
HETATM   12  C3  UNL     1      14.309  21.024  20.831  1.00  0.00     0.061 C 
BRANCH  12  13
HETATM   13  C2  UNL     1      14.474  20.191  22.068  1.00  0.00     0.072 C 
BRANCH  13  14
HETATM   14  C1  UNL     1      13.438  19.047  21.943  1.00  0.00     0.234 C 
BRANCH  14  15
HETATM   15  N1  UNL     1      14.116  17.787  21.988  1.00  0.00    -0.079 N 
ATOM     16  H13 UNL     1      14.434  17.487  21.066  1.00  0.00     0.274 HD
ATOM     17  H12 UNL     1      15.027  17.855  22.441  1.00  0.00     0.274 HD
ATOM     18  H11 UNL     1      13.514  17.094  22.433  1.00  0.00     0.274 HD
ENDBRANCH  14  15
ENDBRANCH  13  14
ENDBRANCH  12  13
ENDBRANCH  10  12
ENDBRANCH   9  10
ENDBRANCH   8   9
ENDBRANCH   7   8
ENDBRANCH   1   7
BRANCH   5  19
HETATM   19  C8  UNL     1       7.363  24.548  20.373  1.00  0.00     0.150 C 
BRANCH  19  20
HETATM   20  C9  UNL     1       6.031  25.196  20.280  1.00  0.00     0.257 C 
BRANCH  20  21
HETATM   21  N6  UNL     1       5.576  25.566  18.980  1.00  0.00    -0.058 N 
HETATM   22  C12 UNL     1       5.627  26.957  18.626  1.00  0.00     0.239 C 
HETATM   23  C13 UNL     1       4.278  27.175  19.259  1.00  0.00     0.056 C 
HETATM   24  C14 UNL     1       4.105  25.692  19.017  1.00  0.00     0.239 C 
BRANCH  21  25
HETATM   25  C10 UNL     1       6.021  24.684  17.913  1.00  0.00     0.336 C 
BRANCH  25  26
HETATM   26  C11 UNL     1       6.886  25.367  16.943  1.00  0.00     0.257 C 
HETATM   27  N7  UNL     1       6.426  25.674  15.654  1.00  0.00    -0.061 NA
HETATM   28  O1  UNL     1       8.051  25.683  17.262  1.00  0.00    -0.275 OA
ENDBRANCH  25  26
ENDBRANCH  21  25
ENDBRANCH  20  21
ENDBRANCH  19  20
ENDBRANCH   5  19
TORSDOF 13
ENDMDL
MODEL 5
REMARK VINA RESULT: -6.368072136      6.328     10.078
REMARK  13 active torsions:
REMARK  status: ('A' for Active; 'I' for Inactive)
REMARK    1  A    between atoms: N1_1  and  C1_5 
REMARK    2  A    between atoms: C1_5  and  C2_6 
REMARK    3  A    between atoms: C2_6  and  C3_7 
REMARK    4  A    between atoms: C3_7  and  N2_8 
REMARK    5  A    between atoms: N2_8  and  C4_10 
REMARK    6  A    between atoms: C4_10  and  C5_11 
REMARK    7  A    between atoms: C5_11  and  C6_12 
REMARK    8  A    between atoms: C6_12  and  N3_13 
REMARK       I    between atoms: C7_15  and  N5_17 
REMARK    9  A    between atoms: N5_17  and  C8_19 
REMARK   10  A    between atoms: C8_19  and  C9_20 
REMARK   11  A    between atoms: C9_20  and  N6_21 
REMARK   12  A    between atoms: N6_21  and  C10_22 
REMARK   13  A    between atoms: C10_22  and  C11_23 
ROOT
HETATM    1  N3  UNL     1       9.333  24.846  18.882  1.00  0.00    -0.364 N 
ATOM      2  H3  UNL     1       9.003  24.518  17.974  1.00  0.00     0.162 HD
HETATM    3  C7  UNL     1       8.922  25.987  19.323  1.00  0.00     0.184 C 
HETATM    4  N4  UNL     1       9.343  26.519  20.591  1.00  0.00    -0.064 NA
HETATM    5  N5  UNL     1       8.019  26.805  18.579  1.00  0.00    -0.363 N 
ATOM      6  H5  UNL     1       8.355  27.527  17.942  1.00  0.00     0.162 HD
ENDROOT
BRANCH   1   7
HETATM    7  C6  UNL     1      10.247  24.017  19.639  1.00  0.00     0.127 C 
BRANCH   7   8
HETATM    8  C5  UNL     1      10.617  22.751  18.847  1.00  0.00     0.064 C 
BRANCH   8   9
HETATM    9  C4  UNL     1      12.106  22.544  18.874  1.00  0.00     0.061 C 
BRANCH   9  10
HETATM   10  N2  UNL     1      12.631  21.488  19.593  1.00  0.00    -0.382 N 
ATOM     11  H2  UNL     1      11.959  20.824  19.978  1.00  0.00     0.163 HD
BRANCH  10  12
HETATM   12  C3  UNL     1      13.961  21.232  19.851  1.00  0.00     0.061 C 
BRANCH  12  13
HETATM   13  C2  UNL     1      14.422  20.898  21.239  1.00  0.00     0.072 C 
BRANCH  13  14
HETATM   14  C1  UNL     1      13.376  19.905  21.801  1.00  0.00     0.234 C 
BRANCH  14  15
HETATM   15  N1  UNL     1      14.025  18.676  22.143  1.00  0.00    -0.079 N 
ATOM     16  H13 UNL     1      14.560  18.292  21.365  1.00  0.00     0.274 HD
ATOM     17  H12 UNL     1      14.797  18.815  22.795  1.00  0.00     0.274 HD
ATOM     18  H11 UNL     1      13.333  18.016  22.499  1.00  0.00     0.274 HD
ENDBRANCH  14  15
ENDBRANCH  13  14
ENDBRANCH  12  13
ENDBRANCH  10  12
ENDBRANCH   9  10
ENDBRANCH   8   9
ENDBRANCH   7   8
ENDBRANCH   1   7
BRANCH   5  19
HETATM   19  C8  UNL     1       6.627  26.569  18.767  1.00  0.00     0.150 C 
BRANCH  19  20
HETATM   20  C9  UNL     1       5.831  26.249  17.556  1.00  0.00     0.257 C 
BRANCH  20  21
HETATM   21  N6  UNL     1       5.558  24.873  17.302  1.00  0.00    -0.058 N 
HETATM   22  C12 UNL     1       6.585  24.095  16.666  1.00  0.00     0.239 C 
HETATM   23  C13 UNL     1       6.091  24.537  15.313  1.00  0.00     0.056 C 
HETATM   24  C14 UNL     1       4.789  24.772  16.045  1.00  0.00     0.239 C 
BRANCH  21  25
HETATM   25  C10 UNL     1       4.905  24.176  18.398  1.00  0.00     0.336 C 
BRANCH  25  26
HETATM   26  C11 UNL     1       5.688  23.032  18.883  1.00  0.00     0.257 C 
HETATM   27  N7  UNL     1       5.305  21.716  18.586  1.00  0.00    -0.061 NA
HETATM   28  O1  UNL     1       6.710  23.225  19.572  1.00  0.00    -0.275 OA
ENDBRANCH  25  26
ENDBRANCH  21  25
ENDBRANCH  20  21
ENDBRANCH  19  20
ENDBRANCH   5  19
TORSDOF 13
ENDMDL
