MODEL 1
REMARK VINA RESULT: -6.921678093      0.000      0.000
REMARK  11 active torsions:
REMARK  status: ('A' for Active; 'I' for Inactive)
REMARK       I    between atoms: N1_2  and  C3_4 
REMARK       I    between atoms: C3_4  and  N2_5 
REMARK    1  A    between atoms: N5_10  and  C5_12 
REMARK    2  A    between atoms: C5_12  and  C6_13 
REMARK    3  A    between atoms: C6_13  and  C7_14 
REMARK    4  A    between atoms: C7_14  and  N6_15 
REMARK    5  A    between atoms: N6_15  and  C8_17 
REMARK    6  A    between atoms: C8_17  and  C9_18 
REMARK    7  A    between atoms: C9_18  and  C10_19 
REMARK    8  A    between atoms: C10_19  and  N7_20 
REMARK    9  A    between atoms: N7_20  and  C11_23 
REMARK   10  A    between atoms: C11_23  and  C12_24 
REMARK   11  A    between atoms: C12_24  and  N8_25 
ROOT
HETATM    1  N6  UNL     1      13.974  20.884  21.949  1.00  0.00    -0.402 N 
ATOM      2  H6  UNL     1      13.036  20.568  22.194  1.00  0.00     0.158 HD
ENDROOT
BRANCH   1   3
HETATM    3  C7  UNL     1      14.885  21.111  22.973  1.00  0.00     0.120 C 
BRANCH   3   4
HETATM    4  C6  UNL     1      14.826  22.626  23.308  1.00  0.00     0.040 C 
BRANCH   4   5
HETATM    5  C5  UNL     1      13.715  22.715  24.357  1.00  0.00     0.139 C 
BRANCH   5   6
HETATM    6  N5  UNL     1      13.514  24.093  24.676  1.00  0.00    -0.226 N 
HETATM    7  C3  UNL     1      12.399  24.699  24.782  1.00  0.00     0.677 C 
HETATM    8  N1  UNL     1      11.196  23.988  24.575  1.00  0.00    -0.227 N 
HETATM    9  N2  UNL     1      12.420  26.089  25.097  1.00  0.00    -0.166 N 
HETATM   10  C1  UNL     1      10.652  23.203  25.657  1.00  0.00     0.168 C 
HETATM   11  C2  UNL     1      10.542  24.070  23.288  1.00  0.00     0.168 C 
HETATM   12  C4  UNL     1      13.018  26.946  24.330  1.00  0.00     0.215 C 
ATOM     13  H2  UNL     1      11.956  26.415  25.945  1.00  0.00     0.186 HD
HETATM   14  N3  UNL     1      13.686  26.576  23.139  1.00  0.00    -0.066 NA
HETATM   15  N4  UNL     1      12.969  28.301  24.747  1.00  0.00    -0.066 NA
ATOM     16  H5  UNL     1      14.353  24.650  24.836  1.00  0.00     0.177 HD
ENDBRANCH   5   6
ENDBRANCH   4   5
ENDBRANCH   3   4
ENDBRANCH   1   3
BRANCH   1  17
HETATM   17  C8  UNL     1      14.282  21.067  20.603  1.00  0.00     0.057 C 
BRANCH  17  18
HETATM   18  C9  UNL     1      13.159  21.071  19.648  1.00  0.00     0.071 C 
BRANCH  18  19
HETATM   19  C10 UNL     1      13.264  21.979  18.485  1.00  0.00     0.237 C 
BRANCH  19  20
HETATM   20  N7  UNL     1      12.423  23.176  18.833  1.00  0.00    -0.073 N 
ATOM     21  H72 UNL     1      12.717  23.645  19.691  1.00  0.00     0.277 HD
ATOM     22  H71 UNL     1      12.563  23.968  18.206  1.00  0.00     0.277 HD
BRANCH  20  23
HETATM   23  C11 UNL     1      11.037  22.695  18.872  1.00  0.00     0.251 C 
BRANCH  23  24
HETATM   24  C12 UNL     1      10.274  23.731  19.724  1.00  0.00     0.149 C 
BRANCH  24  25
HETATM   25  N8  UNL     1       9.643  24.641  18.770  1.00  0.00    -0.365 N 
HETATM   26  C13 UNL     1       9.170  25.746  19.193  1.00  0.00     0.197 C 
HETATM   27  N9  UNL     1       8.541  26.687  18.319  1.00  0.00    -0.067 NA
HETATM   28  N10 UNL     1       9.251  26.074  20.561  1.00  0.00    -0.067 NA
ATOM     29  H8  UNL     1       9.583  24.397  17.781  1.00  0.00     0.161 HD
ENDBRANCH  24  25
ENDBRANCH  23  24
ENDBRANCH  20  23
ENDBRANCH  19  20
ENDBRANCH  18  19
ENDBRANCH  17  18
ENDBRANCH   1  17
TORSDOF 11
ENDMDL
MODEL 2
REMARK VINA RESULT: -6.719896946      1.596      5.426
REMARK  11 active torsions:
REMARK  status: ('A' for Active; 'I' for Inactive)
REMARK       I    between atoms: N1_2  and  C3_4 
REMARK       I    between atoms: C3_4  and  N2_5 
REMARK    1  A    between atoms: N5_10  and  C5_12 
REMARK    2  A    between atoms: C5_12  and  C6_13 
REMARK    3  A    between atoms: C6_13  and  C7_14 
REMARK    4  A    between atoms: C7_14  and  N6_15 
REMARK    5  A    between atoms: N6_15  and  C8_17 
REMARK    6  A    between atoms: C8_17  and  C9_18 
REMARK    7  A    between atoms: C9_18  and  C10_19 
REMARK    8  A    between atoms: C10_19  and  N7_20 
REMARK    9  A    between atoms: N7_20  and  C11_23 
REMARK   10  A    between atoms: C11_23  and  C12_24 
REMARK   11  A    between atoms: C12_24  and  N8_25 
ROOT
HETATM    1  N6  UNL     1      13.252  20.806  19.501  1.00  0.00    -0.402 N 
ATOM      2  H6  UNL     1      13.325  19.790  19.455  1.00  0.00     0.158 HD
ENDROOT
BRANCH   1   3
HETATM    3  C7  UNL     1      12.407  21.450  18.604  1.00  0.00     0.120 C 
BRANCH   3   4
HETATM    4  C6  UNL     1      12.289  22.927  19.070  1.00  0.00     0.040 C 
BRANCH   4   5
HETATM    5  C5  UNL     1      10.788  23.211  18.973  1.00  0.00     0.139 C 
BRANCH   5   6
HETATM    6  N5  UNL     1      10.217  23.023  20.269  1.00  0.00    -0.226 N 
HETATM    7  C3  UNL     1       9.146  23.548  20.716  1.00  0.00     0.677 C 
HETATM    8  N1  UNL     1       8.398  24.418  19.892  1.00  0.00    -0.227 N 
HETATM    9  N2  UNL     1       8.755  23.237  22.051  1.00  0.00    -0.166 N 
HETATM   10  C1  UNL     1       7.487  23.854  18.924  1.00  0.00     0.168 C 
HETATM   11  C2  UNL     1       8.562  25.847  20.043  1.00  0.00     0.168 C 
HETATM   12  C4  UNL     1       9.523  23.509  23.060  1.00  0.00     0.215 C 
ATOM     13  H2  UNL     1       7.853  22.792  22.217  1.00  0.00     0.186 HD
HETATM   14  N3  UNL     1      10.790  24.125  22.918  1.00  0.00    -0.066 NA
HETATM   15  N4  UNL     1       9.026  23.156  24.340  1.00  0.00    -0.066 NA
ATOM     16  H5  UNL     1      10.719  22.402  20.903  1.00  0.00     0.177 HD
ENDBRANCH   5   6
ENDBRANCH   4   5
ENDBRANCH   3   4
ENDBRANCH   1   3
BRANCH   1  17
HETATM   17  C8  UNL     1      14.002  21.484  20.458  1.00  0.00     0.057 C 
BRANCH  17  18
HETATM   18  C9  UNL     1      14.853  20.673  21.347  1.00  0.00     0.071 C 
BRANCH  18  19
HETATM   19  C10 UNL     1      14.444  20.567  22.764  1.00  0.00     0.237 C 
BRANCH  19  20
HETATM   20  N7  UNL     1      15.145  21.693  23.471  1.00  0.00    -0.073 N 
ATOM     21  H72 UNL     1      15.858  21.381  24.131  1.00  0.00     0.277 HD
ATOM     22  H71 UNL     1      15.765  22.231  22.865  1.00  0.00     0.277 HD
BRANCH  20  23
HETATM   23  C11 UNL     1      14.085  22.500  24.090  1.00  0.00     0.251 C 
BRANCH  23  24
HETATM   24  C12 UNL     1      14.390  23.954  23.675  1.00  0.00     0.149 C 
BRANCH  24  25
HETATM   25  N8  UNL     1      13.656  24.797  24.617  1.00  0.00    -0.365 N 
HETATM   26  C13 UNL     1      13.260  25.947  24.235  1.00  0.00     0.197 C 
HETATM   27  N9  UNL     1      12.534  26.825  25.100  1.00  0.00    -0.067 NA
HETATM   28  N10 UNL     1      13.534  26.392  22.927  1.00  0.00    -0.067 NA
ATOM     29  H8  UNL     1      13.465  24.472  25.565  1.00  0.00     0.161 HD
ENDBRANCH  24  25
ENDBRANCH  23  24
ENDBRANCH  20  23
ENDBRANCH  19  20
ENDBRANCH  18  19
ENDBRANCH  17  18
ENDBRANCH   1  17
TORSDOF 11
ENDMDL
MODEL 3
REMARK VINA RESULT: -6.461772410      1.580      5.522
REMARK  11 active torsions:
REMARK  status: ('A' for Active; 'I' for Inactive)
REMARK       I    between atoms: N1_2  and  C3_4 
REMARK       I    between atoms: C3_4  and  N2_5 
REMARK    1  A    between atoms: N5_10  and  C5_12 
REMARK    2  A    between atoms: C5_12  and  C6_13 
REMARK    3  A    between atoms: C6_13  and  C7_14 
REMARK    4  A    between atoms: C7_14  and  N6_15 
REMARK    5  A    between atoms: N6_15  and  C8_17 
REMARK    6  A    between atoms: C8_17  and  C9_18 
REMARK    7  A    between atoms: C9_18  and  C10_19 
REMARK    8  A    between atoms: C10_19  and  N7_20 
REMARK    9  A    between atoms: N7_20  and  C11_23 
REMARK   10  A    between atoms: C11_23  and  C12_24 
REMARK   11  A    between atoms: C12_24  and  N8_25 
ROOT
HETATM    1  N6  UNL     1      13.526  20.984  19.161  1.00  0.00    -0.402 N 
ATOM      2  H6  UNL     1      14.031  20.224  18.706  1.00  0.00     0.158 HD
ENDROOT
BRANCH   1   3
HETATM    3  C7  UNL     1      12.399  21.500  18.533  1.00  0.00     0.120 C 
BRANCH   3   4
HETATM    4  C6  UNL     1      11.573  22.244  19.617  1.00  0.00     0.040 C 
BRANCH   4   5
HETATM    5  C5  UNL     1      10.324  22.702  18.861  1.00  0.00     0.139 C 
BRANCH   5   6
HETATM    6  N5  UNL     1      10.221  24.121  18.991  1.00  0.00    -0.226 N 
HETATM    7  C3  UNL     1       9.512  24.762  19.832  1.00  0.00     0.677 C 
HETATM    8  N1  UNL     1       8.721  24.053  20.763  1.00  0.00    -0.227 N 
HETATM    9  N2  UNL     1       9.542  26.187  19.784  1.00  0.00    -0.166 N 
HETATM   10  C1  UNL     1       9.341  23.546  21.965  1.00  0.00     0.168 C 
HETATM   11  C2  UNL     1       7.315  23.859  20.490  1.00  0.00     0.168 C 
HETATM   12  C4  UNL     1       9.186  26.834  18.719  1.00  0.00     0.215 C 
ATOM     13  H2  UNL     1       9.851  26.707  20.605  1.00  0.00     0.186 HD
HETATM   14  N3  UNL     1       8.746  26.189  17.539  1.00  0.00    -0.066 NA
HETATM   15  N4  UNL     1       9.256  28.248  18.792  1.00  0.00    -0.066 NA
ATOM     16  H5  UNL     1      10.774  24.679  18.341  1.00  0.00     0.177 HD
ENDBRANCH   5   6
ENDBRANCH   4   5
ENDBRANCH   3   4
ENDBRANCH   1   3
BRANCH   1  17
HETATM   17  C8  UNL     1      13.998  21.457  20.383  1.00  0.00     0.057 C 
BRANCH  17  18
HETATM   18  C9  UNL     1      14.562  20.468  21.318  1.00  0.00     0.071 C 
BRANCH  18  19
HETATM   19  C10 UNL     1      14.175  20.583  22.740  1.00  0.00     0.237 C 
BRANCH  19  20
HETATM   20  N7  UNL     1      15.099  21.614  23.326  1.00  0.00    -0.073 N 
ATOM     21  H72 UNL     1      15.854  21.215  23.886  1.00  0.00     0.277 HD
ATOM     22  H71 UNL     1      15.690  22.073  22.633  1.00  0.00     0.277 HD
BRANCH  20  23
HETATM   23  C11 UNL     1      14.242  22.543  24.074  1.00  0.00     0.251 C 
BRANCH  23  24
HETATM   24  C12 UNL     1      14.378  23.895  23.343  1.00  0.00     0.149 C 
BRANCH  24  25
HETATM   25  N8  UNL     1      13.928  24.908  24.295  1.00  0.00    -0.365 N 
HETATM   26  C13 UNL     1      13.035  25.742  23.933  1.00  0.00     0.197 C 
HETATM   27  N9  UNL     1      12.545  26.759  24.811  1.00  0.00    -0.067 NA
HETATM   28  N10 UNL     1      12.500  25.685  22.631  1.00  0.00    -0.067 NA
ATOM     29  H8  UNL     1      14.323  24.948  25.235  1.00  0.00     0.161 HD
ENDBRANCH  24  25
ENDBRANCH  23  24
ENDBRANCH  20  23
ENDBRANCH  19  20
ENDBRANCH  18  19
ENDBRANCH  17  18
ENDBRANCH   1  17
TORSDOF 11
ENDMDL
MODEL 4
REMARK VINA RESULT: -6.443923091      2.018      6.665
REMARK  11 active torsions:
REMARK  status: ('A' for Active; 'I' for Inactive)
REMARK       I    between atoms: N1_2  and  C3_4 
REMARK       I    between atoms: C3_4  and  N2_5 
REMARK    1  A    between atoms: N5_10  and  C5_12 
REMARK    2  A    between atoms: C5_12  and  C6_13 
REMARK    3  A    between atoms: C6_13  and  C7_14 
REMARK    4  A    between atoms: C7_14  and  N6_15 
REMARK    5  A    between atoms: N6_15  and  C8_17 
REMARK    6  A    between atoms: C8_17  and  C9_18 
REMARK    7  A    between atoms: C9_18  and  C10_19 
REMARK    8  A    between atoms: C10_19  and  N7_20 
REMARK    9  A    between atoms: N7_20  and  C11_23 
REMARK   10  A    between atoms: C11_23  and  C12_24 
REMARK   11  A    between atoms: C12_24  and  N8_25 
ROOT
HETATM    1  N6  UNL     1      13.637  21.513  19.318  1.00  0.00    -0.402 N 
ATOM      2  H6  UNL     1      14.281  21.231  18.579  1.00  0.00     0.158 HD
ENDROOT
BRANCH   1   3
HETATM    3  C7  UNL     1      12.865  22.652  19.125  1.00  0.00     0.120 C 
BRANCH   3   4
HETATM    4  C6  UNL     1      11.418  22.177  18.818  1.00  0.00     0.040 C 
BRANCH   4   5
HETATM    5  C5  UNL     1      10.549  23.321  19.345  1.00  0.00     0.139 C 
BRANCH   5   6
HETATM    6  N5  UNL     1       9.583  23.642  18.342  1.00  0.00    -0.226 N 
HETATM    7  C3  UNL     1       8.505  24.301  18.501  1.00  0.00     0.677 C 
HETATM    8  N1  UNL     1       8.173  24.796  19.782  1.00  0.00    -0.227 N 
HETATM    9  N2  UNL     1       7.669  24.501  17.364  1.00  0.00    -0.166 N 
HETATM   10  C1  UNL     1       8.767  26.033  20.230  1.00  0.00     0.168 C 
HETATM   11  C2  UNL     1       7.244  24.054  20.605  1.00  0.00     0.168 C 
HETATM   12  C4  UNL     1       7.171  23.500  16.709  1.00  0.00     0.215 C 
ATOM     13  H2  UNL     1       7.458  25.451  17.060  1.00  0.00     0.186 HD
HETATM   14  N3  UNL     1       7.415  22.151  17.063  1.00  0.00    -0.066 NA
HETATM   15  N4  UNL     1       6.351  23.823  15.598  1.00  0.00    -0.066 NA
ATOM     16  H5  UNL     1       9.778  23.308  17.398  1.00  0.00     0.177 HD
ENDBRANCH   5   6
ENDBRANCH   4   5
ENDBRANCH   3   4
ENDBRANCH   1   3
BRANCH   1  17
HETATM   17  C8  UNL     1      13.572  20.738  20.474  1.00  0.00     0.057 C 
BRANCH  17  18
HETATM   18  C9  UNL     1      14.612  20.958  21.494  1.00  0.00     0.071 C 
BRANCH  18  19
HETATM   19  C10 UNL     1      14.238  20.720  22.904  1.00  0.00     0.237 C 
BRANCH  19  20
HETATM   20  N7  UNL     1      15.072  21.678  23.709  1.00  0.00    -0.073 N 
ATOM     21  H72 UNL     1      14.918  21.606  24.715  1.00  0.00     0.277 HD
ATOM     22  H71 UNL     1      16.065  21.445  23.719  1.00  0.00     0.277 HD
BRANCH  20  23
HETATM   23  C11 UNL     1      14.787  23.012  23.165  1.00  0.00     0.251 C 
BRANCH  23  24
HETATM   24  C12 UNL     1      13.676  23.587  24.068  1.00  0.00     0.149 C 
BRANCH  24  25
HETATM   25  N8  UNL     1      14.074  24.964  24.358  1.00  0.00    -0.365 N 
HETATM   26  C13 UNL     1      13.499  25.915  23.735  1.00  0.00     0.197 C 
HETATM   27  N9  UNL     1      13.834  27.286  23.969  1.00  0.00    -0.067 NA
HETATM   28  N10 UNL     1      12.502  25.636  22.780  1.00  0.00    -0.067 NA
ATOM     29  H8  UNL     1      14.800  25.160  25.048  1.00  0.00     0.161 HD
ENDBRANCH  24  25
ENDBRANCH  23  24
ENDBRANCH  20  23
ENDBRANCH  19  20
ENDBRANCH  18  19
ENDBRANCH  17  18
ENDBRANCH   1  17
TORSDOF 11
ENDMDL
MODEL 5
REMARK VINA RESULT: -6.432005467      3.913      8.188
REMARK  11 active torsions:
REMARK  status: ('A' for Active; 'I' for Inactive)
REMARK       I    between atoms: N1_2  and  C3_4 
REMARK       I    between atoms: C3_4  and  N2_5 
REMARK    1  A    between atoms: N5_10  and  C5_12 
REMARK    2  A    between atoms: C5_12  and  C6_13 
REMARK    3  A    between atoms: C6_13  and  C7_14 
REMARK    4  A    between atoms: C7_14  and  N6_15 
REMARK    5  A    between atoms: N6_15  and  C8_17 
REMARK    6  A    between atoms: C8_17  and  C9_18 
REMARK    7  A    between atoms: C9_18  and  C10_19 
REMARK    8  A    between atoms: C10_19  and  N7_20 
REMARK    9  A    between atoms: N7_20  and  C11_23 
REMARK   10  A    between atoms: C11_23  and  C12_24 
REMARK   11  A    between atoms: C12_24  and  N8_25 
ROOT
HETATM    1  N6  UNL     1      10.221  24.143  19.142  1.00  0.00    -0.402 N 
ATOM      2  H6  UNL     1      10.819  24.939  19.364  1.00  0.00     0.158 HD
ENDROOT
BRANCH   1   3
HETATM    3  C7  UNL     1       8.880  24.380  18.863  1.00  0.00     0.120 C 
BRANCH   3   4
HETATM    4  C6  UNL     1       8.780  25.822  18.296  1.00  0.00     0.040 C 
BRANCH   4   5
HETATM    5  C5  UNL     1       7.777  26.503  19.231  1.00  0.00     0.139 C 
BRANCH   5   6
HETATM    6  N5  UNL     1       6.686  26.979  18.441  1.00  0.00    -0.226 N 
HETATM    7  C3  UNL     1       5.457  26.674  18.573  1.00  0.00     0.677 C 
HETATM    8  N1  UNL     1       5.065  25.775  19.589  1.00  0.00    -0.227 N 
HETATM    9  N2  UNL     1       4.523  27.256  17.666  1.00  0.00    -0.166 N 
HETATM   10  C1  UNL     1       4.885  26.273  20.932  1.00  0.00     0.168 C 
HETATM   11  C2  UNL     1       4.852  24.385  19.256  1.00  0.00     0.168 C 
HETATM   12  C4  UNL     1       4.618  27.068  16.386  1.00  0.00     0.215 C 
ATOM     13  H2  UNL     1       3.764  27.831  18.031  1.00  0.00     0.186 HD
HETATM   14  N3  UNL     1       5.640  26.285  15.798  1.00  0.00    -0.066 NA
HETATM   15  N4  UNL     1       3.630  27.694  15.586  1.00  0.00    -0.066 NA
ATOM     16  H5  UNL     1       6.916  27.633  17.693  1.00  0.00     0.177 HD
ENDBRANCH   5   6
ENDBRANCH   4   5
ENDBRANCH   3   4
ENDBRANCH   1   3
BRANCH   1  17
HETATM   17  C8  UNL     1      10.786  22.871  19.131  1.00  0.00     0.057 C 
BRANCH  17  18
HETATM   18  C9  UNL     1      12.219  22.771  18.802  1.00  0.00     0.071 C 
BRANCH  18  19
HETATM   19  C10 UNL     1      12.739  21.434  18.442  1.00  0.00     0.237 C 
BRANCH  19  20
HETATM   20  N7  UNL     1      13.089  20.775  19.748  1.00  0.00    -0.073 N 
ATOM     21  H72 UNL     1      12.406  20.944  20.486  1.00  0.00     0.277 HD
ATOM     22  H71 UNL     1      13.000  19.759  19.728  1.00  0.00     0.277 HD
BRANCH  20  23
HETATM   23  C11 UNL     1      14.441  21.239  20.082  1.00  0.00     0.251 C 
BRANCH  23  24
HETATM   24  C12 UNL     1      14.548  21.100  21.615  1.00  0.00     0.149 C 
BRANCH  24  25
HETATM   25  N8  UNL     1      14.689  19.669  21.874  1.00  0.00    -0.365 N 
HETATM   26  C13 UNL     1      13.679  19.017  22.298  1.00  0.00     0.197 C 
HETATM   27  N9  UNL     1      13.741  17.615  22.571  1.00  0.00    -0.067 NA
HETATM   28  N10 UNL     1      12.452  19.675  22.517  1.00  0.00    -0.067 NA
ATOM     29  H8  UNL     1      15.581  19.198  21.719  1.00  0.00     0.161 HD
ENDBRANCH  24  25
ENDBRANCH  23  24
ENDBRANCH  20  23
ENDBRANCH  19  20
ENDBRANCH  18  19
ENDBRANCH  17  18
ENDBRANCH   1  17
TORSDOF 11
ENDMDL
