MODEL 1
REMARK VINA RESULT: -6.230738983      0.000      0.000
REMARK  13 active torsions:
REMARK  status: ('A' for Active; 'I' for Inactive)
REMARK    1  A    between atoms: N1_1  and  C1_5 
REMARK    2  A    between atoms: C1_5  and  C2_6 
REMARK    3  A    between atoms: C2_6  and  O1_7 
REMARK    4  A    between atoms: O1_7  and  C3_8 
REMARK    5  A    between atoms: C3_8  and  C4_9 
REMARK    6  A    between atoms: C4_9  and  N2_10 
REMARK    7  A    between atoms: N3_13  and  C7_14 
REMARK    8  A    between atoms: C7_14  and  C8_15 
REMARK    9  A    between atoms: C8_15  and  N4_16 
REMARK       I    between atoms: N4_16  and  C9_18 
REMARK       I    between atoms: C9_18  and  N5_20 
REMARK   10  A    between atoms: N5_20  and  C10_22 
REMARK   11  A    between atoms: C10_22  and  C11_23 
REMARK   12  A    between atoms: C11_23  and  N6_24 
REMARK   13  A    between atoms: N6_24  and  N7_25 
ROOT
HETATM    1  N2  UNL     1      13.751  24.240  23.878  1.00  0.00    -0.038 N 
HETATM    2  C5  UNL     1      12.626  23.666  24.586  1.00  0.00     0.267 C 
HETATM    3  C6  UNL     1      11.937  24.901  25.188  1.00  0.00     0.267 C 
HETATM    4  N3  UNL     1      12.786  25.992  24.760  1.00  0.00    -0.038 N 
HETATM    5  C12 UNL     1      12.607  26.190  23.370  1.00  0.00     0.267 C 
HETATM    6  C13 UNL     1      13.332  24.990  22.737  1.00  0.00     0.267 C 
HETATM    7  C14 UNL     1      14.100  25.335  24.804  1.00  0.00     0.473 C 
ENDROOT
BRANCH   4   8
HETATM    8  C7  UNL     1      12.662  27.100  25.612  1.00  0.00     0.259 C 
BRANCH   8   9
HETATM    9  C8  UNL     1      13.613  28.223  25.368  1.00  0.00     0.152 C 
BRANCH   9  10
HETATM   10  N4  UNL     1      13.479  29.292  26.322  1.00  0.00    -0.342 N 
HETATM   11  C9  UNL     1      12.558  30.362  26.243  1.00  0.00     0.316 C 
HETATM   12  O2  UNL     1      11.775  30.402  25.262  1.00  0.00    -0.247 OA
HETATM   13  N5  UNL     1      12.504  31.376  27.235  1.00  0.00    -0.342 N 
ATOM     14  H5  UNL     1      13.144  31.337  28.029  1.00  0.00     0.164 HD
ATOM     15  H4  UNL     1      14.104  29.276  27.129  1.00  0.00     0.164 HD
BRANCH  13  16
HETATM   16  C10 UNL     1      11.563  32.456  27.140  1.00  0.00     0.142 C 
BRANCH  16  17
HETATM   17  C11 UNL     1      10.247  32.152  27.779  1.00  0.00     0.154 C 
BRANCH  17  18
HETATM   18  N6  UNL     1       9.172  32.392  26.831  1.00  0.00    -0.147 NA
BRANCH  18  19
HETATM   19  N7  UNL     1       9.117  31.296  25.975  1.00  0.00    -0.348 N 
ATOM     20  H72 UNL     1       8.265  30.875  25.605  1.00  0.00     0.172 HD
ATOM     21  H71 UNL     1      10.077  31.003  25.794  1.00  0.00     0.172 HD
ENDBRANCH  18  19
ENDBRANCH  17  18
ENDBRANCH  16  17
ENDBRANCH  13  16
ENDBRANCH   9  10
ENDBRANCH   8   9
ENDBRANCH   4   8
BRANCH   1  22
HETATM   22  C4  UNL     1      14.840  23.333  23.662  1.00  0.00     0.265 C 
BRANCH  22  23
HETATM   23  C3  UNL     1      14.412  21.903  23.557  1.00  0.00     0.195 C 
BRANCH  23  24
HETATM   24  O1  UNL     1      14.174  21.551  22.245  1.00  0.00    -0.388 OA
BRANCH  24  25
HETATM   25  C2  UNL     1      14.589  20.294  21.888  1.00  0.00     0.195 C 
BRANCH  25  26
HETATM   26  C1  UNL     1      13.524  19.248  22.192  1.00  0.00     0.255 C 
BRANCH  26  27
HETATM   27  N1  UNL     1      14.083  17.920  22.017  1.00  0.00    -0.077 N 
ATOM     28  H13 UNL     1      14.264  17.705  21.037  1.00  0.00     0.274 HD
ATOM     29  H12 UNL     1      15.041  17.857  22.361  1.00  0.00     0.274 HD
ATOM     30  H11 UNL     1      13.471  17.231  22.455  1.00  0.00     0.274 HD
ENDBRANCH  26  27
ENDBRANCH  25  26
ENDBRANCH  24  25
ENDBRANCH  23  24
ENDBRANCH  22  23
ENDBRANCH   1  22
TORSDOF 13
ENDMDL
MODEL 2
REMARK VINA RESULT: -5.733296613      7.912     10.416
REMARK  13 active torsions:
REMARK  status: ('A' for Active; 'I' for Inactive)
REMARK    1  A    between atoms: N1_1  and  C1_5 
REMARK    2  A    between atoms: C1_5  and  C2_6 
REMARK    3  A    between atoms: C2_6  and  O1_7 
REMARK    4  A    between atoms: O1_7  and  C3_8 
REMARK    5  A    between atoms: C3_8  and  C4_9 
REMARK    6  A    between atoms: C4_9  and  N2_10 
REMARK    7  A    between atoms: N3_13  and  C7_14 
REMARK    8  A    between atoms: C7_14  and  C8_15 
REMARK    9  A    between atoms: C8_15  and  N4_16 
REMARK       I    between atoms: N4_16  and  C9_18 
REMARK       I    between atoms: C9_18  and  N5_20 
REMARK   10  A    between atoms: N5_20  and  C10_22 
REMARK   11  A    between atoms: C10_22  and  C11_23 
REMARK   12  A    between atoms: C11_23  and  N6_24 
REMARK   13  A    between atoms: N6_24  and  N7_25 
ROOT
HETATM    1  N2  UNL     1       5.033  24.866  17.695  1.00  0.00    -0.038 N 
HETATM    2  C5  UNL     1       5.348  24.605  16.306  1.00  0.00     0.267 C 
HETATM    3  C6  UNL     1       6.598  23.717  16.402  1.00  0.00     0.267 C 
HETATM    4  N3  UNL     1       6.828  23.627  17.828  1.00  0.00    -0.038 N 
HETATM    5  C12 UNL     1       5.826  22.807  18.400  1.00  0.00     0.267 C 
HETATM    6  C13 UNL     1       4.570  23.692  18.363  1.00  0.00     0.267 C 
HETATM    7  C14 UNL     1       6.396  24.968  18.248  1.00  0.00     0.473 C 
ENDROOT
BRANCH   4   8
HETATM    8  C7  UNL     1       8.171  23.334  18.110  1.00  0.00     0.259 C 
BRANCH   8   9
HETATM    9  C8  UNL     1       8.789  24.109  19.226  1.00  0.00     0.152 C 
BRANCH   9  10
HETATM   10  N4  UNL     1       8.731  23.421  20.488  1.00  0.00    -0.342 N 
HETATM   11  C9  UNL     1       9.445  23.772  21.657  1.00  0.00     0.316 C 
HETATM   12  O2  UNL     1      10.201  24.775  21.614  1.00  0.00    -0.247 OA
HETATM   13  N5  UNL     1       9.326  23.026  22.859  1.00  0.00    -0.342 N 
ATOM     14  H5  UNL     1       8.711  22.212  22.885  1.00  0.00     0.164 HD
ATOM     15  H4  UNL     1       8.121  22.605  20.545  1.00  0.00     0.164 HD
BRANCH  13  16
HETATM   16  C10 UNL     1      10.058  23.397  24.037  1.00  0.00     0.142 C 
BRANCH  16  17
HETATM   17  C11 UNL     1       9.366  23.021  25.306  1.00  0.00     0.154 C 
BRANCH  17  18
HETATM   18  N6  UNL     1       8.025  23.583  25.322  1.00  0.00    -0.147 NA
BRANCH  18  19
HETATM   19  N7  UNL     1       7.157  22.578  25.737  1.00  0.00    -0.348 N 
ATOM     20  H72 UNL     1       6.416  22.685  26.430  1.00  0.00     0.172 HD
ATOM     21  H71 UNL     1       7.402  21.732  25.223  1.00  0.00     0.172 HD
ENDBRANCH  18  19
ENDBRANCH  17  18
ENDBRANCH  16  17
ENDBRANCH  13  16
ENDBRANCH   9  10
ENDBRANCH   8   9
ENDBRANCH   4   8
BRANCH   1  22
HETATM   22  C4  UNL     1       4.259  26.053  17.913  1.00  0.00     0.265 C 
BRANCH  22  23
HETATM   23  C3  UNL     1       5.051  27.182  18.493  1.00  0.00     0.195 C 
BRANCH  23  24
HETATM   24  O1  UNL     1       4.502  27.612  19.684  1.00  0.00    -0.388 OA
BRANCH  24  25
HETATM   25  C2  UNL     1       3.207  27.221  19.910  1.00  0.00     0.195 C 
BRANCH  25  26
HETATM   26  C1  UNL     1       2.998  26.797  21.358  1.00  0.00     0.255 C 
BRANCH  26  27
HETATM   27  N1  UNL     1       4.278  26.751  22.041  1.00  0.00    -0.077 N 
ATOM     28  H13 UNL     1       4.370  25.925  22.631  1.00  0.00     0.274 HD
ATOM     29  H12 UNL     1       5.049  26.561  21.401  1.00  0.00     0.274 HD
ATOM     30  H11 UNL     1       4.417  27.615  22.566  1.00  0.00     0.274 HD
ENDBRANCH  26  27
ENDBRANCH  25  26
ENDBRANCH  24  25
ENDBRANCH  23  24
ENDBRANCH  22  23
ENDBRANCH   1  22
TORSDOF 13
ENDMDL
MODEL 3
REMARK VINA RESULT: -5.423233448      7.938      9.616
REMARK  13 active torsions:
REMARK  status: ('A' for Active; 'I' for Inactive)
REMARK    1  A    between atoms: N1_1  and  C1_5 
REMARK    2  A    between atoms: C1_5  and  C2_6 
REMARK    3  A    between atoms: C2_6  and  O1_7 
REMARK    4  A    between atoms: O1_7  and  C3_8 
REMARK    5  A    between atoms: C3_8  and  C4_9 
REMARK    6  A    between atoms: C4_9  and  N2_10 
REMARK    7  A    between atoms: N3_13  and  C7_14 
REMARK    8  A    between atoms: C7_14  and  C8_15 
REMARK    9  A    between atoms: C8_15  and  N4_16 
REMARK       I    between atoms: N4_16  and  C9_18 
REMARK       I    between atoms: C9_18  and  N5_20 
REMARK   10  A    between atoms: N5_20  and  C10_22 
REMARK   11  A    between atoms: C10_22  and  C11_23 
REMARK   12  A    between atoms: C11_23  and  N6_24 
REMARK   13  A    between atoms: N6_24  and  N7_25 
ROOT
HETATM    1  N2  UNL     1       4.787  24.804  18.506  1.00  0.00    -0.038 N 
HETATM    2  C5  UNL     1       4.715  24.895  19.949  1.00  0.00     0.267 C 
HETATM    3  C6  UNL     1       6.020  25.623  20.309  1.00  0.00     0.267 C 
HETATM    4  N3  UNL     1       6.656  25.812  19.023  1.00  0.00    -0.038 N 
HETATM    5  C12 UNL     1       5.944  26.801  18.304  1.00  0.00     0.267 C 
HETATM    6  C13 UNL     1       4.650  26.083  17.886  1.00  0.00     0.267 C 
HETATM    7  C14 UNL     1       6.236  24.581  18.339  1.00  0.00     0.473 C 
ENDROOT
BRANCH   4   8
HETATM    8  C7  UNL     1       8.046  25.957  19.158  1.00  0.00     0.259 C 
BRANCH   8   9
HETATM    9  C8  UNL     1       8.840  24.694  19.123  1.00  0.00     0.152 C 
BRANCH   9  10
HETATM   10  N4  UNL     1       8.721  23.921  20.332  1.00  0.00    -0.342 N 
HETATM   11  C9  UNL     1       9.515  24.070  21.492  1.00  0.00     0.316 C 
HETATM   12  O2  UNL     1      10.408  24.954  21.492  1.00  0.00    -0.247 OA
HETATM   13  N5  UNL     1       9.325  23.254  22.638  1.00  0.00    -0.342 N 
ATOM     14  H5  UNL     1       8.598  22.538  22.629  1.00  0.00     0.164 HD
ATOM     15  H4  UNL     1       7.999  23.201  20.353  1.00  0.00     0.164 HD
BRANCH  13  16
HETATM   16  C10 UNL     1      10.140  23.419  23.808  1.00  0.00     0.142 C 
BRANCH  16  17
HETATM   17  C11 UNL     1       9.471  22.962  25.063  1.00  0.00     0.154 C 
BRANCH  17  18
HETATM   18  N6  UNL     1       8.108  23.465  25.107  1.00  0.00    -0.147 NA
BRANCH  18  19
HETATM   19  N7  UNL     1       7.279  22.394  25.427  1.00  0.00    -0.348 N 
ATOM     20  H72 UNL     1       7.109  22.037  26.368  1.00  0.00     0.172 HD
ATOM     21  H71 UNL     1       6.882  22.043  24.556  1.00  0.00     0.172 HD
ENDBRANCH  18  19
ENDBRANCH  17  18
ENDBRANCH  16  17
ENDBRANCH  13  16
ENDBRANCH   9  10
ENDBRANCH   8   9
ENDBRANCH   4   8
BRANCH   1  22
HETATM   22  C4  UNL     1       3.998  23.750  17.940  1.00  0.00     0.265 C 
BRANCH  22  23
HETATM   23  C3  UNL     1       3.648  22.675  18.920  1.00  0.00     0.195 C 
BRANCH  23  24
HETATM   24  O1  UNL     1       4.410  21.544  18.708  1.00  0.00    -0.388 OA
BRANCH  24  25
HETATM   25  C2  UNL     1       3.888  20.641  17.816  1.00  0.00     0.195 C 
BRANCH  25  26
HETATM   26  C1  UNL     1       4.834  20.403  16.647  1.00  0.00     0.255 C 
BRANCH  26  27
HETATM   27  N1  UNL     1       6.145  20.939  16.965  1.00  0.00    -0.077 N 
ATOM     28  H13 UNL     1       6.819  20.777  16.216  1.00  0.00     0.274 HD
ATOM     29  H12 UNL     1       6.157  21.959  16.955  1.00  0.00     0.274 HD
ATOM     30  H11 UNL     1       6.463  20.558  17.856  1.00  0.00     0.274 HD
ENDBRANCH  26  27
ENDBRANCH  25  26
ENDBRANCH  24  25
ENDBRANCH  23  24
ENDBRANCH  22  23
ENDBRANCH   1  22
TORSDOF 13
ENDMDL
MODEL 4
REMARK VINA RESULT: -5.422031664      1.426      9.813
REMARK  13 active torsions:
REMARK  status: ('A' for Active; 'I' for Inactive)
REMARK    1  A    between atoms: N1_1  and  C1_5 
REMARK    2  A    between atoms: C1_5  and  C2_6 
REMARK    3  A    between atoms: C2_6  and  O1_7 
REMARK    4  A    between atoms: O1_7  and  C3_8 
REMARK    5  A    between atoms: C3_8  and  C4_9 
REMARK    6  A    between atoms: C4_9  and  N2_10 
REMARK    7  A    between atoms: N3_13  and  C7_14 
REMARK    8  A    between atoms: C7_14  and  C8_15 
REMARK    9  A    between atoms: C8_15  and  N4_16 
REMARK       I    between atoms: N4_16  and  C9_18 
REMARK       I    between atoms: C9_18  and  N5_20 
REMARK   10  A    between atoms: N5_20  and  C10_22 
REMARK   11  A    between atoms: C10_22  and  C11_23 
REMARK   12  A    between atoms: C11_23  and  N6_24 
REMARK   13  A    between atoms: N6_24  and  N7_25 
ROOT
HETATM    1  N2  UNL     1      13.218  28.839  25.927  1.00  0.00    -0.038 N 
HETATM    2  C5  UNL     1      13.826  28.187  27.068  1.00  0.00     0.267 C 
HETATM    3  C6  UNL     1      14.048  26.753  26.564  1.00  0.00     0.267 C 
HETATM    4  N3  UNL     1      13.507  26.790  25.222  1.00  0.00    -0.038 N 
HETATM    5  C12 UNL     1      14.381  27.541  24.400  1.00  0.00     0.267 C 
HETATM    6  C13 UNL     1      14.143  28.992  24.850  1.00  0.00     0.267 C 
HETATM    7  C14 UNL     1      12.393  27.729  25.414  1.00  0.00     0.473 C 
ENDROOT
BRANCH   4   8
HETATM    8  C7  UNL     1      13.122  25.511  24.792  1.00  0.00     0.259 C 
BRANCH   8   9
HETATM    9  C8  UNL     1      14.027  24.853  23.804  1.00  0.00     0.152 C 
BRANCH   9  10
HETATM   10  N4  UNL     1      14.184  23.442  24.038  1.00  0.00    -0.342 N 
HETATM   11  C9  UNL     1      14.326  22.448  23.042  1.00  0.00     0.316 C 
HETATM   12  O2  UNL     1      14.322  22.807  21.838  1.00  0.00    -0.247 OA
HETATM   13  N5  UNL     1      14.470  21.075  23.371  1.00  0.00    -0.342 N 
ATOM     14  H5  UNL     1      14.471  20.791  24.352  1.00  0.00     0.164 HD
ATOM     15  H4  UNL     1      14.193  23.130  25.009  1.00  0.00     0.164 HD
BRANCH  13  16
HETATM   16  C10 UNL     1      14.614  20.079  22.348  1.00  0.00     0.142 C 
BRANCH  16  17
HETATM   17  C11 UNL     1      13.355  19.320  22.079  1.00  0.00     0.154 C 
BRANCH  17  18
HETATM   18  N6  UNL     1      13.492  17.954  22.557  1.00  0.00    -0.147 NA
BRANCH  18  19
HETATM   19  N7  UNL     1      14.601  17.400  21.924  1.00  0.00    -0.348 N 
ATOM     20  H72 UNL     1      14.577  16.631  21.254  1.00  0.00     0.172 HD
ATOM     21  H71 UNL     1      15.424  17.904  22.254  1.00  0.00     0.172 HD
ENDBRANCH  18  19
ENDBRANCH  17  18
ENDBRANCH  16  17
ENDBRANCH  13  16
ENDBRANCH   9  10
ENDBRANCH   8   9
ENDBRANCH   4   8
BRANCH   1  22
HETATM   22  C4  UNL     1      12.442  29.998  26.252  1.00  0.00     0.265 C 
BRANCH  22  23
HETATM   23  C3  UNL     1      11.278  30.213  25.336  1.00  0.00     0.195 C 
BRANCH  23  24
HETATM   24  O1  UNL     1      10.740  31.472  25.504  1.00  0.00    -0.388 OA
BRANCH  24  25
HETATM   25  C2  UNL     1       9.482  31.506  26.051  1.00  0.00     0.195 C 
BRANCH  25  26
HETATM   26  C1  UNL     1       9.391  32.530  27.176  1.00  0.00     0.255 C 
BRANCH  26  27
HETATM   27  N1  UNL     1       9.937  31.963  28.395  1.00  0.00    -0.077 N 
ATOM     28  H13 UNL     1       9.222  31.504  28.960  1.00  0.00     0.274 HD
ATOM     29  H12 UNL     1      10.524  31.149  28.212  1.00  0.00     0.274 HD
ATOM     30  H11 UNL     1      10.432  32.686  28.917  1.00  0.00     0.274 HD
ENDBRANCH  26  27
ENDBRANCH  25  26
ENDBRANCH  24  25
ENDBRANCH  23  24
ENDBRANCH  22  23
ENDBRANCH   1  22
TORSDOF 13
ENDMDL
MODEL 5
REMARK VINA RESULT: -5.410110892      6.343     10.307
REMARK  13 active torsions:
REMARK  status: ('A' for Active; 'I' for Inactive)
REMARK    1  A    between atoms: N1_1  and  C1_5 
REMARK    2  A    between atoms: C1_5  and  C2_6 
REMARK    3  A    between atoms: C2_6  and  O1_7 
REMARK    4  A    between atoms: O1_7  and  C3_8 
REMARK    5  A    between atoms: C3_8  and  C4_9 
REMARK    6  A    between atoms: C4_9  and  N2_10 
REMARK    7  A    between atoms: N3_13  and  C7_14 
REMARK    8  A    between atoms: C7_14  and  C8_15 
REMARK    9  A    between atoms: C8_15  and  N4_16 
REMARK       I    between atoms: N4_16  and  C9_18 
REMARK       I    between atoms: C9_18  and  N5_20 
REMARK   10  A    between atoms: N5_20  and  C10_22 
REMARK   11  A    between atoms: C10_22  and  C11_23 
REMARK   12  A    between atoms: C11_23  and  N6_24 
REMARK   13  A    between atoms: N6_24  and  N7_25 
ROOT
HETATM    1  N2  UNL     1       7.445  25.459  19.027  1.00  0.00    -0.038 N 
HETATM    2  C5  UNL     1       7.409  24.504  17.939  1.00  0.00     0.267 C 
HETATM    3  C6  UNL     1       8.586  23.572  18.266  1.00  0.00     0.267 C 
HETATM    4  N3  UNL     1       9.137  24.149  19.474  1.00  0.00    -0.038 N 
HETATM    5  C12 UNL     1       8.244  23.901  20.544  1.00  0.00     0.267 C 
HETATM    6  C13 UNL     1       7.074  24.860  20.270  1.00  0.00     0.267 C 
HETATM    7  C14 UNL     1       8.904  25.576  19.212  1.00  0.00     0.473 C 
ENDROOT
BRANCH   4   8
HETATM    8  C7  UNL     1      10.486  23.800  19.636  1.00  0.00     0.259 C 
BRANCH   8   9
HETATM    9  C8  UNL     1      10.944  22.592  18.889  1.00  0.00     0.152 C 
BRANCH   9  10
HETATM   10  N4  UNL     1      12.295  22.213  19.207  1.00  0.00    -0.342 N 
HETATM   11  C9  UNL     1      12.699  21.443  20.322  1.00  0.00     0.316 C 
HETATM   12  O2  UNL     1      11.815  21.040  21.118  1.00  0.00    -0.247 OA
HETATM   13  N5  UNL     1      14.063  21.124  20.555  1.00  0.00    -0.342 N 
ATOM     14  H5  UNL     1      14.775  21.456  19.904  1.00  0.00     0.164 HD
ATOM     15  H4  UNL     1      13.028  22.528  18.570  1.00  0.00     0.164 HD
BRANCH  13  16
HETATM   16  C10 UNL     1      14.456  20.341  21.692  1.00  0.00     0.142 C 
BRANCH  16  17
HETATM   17  C11 UNL     1      14.818  21.167  22.883  1.00  0.00     0.154 C 
BRANCH  17  18
HETATM   18  N6  UNL     1      14.569  22.571  22.602  1.00  0.00    -0.147 NA
BRANCH  18  19
HETATM   19  N7  UNL     1      14.736  23.270  23.794  1.00  0.00    -0.348 N 
ATOM     20  H72 UNL     1      14.219  24.107  24.068  1.00  0.00     0.172 HD
ATOM     21  H71 UNL     1      15.460  22.792  24.329  1.00  0.00     0.172 HD
ENDBRANCH  18  19
ENDBRANCH  17  18
ENDBRANCH  16  17
ENDBRANCH  13  16
ENDBRANCH   9  10
ENDBRANCH   8   9
ENDBRANCH   4   8
BRANCH   1  22
HETATM   22  C4  UNL     1       6.823  26.716  18.731  1.00  0.00     0.265 C 
BRANCH  22  23
HETATM   23  C3  UNL     1       5.333  26.634  18.625  1.00  0.00     0.195 C 
BRANCH  23  24
HETATM   24  O1  UNL     1       4.725  27.549  19.460  1.00  0.00    -0.388 OA
BRANCH  24  25
HETATM   25  C2  UNL     1       3.454  27.225  19.861  1.00  0.00     0.195 C 
BRANCH  25  26
HETATM   26  C1  UNL     1       3.471  26.292  21.066  1.00  0.00     0.255 C 
BRANCH  26  27
HETATM   27  N1  UNL     1       4.342  26.837  22.091  1.00  0.00    -0.077 N 
ATOM     28  H13 UNL     1       5.020  26.151  22.424  1.00  0.00     0.274 HD
ATOM     29  H12 UNL     1       4.999  27.521  21.714  1.00  0.00     0.274 HD
ATOM     30  H11 UNL     1       3.779  27.220  22.849  1.00  0.00     0.274 HD
ENDBRANCH  26  27
ENDBRANCH  25  26
ENDBRANCH  24  25
ENDBRANCH  23  24
ENDBRANCH  22  23
ENDBRANCH   1  22
TORSDOF 13
ENDMDL
