MODEL 1
REMARK VINA RESULT: -5.837228407      0.000      0.000
REMARK  15 active torsions:
REMARK  status: ('A' for Active; 'I' for Inactive)
REMARK    1  A    between atoms: N1_1  and  N2_4 
REMARK    2  A    between atoms: N2_4  and  C1_5 
REMARK    3  A    between atoms: C1_5  and  C2_6 
REMARK    4  A    between atoms: C3_7  and  C4_8 
REMARK    5  A    between atoms: C4_8  and  N3_9 
REMARK    6  A    between atoms: N3_9  and  C5_11 
REMARK    7  A    between atoms: C6_12  and  C14_31 
REMARK    8  A    between atoms: C7_16  and  N5_17 
REMARK    9  A    between atoms: N5_17  and  C8_18 
REMARK   10  A    between atoms: C8_18  and  C9_19 
REMARK   11  A    between atoms: C9_19  and  C10_20 
REMARK   12  A    between atoms: C10_20  and  N6_21 
REMARK   13  A    between atoms: N6_21  and  C11_23 
REMARK   14  A    between atoms: C12_25  and  O2_26 
REMARK   15  A    between atoms: C13_28  and  O3_29 
ROOT
HETATM    1  C5  UNL     1     102.390  17.746  46.397  1.00  0.00     0.173 C 
HETATM    2  C6  UNL     1     103.116  18.312  45.257  1.00  0.00     0.248 C 
HETATM    3  N4  UNL     1     104.325  17.828  45.884  1.00  0.00    -0.035 N 
ATOM      4  H41 UNL     1     104.828  18.350  46.602  1.00  0.00     0.280 HD
ATOM      5  H42 UNL     1     105.219  17.765  45.398  1.00  0.00     0.280 HD
HETATM    6  C7  UNL     1     103.483  16.652  46.182  1.00  0.00     0.415 C 
ENDROOT
BRANCH   1   7
HETATM    7  N3  UNL     1     102.550  18.198  47.711  1.00  0.00    -0.388 N 
ATOM      8  H3  UNL     1     102.946  17.549  48.391  1.00  0.00     0.159 HD
BRANCH   7   9
HETATM    9  C4  UNL     1     102.208  19.467  48.156  1.00  0.00     0.083 C 
BRANCH   9  10
HETATM   10  C3  UNL     1     102.123  19.740  49.593  1.00  0.00     0.014 C 
HETATM   11  C2  UNL     1     102.950  20.472  50.312  1.00  0.00    -0.008 C 
BRANCH  11  12
HETATM   12  C1  UNL     1     104.145  21.193  49.876  1.00  0.00     0.161 C 
BRANCH  12  13
HETATM   13  N2  UNL     1     104.837  21.702  51.073  1.00  0.00    -0.145 NA
BRANCH  13  14
HETATM   14  N1  UNL     1     105.521  22.878  50.689  1.00  0.00    -0.348 N 
ATOM     15  H12 UNL     1     106.530  22.968  50.570  1.00  0.00     0.172 HD
ATOM     16  H11 UNL     1     104.816  23.604  50.557  1.00  0.00     0.172 HD
ENDBRANCH  13  14
ENDBRANCH  12  13
ENDBRANCH  11  12
ENDBRANCH   9  10
ENDBRANCH   7   9
ENDBRANCH   1   7
BRANCH   2  17
HETATM   17  C14 UNL     1     102.994  17.301  44.133  1.00  0.00     0.261 C 
HETATM   18  N5  UNL     1     101.801  17.887  43.454  1.00  0.00     0.001 N 
HETATM   19  C12 UNL     1     102.575  17.961  42.279  1.00  0.00     0.357 C 
HETATM   20  C13 UNL     1     103.865  17.551  42.953  1.00  0.00     0.208 C 
BRANCH  18  21
HETATM   21  C8  UNL     1     100.699  16.978  43.423  1.00  0.00     0.245 C 
BRANCH  21  22
HETATM   22  C9  UNL     1      99.864  17.125  42.192  1.00  0.00     0.048 C 
BRANCH  22  23
HETATM   23  C10 UNL     1      99.533  15.864  41.469  1.00  0.00     0.123 C 
BRANCH  23  24
HETATM   24  N6  UNL     1     100.542  14.867  41.746  1.00  0.00    -0.368 N 
ATOM     25  H6  UNL     1     100.495  14.396  42.649  1.00  0.00     0.161 HD
BRANCH  24  26
HETATM   26  C11 UNL     1     101.574  14.495  40.885  1.00  0.00     0.348 C 
HETATM   27  O1  UNL     1     102.786  14.326  41.214  1.00  0.00    -0.284 OA
ENDBRANCH  24  26
ENDBRANCH  23  24
ENDBRANCH  22  23
ENDBRANCH  21  22
ENDBRANCH  18  21
BRANCH  19  28
HETATM   28  O2  UNL     1     102.634  19.126  41.553  1.00  0.00    -0.367 OA
ATOM     29  H2  UNL     1     103.139  19.867  41.868  1.00  0.00     0.212 HD
ENDBRANCH  19  28
BRANCH  20  30
HETATM   30  O3  UNL     1     104.411  16.337  42.520  1.00  0.00    -0.389 OA
ATOM     31  H3  UNL     1     103.890  15.565  42.706  1.00  0.00     0.210 HD
ENDBRANCH  20  30
ENDBRANCH   2  17
TORSDOF 15
ENDMDL
MODEL 2
REMARK VINA RESULT: -5.717979405      2.591      8.005
REMARK  15 active torsions:
REMARK  status: ('A' for Active; 'I' for Inactive)
REMARK    1  A    between atoms: N1_1  and  N2_4 
REMARK    2  A    between atoms: N2_4  and  C1_5 
REMARK    3  A    between atoms: C1_5  and  C2_6 
REMARK    4  A    between atoms: C3_7  and  C4_8 
REMARK    5  A    between atoms: C4_8  and  N3_9 
REMARK    6  A    between atoms: N3_9  and  C5_11 
REMARK    7  A    between atoms: C6_12  and  C14_31 
REMARK    8  A    between atoms: C7_16  and  N5_17 
REMARK    9  A    between atoms: N5_17  and  C8_18 
REMARK   10  A    between atoms: C8_18  and  C9_19 
REMARK   11  A    between atoms: C9_19  and  C10_20 
REMARK   12  A    between atoms: C10_20  and  N6_21 
REMARK   13  A    between atoms: N6_21  and  C11_23 
REMARK   14  A    between atoms: C12_25  and  O2_26 
REMARK   15  A    between atoms: C13_28  and  O3_29 
ROOT
HETATM    1  C5  UNL     1     100.654  16.892  43.828  1.00  0.00     0.173 C 
HETATM    2  C6  UNL     1     101.691  16.331  44.699  1.00  0.00     0.248 C 
HETATM    3  N4  UNL     1     102.269  15.751  43.509  1.00  0.00    -0.035 N 
ATOM      4  H41 UNL     1     101.964  14.860  43.118  1.00  0.00     0.280 HD
ATOM      5  H42 UNL     1     103.212  15.365  43.479  1.00  0.00     0.280 HD
HETATM    6  C7  UNL     1     101.912  17.056  42.919  1.00  0.00     0.415 C 
ENDROOT
BRANCH   1   7
HETATM    7  N3  UNL     1      99.753  16.106  43.103  1.00  0.00    -0.388 N 
ATOM      8  H3  UNL     1      99.161  15.460  43.624  1.00  0.00     0.159 HD
BRANCH   7   9
HETATM    9  C4  UNL     1      99.606  16.144  41.723  1.00  0.00     0.083 C 
BRANCH   9  10
HETATM   10  C3  UNL     1      99.572  14.895  40.958  1.00  0.00     0.014 C 
HETATM   11  C2  UNL     1     100.532  14.401  40.201  1.00  0.00    -0.008 C 
BRANCH  11  12
HETATM   12  C1  UNL     1     101.858  14.954  39.933  1.00  0.00     0.161 C 
BRANCH  12  13
HETATM   13  N2  UNL     1     102.826  14.277  40.815  1.00  0.00    -0.145 NA
BRANCH  13  14
HETATM   14  N1  UNL     1     103.978  14.014  40.040  1.00  0.00    -0.348 N 
ATOM     15  H12 UNL     1     104.159  14.370  39.102  1.00  0.00     0.172 HD
ATOM     16  H11 UNL     1     104.582  13.408  40.598  1.00  0.00     0.172 HD
ENDBRANCH  13  14
ENDBRANCH  12  13
ENDBRANCH  11  12
ENDBRANCH   9  10
ENDBRANCH   7   9
ENDBRANCH   1   7
BRANCH   2  17
HETATM   17  C14 UNL     1     102.687  17.448  44.945  1.00  0.00     0.261 C 
HETATM   18  N5  UNL     1     102.571  17.508  46.431  1.00  0.00     0.001 N 
HETATM   19  C12 UNL     1     103.962  17.285  46.493  1.00  0.00     0.357 C 
HETATM   20  C13 UNL     1     104.112  17.028  45.010  1.00  0.00     0.208 C 
BRANCH  18  21
HETATM   21  C8  UNL     1     102.121  18.785  46.886  1.00  0.00     0.245 C 
BRANCH  21  22
HETATM   22  C9  UNL     1     102.149  18.912  48.375  1.00  0.00     0.048 C 
BRANCH  22  23
HETATM   23  C10 UNL     1     101.930  20.281  48.922  1.00  0.00     0.123 C 
BRANCH  23  24
HETATM   24  N6  UNL     1     102.563  20.393  50.216  1.00  0.00    -0.368 N 
ATOM     25  H6  UNL     1     101.961  20.323  51.036  1.00  0.00     0.161 HD
BRANCH  24  26
HETATM   26  C11 UNL     1     103.926  20.587  50.439  1.00  0.00     0.348 C 
HETATM   27  O1  UNL     1     104.799  20.792  49.544  1.00  0.00    -0.284 OA
ENDBRANCH  24  26
ENDBRANCH  23  24
ENDBRANCH  22  23
ENDBRANCH  21  22
ENDBRANCH  18  21
BRANCH  19  28
HETATM   28  O2  UNL     1     104.478  16.313  47.315  1.00  0.00    -0.367 OA
ATOM     29  H2  UNL     1     105.054  15.642  46.968  1.00  0.00     0.212 HD
ENDBRANCH  19  28
BRANCH  20  30
HETATM   30  O3  UNL     1     104.897  17.956  44.315  1.00  0.00    -0.389 OA
ATOM     31  H3  UNL     1     104.421  18.670  43.908  1.00  0.00     0.210 HD
ENDBRANCH  20  30
ENDBRANCH   2  17
TORSDOF 15
ENDMDL
MODEL 3
REMARK VINA RESULT: -5.662413533      1.322      2.407
REMARK  15 active torsions:
REMARK  status: ('A' for Active; 'I' for Inactive)
REMARK    1  A    between atoms: N1_1  and  N2_4 
REMARK    2  A    between atoms: N2_4  and  C1_5 
REMARK    3  A    between atoms: C1_5  and  C2_6 
REMARK    4  A    between atoms: C3_7  and  C4_8 
REMARK    5  A    between atoms: C4_8  and  N3_9 
REMARK    6  A    between atoms: N3_9  and  C5_11 
REMARK    7  A    between atoms: C6_12  and  C14_31 
REMARK    8  A    between atoms: C7_16  and  N5_17 
REMARK    9  A    between atoms: N5_17  and  C8_18 
REMARK   10  A    between atoms: C8_18  and  C9_19 
REMARK   11  A    between atoms: C9_19  and  C10_20 
REMARK   12  A    between atoms: C10_20  and  N6_21 
REMARK   13  A    between atoms: N6_21  and  C11_23 
REMARK   14  A    between atoms: C12_25  and  O2_26 
REMARK   15  A    between atoms: C13_28  and  O3_29 
ROOT
HETATM    1  C5  UNL     1     102.374  17.755  46.247  1.00  0.00     0.173 C 
HETATM    2  C6  UNL     1     103.177  18.281  45.140  1.00  0.00     0.248 C 
HETATM    3  N4  UNL     1     104.328  17.714  45.805  1.00  0.00    -0.035 N 
ATOM      4  H41 UNL     1     104.838  18.196  46.546  1.00  0.00     0.280 HD
ATOM      5  H42 UNL     1     105.233  17.596  45.350  1.00  0.00     0.280 HD
HETATM    6  C7  UNL     1     103.400  16.594  46.060  1.00  0.00     0.415 C 
ENDROOT
BRANCH   1   7
HETATM    7  N3  UNL     1     102.516  18.185  47.571  1.00  0.00    -0.388 N 
ATOM      8  H3  UNL     1     102.882  17.517  48.250  1.00  0.00     0.159 HD
BRANCH   7   9
HETATM    9  C4  UNL     1     102.194  19.456  48.027  1.00  0.00     0.083 C 
BRANCH   9  10
HETATM   10  C3  UNL     1     102.052  19.703  49.464  1.00  0.00     0.014 C 
HETATM   11  C2  UNL     1     102.855  20.414  50.230  1.00  0.00    -0.008 C 
BRANCH  11  12
HETATM   12  C1  UNL     1     104.074  21.131  49.858  1.00  0.00     0.161 C 
BRANCH  12  13
HETATM   13  N2  UNL     1     104.751  21.560  51.094  1.00  0.00    -0.145 NA
BRANCH  13  14
HETATM   14  N1  UNL     1     105.404  22.780  50.808  1.00  0.00    -0.348 N 
ATOM     15  H12 UNL     1     104.948  23.645  50.516  1.00  0.00     0.172 HD
ATOM     16  H11 UNL     1     106.402  22.626  50.949  1.00  0.00     0.172 HD
ENDBRANCH  13  14
ENDBRANCH  12  13
ENDBRANCH  11  12
ENDBRANCH   9  10
ENDBRANCH   7   9
ENDBRANCH   1   7
BRANCH   2  17
HETATM   17  C14 UNL     1     103.029  17.291  44.002  1.00  0.00     0.261 C 
HETATM   18  N5  UNL     1     101.879  17.939  43.308  1.00  0.00     0.001 N 
HETATM   19  C12 UNL     1     102.678  17.990  42.149  1.00  0.00     0.357 C 
HETATM   20  C13 UNL     1     103.934  17.512  42.842  1.00  0.00     0.208 C 
BRANCH  18  21
HETATM   21  C8  UNL     1     100.736  17.084  43.244  1.00  0.00     0.245 C 
BRANCH  21  22
HETATM   22  C9  UNL     1      99.801  17.450  42.137  1.00  0.00     0.048 C 
BRANCH  22  23
HETATM   23  C10 UNL     1      99.098  18.757  42.277  1.00  0.00     0.123 C 
BRANCH  23  24
HETATM   24  N6  UNL     1      99.626  19.697  41.315  1.00  0.00    -0.368 N 
ATOM     25  H6  UNL     1      99.714  19.377  40.351  1.00  0.00     0.161 HD
BRANCH  24  26
HETATM   26  C11 UNL     1     100.026  21.004  41.592  1.00  0.00     0.348 C 
HETATM   27  O1  UNL     1     100.965  21.339  42.373  1.00  0.00    -0.284 OA
ENDBRANCH  24  26
ENDBRANCH  23  24
ENDBRANCH  22  23
ENDBRANCH  21  22
ENDBRANCH  18  21
BRANCH  19  28
HETATM   28  O2  UNL     1     102.806  19.159  41.438  1.00  0.00    -0.367 OA
ATOM     29  H2  UNL     1     103.327  19.188  40.644  1.00  0.00     0.212 HD
ENDBRANCH  19  28
BRANCH  20  30
HETATM   30  O3  UNL     1     104.431  16.278  42.405  1.00  0.00    -0.389 OA
ATOM     31  H3  UNL     1     103.894  15.824  41.767  1.00  0.00     0.210 HD
ENDBRANCH  20  30
ENDBRANCH   2  17
TORSDOF 15
ENDMDL
MODEL 4
REMARK VINA RESULT: -5.637295967      1.574      2.098
REMARK  15 active torsions:
REMARK  status: ('A' for Active; 'I' for Inactive)
REMARK    1  A    between atoms: N1_1  and  N2_4 
REMARK    2  A    between atoms: N2_4  and  C1_5 
REMARK    3  A    between atoms: C1_5  and  C2_6 
REMARK    4  A    between atoms: C3_7  and  C4_8 
REMARK    5  A    between atoms: C4_8  and  N3_9 
REMARK    6  A    between atoms: N3_9  and  C5_11 
REMARK    7  A    between atoms: C6_12  and  C14_31 
REMARK    8  A    between atoms: C7_16  and  N5_17 
REMARK    9  A    between atoms: N5_17  and  C8_18 
REMARK   10  A    between atoms: C8_18  and  C9_19 
REMARK   11  A    between atoms: C9_19  and  C10_20 
REMARK   12  A    between atoms: C10_20  and  N6_21 
REMARK   13  A    between atoms: N6_21  and  C11_23 
REMARK   14  A    between atoms: C12_25  and  O2_26 
REMARK   15  A    between atoms: C13_28  and  O3_29 
ROOT
HETATM    1  C5  UNL     1     102.290  17.758  45.648  1.00  0.00     0.173 C 
HETATM    2  C6  UNL     1     103.401  17.271  44.825  1.00  0.00     0.248 C 
HETATM    3  N4  UNL     1     103.253  16.007  45.508  1.00  0.00    -0.035 N 
ATOM      4  H41 UNL     1     103.690  15.804  46.407  1.00  0.00     0.280 HD
ATOM      5  H42 UNL     1     103.683  15.142  45.180  1.00  0.00     0.280 HD
HETATM    6  C7  UNL     1     101.814  16.301  45.357  1.00  0.00     0.415 C 
ENDROOT
BRANCH   1   7
HETATM    7  N3  UNL     1     102.359  17.870  47.041  1.00  0.00    -0.388 N 
ATOM      8  H3  UNL     1     102.246  17.018  47.591  1.00  0.00     0.159 HD
BRANCH   7   9
HETATM    9  C4  UNL     1     102.568  19.057  47.728  1.00  0.00     0.083 C 
BRANCH   9  10
HETATM   10  C3  UNL     1     101.838  19.322  48.970  1.00  0.00     0.014 C 
HETATM   11  C2  UNL     1     102.218  20.100  49.964  1.00  0.00    -0.008 C 
BRANCH  11  12
HETATM   12  C1  UNL     1     103.442  20.889  50.089  1.00  0.00     0.161 C 
BRANCH  12  13
HETATM   13  N2  UNL     1     104.488  20.027  50.667  1.00  0.00    -0.145 NA
BRANCH  13  14
HETATM   14  N1  UNL     1     105.548  20.872  51.065  1.00  0.00    -0.348 N 
ATOM     15  H12 UNL     1     105.534  21.511  51.860  1.00  0.00     0.172 HD
ATOM     16  H11 UNL     1     106.316  20.717  50.412  1.00  0.00     0.172 HD
ENDBRANCH  13  14
ENDBRANCH  12  13
ENDBRANCH  11  12
ENDBRANCH   9  10
ENDBRANCH   7   9
ENDBRANCH   1   7
BRANCH   2  17
HETATM   17  C14 UNL     1     102.802  16.905  43.481  1.00  0.00     0.261 C 
HETATM   18  N5  UNL     1     103.435  17.984  42.668  1.00  0.00     0.001 N 
HETATM   19  C12 UNL     1     103.974  16.973  41.848  1.00  0.00     0.357 C 
HETATM   20  C13 UNL     1     103.518  15.836  42.734  1.00  0.00     0.208 C 
BRANCH  18  21
HETATM   21  C8  UNL     1     102.466  18.837  42.057  1.00  0.00     0.245 C 
BRANCH  21  22
HETATM   22  C9  UNL     1     102.226  18.502  40.620  1.00  0.00     0.048 C 
BRANCH  22  23
HETATM   23  C10 UNL     1     100.821  18.166  40.250  1.00  0.00     0.123 C 
BRANCH  23  24
HETATM   24  N6  UNL     1     100.549  16.787  40.582  1.00  0.00    -0.368 N 
ATOM     25  H6  UNL     1     101.163  16.080  40.177  1.00  0.00     0.161 HD
BRANCH  24  26
HETATM   26  C11 UNL     1      99.519  16.339  41.409  1.00  0.00     0.348 C 
HETATM   27  O1  UNL     1      99.667  15.782  42.538  1.00  0.00    -0.284 OA
ENDBRANCH  24  26
ENDBRANCH  23  24
ENDBRANCH  22  23
ENDBRANCH  21  22
ENDBRANCH  18  21
BRANCH  19  28
HETATM   28  O2  UNL     1     105.311  16.971  41.527  1.00  0.00    -0.367 OA
ATOM     29  H2  UNL     1     105.823  16.173  41.594  1.00  0.00     0.212 HD
ENDBRANCH  19  28
BRANCH  20  30
HETATM   30  O3  UNL     1     102.581  14.966  42.164  1.00  0.00    -0.389 OA
ATOM     31  H3  UNL     1     101.709  15.003  42.539  1.00  0.00     0.210 HD
ENDBRANCH  20  30
ENDBRANCH   2  17
TORSDOF 15
ENDMDL
MODEL 5
REMARK VINA RESULT: -5.606401497      1.744      2.894
REMARK  15 active torsions:
REMARK  status: ('A' for Active; 'I' for Inactive)
REMARK    1  A    between atoms: N1_1  and  N2_4 
REMARK    2  A    between atoms: N2_4  and  C1_5 
REMARK    3  A    between atoms: C1_5  and  C2_6 
REMARK    4  A    between atoms: C3_7  and  C4_8 
REMARK    5  A    between atoms: C4_8  and  N3_9 
REMARK    6  A    between atoms: N3_9  and  C5_11 
REMARK    7  A    between atoms: C6_12  and  C14_31 
REMARK    8  A    between atoms: C7_16  and  N5_17 
REMARK    9  A    between atoms: N5_17  and  C8_18 
REMARK   10  A    between atoms: C8_18  and  C9_19 
REMARK   11  A    between atoms: C9_19  and  C10_20 
REMARK   12  A    between atoms: C10_20  and  N6_21 
REMARK   13  A    between atoms: N6_21  and  C11_23 
REMARK   14  A    between atoms: C12_25  and  O2_26 
REMARK   15  A    between atoms: C13_28  and  O3_29 
ROOT
HETATM    1  C5  UNL     1     102.089  17.251  45.584  1.00  0.00     0.173 C 
HETATM    2  C6  UNL     1     103.023  17.187  44.456  1.00  0.00     0.248 C 
HETATM    3  N4  UNL     1     103.631  16.058  45.122  1.00  0.00    -0.035 N 
ATOM      4  H41 UNL     1     104.343  16.155  45.846  1.00  0.00     0.280 HD
ATOM      5  H42 UNL     1     104.281  15.423  44.660  1.00  0.00     0.280 HD
HETATM    6  C7  UNL     1     102.227  15.706  45.413  1.00  0.00     0.415 C 
ENDROOT
BRANCH   1   7
HETATM    7  N3  UNL     1     102.486  17.531  46.895  1.00  0.00    -0.388 N 
ATOM      8  H3  UNL     1     102.809  16.751  47.470  1.00  0.00     0.159 HD
BRANCH   7   9
HETATM    9  C4  UNL     1     102.474  18.793  47.471  1.00  0.00     0.083 C 
BRANCH   9  10
HETATM   10  C3  UNL     1     101.722  19.025  48.707  1.00  0.00     0.014 C 
HETATM   11  C2  UNL     1     102.041  19.845  49.689  1.00  0.00    -0.008 C 
BRANCH  11  12
HETATM   12  C1  UNL     1     103.204  20.723  49.802  1.00  0.00     0.161 C 
BRANCH  12  13
HETATM   13  N2  UNL     1     104.288  19.968  50.454  1.00  0.00    -0.145 NA
BRANCH  13  14
HETATM   14  N1  UNL     1     104.848  20.813  51.440  1.00  0.00    -0.348 N 
ATOM     15  H12 UNL     1     104.505  21.740  51.693  1.00  0.00     0.172 HD
ATOM     16  H11 UNL     1     105.646  20.319  51.839  1.00  0.00     0.172 HD
ENDBRANCH  13  14
ENDBRANCH  12  13
ENDBRANCH  11  12
ENDBRANCH   9  10
ENDBRANCH   7   9
ENDBRANCH   1   7
BRANCH   2  17
HETATM   17  C14 UNL     1     102.293  16.461  43.343  1.00  0.00     0.261 C 
HETATM   18  N5  UNL     1     101.707  17.653  42.664  1.00  0.00     0.001 N 
HETATM   19  C12 UNL     1     102.351  17.229  41.485  1.00  0.00     0.357 C 
HETATM   20  C13 UNL     1     103.121  16.116  42.157  1.00  0.00     0.208 C 
BRANCH  18  21
HETATM   21  C8  UNL     1     100.279  17.615  42.646  1.00  0.00     0.245 C 
BRANCH  21  22
HETATM   22  C9  UNL     1      99.661  18.892  43.118  1.00  0.00     0.048 C 
BRANCH  22  23
HETATM   23  C10 UNL     1     100.590  20.044  43.299  1.00  0.00     0.123 C 
BRANCH  23  24
HETATM   24  N6  UNL     1     100.378  21.007  42.243  1.00  0.00    -0.368 N 
ATOM     25  H6  UNL     1      99.635  21.692  42.379  1.00  0.00     0.161 HD
BRANCH  24  26
HETATM   26  C11 UNL     1     101.104  21.082  41.055  1.00  0.00     0.348 C 
HETATM   27  O1  UNL     1     102.359  20.945  40.945  1.00  0.00    -0.284 OA
ENDBRANCH  24  26
ENDBRANCH  23  24
ENDBRANCH  22  23
ENDBRANCH  21  22
ENDBRANCH  18  21
BRANCH  19  28
HETATM   28  O2  UNL     1     103.108  18.108  40.747  1.00  0.00    -0.367 OA
ATOM     29  H2  UNL     1     104.055  18.113  40.824  1.00  0.00     0.212 HD
ENDBRANCH  19  28
BRANCH  20  30
HETATM   30  O3  UNL     1     102.800  14.820  41.733  1.00  0.00    -0.389 OA
ATOM     31  H3  UNL     1     103.395  14.138  42.020  1.00  0.00     0.210 HD
ENDBRANCH  20  30
ENDBRANCH   2  17
TORSDOF 15
ENDMDL
