MODEL 1
REMARK VINA RESULT: -6.124151214      0.000      0.000
REMARK  14 active torsions:
REMARK  status: ('A' for Active; 'I' for Inactive)
REMARK    1  A    between atoms: C1_4  and  C2_5 
REMARK    2  A    between atoms: C1_4  and  N3_17 
REMARK    3  A    between atoms: C2_5  and  C3_6 
REMARK    4  A    between atoms: C3_6  and  O1_7 
REMARK    5  A    between atoms: C3_6  and  C4_9 
REMARK    6  A    between atoms: C4_9  and  N2_10 
REMARK    7  A    between atoms: C4_9  and  C5_14 
REMARK    8  A    between atoms: C5_14  and  O2_15 
REMARK    9  A    between atoms: N3_17  and  C6_19 
REMARK   10  A    between atoms: C6_19  and  C7_20 
REMARK   11  A    between atoms: C7_20  and  C8_21 
REMARK   12  A    between atoms: C8_21  and  N4_22 
REMARK   13  A    between atoms: C13_27  and  N5_28 
REMARK   14  A    between atoms: N5_28  and  C14_30 
ROOT
HETATM    1  N1  UNL     1     101.142  19.636  49.967  1.00  0.00    -0.389 N 
ATOM      2  H11 UNL     1     100.604  18.909  49.494  1.00  0.00     0.157 HD
ATOM      3  H12 UNL     1     100.784  19.943  50.871  1.00  0.00     0.157 HD
HETATM    4  C1  UNL     1     102.195  20.113  49.458  1.00  0.00     0.072 C 
ENDROOT
BRANCH   4   5
HETATM    5  C2  UNL     1     102.972  21.164  50.143  1.00  0.00     0.109 C 
BRANCH   5   6
HETATM    6  C3  UNL     1     104.065  20.629  50.998  1.00  0.00     0.157 C 
BRANCH   6   7
HETATM    7  O1  UNL     1     104.390  19.326  50.646  1.00  0.00    -0.393 OA
ATOM      8  H1  UNL     1     103.660  18.736  50.794  1.00  0.00     0.210 HD
ENDBRANCH   6   7
BRANCH   6   9
HETATM    9  C4  UNL     1     105.277  21.548  50.836  1.00  0.00     0.235 C 
BRANCH   9  10
HETATM   10  N2  UNL     1     104.801  22.803  50.327  1.00  0.00    -0.071 N 
ATOM     11  H23 UNL     1     104.423  23.409  51.055  1.00  0.00     0.274 HD
ATOM     12  H22 UNL     1     105.553  23.418  50.018  1.00  0.00     0.274 HD
ATOM     13  H21 UNL     1     104.126  22.598  49.590  1.00  0.00     0.274 HD
ENDBRANCH   9  10
BRANCH   9  14
HETATM   14  C5  UNL     1     106.182  20.906  49.793  1.00  0.00     0.199 C 
BRANCH  14  15
HETATM   15  O2  UNL     1     105.604  20.992  48.534  1.00  0.00    -0.399 OA
ATOM     16  H2  UNL     1     106.170  21.475  47.943  1.00  0.00     0.209 HD
ENDBRANCH  14  15
ENDBRANCH   9  14
ENDBRANCH   6   9
ENDBRANCH   5   6
ENDBRANCH   4   5
BRANCH   4  17
HETATM   17  N3  UNL     1     102.695  19.684  48.192  1.00  0.00    -0.380 N 
ATOM     18  H3  UNL     1     103.364  20.262  47.683  1.00  0.00     0.160 HD
BRANCH  17  19
HETATM   19  C6  UNL     1     102.250  18.427  47.633  1.00  0.00     0.122 C 
BRANCH  19  20
HETATM   20  C7  UNL     1     103.134  18.161  46.413  1.00  0.00     0.047 C 
BRANCH  20  21
HETATM   21  C8  UNL     1     102.687  16.850  45.806  1.00  0.00     0.239 C 
BRANCH  21  22
HETATM   22  N4  UNL     1     102.574  16.868  44.396  1.00  0.00    -0.065 N 
HETATM   23  C9  UNL     1     102.966  15.674  43.710  1.00  0.00     0.238 C 
HETATM   24  C10 UNL     1     102.255  15.696  42.358  1.00  0.00     0.036 C 
HETATM   25  C11 UNL     1     101.514  16.995  42.436  1.00  0.00     0.038 C 
HETATM   26  C12 UNL     1     101.179  17.018  43.938  1.00  0.00     0.244 C 
HETATM   27  C13 UNL     1     102.528  18.109  42.394  1.00  0.00     0.115 C 
HETATM   28  C15 UNL     1     103.177  18.014  43.760  1.00  0.00     0.263 C 
BRANCH  27  29
HETATM   29  N5  UNL     1     101.925  19.398  42.165  1.00  0.00    -0.362 N 
ATOM     30  H5  UNL     1     101.448  19.839  42.953  1.00  0.00     0.162 HD
BRANCH  29  31
HETATM   31  C14 UNL     1     101.939  20.092  40.955  1.00  0.00     0.348 C 
HETATM   32  O3  UNL     1     102.314  21.285  40.914  1.00  0.00    -0.284 OA
ENDBRANCH  29  31
ENDBRANCH  27  29
ENDBRANCH  21  22
ENDBRANCH  20  21
ENDBRANCH  19  20
ENDBRANCH  17  19
ENDBRANCH   4  17
TORSDOF 14
ENDMDL
MODEL 2
REMARK VINA RESULT: -6.111104239      2.021      2.640
REMARK  14 active torsions:
REMARK  status: ('A' for Active; 'I' for Inactive)
REMARK    1  A    between atoms: C1_4  and  C2_5 
REMARK    2  A    between atoms: C1_4  and  N3_17 
REMARK    3  A    between atoms: C2_5  and  C3_6 
REMARK    4  A    between atoms: C3_6  and  O1_7 
REMARK    5  A    between atoms: C3_6  and  C4_9 
REMARK    6  A    between atoms: C4_9  and  N2_10 
REMARK    7  A    between atoms: C4_9  and  C5_14 
REMARK    8  A    between atoms: C5_14  and  O2_15 
REMARK    9  A    between atoms: N3_17  and  C6_19 
REMARK   10  A    between atoms: C6_19  and  C7_20 
REMARK   11  A    between atoms: C7_20  and  C8_21 
REMARK   12  A    between atoms: C8_21  and  N4_22 
REMARK   13  A    between atoms: C13_27  and  N5_28 
REMARK   14  A    between atoms: N5_28  and  C14_30 
ROOT
HETATM    1  N1  UNL     1     101.142  19.587  49.993  1.00  0.00    -0.389 N 
ATOM      2  H11 UNL     1     100.568  18.866  49.556  1.00  0.00     0.157 HD
ATOM      3  H12 UNL     1     100.847  19.896  50.919  1.00  0.00     0.157 HD
HETATM    4  C1  UNL     1     102.163  20.055  49.416  1.00  0.00     0.072 C 
ENDROOT
BRANCH   4   5
HETATM    5  C2  UNL     1     102.994  21.098  50.048  1.00  0.00     0.109 C 
BRANCH   5   6
HETATM    6  C3  UNL     1     104.179  20.557  50.766  1.00  0.00     0.157 C 
BRANCH   6   7
HETATM    7  O1  UNL     1     104.334  19.198  50.530  1.00  0.00    -0.393 OA
ATOM      8  H1  UNL     1     103.586  18.705  50.846  1.00  0.00     0.210 HD
ENDBRANCH   6   7
BRANCH   6   9
HETATM    9  C4  UNL     1     105.408  21.330  50.286  1.00  0.00     0.235 C 
BRANCH   9  10
HETATM   10  N2  UNL     1     106.469  21.072  51.218  1.00  0.00    -0.071 N 
ATOM     11  H23 UNL     1     107.061  20.289  50.941  1.00  0.00     0.274 HD
ATOM     12  H22 UNL     1     107.190  21.794  51.210  1.00  0.00     0.274 HD
ATOM     13  H21 UNL     1     106.045  20.945  52.137  1.00  0.00     0.274 HD
ENDBRANCH   9  10
BRANCH   9  14
HETATM   14  C5  UNL     1     105.051  22.809  50.344  1.00  0.00     0.199 C 
BRANCH  14  15
HETATM   15  O2  UNL     1     106.198  23.586  50.246  1.00  0.00    -0.399 OA
ATOM     16  H2  UNL     1     106.091  24.394  50.734  1.00  0.00     0.209 HD
ENDBRANCH  14  15
ENDBRANCH   9  14
ENDBRANCH   6   9
ENDBRANCH   5   6
ENDBRANCH   4   5
BRANCH   4  17
HETATM   17  N3  UNL     1     102.575  19.623  48.119  1.00  0.00    -0.380 N 
ATOM     18  H3  UNL     1     103.062  20.267  47.496  1.00  0.00     0.160 HD
BRANCH  17  19
HETATM   19  C6  UNL     1     102.298  18.269  47.693  1.00  0.00     0.122 C 
BRANCH  19  20
HETATM   20  C7  UNL     1     103.089  18.055  46.400  1.00  0.00     0.047 C 
BRANCH  20  21
HETATM   21  C8  UNL     1     102.316  17.069  45.553  1.00  0.00     0.239 C 
BRANCH  21  22
HETATM   22  N4  UNL     1     102.035  17.519  44.242  1.00  0.00    -0.065 N 
HETATM   23  C9  UNL     1     101.228  18.697  44.131  1.00  0.00     0.238 C 
HETATM   24  C10 UNL     1     101.524  19.299  42.759  1.00  0.00     0.036 C 
HETATM   25  C11 UNL     1     102.512  18.315  42.212  1.00  0.00     0.038 C 
HETATM   26  C12 UNL     1     103.247  17.931  43.509  1.00  0.00     0.244 C 
HETATM   27  C13 UNL     1     101.781  17.022  41.953  1.00  0.00     0.115 C 
HETATM   28  C15 UNL     1     101.532  16.500  43.353  1.00  0.00     0.263 C 
BRANCH  27  29
HETATM   29  N5  UNL     1     102.553  16.101  41.157  1.00  0.00    -0.362 N 
ATOM     30  H5  UNL     1     103.128  16.494  40.411  1.00  0.00     0.162 HD
BRANCH  29  31
HETATM   31  C14 UNL     1     102.577  14.716  41.323  1.00  0.00     0.348 C 
HETATM   32  O3  UNL     1     103.325  14.006  40.614  1.00  0.00    -0.284 OA
ENDBRANCH  29  31
ENDBRANCH  27  29
ENDBRANCH  21  22
ENDBRANCH  20  21
ENDBRANCH  19  20
ENDBRANCH  17  19
ENDBRANCH   4  17
TORSDOF 14
ENDMDL
MODEL 3
REMARK VINA RESULT: -6.069416004      1.972      2.701
REMARK  14 active torsions:
REMARK  status: ('A' for Active; 'I' for Inactive)
REMARK    1  A    between atoms: C1_4  and  C2_5 
REMARK    2  A    between atoms: C1_4  and  N3_17 
REMARK    3  A    between atoms: C2_5  and  C3_6 
REMARK    4  A    between atoms: C3_6  and  O1_7 
REMARK    5  A    between atoms: C3_6  and  C4_9 
REMARK    6  A    between atoms: C4_9  and  N2_10 
REMARK    7  A    between atoms: C4_9  and  C5_14 
REMARK    8  A    between atoms: C5_14  and  O2_15 
REMARK    9  A    between atoms: N3_17  and  C6_19 
REMARK   10  A    between atoms: C6_19  and  C7_20 
REMARK   11  A    between atoms: C7_20  and  C8_21 
REMARK   12  A    between atoms: C8_21  and  N4_22 
REMARK   13  A    between atoms: C13_27  and  N5_28 
REMARK   14  A    between atoms: N5_28  and  C14_30 
ROOT
HETATM    1  N1  UNL     1     101.023  19.661  50.104  1.00  0.00    -0.389 N 
ATOM      2  H11 UNL     1     100.340  19.015  49.708  1.00  0.00     0.157 HD
ATOM      3  H12 UNL     1     100.861  19.952  51.068  1.00  0.00     0.157 HD
HETATM    4  C1  UNL     1     102.017  20.060  49.435  1.00  0.00     0.072 C 
ENDROOT
BRANCH   4   5
HETATM    5  C2  UNL     1     103.006  20.992  50.008  1.00  0.00     0.109 C 
BRANCH   5   6
HETATM    6  C3  UNL     1     104.401  20.479  49.961  1.00  0.00     0.157 C 
BRANCH   6   7
HETATM    7  O1  UNL     1     105.035  20.847  48.782  1.00  0.00    -0.393 OA
ATOM      8  H1  UNL     1     105.796  20.303  48.615  1.00  0.00     0.210 HD
ENDBRANCH   6   7
BRANCH   6   9
HETATM    9  C4  UNL     1     105.148  21.044  51.172  1.00  0.00     0.235 C 
BRANCH   9  10
HETATM   10  N2  UNL     1     105.702  22.309  50.783  1.00  0.00    -0.071 N 
ATOM     11  H23 UNL     1     104.992  23.028  50.642  1.00  0.00     0.274 HD
ATOM     12  H22 UNL     1     106.210  22.770  51.538  1.00  0.00     0.274 HD
ATOM     13  H21 UNL     1     106.277  22.150  49.955  1.00  0.00     0.274 HD
ENDBRANCH   9  10
BRANCH   9  14
HETATM   14  C5  UNL     1     106.287  20.081  51.478  1.00  0.00     0.199 C 
BRANCH  14  15
HETATM   15  O2  UNL     1     106.022  18.832  50.933  1.00  0.00    -0.399 OA
ATOM     16  H2  UNL     1     105.734  18.919  50.032  1.00  0.00     0.209 HD
ENDBRANCH  14  15
ENDBRANCH   9  14
ENDBRANCH   6   9
ENDBRANCH   5   6
ENDBRANCH   4   5
BRANCH   4  17
HETATM   17  N3  UNL     1     102.245  19.653  48.085  1.00  0.00    -0.380 N 
ATOM     18  H3  UNL     1     102.289  20.348  47.341  1.00  0.00     0.160 HD
BRANCH  17  19
HETATM   19  C6  UNL     1     102.412  18.249  47.778  1.00  0.00     0.122 C 
BRANCH  19  20
HETATM   20  C7  UNL     1     103.293  18.185  46.529  1.00  0.00     0.047 C 
BRANCH  20  21
HETATM   21  C8  UNL     1     103.024  16.860  45.852  1.00  0.00     0.239 C 
BRANCH  21  22
HETATM   22  N4  UNL     1     102.351  16.964  44.612  1.00  0.00    -0.065 N 
HETATM   23  C9  UNL     1     101.730  18.222  44.327  1.00  0.00     0.238 C 
HETATM   24  C10 UNL     1     101.588  18.303  42.808  1.00  0.00     0.036 C 
HETATM   25  C11 UNL     1     102.162  16.985  42.388  1.00  0.00     0.038 C 
HETATM   26  C12 UNL     1     103.258  16.823  43.457  1.00  0.00     0.244 C 
HETATM   27  C13 UNL     1     101.216  15.903  42.841  1.00  0.00     0.115 C 
HETATM   28  C15 UNL     1     101.424  15.892  44.342  1.00  0.00     0.263 C 
BRANCH  27  29
HETATM   29  N5  UNL     1     101.510  14.625  42.241  1.00  0.00    -0.362 N 
ATOM     30  H5  UNL     1     101.361  13.793  42.813  1.00  0.00     0.162 HD
BRANCH  29  31
HETATM   31  C14 UNL     1     101.981  14.434  40.942  1.00  0.00     0.348 C 
HETATM   32  O3  UNL     1     103.150  14.032  40.745  1.00  0.00    -0.284 OA
ENDBRANCH  29  31
ENDBRANCH  27  29
ENDBRANCH  21  22
ENDBRANCH  20  21
ENDBRANCH  19  20
ENDBRANCH  17  19
ENDBRANCH   4  17
TORSDOF 14
ENDMDL
MODEL 4
REMARK VINA RESULT: -6.047122733      5.762      8.860
REMARK  14 active torsions:
REMARK  status: ('A' for Active; 'I' for Inactive)
REMARK    1  A    between atoms: C1_4  and  C2_5 
REMARK    2  A    between atoms: C1_4  and  N3_17 
REMARK    3  A    between atoms: C2_5  and  C3_6 
REMARK    4  A    between atoms: C3_6  and  O1_7 
REMARK    5  A    between atoms: C3_6  and  C4_9 
REMARK    6  A    between atoms: C4_9  and  N2_10 
REMARK    7  A    between atoms: C4_9  and  C5_14 
REMARK    8  A    between atoms: C5_14  and  O2_15 
REMARK    9  A    between atoms: N3_17  and  C6_19 
REMARK   10  A    between atoms: C6_19  and  C7_20 
REMARK   11  A    between atoms: C7_20  and  C8_21 
REMARK   12  A    between atoms: C8_21  and  N4_22 
REMARK   13  A    between atoms: C13_27  and  N5_28 
REMARK   14  A    between atoms: N5_28  and  C14_30 
ROOT
HETATM    1  N1  UNL     1     108.620  14.520  51.735  1.00  0.00    -0.389 N 
ATOM      2  H11 UNL     1     108.742  15.222  52.465  1.00  0.00     0.157 HD
ATOM      3  H12 UNL     1     108.726  13.547  52.025  1.00  0.00     0.157 HD
HETATM    4  C1  UNL     1     108.341  14.846  50.548  1.00  0.00     0.072 C 
ENDROOT
BRANCH   4   5
HETATM    5  C2  UNL     1     108.165  13.830  49.492  1.00  0.00     0.109 C 
BRANCH   5   6
HETATM    6  C3  UNL     1     108.810  12.528  49.810  1.00  0.00     0.157 C 
BRANCH   6   7
HETATM    7  O1  UNL     1     108.107  11.843  50.792  1.00  0.00    -0.393 OA
ATOM      8  H1  UNL     1     108.659  11.207  51.231  1.00  0.00     0.210 HD
ENDBRANCH   6   7
BRANCH   6   9
HETATM    9  C4  UNL     1     108.867  11.709  48.519  1.00  0.00     0.235 C 
BRANCH   9  10
HETATM   10  N2  UNL     1     107.560  11.743  47.929  1.00  0.00    -0.071 N 
ATOM     11  H23 UNL     1     106.884  11.163  48.426  1.00  0.00     0.274 HD
ATOM     12  H22 UNL     1     107.088  12.638  48.059  1.00  0.00     0.274 HD
ATOM     13  H21 UNL     1     107.660  11.485  46.947  1.00  0.00     0.274 HD
ENDBRANCH   9  10
BRANCH   9  14
HETATM   14  C5  UNL     1     109.189  10.275  48.919  1.00  0.00     0.199 C 
BRANCH  14  15
HETATM   15  O2  UNL     1     110.188  10.256  49.883  1.00  0.00    -0.399 OA
ATOM     16  H2  UNL     1     110.950   9.790  49.560  1.00  0.00     0.209 HD
ENDBRANCH  14  15
ENDBRANCH   9  14
ENDBRANCH   6   9
ENDBRANCH   5   6
ENDBRANCH   4   5
BRANCH   4  17
HETATM   17  N3  UNL     1     108.193  16.207  50.142  1.00  0.00    -0.380 N 
ATOM     18  H3  UNL     1     108.930  16.665  49.607  1.00  0.00     0.160 HD
BRANCH  17  19
HETATM   19  C6  UNL     1     106.993  16.933  50.494  1.00  0.00     0.122 C 
BRANCH  19  20
HETATM   20  C7  UNL     1     107.297  18.412  50.247  1.00  0.00     0.047 C 
BRANCH  20  21
HETATM   21  C8  UNL     1     106.561  19.209  51.300  1.00  0.00     0.239 C 
BRANCH  21  22
HETATM   22  N4  UNL     1     105.719  20.221  50.784  1.00  0.00    -0.065 N 
HETATM   23  C9  UNL     1     105.963  21.553  51.250  1.00  0.00     0.238 C 
HETATM   24  C10 UNL     1     105.382  22.496  50.198  1.00  0.00     0.036 C 
HETATM   25  C11 UNL     1     104.821  21.522  49.208  1.00  0.00     0.038 C 
HETATM   26  C12 UNL     1     105.865  20.396  49.326  1.00  0.00     0.244 C 
HETATM   27  C13 UNL     1     103.644  20.835  49.850  1.00  0.00     0.115 C 
HETATM   28  C15 UNL     1     104.309  19.928  50.867  1.00  0.00     0.263 C 
BRANCH  27  29
HETATM   29  N5  UNL     1     102.849  20.097  48.901  1.00  0.00    -0.362 N 
ATOM     30  H5  UNL     1     103.029  20.262  47.910  1.00  0.00     0.162 HD
BRANCH  29  31
HETATM   31  C14 UNL     1     101.853  19.175  49.227  1.00  0.00     0.348 C 
HETATM   32  O3  UNL     1     100.806  19.552  49.799  1.00  0.00    -0.284 OA
ENDBRANCH  29  31
ENDBRANCH  27  29
ENDBRANCH  21  22
ENDBRANCH  20  21
ENDBRANCH  19  20
ENDBRANCH  17  19
ENDBRANCH   4  17
TORSDOF 14
ENDMDL
MODEL 5
REMARK VINA RESULT: -5.991491568      1.932      2.210
REMARK  14 active torsions:
REMARK  status: ('A' for Active; 'I' for Inactive)
REMARK    1  A    between atoms: C1_4  and  C2_5 
REMARK    2  A    between atoms: C1_4  and  N3_17 
REMARK    3  A    between atoms: C2_5  and  C3_6 
REMARK    4  A    between atoms: C3_6  and  O1_7 
REMARK    5  A    between atoms: C3_6  and  C4_9 
REMARK    6  A    between atoms: C4_9  and  N2_10 
REMARK    7  A    between atoms: C4_9  and  C5_14 
REMARK    8  A    between atoms: C5_14  and  O2_15 
REMARK    9  A    between atoms: N3_17  and  C6_19 
REMARK   10  A    between atoms: C6_19  and  C7_20 
REMARK   11  A    between atoms: C7_20  and  C8_21 
REMARK   12  A    between atoms: C8_21  and  N4_22 
REMARK   13  A    between atoms: C13_27  and  N5_28 
REMARK   14  A    between atoms: N5_28  and  C14_30 
ROOT
HETATM    1  N1  UNL     1     101.184  19.673  50.035  1.00  0.00    -0.389 N 
ATOM      2  H11 UNL     1     100.595  18.951  49.619  1.00  0.00     0.157 HD
ATOM      3  H12 UNL     1     100.907  20.000  50.961  1.00  0.00     0.157 HD
HETATM    4  C1  UNL     1     102.201  20.120  49.435  1.00  0.00     0.072 C 
ENDROOT
BRANCH   4   5
HETATM    5  C2  UNL     1     103.053  21.163  50.037  1.00  0.00     0.109 C 
BRANCH   5   6
HETATM    6  C3  UNL     1     104.135  20.619  50.901  1.00  0.00     0.157 C 
BRANCH   6   7
HETATM    7  O1  UNL     1     104.377  19.280  50.622  1.00  0.00    -0.393 OA
ATOM      8  H1  UNL     1     105.269  19.145  50.326  1.00  0.00     0.210 HD
ENDBRANCH   6   7
BRANCH   6   9
HETATM    9  C4  UNL     1     105.392  21.454  50.656  1.00  0.00     0.235 C 
BRANCH   9  10
HETATM   10  N2  UNL     1     105.120  22.786  51.115  1.00  0.00    -0.071 N 
ATOM     11  H23 UNL     1     104.166  22.902  51.456  1.00  0.00     0.274 HD
ATOM     12  H22 UNL     1     105.601  23.013  51.985  1.00  0.00     0.274 HD
ATOM     13  H21 UNL     1     105.351  23.425  50.354  1.00  0.00     0.274 HD
ENDBRANCH   9  10
BRANCH   9  14
HETATM   14  C5  UNL     1     105.615  21.488  49.150  1.00  0.00     0.199 C 
BRANCH  14  15
HETATM   15  O2  UNL     1     106.333  20.371  48.744  1.00  0.00    -0.399 OA
ATOM     16  H2  UNL     1     106.080  20.119  47.863  1.00  0.00     0.209 HD
ENDBRANCH  14  15
ENDBRANCH   9  14
ENDBRANCH   6   9
ENDBRANCH   5   6
ENDBRANCH   4   5
BRANCH   4  17
HETATM   17  N3  UNL     1     102.588  19.662  48.138  1.00  0.00    -0.380 N 
ATOM     18  H3  UNL     1     103.087  20.285  47.504  1.00  0.00     0.160 HD
BRANCH  17  19
HETATM   19  C6  UNL     1     102.267  18.313  47.730  1.00  0.00     0.122 C 
BRANCH  19  20
HETATM   20  C7  UNL     1     102.268  18.315  46.199  1.00  0.00     0.047 C 
BRANCH  20  21
HETATM   21  C8  UNL     1     102.751  16.957  45.743  1.00  0.00     0.239 C 
BRANCH  21  22
HETATM   22  N4  UNL     1     102.514  16.682  44.377  1.00  0.00    -0.065 N 
HETATM   23  C9  UNL     1     103.607  16.912  43.481  1.00  0.00     0.238 C 
HETATM   24  C10 UNL     1     103.346  16.052  42.246  1.00  0.00     0.036 C 
HETATM   25  C11 UNL     1     102.041  15.411  42.603  1.00  0.00     0.038 C 
HETATM   26  C12 UNL     1     102.231  15.256  44.123  1.00  0.00     0.244 C 
HETATM   27  C13 UNL     1     100.982  16.484  42.597  1.00  0.00     0.115 C 
HETATM   28  C15 UNL     1     101.314  17.279  43.843  1.00  0.00     0.263 C 
BRANCH  27  29
HETATM   29  N5  UNL     1      99.646  15.942  42.636  1.00  0.00    -0.362 N 
ATOM     30  H5  UNL     1      99.550  14.945  42.828  1.00  0.00     0.162 HD
BRANCH  29  31
HETATM   31  C14 UNL     1      98.475  16.672  42.432  1.00  0.00     0.348 C 
HETATM   32  O3  UNL     1      97.734  16.962  43.398  1.00  0.00    -0.284 OA
ENDBRANCH  29  31
ENDBRANCH  27  29
ENDBRANCH  21  22
ENDBRANCH  20  21
ENDBRANCH  19  20
ENDBRANCH  17  19
ENDBRANCH   4  17
TORSDOF 14
ENDMDL
