MODEL 1
REMARK VINA RESULT: -7.891513959      0.000      0.000
REMARK  12 active torsions:
REMARK  status: ('A' for Active; 'I' for Inactive)
REMARK    1  A    between atoms: N3_4  and  C2_6 
REMARK    2  A    between atoms: C2_6  and  C3_7 
REMARK    3  A    between atoms: C3_7  and  C4_8 
REMARK    4  A    between atoms: C4_8  and  N4_9 
REMARK       I    between atoms: C5_11  and  N6_13 
REMARK    5  A    between atoms: N6_13  and  C6_15 
REMARK    6  A    between atoms: C6_15  and  C7_16 
REMARK    7  A    between atoms: C7_16  and  C8_17 
REMARK    8  A    between atoms: C8_17  and  C9_18 
REMARK       I    between atoms: C9_18  and  N7_20 
REMARK    9  A    between atoms: N7_20  and  C10_22 
REMARK   10  A    between atoms: C10_22  and  C11_23 
REMARK   11  A    between atoms: C11_23  and  N8_24 
REMARK   12  A    between atoms: C12_26  and  O2_28 
ROOT
HETATM    1  C6  UNL     1     107.744  18.113  50.054  1.00  0.00     0.122 C 
ENDROOT
BRANCH   1   2
HETATM    2  N6  UNL     1     107.567  17.043  49.093  1.00  0.00    -0.365 N 
HETATM    3  C5  UNL     1     106.720  15.931  49.311  1.00  0.00     0.183 C 
HETATM    4  N4  UNL     1     107.042  14.931  50.076  1.00  0.00    -0.365 N 
HETATM    5  N5  UNL     1     105.445  15.847  48.691  1.00  0.00    -0.064 NA
ATOM      6  H4  UNL     1     106.383  14.161  50.189  1.00  0.00     0.162 HD
ATOM      7  H6  UNL     1     108.080  17.095  48.212  1.00  0.00     0.162 HD
BRANCH   4   8
HETATM    8  C4  UNL     1     108.296  14.883  50.765  1.00  0.00     0.123 C 
BRANCH   8   9
HETATM    9  C3  UNL     1     109.217  13.810  50.215  1.00  0.00     0.039 C 
BRANCH   9  10
HETATM   10  C2  UNL     1     108.517  12.469  50.341  1.00  0.00     0.123 C 
BRANCH  10  11
HETATM   11  N3  UNL     1     108.996  11.607  49.279  1.00  0.00    -0.367 N 
HETATM   12  C1  UNL     1     108.296  11.472  48.205  1.00  0.00     0.196 C 
HETATM   13  N1  UNL     1     107.065  12.159  48.060  1.00  0.00    -0.067 NA
HETATM   14  N2  UNL     1     108.733  10.637  47.146  1.00  0.00    -0.067 NA
ATOM     15  H3  UNL     1     109.880  11.111  49.380  1.00  0.00     0.161 HD
ENDBRANCH  10  11
ENDBRANCH   9  10
ENDBRANCH   8   9
ENDBRANCH   4   8
ENDBRANCH   1   2
BRANCH   1  16
HETATM   16  C7  UNL     1     106.614  18.202  51.027  1.00  0.00     0.029 C 
BRANCH  16  17
HETATM   17  C8  UNL     1     106.487  19.499  51.759  1.00  0.00     0.104 C 
BRANCH  17  18
HETATM   18  C9  UNL     1     105.563  20.468  51.153  1.00  0.00     0.217 C 
HETATM   19  O1  UNL     1     105.913  21.654  51.023  1.00  0.00    -0.274 OA
HETATM   20  N7  UNL     1     104.286  20.026  50.731  1.00  0.00    -0.360 N 
ATOM     21  H7  UNL     1     104.051  19.042  50.867  1.00  0.00     0.162 HD
BRANCH  20  22
HETATM   22  C10 UNL     1     103.299  20.878  50.123  1.00  0.00     0.142 C 
BRANCH  22  23
HETATM   23  C11 UNL     1     102.025  20.138  49.787  1.00  0.00     0.142 C 
BRANCH  23  24
HETATM   24  N8  UNL     1     102.052  19.744  48.379  1.00  0.00    -0.357 N 
HETATM   25  C12 UNL     1     102.416  18.567  48.009  1.00  0.00     0.225 C 
HETATM   26  N9  UNL     1     102.413  18.271  46.624  1.00  0.00    -0.057 NA
ATOM     27  H8  UNL     1     101.773  20.422  47.670  1.00  0.00     0.162 HD
BRANCH  25  28
HETATM   28  O2  UNL     1     102.804  17.602  48.925  1.00  0.00    -0.335 OA
ATOM     29  H2  UNL     1     103.708  17.318  49.000  1.00  0.00     0.220 HD
ENDBRANCH  25  28
ENDBRANCH  23  24
ENDBRANCH  22  23
ENDBRANCH  20  22
ENDBRANCH  17  18
ENDBRANCH  16  17
ENDBRANCH   1  16
TORSDOF 12
ENDMDL
MODEL 2
REMARK VINA RESULT: -7.831700674      2.434      5.393
REMARK  12 active torsions:
REMARK  status: ('A' for Active; 'I' for Inactive)
REMARK    1  A    between atoms: N3_4  and  C2_6 
REMARK    2  A    between atoms: C2_6  and  C3_7 
REMARK    3  A    between atoms: C3_7  and  C4_8 
REMARK    4  A    between atoms: C4_8  and  N4_9 
REMARK       I    between atoms: C5_11  and  N6_13 
REMARK    5  A    between atoms: N6_13  and  C6_15 
REMARK    6  A    between atoms: C6_15  and  C7_16 
REMARK    7  A    between atoms: C7_16  and  C8_17 
REMARK    8  A    between atoms: C8_17  and  C9_18 
REMARK       I    between atoms: C9_18  and  N7_20 
REMARK    9  A    between atoms: N7_20  and  C10_22 
REMARK   10  A    between atoms: C10_22  and  C11_23 
REMARK   11  A    between atoms: C11_23  and  N8_24 
REMARK   12  A    between atoms: C12_26  and  O2_28 
ROOT
HETATM    1  C6  UNL     1     103.530  20.690  49.538  1.00  0.00     0.122 C 
ENDROOT
BRANCH   1   2
HETATM    2  N6  UNL     1     104.036  21.580  50.563  1.00  0.00    -0.365 N 
HETATM    3  C5  UNL     1     105.372  22.045  50.603  1.00  0.00     0.183 C 
HETATM    4  N4  UNL     1     106.366  21.318  51.015  1.00  0.00    -0.365 N 
HETATM    5  N5  UNL     1     105.702  23.362  50.186  1.00  0.00    -0.064 NA
ATOM      6  H4  UNL     1     107.305  21.717  51.018  1.00  0.00     0.162 HD
ATOM      7  H6  UNL     1     103.395  21.888  51.295  1.00  0.00     0.162 HD
BRANCH   4   8
HETATM    8  C4  UNL     1     106.180  19.972  51.465  1.00  0.00     0.123 C 
BRANCH   8   9
HETATM    9  C3  UNL     1     107.065  18.987  50.725  1.00  0.00     0.039 C 
BRANCH   9  10
HETATM   10  C2  UNL     1     106.437  17.609  50.828  1.00  0.00     0.123 C 
BRANCH  10  11
HETATM   11  N3  UNL     1     107.434  16.628  50.449  1.00  0.00    -0.367 N 
HETATM   12  C1  UNL     1     107.116  15.677  49.640  1.00  0.00     0.196 C 
HETATM   13  N1  UNL     1     105.799  15.587  49.122  1.00  0.00    -0.067 NA
HETATM   14  N2  UNL     1     108.065  14.700  49.248  1.00  0.00    -0.067 NA
ATOM     15  H3  UNL     1     108.382  16.689  50.820  1.00  0.00     0.161 HD
ENDBRANCH  10  11
ENDBRANCH   9  10
ENDBRANCH   8   9
ENDBRANCH   4   8
ENDBRANCH   1   2
BRANCH   1  16
HETATM   16  C7  UNL     1     102.050  20.506  49.620  1.00  0.00     0.029 C 
BRANCH  16  17
HETATM   17  C8  UNL     1     101.546  19.133  49.310  1.00  0.00     0.104 C 
BRANCH  17  18
HETATM   18  C9  UNL     1     102.416  18.333  48.437  1.00  0.00     0.217 C 
HETATM   19  O1  UNL     1     103.083  17.402  48.918  1.00  0.00    -0.274 OA
HETATM   20  N7  UNL     1     102.474  18.645  47.057  1.00  0.00    -0.360 N 
ATOM     21  H7  UNL     1     101.908  19.423  46.718  1.00  0.00     0.162 HD
BRANCH  20  22
HETATM   22  C10 UNL     1     103.284  17.934  46.104  1.00  0.00     0.142 C 
BRANCH  22  23
HETATM   23  C11 UNL     1     102.459  17.082  45.167  1.00  0.00     0.142 C 
BRANCH  23  24
HETATM   24  N8  UNL     1     102.062  15.854  45.854  1.00  0.00    -0.357 N 
HETATM   25  C12 UNL     1     101.823  14.764  45.214  1.00  0.00     0.225 C 
HETATM   26  N9  UNL     1     101.443  13.621  45.961  1.00  0.00    -0.057 NA
ATOM     27  H8  UNL     1     101.972  15.862  46.869  1.00  0.00     0.162 HD
BRANCH  25  28
HETATM   28  O2  UNL     1     101.930  14.690  43.835  1.00  0.00    -0.335 OA
ATOM     29  H2  UNL     1     101.418  14.071  43.326  1.00  0.00     0.220 HD
ENDBRANCH  25  28
ENDBRANCH  23  24
ENDBRANCH  22  23
ENDBRANCH  20  22
ENDBRANCH  17  18
ENDBRANCH  16  17
ENDBRANCH   1  16
TORSDOF 12
ENDMDL
MODEL 3
REMARK VINA RESULT: -7.819290083      2.438      7.424
REMARK  12 active torsions:
REMARK  status: ('A' for Active; 'I' for Inactive)
REMARK    1  A    between atoms: N3_4  and  C2_6 
REMARK    2  A    between atoms: C2_6  and  C3_7 
REMARK    3  A    between atoms: C3_7  and  C4_8 
REMARK    4  A    between atoms: C4_8  and  N4_9 
REMARK       I    between atoms: C5_11  and  N6_13 
REMARK    5  A    between atoms: N6_13  and  C6_15 
REMARK    6  A    between atoms: C6_15  and  C7_16 
REMARK    7  A    between atoms: C7_16  and  C8_17 
REMARK    8  A    between atoms: C8_17  and  C9_18 
REMARK       I    between atoms: C9_18  and  N7_20 
REMARK    9  A    between atoms: N7_20  and  C10_22 
REMARK   10  A    between atoms: C10_22  and  C11_23 
REMARK   11  A    between atoms: C11_23  and  N8_24 
REMARK   12  A    between atoms: C12_26  and  O2_28 
ROOT
HETATM    1  C6  UNL     1     106.598  19.865  51.295  1.00  0.00     0.122 C 
ENDROOT
BRANCH   1   2
HETATM    2  N6  UNL     1     106.210  20.623  50.123  1.00  0.00    -0.365 N 
HETATM    3  C5  UNL     1     105.405  21.785  50.177  1.00  0.00     0.183 C 
HETATM    4  N4  UNL     1     104.118  21.752  50.345  1.00  0.00    -0.365 N 
HETATM    5  N5  UNL     1     105.976  23.079  50.048  1.00  0.00    -0.064 NA
ATOM      6  H4  UNL     1     103.598  22.629  50.374  1.00  0.00     0.162 HD
ATOM      7  H6  UNL     1     106.535  20.302  49.211  1.00  0.00     0.162 HD
BRANCH   4   8
HETATM    8  C4  UNL     1     103.408  20.516  50.490  1.00  0.00     0.123 C 
BRANCH   8   9
HETATM    9  C3  UNL     1     102.273  20.381  49.494  1.00  0.00     0.039 C 
BRANCH   9  10
HETATM   10  C2  UNL     1     102.223  18.940  49.019  1.00  0.00     0.123 C 
BRANCH  10  11
HETATM   11  N3  UNL     1     102.081  18.944  47.577  1.00  0.00    -0.367 N 
HETATM   12  C1  UNL     1     102.704  18.061  46.874  1.00  0.00     0.196 C 
HETATM   13  N1  UNL     1     103.524  17.092  47.503  1.00  0.00    -0.067 NA
HETATM   14  N2  UNL     1     102.587  18.035  45.461  1.00  0.00    -0.067 NA
ATOM     15  H3  UNL     1     101.492  19.640  47.121  1.00  0.00     0.161 HD
ENDBRANCH  10  11
ENDBRANCH   9  10
ENDBRANCH   8   9
ENDBRANCH   4   8
ENDBRANCH   1   2
BRANCH   1  16
HETATM   16  C7  UNL     1     106.278  18.411  51.167  1.00  0.00     0.029 C 
BRANCH  16  17
HETATM   17  C8  UNL     1     107.126  17.640  50.206  1.00  0.00     0.104 C 
BRANCH  17  18
HETATM   18  C9  UNL     1     107.081  16.181  50.368  1.00  0.00     0.217 C 
HETATM   19  O1  UNL     1     106.052  15.558  50.055  1.00  0.00    -0.274 OA
HETATM   20  N7  UNL     1     108.218  15.513  50.882  1.00  0.00    -0.360 N 
ATOM     21  H7  UNL     1     109.034  16.076  51.126  1.00  0.00     0.162 HD
BRANCH  20  22
HETATM   22  C10 UNL     1     108.296  14.090  51.082  1.00  0.00     0.142 C 
BRANCH  22  23
HETATM   23  C11 UNL     1     108.867  13.368  49.883  1.00  0.00     0.142 C 
BRANCH  23  24
HETATM   24  N8  UNL     1     107.792  13.082  48.935  1.00  0.00    -0.357 N 
HETATM   25  C12 UNL     1     107.761  11.993  48.251  1.00  0.00     0.225 C 
HETATM   26  N9  UNL     1     106.681  11.798  47.355  1.00  0.00    -0.057 NA
ATOM     27  H8  UNL     1     107.045  13.765  48.813  1.00  0.00     0.162 HD
BRANCH  25  28
HETATM   28  O2  UNL     1     108.745  11.026  48.374  1.00  0.00    -0.335 OA
ATOM     29  H2  UNL     1     108.566  10.176  48.758  1.00  0.00     0.220 HD
ENDBRANCH  25  28
ENDBRANCH  23  24
ENDBRANCH  22  23
ENDBRANCH  20  22
ENDBRANCH  17  18
ENDBRANCH  16  17
ENDBRANCH   1  16
TORSDOF 12
ENDMDL
MODEL 4
REMARK VINA RESULT: -7.780206956      2.711      5.542
REMARK  12 active torsions:
REMARK  status: ('A' for Active; 'I' for Inactive)
REMARK    1  A    between atoms: N3_4  and  C2_6 
REMARK    2  A    between atoms: C2_6  and  C3_7 
REMARK    3  A    between atoms: C3_7  and  C4_8 
REMARK    4  A    between atoms: C4_8  and  N4_9 
REMARK       I    between atoms: C5_11  and  N6_13 
REMARK    5  A    between atoms: N6_13  and  C6_15 
REMARK    6  A    between atoms: C6_15  and  C7_16 
REMARK    7  A    between atoms: C7_16  and  C8_17 
REMARK    8  A    between atoms: C8_17  and  C9_18 
REMARK       I    between atoms: C9_18  and  N7_20 
REMARK    9  A    between atoms: N7_20  and  C10_22 
REMARK   10  A    between atoms: C10_22  and  C11_23 
REMARK   11  A    between atoms: C11_23  and  N8_24 
REMARK   12  A    between atoms: C12_26  and  O2_28 
ROOT
HETATM    1  C6  UNL     1     103.580  20.724  49.355  1.00  0.00     0.122 C 
ENDROOT
BRANCH   1   2
HETATM    2  N6  UNL     1     103.975  21.663  50.386  1.00  0.00    -0.365 N 
HETATM    3  C5  UNL     1     105.302  22.123  50.556  1.00  0.00     0.183 C 
HETATM    4  N4  UNL     1     106.235  21.413  51.114  1.00  0.00    -0.365 N 
HETATM    5  N5  UNL     1     105.692  23.415  50.115  1.00  0.00    -0.064 NA
ATOM      6  H4  UNL     1     107.172  21.807  51.205  1.00  0.00     0.162 HD
ATOM      7  H6  UNL     1     103.258  22.010  51.024  1.00  0.00     0.162 HD
BRANCH   4   8
HETATM    8  C4  UNL     1     105.985  20.091  51.606  1.00  0.00     0.123 C 
BRANCH   8   9
HETATM    9  C3  UNL     1     106.969  19.075  51.059  1.00  0.00     0.039 C 
BRANCH   9  10
HETATM   10  C2  UNL     1     106.235  17.763  50.852  1.00  0.00     0.123 C 
BRANCH  10  11
HETATM   11  N3  UNL     1     107.193  16.775  50.396  1.00  0.00    -0.367 N 
HETATM   12  C1  UNL     1     106.846  15.920  49.497  1.00  0.00     0.196 C 
HETATM   13  N1  UNL     1     105.536  15.940  48.956  1.00  0.00    -0.067 NA
HETATM   14  N2  UNL     1     107.757  14.940  49.027  1.00  0.00    -0.067 NA
ATOM     15  H3  UNL     1     108.136  16.757  50.784  1.00  0.00     0.161 HD
ENDBRANCH  10  11
ENDBRANCH   9  10
ENDBRANCH   8   9
ENDBRANCH   4   8
ENDBRANCH   1   2
BRANCH   1  16
HETATM   16  C7  UNL     1     102.192  20.209  49.552  1.00  0.00     0.029 C 
BRANCH  16  17
HETATM   17  C8  UNL     1     101.959  18.791  49.139  1.00  0.00     0.104 C 
BRANCH  17  18
HETATM   18  C9  UNL     1     102.193  18.510  47.716  1.00  0.00     0.217 C 
HETATM   19  O1  UNL     1     101.691  19.249  46.852  1.00  0.00    -0.274 OA
HETATM   20  N7  UNL     1     102.989  17.395  47.359  1.00  0.00    -0.360 N 
ATOM     21  H7  UNL     1     103.372  16.821  48.110  1.00  0.00     0.162 HD
BRANCH  20  22
HETATM   22  C10 UNL     1     103.290  17.021  46.003  1.00  0.00     0.142 C 
BRANCH  22  23
HETATM   23  C11 UNL     1     104.485  17.765  45.450  1.00  0.00     0.142 C 
BRANCH  23  24
HETATM   24  N8  UNL     1     105.461  17.972  46.519  1.00  0.00    -0.357 N 
HETATM   25  C12 UNL     1     106.677  18.309  46.272  1.00  0.00     0.225 C 
HETATM   26  N9  UNL     1     107.557  18.487  47.369  1.00  0.00    -0.057 NA
ATOM     27  H8  UNL     1     105.169  17.845  47.487  1.00  0.00     0.162 HD
BRANCH  25  28
HETATM   28  O2  UNL     1     107.134  18.498  44.977  1.00  0.00    -0.335 OA
ATOM     29  H2  UNL     1     106.709  19.104  44.381  1.00  0.00     0.220 HD
ENDBRANCH  25  28
ENDBRANCH  23  24
ENDBRANCH  22  23
ENDBRANCH  20  22
ENDBRANCH  17  18
ENDBRANCH  16  17
ENDBRANCH   1  16
TORSDOF 12
ENDMDL
MODEL 5
REMARK VINA RESULT: -7.599246147      2.725      5.626
REMARK  12 active torsions:
REMARK  status: ('A' for Active; 'I' for Inactive)
REMARK    1  A    between atoms: N3_4  and  C2_6 
REMARK    2  A    between atoms: C2_6  and  C3_7 
REMARK    3  A    between atoms: C3_7  and  C4_8 
REMARK    4  A    between atoms: C4_8  and  N4_9 
REMARK       I    between atoms: C5_11  and  N6_13 
REMARK    5  A    between atoms: N6_13  and  C6_15 
REMARK    6  A    between atoms: C6_15  and  C7_16 
REMARK    7  A    between atoms: C7_16  and  C8_17 
REMARK    8  A    between atoms: C8_17  and  C9_18 
REMARK       I    between atoms: C9_18  and  N7_20 
REMARK    9  A    between atoms: N7_20  and  C10_22 
REMARK   10  A    between atoms: C10_22  and  C11_23 
REMARK   11  A    between atoms: C11_23  and  N8_24 
REMARK   12  A    between atoms: C12_26  and  O2_28 
ROOT
HETATM    1  C6  UNL     1     103.529  20.534  49.371  1.00  0.00     0.122 C 
ENDROOT
BRANCH   1   2
HETATM    2  N6  UNL     1     103.896  21.540  50.348  1.00  0.00    -0.365 N 
HETATM    3  C5  UNL     1     105.196  22.086  50.455  1.00  0.00     0.183 C 
HETATM    4  N4  UNL     1     106.188  21.460  51.013  1.00  0.00    -0.365 N 
HETATM    5  N5  UNL     1     105.492  23.379  49.947  1.00  0.00    -0.064 NA
ATOM      6  H4  UNL     1     107.100  21.914  51.057  1.00  0.00     0.162 HD
ATOM      7  H6  UNL     1     103.178  21.871  50.993  1.00  0.00     0.162 HD
BRANCH   4   8
HETATM    8  C4  UNL     1     106.034  20.149  51.568  1.00  0.00     0.123 C 
BRANCH   8   9
HETATM    9  C3  UNL     1     106.956  19.134  50.919  1.00  0.00     0.039 C 
BRANCH   9  10
HETATM   10  C2  UNL     1     106.253  17.789  50.907  1.00  0.00     0.123 C 
BRANCH  10  11
HETATM   11  N3  UNL     1     107.208  16.783  50.487  1.00  0.00    -0.367 N 
HETATM   12  C1  UNL     1     106.866  15.911  49.602  1.00  0.00     0.196 C 
HETATM   13  N1  UNL     1     105.565  15.931  49.041  1.00  0.00    -0.067 NA
HETATM   14  N2  UNL     1     107.775  14.913  49.168  1.00  0.00    -0.067 NA
ATOM     15  H3  UNL     1     108.145  16.765  50.889  1.00  0.00     0.161 HD
ENDBRANCH  10  11
ENDBRANCH   9  10
ENDBRANCH   8   9
ENDBRANCH   4   8
ENDBRANCH   1   2
BRANCH   1  16
HETATM   16  C7  UNL     1     102.101  20.112  49.493  1.00  0.00     0.029 C 
BRANCH  16  17
HETATM   17  C8  UNL     1     101.787  18.732  49.011  1.00  0.00     0.104 C 
BRANCH  17  18
HETATM   18  C9  UNL     1     102.204  18.444  47.632  1.00  0.00     0.217 C 
HETATM   19  O1  UNL     1     101.704  19.083  46.691  1.00  0.00    -0.274 OA
HETATM   20  N7  UNL     1     103.172  17.435  47.406  1.00  0.00    -0.360 N 
ATOM     21  H7  UNL     1     103.545  16.939  48.216  1.00  0.00     0.162 HD
BRANCH  20  22
HETATM   22  C10 UNL     1     103.661  17.066  46.104  1.00  0.00     0.142 C 
BRANCH  22  23
HETATM   23  C11 UNL     1     102.912  15.892  45.516  1.00  0.00     0.142 C 
BRANCH  23  24
HETATM   24  N8  UNL     1     101.703  16.376  44.851  1.00  0.00    -0.357 N 
HETATM   25  C12 UNL     1     101.221  15.795  43.810  1.00  0.00     0.225 C 
HETATM   26  N9  UNL     1     100.045  16.332  43.229  1.00  0.00    -0.057 NA
ATOM     27  H8  UNL     1     101.229  17.198  45.223  1.00  0.00     0.162 HD
BRANCH  25  28
HETATM   28  O2  UNL     1     101.819  14.673  43.259  1.00  0.00    -0.335 OA
ATOM     29  H2  UNL     1     102.072  14.640  42.343  1.00  0.00     0.220 HD
ENDBRANCH  25  28
ENDBRANCH  23  24
ENDBRANCH  22  23
ENDBRANCH  20  22
ENDBRANCH  17  18
ENDBRANCH  16  17
ENDBRANCH   1  16
TORSDOF 12
ENDMDL
