MODEL 1
REMARK VINA RESULT: -6.684635878      0.000      0.000
REMARK  11 active torsions:
REMARK  status: ('A' for Active; 'I' for Inactive)
REMARK    1  A    between atoms: C2_2  and  C3_3 
REMARK    2  A    between atoms: C3_3  and  N1_4 
REMARK    3  A    between atoms: N1_4  and  C4_5 
REMARK    4  A    between atoms: N1_4  and  C10_20 
REMARK    5  A    between atoms: C4_5  and  C5_6 
REMARK    6  A    between atoms: C5_6  and  C6_7 
REMARK    7  A    between atoms: C6_7  and  N2_8 
REMARK    8  A    between atoms: N2_8  and  C7_10 
REMARK    9  A    between atoms: C7_10  and  C8_14 
REMARK   10  A    between atoms: C8_14  and  N4_15 
REMARK   11  A    between atoms: C10_20  and  C11_21 
ROOT
HETATM    1  C4  UNL     1     102.668  20.628  49.626  1.00  0.00     0.123 C 
ENDROOT
BRANCH   1   2
HETATM    2  N1  UNL     1     102.748  19.384  48.961  1.00  0.00    -0.389 N 
BRANCH   2   3
HETATM    3  C3  UNL     1     101.703  18.451  49.336  1.00  0.00     0.148 C 
BRANCH   3   4
HETATM    4  C2  UNL     1     100.598  19.124  50.066  1.00  0.00    -0.018 C 
HETATM    5  C1  UNL     1      99.682  18.395  50.686  1.00  0.00     0.008 C 
ENDBRANCH   3   4
ENDBRANCH   2   3
BRANCH   2   6
HETATM    6  C10 UNL     1     103.078  19.353  47.592  1.00  0.00     0.073 C 
BRANCH   6   7
HETATM    7  C11 UNL     1     102.433  18.174  46.907  1.00  0.00     0.121 C 
HETATM    8  C12 UNL     1     101.629  18.591  45.718  1.00  0.00     0.141 C 
HETATM    9  N7  UNL     1     102.283  18.099  44.544  1.00  0.00    -0.353 N 
HETATM   10  C13 UNL     1     103.463  17.431  44.900  1.00  0.00     0.288 C 
ATOM     11  H7  UNL     1     101.941  18.217  43.591  1.00  0.00     0.162 HD
HETATM   12  O1  UNL     1     104.341  16.960  44.100  1.00  0.00    -0.264 OA
HETATM   13  C14 UNL     1     103.566  17.337  46.341  1.00  0.00     0.227 C 
HETATM   14  O2  UNL     1     104.404  16.705  47.029  1.00  0.00    -0.286 OA
ENDBRANCH   6   7
ENDBRANCH   2   6
ENDBRANCH   1   2
BRANCH   1  15
HETATM   15  C5  UNL     1     103.511  20.692  50.900  1.00  0.00     0.039 C 
BRANCH  15  16
HETATM   16  C6  UNL     1     104.763  21.504  50.577  1.00  0.00     0.122 C 
BRANCH  16  17
HETATM   17  N2  UNL     1     105.842  20.572  50.375  1.00  0.00    -0.379 N 
ATOM     18  H2  UNL     1     106.438  20.688  49.555  1.00  0.00     0.160 HD
BRANCH  17  19
HETATM   19  C7  UNL     1     106.115  19.499  51.266  1.00  0.00     0.088 C 
HETATM   20  N3  UNL     1     106.648  19.688  52.440  1.00  0.00    -0.388 N 
ATOM     21  H32 UNL     1     106.886  20.628  52.755  1.00  0.00     0.157 HD
ATOM     22  H31 UNL     1     106.844  18.918  53.079  1.00  0.00     0.157 HD
BRANCH  19  23
HETATM   23  C8  UNL     1     105.767  18.119  50.803  1.00  0.00     0.197 C 
BRANCH  23  24
HETATM   24  N4  UNL     1     106.994  17.367  50.807  1.00  0.00    -0.360 N 
HETATM   25  C9  UNL     1     107.019  16.169  50.381  1.00  0.00     0.197 C 
HETATM   26  N5  UNL     1     105.845  15.550  49.895  1.00  0.00    -0.067 NA
HETATM   27  N6  UNL     1     108.252  15.483  50.409  1.00  0.00    -0.067 NA
ATOM     28  H4  UNL     1     107.851  17.799  51.155  1.00  0.00     0.162 HD
ENDBRANCH  23  24
ENDBRANCH  19  23
ENDBRANCH  17  19
ENDBRANCH  16  17
ENDBRANCH  15  16
ENDBRANCH   1  15
TORSDOF 11
ENDMDL
MODEL 2
REMARK VINA RESULT: -6.503520878      2.863      6.627
REMARK  11 active torsions:
REMARK  status: ('A' for Active; 'I' for Inactive)
REMARK    1  A    between atoms: C2_2  and  C3_3 
REMARK    2  A    between atoms: C3_3  and  N1_4 
REMARK    3  A    between atoms: N1_4  and  C4_5 
REMARK    4  A    between atoms: N1_4  and  C10_20 
REMARK    5  A    between atoms: C4_5  and  C5_6 
REMARK    6  A    between atoms: C5_6  and  C6_7 
REMARK    7  A    between atoms: C6_7  and  N2_8 
REMARK    8  A    between atoms: N2_8  and  C7_10 
REMARK    9  A    between atoms: C7_10  and  C8_14 
REMARK   10  A    between atoms: C8_14  and  N4_15 
REMARK   11  A    between atoms: C10_20  and  C11_21 
ROOT
HETATM    1  C4  UNL     1     106.422  17.520  50.835  1.00  0.00     0.123 C 
ENDROOT
BRANCH   1   2
HETATM    2  N1  UNL     1     106.945  16.663  49.840  1.00  0.00    -0.389 N 
BRANCH   2   3
HETATM    3  C3  UNL     1     108.099  17.205  49.148  1.00  0.00     0.148 C 
BRANCH   3   4
HETATM    4  C2  UNL     1     107.761  17.642  47.768  1.00  0.00    -0.018 C 
HETATM    5  C1  UNL     1     108.721  17.761  46.864  1.00  0.00     0.008 C 
ENDBRANCH   3   4
ENDBRANCH   2   3
BRANCH   2   6
HETATM    6  C10 UNL     1     107.028  15.281  50.095  1.00  0.00     0.073 C 
BRANCH   6   7
HETATM    7  C11 UNL     1     108.257  14.686  49.452  1.00  0.00     0.121 C 
HETATM    8  C12 UNL     1     109.395  14.581  50.415  1.00  0.00     0.141 C 
HETATM    9  N7  UNL     1     109.638  13.194  50.666  1.00  0.00    -0.353 N 
HETATM   10  C13 UNL     1     108.713  12.411  49.960  1.00  0.00     0.288 C 
ATOM     11  H7  UNL     1     110.375  12.828  51.269  1.00  0.00     0.162 HD
HETATM   12  O1  UNL     1     108.575  11.143  50.036  1.00  0.00    -0.264 OA
HETATM   13  C14 UNL     1     107.903  13.252  49.103  1.00  0.00     0.227 C 
HETATM   14  O2  UNL     1     107.065  12.910  48.233  1.00  0.00    -0.286 OA
ENDBRANCH   6   7
ENDBRANCH   2   6
ENDBRANCH   1   2
BRANCH   1  15
HETATM   15  C5  UNL     1     107.032  18.922  50.812  1.00  0.00     0.039 C 
BRANCH  15  16
HETATM   16  C6  UNL     1     106.472  19.682  52.011  1.00  0.00     0.122 C 
BRANCH  16  17
HETATM   17  N2  UNL     1     105.234  20.290  51.598  1.00  0.00    -0.379 N 
ATOM     18  H2  UNL     1     104.363  19.946  52.005  1.00  0.00     0.160 HD
BRANCH  17  19
HETATM   19  C7  UNL     1     105.168  21.347  50.650  1.00  0.00     0.088 C 
HETATM   20  N3  UNL     1     105.779  22.483  50.831  1.00  0.00    -0.388 N 
ATOM     21  H32 UNL     1     106.331  22.645  51.674  1.00  0.00     0.157 HD
ATOM     22  H31 UNL     1     105.731  23.241  50.151  1.00  0.00     0.157 HD
BRANCH  19  23
HETATM   23  C8  UNL     1     104.358  21.109  49.414  1.00  0.00     0.197 C 
BRANCH  23  24
HETATM   24  N4  UNL     1     103.005  20.883  49.852  1.00  0.00    -0.360 N 
HETATM   25  C9  UNL     1     102.248  20.080  49.219  1.00  0.00     0.197 C 
HETATM   26  N5  UNL     1     102.715  19.394  48.075  1.00  0.00    -0.067 NA
HETATM   27  N6  UNL     1     100.932  19.899  49.697  1.00  0.00    -0.067 NA
ATOM     28  H4  UNL     1     102.652  21.370  50.676  1.00  0.00     0.162 HD
ENDBRANCH  23  24
ENDBRANCH  19  23
ENDBRANCH  17  19
ENDBRANCH  16  17
ENDBRANCH  15  16
ENDBRANCH   1  15
TORSDOF 11
ENDMDL
MODEL 3
REMARK VINA RESULT: -6.285520463      3.007      5.354
REMARK  11 active torsions:
REMARK  status: ('A' for Active; 'I' for Inactive)
REMARK    1  A    between atoms: C2_2  and  C3_3 
REMARK    2  A    between atoms: C3_3  and  N1_4 
REMARK    3  A    between atoms: N1_4  and  C4_5 
REMARK    4  A    between atoms: N1_4  and  C10_20 
REMARK    5  A    between atoms: C4_5  and  C5_6 
REMARK    6  A    between atoms: C5_6  and  C6_7 
REMARK    7  A    between atoms: C6_7  and  N2_8 
REMARK    8  A    between atoms: N2_8  and  C7_10 
REMARK    9  A    between atoms: C7_10  and  C8_14 
REMARK   10  A    between atoms: C8_14  and  N4_15 
REMARK   11  A    between atoms: C10_20  and  C11_21 
ROOT
HETATM    1  C4  UNL     1     101.631  18.600  45.175  1.00  0.00     0.123 C 
ENDROOT
BRANCH   1   2
HETATM    2  N1  UNL     1     101.861  17.983  43.924  1.00  0.00    -0.389 N 
BRANCH   2   3
HETATM    3  C3  UNL     1     101.107  18.571  42.834  1.00  0.00     0.148 C 
BRANCH   3   4
HETATM    4  C2  UNL     1     100.548  19.898  43.201  1.00  0.00    -0.018 C 
HETATM    5  C1  UNL     1     100.558  20.882  42.314  1.00  0.00     0.008 C 
ENDBRANCH   3   4
ENDBRANCH   2   3
BRANCH   2   6
HETATM    6  C10 UNL     1     103.171  17.601  43.574  1.00  0.00     0.073 C 
BRANCH   6   7
HETATM    7  C11 UNL     1     103.322  16.100  43.603  1.00  0.00     0.121 C 
HETATM    8  C12 UNL     1     102.033  15.416  43.925  1.00  0.00     0.141 C 
HETATM    9  N7  UNL     1     101.601  14.709  42.759  1.00  0.00    -0.353 N 
HETATM   10  C13 UNL     1     102.505  14.925  41.708  1.00  0.00     0.288 C 
ATOM     11  H7  UNL     1     100.761  14.134  42.700  1.00  0.00     0.162 HD
HETATM   12  O1  UNL     1     102.374  14.531  40.499  1.00  0.00    -0.264 OA
HETATM   13  C14 UNL     1     103.647  15.678  42.182  1.00  0.00     0.227 C 
HETATM   14  O2  UNL     1     104.713  15.951  41.577  1.00  0.00    -0.286 OA
ENDBRANCH   6   7
ENDBRANCH   2   6
ENDBRANCH   1   2
BRANCH   1  15
HETATM   15  C5  UNL     1     102.807  18.471  46.143  1.00  0.00     0.039 C 
BRANCH  15  16
HETATM   16  C6  UNL     1     102.239  18.519  47.559  1.00  0.00     0.122 C 
BRANCH  16  17
HETATM   17  N2  UNL     1     102.834  19.648  48.226  1.00  0.00    -0.379 N 
ATOM     18  H2  UNL     1     103.412  20.287  47.679  1.00  0.00     0.160 HD
BRANCH  17  19
HETATM   19  C7  UNL     1     102.652  19.914  49.610  1.00  0.00     0.088 C 
HETATM   20  N3  UNL     1     101.471  20.038  50.145  1.00  0.00    -0.388 N 
ATOM     21  H32 UNL     1     100.631  19.944  49.574  1.00  0.00     0.157 HD
ATOM     22  H31 UNL     1     101.342  20.229  51.139  1.00  0.00     0.157 HD
BRANCH  19  23
HETATM   23  C8  UNL     1     103.884  20.052  50.448  1.00  0.00     0.197 C 
BRANCH  23  24
HETATM   24  N4  UNL     1     104.200  21.456  50.479  1.00  0.00    -0.360 N 
HETATM   25  C9  UNL     1     105.136  21.923  49.755  1.00  0.00     0.197 C 
HETATM   26  N5  UNL     1     105.886  21.078  48.906  1.00  0.00    -0.067 NA
HETATM   27  N6  UNL     1     105.398  23.309  49.828  1.00  0.00    -0.067 NA
ATOM     28  H4  UNL     1     103.669  22.081  51.086  1.00  0.00     0.162 HD
ENDBRANCH  23  24
ENDBRANCH  19  23
ENDBRANCH  17  19
ENDBRANCH  16  17
ENDBRANCH  15  16
ENDBRANCH   1  15
TORSDOF 11
ENDMDL
MODEL 4
REMARK VINA RESULT: -6.215664762      2.944      6.811
REMARK  11 active torsions:
REMARK  status: ('A' for Active; 'I' for Inactive)
REMARK    1  A    between atoms: C2_2  and  C3_3 
REMARK    2  A    between atoms: C3_3  and  N1_4 
REMARK    3  A    between atoms: N1_4  and  C4_5 
REMARK    4  A    between atoms: N1_4  and  C10_20 
REMARK    5  A    between atoms: C4_5  and  C5_6 
REMARK    6  A    between atoms: C5_6  and  C6_7 
REMARK    7  A    between atoms: C6_7  and  N2_8 
REMARK    8  A    between atoms: N2_8  and  C7_10 
REMARK    9  A    between atoms: C7_10  and  C8_14 
REMARK   10  A    between atoms: C8_14  and  N4_15 
REMARK   11  A    between atoms: C10_20  and  C11_21 
ROOT
HETATM    1  C4  UNL     1     102.350  19.656  47.973  1.00  0.00     0.123 C 
ENDROOT
BRANCH   1   2
HETATM    2  N1  UNL     1     101.896  19.819  49.302  1.00  0.00    -0.389 N 
BRANCH   2   3
HETATM    3  C3  UNL     1     101.291  18.626  49.864  1.00  0.00     0.148 C 
BRANCH   3   4
HETATM    4  C2  UNL     1      99.925  18.893  50.385  1.00  0.00    -0.018 C 
HETATM    5  C1  UNL     1      99.304  17.967  51.100  1.00  0.00     0.008 C 
ENDBRANCH   3   4
ENDBRANCH   2   3
BRANCH   2   6
HETATM    6  C10 UNL     1     102.683  20.545  50.216  1.00  0.00     0.073 C 
BRANCH   6   7
HETATM    7  C11 UNL     1     104.122  20.600  49.765  1.00  0.00     0.121 C 
HETATM    8  C12 UNL     1     104.750  21.923  50.065  1.00  0.00     0.141 C 
HETATM    9  N7  UNL     1     105.743  21.725  51.076  1.00  0.00    -0.353 N 
HETATM   10  C13 UNL     1     105.766  20.378  51.466  1.00  0.00     0.288 C 
ATOM     11  H7  UNL     1     106.345  22.455  51.457  1.00  0.00     0.162 HD
HETATM   12  O1  UNL     1     106.455  19.873  52.415  1.00  0.00    -0.264 OA
HETATM   13  C14 UNL     1     104.877  19.603  50.626  1.00  0.00     0.227 C 
HETATM   14  O2  UNL     1     104.726  18.357  50.582  1.00  0.00    -0.286 OA
ENDBRANCH   6   7
ENDBRANCH   2   6
ENDBRANCH   1   2
BRANCH   1  15
HETATM   15  C5  UNL     1     102.536  18.194  47.568  1.00  0.00     0.039 C 
BRANCH  15  16
HETATM   16  C6  UNL     1     102.312  18.107  46.061  1.00  0.00     0.122 C 
BRANCH  16  17
HETATM   17  N2  UNL     1     102.737  16.799  45.636  1.00  0.00    -0.379 N 
ATOM     18  H2  UNL     1     103.695  16.509  45.837  1.00  0.00     0.160 HD
BRANCH  17  19
HETATM   19  C7  UNL     1     101.884  15.892  44.950  1.00  0.00     0.088 C 
HETATM   20  N3  UNL     1     101.486  14.772  45.483  1.00  0.00    -0.388 N 
ATOM     21  H32 UNL     1     101.781  14.514  46.425  1.00  0.00     0.157 HD
ATOM     22  H31 UNL     1     100.874  14.122  44.990  1.00  0.00     0.157 HD
BRANCH  19  23
HETATM   23  C8  UNL     1     101.452  16.271  43.568  1.00  0.00     0.197 C 
BRANCH  23  24
HETATM   24  N4  UNL     1     102.419  15.698  42.668  1.00  0.00    -0.360 N 
HETATM   25  C9  UNL     1     102.070  14.813  41.824  1.00  0.00     0.197 C 
HETATM   26  N5  UNL     1     100.728  14.373  41.749  1.00  0.00    -0.067 NA
HETATM   27  N6  UNL     1     103.062  14.289  40.967  1.00  0.00    -0.067 NA
ATOM     28  H4  UNL     1     103.391  16.004  42.708  1.00  0.00     0.162 HD
ENDBRANCH  23  24
ENDBRANCH  19  23
ENDBRANCH  17  19
ENDBRANCH  16  17
ENDBRANCH  15  16
ENDBRANCH   1  15
TORSDOF 11
ENDMDL
MODEL 5
REMARK VINA RESULT: -6.137465479      1.992      5.538
REMARK  11 active torsions:
REMARK  status: ('A' for Active; 'I' for Inactive)
REMARK    1  A    between atoms: C2_2  and  C3_3 
REMARK    2  A    between atoms: C3_3  and  N1_4 
REMARK    3  A    between atoms: N1_4  and  C4_5 
REMARK    4  A    between atoms: N1_4  and  C10_20 
REMARK    5  A    between atoms: C4_5  and  C5_6 
REMARK    6  A    between atoms: C5_6  and  C6_7 
REMARK    7  A    between atoms: C6_7  and  N2_8 
REMARK    8  A    between atoms: N2_8  and  C7_10 
REMARK    9  A    between atoms: C7_10  and  C8_14 
REMARK   10  A    between atoms: C8_14  and  N4_15 
REMARK   11  A    between atoms: C10_20  and  C11_21 
ROOT
HETATM    1  C4  UNL     1     104.236  19.828  51.065  1.00  0.00     0.123 C 
ENDROOT
BRANCH   1   2
HETATM    2  N1  UNL     1     105.610  19.844  50.735  1.00  0.00    -0.389 N 
BRANCH   2   3
HETATM    3  C3  UNL     1     106.255  21.121  50.977  1.00  0.00     0.148 C 
BRANCH   3   4
HETATM    4  C2  UNL     1     105.952  22.105  49.905  1.00  0.00    -0.018 C 
HETATM    5  C1  UNL     1     105.673  23.359  50.226  1.00  0.00     0.008 C 
ENDBRANCH   3   4
ENDBRANCH   2   3
BRANCH   2   6
HETATM    6  C10 UNL     1     106.410  18.730  51.054  1.00  0.00     0.073 C 
BRANCH   6   7
HETATM    7  C11 UNL     1     106.742  17.931  49.818  1.00  0.00     0.121 C 
HETATM    8  C12 UNL     1     108.200  17.613  49.734  1.00  0.00     0.141 C 
HETATM    9  N7  UNL     1     108.358  16.202  49.911  1.00  0.00    -0.353 N 
HETATM   10  C13 UNL     1     107.109  15.606  50.136  1.00  0.00     0.288 C 
ATOM     11  H7  UNL     1     109.248  15.704  49.877  1.00  0.00     0.162 HD
HETATM   12  O1  UNL     1     106.893  14.383  50.435  1.00  0.00    -0.264 OA
HETATM   13  C14 UNL     1     106.056  16.587  49.982  1.00  0.00     0.227 C 
HETATM   14  O2  UNL     1     104.812  16.410  49.978  1.00  0.00    -0.286 OA
ENDBRANCH   6   7
ENDBRANCH   2   6
ENDBRANCH   1   2
BRANCH   1  15
HETATM   15  C5  UNL     1     103.417  20.874  50.309  1.00  0.00     0.039 C 
BRANCH  15  16
HETATM   16  C6  UNL     1     102.047  20.262  50.026  1.00  0.00     0.122 C 
BRANCH  16  17
HETATM   17  N2  UNL     1     102.000  19.937  48.624  1.00  0.00    -0.379 N 
ATOM     18  H2  UNL     1     101.772  20.678  47.960  1.00  0.00     0.160 HD
BRANCH  17  19
HETATM   19  C7  UNL     1     102.257  18.632  48.123  1.00  0.00     0.088 C 
HETATM   20  N3  UNL     1     102.383  17.599  48.905  1.00  0.00    -0.388 N 
ATOM     21  H32 UNL     1     102.298  17.702  49.917  1.00  0.00     0.157 HD
ATOM     22  H31 UNL     1     102.567  16.663  48.545  1.00  0.00     0.157 HD
BRANCH  19  23
HETATM   23  C8  UNL     1     102.382  18.481  46.639  1.00  0.00     0.197 C 
BRANCH  23  24
HETATM   24  N4  UNL     1     102.560  17.075  46.387  1.00  0.00    -0.360 N 
HETATM   25  C9  UNL     1     103.661  16.636  45.927  1.00  0.00     0.197 C 
HETATM   26  N5  UNL     1     104.734  17.515  45.653  1.00  0.00    -0.067 NA
HETATM   27  N6  UNL     1     103.775  15.247  45.701  1.00  0.00    -0.067 NA
ATOM     28  H4  UNL     1     101.796  16.427  46.578  1.00  0.00     0.162 HD
ENDBRANCH  23  24
ENDBRANCH  19  23
ENDBRANCH  17  19
ENDBRANCH  16  17
ENDBRANCH  15  16
ENDBRANCH   1  15
TORSDOF 11
ENDMDL
