MODEL 1
REMARK VINA RESULT: -5.032426248      0.000      0.000
REMARK  1 active torsions:
REMARK  status: ('A' for Active; 'I' for Inactive)
REMARK    1  A    between atoms: C2_2  and  N2_5 
REMARK       I    between atoms: N2_5  and  C4_7 
REMARK       I    between atoms: C4_7  and  N3_9 
ROOT
HETATM    1  C1  UNL     1     -42.901 -56.294  67.089  1.00  0.00     0.048 C 
HETATM    2  C2  UNL     1     -41.983 -56.806  65.994  1.00  0.00     0.189 C 
HETATM    3  C3  UNL     1     -42.592 -56.524  64.673  1.00  0.00     0.084 C 
HETATM    4  N1  UNL     1     -43.085 -56.311  63.649  1.00  0.00    -0.195 NA
ENDROOT
BRANCH   2   5
HETATM    5  N2  UNL     1     -40.735 -56.099  66.037  1.00  0.00    -0.326 N 
HETATM    6  C4  UNL     1     -39.534 -56.758  65.670  1.00  0.00     0.319 C 
HETATM    7  O1  UNL     1     -39.592 -57.961  65.311  1.00  0.00    -0.247 OA
HETATM    8  N3  UNL     1     -38.268 -56.100  65.695  1.00  0.00    -0.333 N 
HETATM    9  C5  UNL     1     -38.089 -54.728  66.089  1.00  0.00     0.129 C 
HETATM   10  C13 UNL     1     -37.004 -56.705  65.336  1.00  0.00     0.144 C 
HETATM   11  C6  UNL     1     -36.784 -54.369  65.375  1.00  0.00     0.038 C 
HETATM   12  C7  UNL     1     -35.982 -55.617  65.573  1.00  0.00     0.031 C 
HETATM   13  C8  UNL     1     -35.385 -55.697  66.961  1.00  0.00     0.184 C 
HETATM   14  C12 UNL     1     -34.825 -55.719  64.594  1.00  0.00     0.076 C 
HETATM   15  O2  UNL     1     -34.707 -54.536  67.225  1.00  0.00    -0.385 OA
HETATM   16  C9  UNL     1     -33.545 -54.355  66.538  1.00  0.00     0.212 C 
HETATM   17  C10 UNL     1     -32.896 -55.613  66.044  1.00  0.00     0.088 C 
HETATM   18  N4  UNL     1     -33.723 -56.342  65.194  1.00  0.00    -0.375 N 
HETATM   19  C11 UNL     1     -33.441 -57.676  64.914  1.00  0.00     0.154 C 
ATOM     20  H2  UNL     1     -40.712 -55.123  66.332  1.00  0.00     0.165 HD
ENDBRANCH   2   5
TORSDOF 1
ENDMDL
MODEL 2
REMARK VINA RESULT: -4.802824162      1.808      2.729
REMARK  1 active torsions:
REMARK  status: ('A' for Active; 'I' for Inactive)
REMARK    1  A    between atoms: C2_2  and  N2_5 
REMARK       I    between atoms: N2_5  and  C4_7 
REMARK       I    between atoms: C4_7  and  N3_9 
ROOT
HETATM    1  C1  UNL     1     -42.583 -56.589  64.198  1.00  0.00     0.048 C 
HETATM    2  C2  UNL     1     -41.778 -56.265  65.444  1.00  0.00     0.189 C 
HETATM    3  C3  UNL     1     -42.463 -56.829  66.631  1.00  0.00     0.084 C 
HETATM    4  N1  UNL     1     -43.015 -57.261  67.550  1.00  0.00    -0.195 NA
ENDROOT
BRANCH   2   5
HETATM    5  N2  UNL     1     -40.491 -56.894  65.367  1.00  0.00    -0.326 N 
HETATM    6  C4  UNL     1     -39.338 -56.208  65.829  1.00  0.00     0.319 C 
HETATM    7  O1  UNL     1     -39.473 -55.051  66.301  1.00  0.00    -0.247 OA
HETATM    8  N3  UNL     1     -38.035 -56.790  65.776  1.00  0.00    -0.333 N 
HETATM    9  C5  UNL     1     -37.769 -58.105  65.257  1.00  0.00     0.129 C 
HETATM   10  C13 UNL     1     -36.817 -56.154  66.227  1.00  0.00     0.144 C 
HETATM   11  C6  UNL     1     -36.462 -58.459  65.969  1.00  0.00     0.038 C 
HETATM   12  C7  UNL     1     -35.729 -57.156  65.914  1.00  0.00     0.031 C 
HETATM   13  C8  UNL     1     -35.107 -56.907  64.557  1.00  0.00     0.184 C 
HETATM   14  C12 UNL     1     -34.602 -57.086  66.930  1.00  0.00     0.076 C 
HETATM   15  O2  UNL     1     -34.357 -57.998  64.202  1.00  0.00    -0.385 OA
HETATM   16  C9  UNL     1     -33.203 -58.181  64.900  1.00  0.00     0.212 C 
HETATM   17  C10 UNL     1     -32.638 -56.943  65.530  1.00  0.00     0.088 C 
HETATM   18  N4  UNL     1     -33.525 -56.347  66.423  1.00  0.00    -0.375 N 
HETATM   19  C11 UNL     1     -33.327 -55.034  66.839  1.00  0.00     0.154 C 
ATOM     20  H2  UNL     1     -40.404 -57.834  64.981  1.00  0.00     0.165 HD
ENDBRANCH   2   5
TORSDOF 1
ENDMDL
MODEL 3
REMARK VINA RESULT: -4.598580113      1.188      1.401
REMARK  1 active torsions:
REMARK  status: ('A' for Active; 'I' for Inactive)
REMARK    1  A    between atoms: C2_2  and  N2_5 
REMARK       I    between atoms: N2_5  and  C4_7 
REMARK       I    between atoms: C4_7  and  N3_9 
ROOT
HETATM    1  C1  UNL     1     -42.483 -56.959  67.143  1.00  0.00     0.048 C 
HETATM    2  C2  UNL     1     -41.592 -56.985  65.915  1.00  0.00     0.189 C 
HETATM    3  C3  UNL     1     -42.401 -56.669  64.715  1.00  0.00     0.084 C 
HETATM    4  N1  UNL     1     -43.047 -56.435  63.785  1.00  0.00    -0.195 NA
ENDROOT
BRANCH   2   5
HETATM    5  N2  UNL     1     -40.589 -55.964  66.022  1.00  0.00    -0.326 N 
HETATM    6  C4  UNL     1     -39.238 -56.261  65.707  1.00  0.00     0.319 C 
HETATM    7  O1  UNL     1     -38.948 -57.426  65.336  1.00  0.00    -0.247 OA
HETATM    8  N3  UNL     1     -38.204 -55.281  65.796  1.00  0.00    -0.333 N 
HETATM    9  C5  UNL     1     -38.426 -53.922  66.208  1.00  0.00     0.129 C 
HETATM   10  C13 UNL     1     -36.808 -55.510  65.492  1.00  0.00     0.144 C 
HETATM   11  C6  UNL     1     -37.240 -53.204  65.559  1.00  0.00     0.038 C 
HETATM   12  C7  UNL     1     -36.135 -54.188  65.785  1.00  0.00     0.031 C 
HETATM   13  C8  UNL     1     -35.599 -54.130  67.199  1.00  0.00     0.184 C 
HETATM   14  C12 UNL     1     -34.955 -53.950  64.861  1.00  0.00     0.076 C 
HETATM   15  O2  UNL     1     -35.278 -52.833  67.503  1.00  0.00    -0.385 OA
HETATM   16  C9  UNL     1     -34.183 -52.327  66.873  1.00  0.00     0.212 C 
HETATM   17  C10 UNL     1     -33.192 -53.349  66.400  1.00  0.00     0.088 C 
HETATM   18  N4  UNL     1     -33.751 -54.259  65.507  1.00  0.00    -0.375 N 
HETATM   19  C11 UNL     1     -33.101 -55.458  65.229  1.00  0.00     0.154 C 
ATOM     20  H2  UNL     1     -40.847 -55.025  66.325  1.00  0.00     0.165 HD
ENDBRANCH   2   5
TORSDOF 1
ENDMDL
MODEL 4
REMARK VINA RESULT: -4.476044616      5.177      7.378
REMARK  1 active torsions:
REMARK  status: ('A' for Active; 'I' for Inactive)
REMARK    1  A    between atoms: C2_2  and  N2_5 
REMARK       I    between atoms: N2_5  and  C4_7 
REMARK       I    between atoms: C4_7  and  N3_9 
ROOT
HETATM    1  C1  UNL     1     -42.567 -56.387  64.620  1.00  0.00     0.048 C 
HETATM    2  C2  UNL     1     -41.904 -56.915  65.878  1.00  0.00     0.189 C 
HETATM    3  C3  UNL     1     -40.551 -57.419  65.545  1.00  0.00     0.084 C 
HETATM    4  N1  UNL     1     -39.503 -57.821  65.269  1.00  0.00    -0.195 NA
ENDROOT
BRANCH   2   5
HETATM    5  N2  UNL     1     -41.731 -55.847  66.821  1.00  0.00    -0.326 N 
HETATM    6  C4  UNL     1     -41.536 -56.139  68.195  1.00  0.00     0.319 C 
HETATM    7  O1  UNL     1     -41.518 -57.341  68.560  1.00  0.00    -0.247 OA
HETATM    8  N3  UNL     1     -41.358 -55.113  69.172  1.00  0.00    -0.333 N 
HETATM    9  C5  UNL     1     -41.361 -53.708  68.863  1.00  0.00     0.129 C 
HETATM   10  C13 UNL     1     -41.154 -55.333  70.586  1.00  0.00     0.144 C 
HETATM   11  C6  UNL     1     -40.553 -53.134  70.029  1.00  0.00     0.038 C 
HETATM   12  C7  UNL     1     -41.068 -53.944  71.177  1.00  0.00     0.031 C 
HETATM   13  C8  UNL     1     -42.415 -53.454  71.663  1.00  0.00     0.184 C 
HETATM   14  C12 UNL     1     -40.134 -53.906  72.373  1.00  0.00     0.076 C 
HETATM   15  O2  UNL     1     -42.342 -52.107  71.904  1.00  0.00    -0.385 OA
HETATM   16  C9  UNL     1     -41.610 -51.734  72.990  1.00  0.00     0.212 C 
HETATM   17  C10 UNL     1     -41.465 -52.786  74.049  1.00  0.00     0.088 C 
HETATM   18  N4  UNL     1     -40.860 -53.945  73.570  1.00  0.00    -0.375 N 
HETATM   19  C11 UNL     1     -40.947 -55.132  74.292  1.00  0.00     0.154 C 
ATOM     20  H2  UNL     1     -41.749 -54.878  66.502  1.00  0.00     0.165 HD
ENDBRANCH   2   5
TORSDOF 1
ENDMDL
MODEL 5
REMARK VINA RESULT: -4.426439988      2.781      3.395
REMARK  1 active torsions:
REMARK  status: ('A' for Active; 'I' for Inactive)
REMARK    1  A    between atoms: C2_2  and  N2_5 
REMARK       I    between atoms: N2_5  and  C4_7 
REMARK       I    between atoms: C4_7  and  N3_9 
ROOT
HETATM    1  C1  UNL     1     -42.555 -55.413  68.020  1.00  0.00     0.048 C 
HETATM    2  C2  UNL     1     -42.659 -56.691  67.208  1.00  0.00     0.189 C 
HETATM    3  C3  UNL     1     -43.580 -56.473  66.067  1.00  0.00     0.084 C 
HETATM    4  N1  UNL     1     -44.311 -56.295  65.190  1.00  0.00    -0.195 NA
ENDROOT
BRANCH   2   5
HETATM    5  N2  UNL     1     -41.377 -57.018  66.652  1.00  0.00    -0.326 N 
HETATM    6  C4  UNL     1     -40.442 -57.762  67.417  1.00  0.00     0.319 C 
HETATM    7  O1  UNL     1     -40.762 -58.121  68.578  1.00  0.00    -0.247 OA
HETATM    8  N3  UNL     1     -39.154 -58.113  66.910  1.00  0.00    -0.333 N 
HETATM    9  C5  UNL     1     -38.688 -57.754  65.598  1.00  0.00     0.129 C 
HETATM   10  C13 UNL     1     -38.151 -58.867  67.629  1.00  0.00     0.144 C 
HETATM   11  C6  UNL     1     -37.629 -58.828  65.342  1.00  0.00     0.038 C 
HETATM   12  C7  UNL     1     -36.973 -58.929  66.683  1.00  0.00     0.031 C 
HETATM   13  C8  UNL     1     -35.996 -57.799  66.926  1.00  0.00     0.184 C 
HETATM   14  C12 UNL     1     -36.195 -60.222  66.849  1.00  0.00     0.076 C 
HETATM   15  O2  UNL     1     -35.125 -57.725  65.871  1.00  0.00    -0.385 OA
HETATM   16  C9  UNL     1     -34.216 -58.735  65.776  1.00  0.00     0.212 C 
HETATM   17  C10 UNL     1     -33.918 -59.444  67.063  1.00  0.00     0.088 C 
HETATM   18  N4  UNL     1     -35.053 -60.015  67.633  1.00  0.00    -0.375 N 
HETATM   19  C11 UNL     1     -35.046 -60.410  68.967  1.00  0.00     0.154 C 
ATOM     20  H2  UNL     1     -41.138 -56.716  65.707  1.00  0.00     0.165 HD
ENDBRANCH   2   5
TORSDOF 1
ENDMDL
