MODEL 1
REMARK VINA RESULT: -6.523875282      0.000      0.000
REMARK  5 active torsions:
REMARK  status: ('A' for Active; 'I' for Inactive)
REMARK    1  A    between atoms: C2_2  and  C3_3 
REMARK    2  A    between atoms: C4_4  and  C5_5 
REMARK    3  A    between atoms: C6_6  and  C7_7 
REMARK    4  A    between atoms: C8_11  and  C9_12 
REMARK    5  A    between atoms: C9_12  and  O1_13 
ROOT
HETATM    1  C7  UNL     1      17.322  12.575  53.690  1.00  0.00     0.350 C 
HETATM    2  N1  UNL     1      18.435  12.040  52.929  1.00  0.00    -0.017 N 
ATOM      3  H11 UNL     1      18.378  11.849  51.929  1.00  0.00     0.283 HD
ATOM      4  H12 UNL     1      18.765  11.080  53.035  1.00  0.00     0.283 HD
HETATM    5  C8  UNL     1      19.151  13.178  53.469  1.00  0.00     0.350 C 
HETATM    6  O2  UNL     1      17.938  13.810  53.669  1.00  0.00    -0.321 OA
ENDROOT
BRANCH   1   7
HETATM    7  C6  UNL     1      16.032  12.571  52.945  1.00  0.00     0.042 C 
HETATM    8  C5  UNL     1      15.843  13.314  51.872  1.00  0.00     0.064 C 
BRANCH   8   9
HETATM    9  C4  UNL     1      14.570  13.253  51.211  1.00  0.00    -0.079 C 
HETATM   10  C3  UNL     1      13.493  13.184  50.664  1.00  0.00    -0.102 C 
BRANCH  10  11
HETATM   11  C2  UNL     1      12.191  13.075  50.000  1.00  0.00     0.090 C 
HETATM   12  C1  UNL     1      11.734  11.638  50.051  1.00  0.00     0.018 C 
ENDBRANCH  10  11
ENDBRANCH   8   9
ENDBRANCH   1   7
BRANCH   5  13
HETATM   13  C9  UNL     1      19.795  12.829  54.794  1.00  0.00     0.225 C 
BRANCH  13  14
HETATM   14  O1  UNL     1      20.702  11.774  54.631  1.00  0.00    -0.397 OA
ATOM     15  H1  UNL     1      21.486  12.079  54.188  1.00  0.00     0.209 HD
ENDBRANCH  13  14
ENDBRANCH   5  13
TORSDOF 5
ENDMDL
MODEL 2
REMARK VINA RESULT: -6.519091459      1.243      1.309
REMARK  5 active torsions:
REMARK  status: ('A' for Active; 'I' for Inactive)
REMARK    1  A    between atoms: C2_2  and  C3_3 
REMARK    2  A    between atoms: C4_4  and  C5_5 
REMARK    3  A    between atoms: C6_6  and  C7_7 
REMARK    4  A    between atoms: C8_11  and  C9_12 
REMARK    5  A    between atoms: C9_12  and  O1_13 
ROOT
HETATM    1  C7  UNL     1      16.683  12.221  53.491  1.00  0.00     0.350 C 
HETATM    2  N1  UNL     1      17.830  11.627  52.832  1.00  0.00    -0.017 N 
ATOM      3  H11 UNL     1      17.973  11.676  51.823  1.00  0.00     0.283 HD
ATOM      4  H12 UNL     1      17.954  10.618  52.742  1.00  0.00     0.283 HD
HETATM    5  C8  UNL     1      18.590  12.429  53.770  1.00  0.00     0.350 C 
HETATM    6  O2  UNL     1      17.494  13.259  53.904  1.00  0.00    -0.321 OA
ENDROOT
BRANCH   1   7
HETATM    7  C6  UNL     1      15.620  12.672  52.550  1.00  0.00     0.042 C 
HETATM    8  C5  UNL     1      15.887  13.433  51.507  1.00  0.00     0.064 C 
BRANCH   8   9
HETATM    9  C4  UNL     1      14.805  13.824  50.648  1.00  0.00    -0.079 C 
HETATM   10  C3  UNL     1      13.903  14.146  49.909  1.00  0.00    -0.102 C 
BRANCH  10  11
HETATM   11  C2  UNL     1      12.828  14.542  48.994  1.00  0.00     0.090 C 
HETATM   12  C1  UNL     1      11.518  14.003  49.515  1.00  0.00     0.018 C 
ENDBRANCH  10  11
ENDBRANCH   8   9
ENDBRANCH   1   7
BRANCH   5  13
HETATM   13  C9  UNL     1      18.840  11.664  55.053  1.00  0.00     0.225 C 
BRANCH  13  14
HETATM   14  O1  UNL     1      19.492  10.455  54.779  1.00  0.00    -0.397 OA
ATOM     15  H1  UNL     1      19.466   9.886  55.540  1.00  0.00     0.209 HD
ENDBRANCH  13  14
ENDBRANCH   5  13
TORSDOF 5
ENDMDL
MODEL 3
REMARK VINA RESULT: -6.450881975      2.184      2.770
REMARK  5 active torsions:
REMARK  status: ('A' for Active; 'I' for Inactive)
REMARK    1  A    between atoms: C2_2  and  C3_3 
REMARK    2  A    between atoms: C4_4  and  C5_5 
REMARK    3  A    between atoms: C6_6  and  C7_7 
REMARK    4  A    between atoms: C8_11  and  C9_12 
REMARK    5  A    between atoms: C9_12  and  O1_13 
ROOT
HETATM    1  C7  UNL     1      16.002  12.550  52.808  1.00  0.00     0.350 C 
HETATM    2  N1  UNL     1      16.763  11.423  52.306  1.00  0.00    -0.017 N 
ATOM      3  H11 UNL     1      17.069  11.353  51.336  1.00  0.00     0.283 HD
ATOM      4  H12 UNL     1      16.359  10.494  52.185  1.00  0.00     0.283 HD
HETATM    5  C8  UNL     1      17.667  11.749  53.390  1.00  0.00     0.350 C 
HETATM    6  O2  UNL     1      17.155  13.032  53.395  1.00  0.00    -0.321 OA
ENDROOT
BRANCH   1   7
HETATM    7  C6  UNL     1      15.491  13.451  51.738  1.00  0.00     0.042 C 
HETATM    8  C5  UNL     1      14.479  13.111  50.963  1.00  0.00     0.064 C 
BRANCH   8   9
HETATM    9  C4  UNL     1      14.047  14.037  49.954  1.00  0.00    -0.079 C 
HETATM   10  C3  UNL     1      13.690  14.806  49.090  1.00  0.00    -0.102 C 
BRANCH  10  11
HETATM   11  C2  UNL     1      13.279  15.730  48.029  1.00  0.00     0.090 C 
HETATM   12  C1  UNL     1      14.208  16.918  48.028  1.00  0.00     0.018 C 
ENDBRANCH  10  11
ENDBRANCH   8   9
ENDBRANCH   1   7
BRANCH   5  13
HETATM   13  C9  UNL     1      17.277  11.014  54.656  1.00  0.00     0.225 C 
BRANCH  13  14
HETATM   14  O1  UNL     1      18.184  11.300  55.684  1.00  0.00    -0.397 OA
ATOM     15  H1  UNL     1      18.359  12.233  55.719  1.00  0.00     0.209 HD
ENDBRANCH  13  14
ENDBRANCH   5  13
TORSDOF 5
ENDMDL
MODEL 4
REMARK VINA RESULT: -6.408760014      4.419      6.970
REMARK  5 active torsions:
REMARK  status: ('A' for Active; 'I' for Inactive)
REMARK    1  A    between atoms: C2_2  and  C3_3 
REMARK    2  A    between atoms: C4_4  and  C5_5 
REMARK    3  A    between atoms: C6_6  and  C7_7 
REMARK    4  A    between atoms: C8_11  and  C9_12 
REMARK    5  A    between atoms: C9_12  and  O1_13 
ROOT
HETATM    1  C7  UNL     1      17.205   9.579  52.603  1.00  0.00     0.350 C 
HETATM    2  N1  UNL     1      17.958   8.654  51.777  1.00  0.00    -0.017 N 
ATOM      3  H11 UNL     1      18.912   8.369  51.998  1.00  0.00     0.283 HD
ATOM      4  H12 UNL     1      18.308   8.901  50.851  1.00  0.00     0.283 HD
HETATM    5  C8  UNL     1      16.815   7.787  51.977  1.00  0.00     0.350 C 
HETATM    6  O2  UNL     1      16.503   8.506  53.114  1.00  0.00    -0.321 OA
ENDROOT
BRANCH   1   7
HETATM    7  C6  UNL     1      18.029  10.263  53.638  1.00  0.00     0.042 C 
HETATM    8  C5  UNL     1      17.484  10.960  54.617  1.00  0.00     0.064 C 
BRANCH   8   9
HETATM    9  C4  UNL     1      18.349  11.589  55.574  1.00  0.00    -0.079 C 
HETATM   10  C3  UNL     1      19.089  12.104  56.381  1.00  0.00    -0.102 C 
BRANCH  10  11
HETATM   11  C2  UNL     1      19.992  12.703  57.368  1.00  0.00     0.090 C 
HETATM   12  C1  UNL     1      21.222  13.216  56.660  1.00  0.00     0.018 C 
ENDBRANCH  10  11
ENDBRANCH   8   9
ENDBRANCH   1   7
BRANCH   5  13
HETATM   13  C9  UNL     1      15.773   8.014  50.901  1.00  0.00     0.225 C 
BRANCH  13  14
HETATM   14  O1  UNL     1      16.334   7.820  49.632  1.00  0.00    -0.397 OA
ATOM     15  H1  UNL     1      15.843   8.302  48.977  1.00  0.00     0.209 HD
ENDBRANCH  13  14
ENDBRANCH   5  13
TORSDOF 5
ENDMDL
MODEL 5
REMARK VINA RESULT: -6.354775881      2.142      2.625
REMARK  5 active torsions:
REMARK  status: ('A' for Active; 'I' for Inactive)
REMARK    1  A    between atoms: C2_2  and  C3_3 
REMARK    2  A    between atoms: C4_4  and  C5_5 
REMARK    3  A    between atoms: C6_6  and  C7_7 
REMARK    4  A    between atoms: C8_11  and  C9_12 
REMARK    5  A    between atoms: C9_12  and  O1_13 
ROOT
HETATM    1  C7  UNL     1      16.300  12.675  52.535  1.00  0.00     0.350 C 
HETATM    2  N1  UNL     1      16.008  12.713  53.955  1.00  0.00    -0.017 N 
ATOM      3  H11 UNL     1      15.063  12.828  54.321  1.00  0.00     0.283 HD
ATOM      4  H12 UNL     1      16.273  13.497  54.552  1.00  0.00     0.283 HD
HETATM    5  C8  UNL     1      16.707  11.444  53.975  1.00  0.00     0.350 C 
HETATM    6  O2  UNL     1      16.435  11.304  52.628  1.00  0.00    -0.321 OA
ENDROOT
BRANCH   1   7
HETATM    7  C6  UNL     1      15.151  13.076  51.677  1.00  0.00     0.042 C 
HETATM    8  C5  UNL     1      15.294  13.902  50.659  1.00  0.00     0.064 C 
BRANCH   8   9
HETATM    9  C4  UNL     1      14.135  14.238  49.881  1.00  0.00    -0.079 C 
HETATM   10  C3  UNL     1      13.169  14.525  49.210  1.00  0.00    -0.102 C 
BRANCH  10  11
HETATM   11  C2  UNL     1      12.015  14.890  48.384  1.00  0.00     0.090 C 
HETATM   12  C1  UNL     1      12.334  16.157  47.628  1.00  0.00     0.018 C 
ENDBRANCH  10  11
ENDBRANCH   8   9
ENDBRANCH   1   7
BRANCH   5  13
HETATM   13  C9  UNL     1      18.190  11.649  54.201  1.00  0.00     0.225 C 
BRANCH  13  14
HETATM   14  O1  UNL     1      18.868  10.425  54.123  1.00  0.00    -0.397 OA
ATOM     15  H1  UNL     1      19.806  10.564  54.181  1.00  0.00     0.209 HD
ENDBRANCH  13  14
ENDBRANCH   5  13
TORSDOF 5
ENDMDL
