MODEL 1
REMARK VINA RESULT: -6.061564419      0.000      0.000
REMARK  3 active torsions:
REMARK  status: ('A' for Active; 'I' for Inactive)
REMARK    1  A    between atoms: O1_1  and  C1_3 
REMARK    2  A    between atoms: C1_3  and  C2_4 
REMARK    3  A    between atoms: C2_4  and  N1_5 
ROOT
HETATM    1  N1  UNL     1      18.081  10.585  54.336  1.00  0.00    -0.348 N 
HETATM    2  C3  UNL     1      18.575  11.294  53.225  1.00  0.00     0.098 C 
HETATM    3  C4  UNL     1      19.897  11.959  53.497  1.00  0.00     0.318 C 
HETATM    4  N2  UNL     1      19.993  12.649  54.726  1.00  0.00     0.102 N 
HETATM    5  C5  UNL     1      21.308  12.678  55.309  1.00  0.00     0.273 C 
HETATM    6  C6  UNL     1      21.008  13.276  56.683  1.00  0.00     0.033 C 
HETATM    7  C7  UNL     1      19.765  12.454  57.048  1.00  0.00     0.043 C 
HETATM    8  C8  UNL     1      19.034  12.377  55.723  1.00  0.00     0.262 C 
HETATM    9  C9  UNL     1      18.381  11.024  55.631  1.00  0.00     0.103 C 
ENDROOT
BRANCH   1  10
HETATM   10  C2  UNL     1      16.984   9.734  54.107  1.00  0.00     0.094 C 
BRANCH  10  11
HETATM   11  C1  UNL     1      17.090   8.888  52.864  1.00  0.00     0.209 C 
BRANCH  11  12
HETATM   12  O1  UNL     1      16.595   7.615  53.205  1.00  0.00    -0.396 OA
ATOM     13  H1  UNL     1      15.805   7.489  52.693  1.00  0.00     0.209 HD
ENDBRANCH  11  12
ENDBRANCH  10  11
ENDBRANCH   1  10
TORSDOF 3
ENDMDL
MODEL 2
REMARK VINA RESULT: -5.875862358      2.035      2.792
REMARK  3 active torsions:
REMARK  status: ('A' for Active; 'I' for Inactive)
REMARK    1  A    between atoms: O1_1  and  C1_3 
REMARK    2  A    between atoms: C1_3  and  C2_4 
REMARK    3  A    between atoms: C2_4  and  N1_5 
ROOT
HETATM    1  N1  UNL     1      18.286  12.780  54.517  1.00  0.00    -0.348 N 
HETATM    2  C3  UNL     1      18.864  11.897  55.449  1.00  0.00     0.098 C 
HETATM    3  C4  UNL     1      19.980  12.526  56.236  1.00  0.00     0.318 C 
HETATM    4  N2  UNL     1      20.910  13.279  55.485  1.00  0.00     0.102 N 
HETATM    5  C5  UNL     1      21.510  14.385  56.184  1.00  0.00     0.273 C 
HETATM    6  C6  UNL     1      22.251  15.086  55.047  1.00  0.00     0.033 C 
HETATM    7  C7  UNL     1      21.154  15.052  53.974  1.00  0.00     0.043 C 
HETATM    8  C8  UNL     1      20.550  13.678  54.180  1.00  0.00     0.262 C 
HETATM    9  C9  UNL     1      19.070  13.779  53.928  1.00  0.00     0.103 C 
ENDROOT
BRANCH   1  10
HETATM   10  C2  UNL     1      17.085  12.365  53.913  1.00  0.00     0.094 C 
BRANCH  10  11
HETATM   11  C1  UNL     1      17.184  11.082  53.128  1.00  0.00     0.209 C 
BRANCH  11  12
HETATM   12  O1  UNL     1      16.459  11.286  51.939  1.00  0.00    -0.396 OA
ATOM     13  H1  UNL     1      17.080  11.185  51.226  1.00  0.00     0.209 HD
ENDBRANCH  11  12
ENDBRANCH  10  11
ENDBRANCH   1  10
TORSDOF 3
ENDMDL
MODEL 3
REMARK VINA RESULT: -5.797473628      1.802      2.307
REMARK  3 active torsions:
REMARK  status: ('A' for Active; 'I' for Inactive)
REMARK    1  A    between atoms: O1_1  and  C1_3 
REMARK    2  A    between atoms: C1_3  and  C2_4 
REMARK    3  A    between atoms: C2_4  and  N1_5 
ROOT
HETATM    1  N1  UNL     1      19.632  11.988  54.318  1.00  0.00    -0.348 N 
HETATM    2  C3  UNL     1      19.418  13.087  53.466  1.00  0.00     0.098 C 
HETATM    3  C4  UNL     1      20.495  14.132  53.579  1.00  0.00     0.318 C 
HETATM    4  N2  UNL     1      20.881  14.473  54.894  1.00  0.00     0.102 N 
HETATM    5  C5  UNL     1      22.255  14.876  55.043  1.00  0.00     0.273 C 
HETATM    6  C6  UNL     1      22.380  14.941  56.565  1.00  0.00     0.033 C 
HETATM    7  C7  UNL     1      21.672  13.630  56.931  1.00  0.00     0.043 C 
HETATM    8  C8  UNL     1      20.522  13.603  55.944  1.00  0.00     0.262 C 
HETATM    9  C9  UNL     1      20.293  12.172  55.539  1.00  0.00     0.103 C 
ENDROOT
BRANCH   1  10
HETATM   10  C2  UNL     1      18.821  10.858  54.109  1.00  0.00     0.094 C 
BRANCH  10  11
HETATM   11  C1  UNL     1      17.928  10.937  52.897  1.00  0.00     0.209 C 
BRANCH  11  12
HETATM   12  O1  UNL     1      18.579  10.220  51.876  1.00  0.00    -0.396 OA
ATOM     13  H1  UNL     1      18.277  10.589  51.054  1.00  0.00     0.209 HD
ENDBRANCH  11  12
ENDBRANCH  10  11
ENDBRANCH   1  10
TORSDOF 3
ENDMDL
MODEL 4
REMARK VINA RESULT: -5.766062869      7.845      9.352
REMARK  3 active torsions:
REMARK  status: ('A' for Active; 'I' for Inactive)
REMARK    1  A    between atoms: O1_1  and  C1_3 
REMARK    2  A    between atoms: C1_3  and  C2_4 
REMARK    3  A    between atoms: C2_4  and  N1_5 
ROOT
HETATM    1  N1  UNL     1      14.522  15.752  48.496  1.00  0.00    -0.348 N 
HETATM    2  C3  UNL     1      13.433  15.798  47.606  1.00  0.00     0.098 C 
HETATM    3  C4  UNL     1      12.168  15.243  48.203  1.00  0.00     0.318 C 
HETATM    4  N2  UNL     1      12.305  14.024  48.903  1.00  0.00     0.102 N 
HETATM    5  C5  UNL     1      11.386  13.839  49.995  1.00  0.00     0.273 C 
HETATM    6  C6  UNL     1      11.950  12.576  50.644  1.00  0.00     0.033 C 
HETATM    7  C7  UNL     1      13.442  12.936  50.637  1.00  0.00     0.043 C 
HETATM    8  C8  UNL     1      13.598  13.618  49.294  1.00  0.00     0.262 C 
HETATM    9  C9  UNL     1      14.598  14.732  49.452  1.00  0.00     0.103 C 
ENDROOT
BRANCH   1  10
HETATM   10  C2  UNL     1      15.676  16.466  48.122  1.00  0.00     0.094 C 
BRANCH  10  11
HETATM   11  C1  UNL     1      16.778  16.468  49.150  1.00  0.00     0.209 C 
BRANCH  11  12
HETATM   12  O1  UNL     1      17.702  15.486  48.743  1.00  0.00    -0.396 OA
ATOM     13  H1  UNL     1      18.553  15.909  48.728  1.00  0.00     0.209 HD
ENDBRANCH  11  12
ENDBRANCH  10  11
ENDBRANCH   1  10
TORSDOF 3
ENDMDL
MODEL 5
REMARK VINA RESULT: -5.671497059      1.372      1.961
REMARK  3 active torsions:
REMARK  status: ('A' for Active; 'I' for Inactive)
REMARK    1  A    between atoms: O1_1  and  C1_3 
REMARK    2  A    between atoms: C1_3  and  C2_4 
REMARK    3  A    between atoms: C2_4  and  N1_5 
ROOT
HETATM    1  N1  UNL     1      17.338   9.265  53.186  1.00  0.00    -0.348 N 
HETATM    2  C3  UNL     1      17.695  10.150  52.152  1.00  0.00     0.098 C 
HETATM    3  C4  UNL     1      18.782  11.110  52.554  1.00  0.00     0.318 C 
HETATM    4  N2  UNL     1      18.625  11.716  53.820  1.00  0.00     0.102 N 
HETATM    5  C5  UNL     1      19.852  12.039  54.500  1.00  0.00     0.273 C 
HETATM    6  C6  UNL     1      19.328  12.445  55.877  1.00  0.00     0.033 C 
HETATM    7  C7  UNL     1      18.321  11.311  56.107  1.00  0.00     0.043 C 
HETATM    8  C8  UNL     1      17.713  11.141  54.729  1.00  0.00     0.262 C 
HETATM    9  C9  UNL     1      17.438   9.676  54.520  1.00  0.00     0.103 C 
ENDROOT
BRANCH   1  10
HETATM   10  C2  UNL     1      16.513   8.181  52.834  1.00  0.00     0.094 C 
BRANCH  10  11
HETATM   11  C1  UNL     1      16.652   7.720  51.405  1.00  0.00     0.209 C 
BRANCH  11  12
HETATM   12  O1  UNL     1      17.611   6.689  51.411  1.00  0.00    -0.396 OA
ATOM     13  H1  UNL     1      18.163   6.832  50.651  1.00  0.00     0.209 HD
ENDBRANCH  11  12
ENDBRANCH  10  11
ENDBRANCH   1  10
TORSDOF 3
ENDMDL
