MODEL 1
REMARK VINA RESULT: -7.018606918      0.000      0.000
REMARK  2 active torsions:
REMARK  status: ('A' for Active; 'I' for Inactive)
REMARK    1  A    between atoms: C2_3  and  C3_4 
REMARK    2  A    between atoms: C3_4  and  N2_5 
ROOT
HETATM    1  N1  UNL     1      11.338  10.444  49.481  1.00  0.00    -0.197 NA
HETATM    2  C1  UNL     1      11.649  11.410  50.021  1.00  0.00     0.060 C 
HETATM    3  C2  UNL     1      12.041  12.655  50.734  1.00  0.00     0.154 C 
ENDROOT
BRANCH   3   4
HETATM    4  C3  UNL     1      11.902  13.806  49.779  1.00  0.00     0.286 C 
BRANCH   4   5
HETATM    5  N2  UNL     1      13.089  14.059  49.039  1.00  0.00     0.090 N 
HETATM    6  C4  UNL     1      14.237  14.362  49.891  1.00  0.00     0.279 C 
HETATM    7  C5  UNL     1      15.263  14.715  48.855  1.00  0.00     0.047 C 
HETATM    8  C6  UNL     1      16.356  15.623  49.354  1.00  0.00     0.239 C 
HETATM    9  C8  UNL     1      14.445  15.587  47.916  1.00  0.00     0.047 C 
HETATM   10  N3  UNL     1      16.168  16.924  48.753  1.00  0.00    -0.074 N 
HETATM   11  C7  UNL     1      14.810  16.993  48.296  1.00  0.00     0.239 C 
ATOM     12  H32 UNL     1      16.418  17.692  49.377  1.00  0.00     0.277 HD
ATOM     13  H31 UNL     1      16.846  17.125  48.018  1.00  0.00     0.277 HD
HETATM   14  C9  UNL     1      12.998  15.268  48.257  1.00  0.00     0.279 C 
ENDBRANCH   4   5
ENDBRANCH   3   4
TORSDOF 2
ENDMDL
MODEL 2
REMARK VINA RESULT: -6.910680792      1.032      1.191
REMARK  2 active torsions:
REMARK  status: ('A' for Active; 'I' for Inactive)
REMARK    1  A    between atoms: C2_3  and  C3_4 
REMARK    2  A    between atoms: C3_4  and  N2_5 
ROOT
HETATM    1  N1  UNL     1      11.464  10.438  49.663  1.00  0.00    -0.197 NA
HETATM    2  C1  UNL     1      11.665  11.467  50.135  1.00  0.00     0.060 C 
HETATM    3  C2  UNL     1      11.911  12.806  50.735  1.00  0.00     0.154 C 
ENDROOT
BRANCH   3   4
HETATM    4  C3  UNL     1      13.391  13.063  50.718  1.00  0.00     0.286 C 
BRANCH   4   5
HETATM    5  N2  UNL     1      13.836  13.659  49.505  1.00  0.00     0.090 N 
HETATM    6  C4  UNL     1      14.877  14.663  49.713  1.00  0.00     0.279 C 
HETATM    7  C5  UNL     1      15.027  15.196  48.319  1.00  0.00     0.047 C 
HETATM    8  C6  UNL     1      15.563  16.603  48.251  1.00  0.00     0.239 C 
HETATM    9  C8  UNL     1      13.573  15.323  47.895  1.00  0.00     0.047 C 
HETATM   10  N3  UNL     1      14.487  17.472  47.830  1.00  0.00    -0.074 N 
HETATM   11  C7  UNL     1      13.255  16.780  48.075  1.00  0.00     0.239 C 
ATOM     12  H32 UNL     1      14.522  18.391  48.271  1.00  0.00     0.277 HD
ATOM     13  H31 UNL     1      14.583  17.785  46.864  1.00  0.00     0.277 HD
HETATM   14  C9  UNL     1      12.808  14.452  48.878  1.00  0.00     0.279 C 
ENDBRANCH   4   5
ENDBRANCH   3   4
TORSDOF 2
ENDMDL
MODEL 3
REMARK VINA RESULT: -6.112155355      7.066      7.787
REMARK  2 active torsions:
REMARK  status: ('A' for Active; 'I' for Inactive)
REMARK    1  A    between atoms: C2_3  and  C3_4 
REMARK    2  A    between atoms: C3_4  and  N2_5 
ROOT
HETATM    1  N1  UNL     1      17.175   6.838  51.062  1.00  0.00    -0.197 NA
HETATM    2  C1  UNL     1      17.184   7.701  51.822  1.00  0.00     0.060 C 
HETATM    3  C2  UNL     1      17.181   8.809  52.813  1.00  0.00     0.154 C 
ENDROOT
BRANCH   3   4
HETATM    4  C3  UNL     1      17.214  10.110  52.063  1.00  0.00     0.286 C 
BRANCH   4   5
HETATM    5  N2  UNL     1      17.597  11.210  52.879  1.00  0.00     0.090 N 
HETATM    6  C4  UNL     1      19.046  11.353  52.998  1.00  0.00     0.279 C 
HETATM    7  C5  UNL     1      19.132  12.466  54.000  1.00  0.00     0.047 C 
HETATM    8  C6  UNL     1      20.415  12.486  54.791  1.00  0.00     0.239 C 
HETATM    9  C8  UNL     1      18.075  12.038  55.006  1.00  0.00     0.047 C 
HETATM   10  N3  UNL     1      20.113  12.086  56.147  1.00  0.00    -0.074 N 
HETATM   11  C7  UNL     1      18.853  11.401  56.121  1.00  0.00     0.239 C 
ATOM     12  H32 UNL     1      20.857  11.536  56.575  1.00  0.00     0.277 HD
ATOM     13  H31 UNL     1      20.129  12.865  56.805  1.00  0.00     0.277 HD
HETATM   14  C9  UNL     1      17.224  11.022  54.259  1.00  0.00     0.279 C 
ENDBRANCH   4   5
ENDBRANCH   3   4
TORSDOF 2
ENDMDL
MODEL 4
REMARK VINA RESULT: -6.037142370      6.979      7.681
REMARK  2 active torsions:
REMARK  status: ('A' for Active; 'I' for Inactive)
REMARK    1  A    between atoms: C2_3  and  C3_4 
REMARK    2  A    between atoms: C3_4  and  N2_5 
ROOT
HETATM    1  N1  UNL     1      17.496   6.845  51.344  1.00  0.00    -0.197 NA
HETATM    2  C1  UNL     1      17.336   7.925  51.706  1.00  0.00     0.060 C 
HETATM    3  C2  UNL     1      17.143   9.327  52.162  1.00  0.00     0.154 C 
ENDROOT
BRANCH   3   4
HETATM    4  C3  UNL     1      17.130   9.335  53.664  1.00  0.00     0.286 C 
BRANCH   4   5
HETATM    5  N2  UNL     1      17.238  10.642  54.212  1.00  0.00     0.090 N 
HETATM    6  C4  UNL     1      17.891  11.586  53.308  1.00  0.00     0.279 C 
HETATM    7  C5  UNL     1      17.987  12.793  54.193  1.00  0.00     0.047 C 
HETATM    8  C6  UNL     1      19.096  13.743  53.822  1.00  0.00     0.239 C 
HETATM    9  C8  UNL     1      18.447  12.166  55.498  1.00  0.00     0.047 C 
HETATM   10  N3  UNL     1      20.122  13.653  54.837  1.00  0.00    -0.074 N 
HETATM   11  C7  UNL     1      19.927  12.415  55.535  1.00  0.00     0.239 C 
ATOM     12  H32 UNL     1      21.065  13.755  54.461  1.00  0.00     0.277 HD
ATOM     13  H31 UNL     1      20.139  14.462  55.458  1.00  0.00     0.277 HD
HETATM   14  C9  UNL     1      18.128  10.686  55.346  1.00  0.00     0.279 C 
ENDBRANCH   4   5
ENDBRANCH   3   4
TORSDOF 2
ENDMDL
MODEL 5
REMARK VINA RESULT: -5.906071162      7.109      7.896
REMARK  2 active torsions:
REMARK  status: ('A' for Active; 'I' for Inactive)
REMARK    1  A    between atoms: C2_3  and  C3_4 
REMARK    2  A    between atoms: C3_4  and  N2_5 
ROOT
HETATM    1  N1  UNL     1      16.455   7.371  51.770  1.00  0.00    -0.197 NA
HETATM    2  C1  UNL     1      16.747   8.200  52.511  1.00  0.00     0.060 C 
HETATM    3  C2  UNL     1      17.106   9.272  53.477  1.00  0.00     0.154 C 
ENDROOT
BRANCH   3   4
HETATM    4  C3  UNL     1      17.829  10.355  52.728  1.00  0.00     0.286 C 
BRANCH   4   5
HETATM    5  N2  UNL     1      17.988  11.545  53.491  1.00  0.00     0.090 N 
HETATM    6  C4  UNL     1      19.315  12.140  53.346  1.00  0.00     0.279 C 
HETATM    7  C5  UNL     1      19.227  13.254  54.347  1.00  0.00     0.047 C 
HETATM    8  C6  UNL     1      20.559  13.702  54.888  1.00  0.00     0.239 C 
HETATM    9  C8  UNL     1      18.562  12.547  55.516  1.00  0.00     0.047 C 
HETATM   10  N3  UNL     1      20.653  13.270  56.265  1.00  0.00    -0.074 N 
HETATM   11  C7  UNL     1      19.691  12.222  56.451  1.00  0.00     0.239 C 
ATOM     12  H32 UNL     1      21.597  12.996  56.533  1.00  0.00     0.277 HD
ATOM     13  H31 UNL     1      20.542  14.035  56.931  1.00  0.00     0.277 HD
HETATM   14  C9  UNL     1      17.953  11.292  54.910  1.00  0.00     0.279 C 
ENDBRANCH   4   5
ENDBRANCH   3   4
TORSDOF 2
ENDMDL
