MODEL 1
REMARK VINA RESULT: -5.869947627      0.000      0.000
REMARK  3 active torsions:
REMARK  status: ('A' for Active; 'I' for Inactive)
REMARK    1  A    between atoms: C1_2  and  C2_3 
REMARK    2  A    between atoms: C5_6  and  C6_7 
REMARK    3  A    between atoms: C6_7  and  O2_8 
ROOT
HETATM    1  C2  UNL     1      19.456  12.091  55.752  1.00  0.00     0.119 A 
HETATM    2  C3  UNL     1      18.622  10.799  55.771  1.00  0.00     0.054 A 
HETATM    3  C4  UNL     1      18.051  12.063  55.303  1.00  0.00     0.041 A 
HETATM    4  C5  UNL     1      17.928  12.435  53.864  1.00  0.00    -0.007 C 
HETATM    5  C7  UNL     1      18.889  11.704  52.970  1.00  0.00     0.044 C 
HETATM    6  C8  UNL     1      19.964  12.633  53.551  1.00  0.00     0.124 C 
HETATM    7  C9  UNL     1      18.830  13.661  53.666  1.00  0.00     0.044 C 
HETATM    8  O3  UNL     1      20.403  12.208  54.768  1.00  0.00    -0.367 OA
ENDROOT
BRANCH   4   9
HETATM    9  C6  UNL     1      16.535  12.599  53.335  1.00  0.00     0.174 C 
BRANCH   9  10
HETATM   10  O2  UNL     1      16.391  11.722  52.263  1.00  0.00    -0.400 OA
ATOM     11  H2  UNL     1      16.197  12.243  51.493  1.00  0.00     0.209 HD
ENDBRANCH   9  10
ENDBRANCH   4   9
BRANCH   1  12
HETATM   12  C1  UNL     1      19.821  12.548  57.117  1.00  0.00     0.269 C 
HETATM   13  O1  UNL     1      20.994  12.770  57.356  1.00  0.00    -0.304 OA
ENDBRANCH   1  12
TORSDOF 3
ENDMDL
MODEL 2
REMARK VINA RESULT: -5.807860068      1.813      3.939
REMARK  3 active torsions:
REMARK  status: ('A' for Active; 'I' for Inactive)
REMARK    1  A    between atoms: C1_2  and  C2_3 
REMARK    2  A    between atoms: C5_6  and  C6_7 
REMARK    3  A    between atoms: C6_7  and  O2_8 
ROOT
HETATM    1  C2  UNL     1      17.637  10.482  53.564  1.00  0.00     0.119 A 
HETATM    2  C3  UNL     1      16.458  11.315  54.094  1.00  0.00     0.054 A 
HETATM    3  C4  UNL     1      17.610  11.008  54.943  1.00  0.00     0.041 A 
HETATM    4  C5  UNL     1      18.734  11.958  55.189  1.00  0.00    -0.007 C 
HETATM    5  C7  UNL     1      18.883  13.002  54.119  1.00  0.00     0.044 C 
HETATM    6  C8  UNL     1      19.470  11.877  53.257  1.00  0.00     0.124 C 
HETATM    7  C9  UNL     1      19.982  11.301  54.584  1.00  0.00     0.044 C 
HETATM    8  O3  UNL     1      18.499  11.103  52.697  1.00  0.00    -0.367 OA
ENDROOT
BRANCH   4   9
HETATM    9  C6  UNL     1      18.907  12.433  56.600  1.00  0.00     0.174 C 
BRANCH   9  10
HETATM   10  O2  UNL     1      20.031  11.797  57.119  1.00  0.00    -0.400 OA
ATOM     11  H2  UNL     1      19.986  11.868  58.065  1.00  0.00     0.209 HD
ENDBRANCH   9  10
ENDBRANCH   4   9
BRANCH   1  12
HETATM   12  C1  UNL     1      17.251   9.080  53.265  1.00  0.00     0.269 C 
HETATM   13  O1  UNL     1      17.510   8.633  52.162  1.00  0.00    -0.304 OA
ENDBRANCH   1  12
TORSDOF 3
ENDMDL
MODEL 3
REMARK VINA RESULT: -5.799102953      1.516      2.509
REMARK  3 active torsions:
REMARK  status: ('A' for Active; 'I' for Inactive)
REMARK    1  A    between atoms: C1_2  and  C2_3 
REMARK    2  A    between atoms: C5_6  and  C6_7 
REMARK    3  A    between atoms: C6_7  and  O2_8 
ROOT
HETATM    1  C2  UNL     1      20.554  12.744  54.834  1.00  0.00     0.119 A 
HETATM    2  C3  UNL     1      20.270  13.533  53.545  1.00  0.00     0.054 A 
HETATM    3  C4  UNL     1      19.932  12.113  53.655  1.00  0.00     0.041 A 
HETATM    4  C5  UNL     1      18.561  11.609  53.962  1.00  0.00    -0.007 C 
HETATM    5  C7  UNL     1      17.697  12.613  54.670  1.00  0.00     0.044 C 
HETATM    6  C8  UNL     1      18.544  12.303  55.912  1.00  0.00     0.124 C 
HETATM    7  C9  UNL     1      18.669  10.894  55.317  1.00  0.00     0.044 C 
HETATM    8  O3  UNL     1      19.727  12.976  55.903  1.00  0.00    -0.367 OA
ENDROOT
BRANCH   4   9
HETATM    9  C6  UNL     1      17.891  10.805  52.890  1.00  0.00     0.174 C 
BRANCH   9  10
HETATM   10  O2  UNL     1      18.863  10.473  51.950  1.00  0.00    -0.400 OA
ATOM     11  H2  UNL     1      18.431  10.403  51.107  1.00  0.00     0.209 HD
ENDBRANCH   9  10
ENDBRANCH   4   9
BRANCH   1  12
HETATM   12  C1  UNL     1      22.008  12.608  55.105  1.00  0.00     0.269 C 
HETATM   13  O1  UNL     1      22.380  12.591  56.265  1.00  0.00    -0.304 OA
ENDBRANCH   1  12
TORSDOF 3
ENDMDL
MODEL 4
REMARK VINA RESULT: -5.779214596      1.737      4.171
REMARK  3 active torsions:
REMARK  status: ('A' for Active; 'I' for Inactive)
REMARK    1  A    between atoms: C1_2  and  C2_3 
REMARK    2  A    between atoms: C5_6  and  C6_7 
REMARK    3  A    between atoms: C6_7  and  O2_8 
ROOT
HETATM    1  C2  UNL     1      17.206  10.401  53.319  1.00  0.00     0.119 A 
HETATM    2  C3  UNL     1      16.842  10.007  54.760  1.00  0.00     0.054 A 
HETATM    3  C4  UNL     1      18.178  10.501  54.424  1.00  0.00     0.041 A 
HETATM    4  C5  UNL     1      18.619  11.910  54.640  1.00  0.00    -0.007 C 
HETATM    5  C7  UNL     1      17.483  12.891  54.708  1.00  0.00     0.044 C 
HETATM    6  C8  UNL     1      17.383  12.714  53.187  1.00  0.00     0.124 C 
HETATM    7  C9  UNL     1      18.900  12.483  53.244  1.00  0.00     0.044 C 
HETATM    8  O3  UNL     1      16.700  11.585  52.849  1.00  0.00    -0.367 OA
ENDROOT
BRANCH   4   9
HETATM    9  C6  UNL     1      19.726  12.118  55.628  1.00  0.00     0.174 C 
BRANCH   9  10
HETATM   10  O2  UNL     1      19.441  11.334  56.744  1.00  0.00    -0.400 OA
ATOM     11  H2  UNL     1      20.199  10.785  56.906  1.00  0.00     0.209 HD
ENDBRANCH   9  10
ENDBRANCH   4   9
BRANCH   1  12
HETATM   12  C1  UNL     1      17.204   9.237  52.397  1.00  0.00     0.269 C 
HETATM   13  O1  UNL     1      16.507   9.292  51.399  1.00  0.00    -0.304 OA
ENDBRANCH   1  12
TORSDOF 3
ENDMDL
MODEL 5
REMARK VINA RESULT: -5.766832309      2.356      3.151
REMARK  3 active torsions:
REMARK  status: ('A' for Active; 'I' for Inactive)
REMARK    1  A    between atoms: C1_2  and  C2_3 
REMARK    2  A    between atoms: C5_6  and  C6_7 
REMARK    3  A    between atoms: C6_7  and  O2_8 
ROOT
HETATM    1  C2  UNL     1      21.510  14.099  55.052  1.00  0.00     0.119 A 
HETATM    2  C3  UNL     1      22.068  12.846  55.750  1.00  0.00     0.054 A 
HETATM    3  C4  UNL     1      20.670  13.246  55.914  1.00  0.00     0.041 A 
HETATM    4  C5  UNL     1      19.539  12.642  55.151  1.00  0.00    -0.007 C 
HETATM    5  C7  UNL     1      19.960  12.007  53.856  1.00  0.00     0.044 C 
HETATM    6  C8  UNL     1      20.101  13.440  53.327  1.00  0.00     0.124 C 
HETATM    7  C9  UNL     1      18.956  13.773  54.293  1.00  0.00     0.044 C 
HETATM    8  O3  UNL     1      21.279  14.010  53.704  1.00  0.00    -0.367 OA
ENDROOT
BRANCH   4   9
HETATM    9  C6  UNL     1      18.523  11.886  55.953  1.00  0.00     0.174 C 
BRANCH   9  10
HETATM   10  O2  UNL     1      19.148  10.744  56.447  1.00  0.00    -0.400 OA
ATOM     11  H2  UNL     1      18.584  10.380  57.119  1.00  0.00     0.209 HD
ENDBRANCH   9  10
ENDBRANCH   4   9
BRANCH   1  12
HETATM   12  C1  UNL     1      22.122  15.351  55.566  1.00  0.00     0.269 C 
HETATM   13  O1  UNL     1      22.064  16.348  54.869  1.00  0.00    -0.304 OA
ENDBRANCH   1  12
TORSDOF 3
ENDMDL
