MODEL 1
REMARK VINA RESULT: -6.475489724      0.000      0.000
REMARK  4 active torsions:
REMARK  status: ('A' for Active; 'I' for Inactive)
REMARK    1  A    between atoms: N1_1  and  N2_4 
REMARK    2  A    between atoms: N3_6  and  C1_8 
REMARK    3  A    between atoms: C1_8  and  C2_9 
REMARK    4  A    between atoms: C2_9  and  O1_10 
ROOT
HETATM    1  C2  UNL     1      18.810  11.336  54.190  1.00  0.00     0.087 C 
HETATM    2  C3  UNL     1      18.211  12.029  55.356  1.00  0.00     0.068 C 
HETATM    3  C4  UNL     1      19.145  12.299  56.490  1.00  0.00     0.188 C 
HETATM    4  O2  UNL     1      20.260  13.010  56.181  1.00  0.00    -0.320 OA
HETATM    5  S1  UNL     1      21.099  12.498  54.806  1.00  0.00    -0.009 SA
HETATM    6  C5  UNL     1      19.831  12.254  53.502  1.00  0.00     0.144 C 
ENDROOT
BRANCH   1   7
HETATM    7  C1  UNL     1      17.727  11.094  53.164  1.00  0.00     0.179 C 
BRANCH   7   8
HETATM    8  N3  UNL     1      18.345  10.312  52.114  1.00  0.00    -0.320 N 
HETATM    9  N2  UNL     1      17.977   9.152  51.955  1.00  0.00    -0.254 N 
ATOM     10  H2  UNL     1      16.963   9.237  52.012  1.00  0.00     0.207 HD
ATOM     11  H3  UNL     1      19.069  10.717  51.521  1.00  0.00     0.181 HD
BRANCH   9  12
HETATM   12  N1  UNL     1      18.130   7.930  51.762  1.00  0.00    -0.331 N 
ATOM     13  H12 UNL     1      17.349   7.758  51.129  1.00  0.00     0.178 HD
ATOM     14  H11 UNL     1      18.581   7.022  51.875  1.00  0.00     0.178 HD
ENDBRANCH   9  12
ENDBRANCH   7   8
ENDBRANCH   1   7
BRANCH   1  15
HETATM   15  O1  UNL     1      19.426  10.157  54.542  1.00  0.00    -0.387 OA
ATOM     16  H1  UNL     1      19.802  10.218  55.412  1.00  0.00     0.210 HD
ENDBRANCH   1  15
TORSDOF 4
ENDMDL
MODEL 2
REMARK VINA RESULT: -6.246588181      0.959      1.089
REMARK  4 active torsions:
REMARK  status: ('A' for Active; 'I' for Inactive)
REMARK    1  A    between atoms: N1_1  and  N2_4 
REMARK    2  A    between atoms: N3_6  and  C1_8 
REMARK    3  A    between atoms: C1_8  and  C2_9 
REMARK    4  A    between atoms: C2_9  and  O1_10 
ROOT
HETATM    1  C2  UNL     1      19.505  11.993  54.602  1.00  0.00     0.087 C 
HETATM    2  C3  UNL     1      18.761  12.383  55.822  1.00  0.00     0.068 C 
HETATM    3  C4  UNL     1      19.529  12.288  57.100  1.00  0.00     0.188 C 
HETATM    4  O2  UNL     1      20.691  12.990  57.145  1.00  0.00    -0.320 OA
HETATM    5  S1  UNL     1      21.706  12.816  55.805  1.00  0.00    -0.009 SA
HETATM    6  C5  UNL     1      20.632  13.001  54.329  1.00  0.00     0.144 C 
ENDROOT
BRANCH   1   7
HETATM    7  C1  UNL     1      18.574  12.095  53.415  1.00  0.00     0.179 C 
BRANCH   7   8
HETATM    8  N3  UNL     1      19.031  11.101  52.468  1.00  0.00    -0.320 N 
HETATM    9  N2  UNL     1      18.246  10.227  52.112  1.00  0.00    -0.254 N 
ATOM     10  H2  UNL     1      17.394  10.760  51.938  1.00  0.00     0.207 HD
ATOM     11  H3  UNL     1      19.984  11.126  52.105  1.00  0.00     0.181 HD
BRANCH   9  12
HETATM   12  N1  UNL     1      17.890   9.063  51.840  1.00  0.00    -0.331 N 
ATOM     13  H12 UNL     1      18.581   8.836  51.125  1.00  0.00     0.178 HD
ATOM     14  H11 UNL     1      17.314   8.226  51.924  1.00  0.00     0.178 HD
ENDBRANCH   9  12
ENDBRANCH   7   8
ENDBRANCH   1   7
BRANCH   1  15
HETATM   15  O1  UNL     1      20.041  10.730  54.698  1.00  0.00    -0.387 OA
ATOM     16  H1  UNL     1      20.873  10.679  54.242  1.00  0.00     0.210 HD
ENDBRANCH   1  15
TORSDOF 4
ENDMDL
MODEL 3
REMARK VINA RESULT: -6.161112008      1.755      1.990
REMARK  4 active torsions:
REMARK  status: ('A' for Active; 'I' for Inactive)
REMARK    1  A    between atoms: N1_1  and  N2_4 
REMARK    2  A    between atoms: N3_6  and  C1_8 
REMARK    3  A    between atoms: C1_8  and  C2_9 
REMARK    4  A    between atoms: C2_9  and  O1_10 
ROOT
HETATM    1  C2  UNL     1      17.998  10.745  53.554  1.00  0.00     0.087 C 
HETATM    2  C3  UNL     1      18.929  10.754  54.707  1.00  0.00     0.068 C 
HETATM    3  C4  UNL     1      19.959  11.837  54.692  1.00  0.00     0.188 C 
HETATM    4  O2  UNL     1      19.482  13.105  54.601  1.00  0.00    -0.320 OA
HETATM    5  S1  UNL     1      18.303  13.364  53.419  1.00  0.00    -0.009 SA
HETATM    6  C5  UNL     1      17.099  11.990  53.596  1.00  0.00     0.144 C 
ENDROOT
BRANCH   1   7
HETATM    7  C1  UNL     1      17.063   9.566  53.698  1.00  0.00     0.179 C 
BRANCH   7   8
HETATM    8  N3  UNL     1      16.939   8.997  52.374  1.00  0.00    -0.320 N 
HETATM    9  N2  UNL     1      17.683   8.072  52.062  1.00  0.00    -0.254 N 
ATOM     10  H2  UNL     1      17.649   7.478  52.889  1.00  0.00     0.207 HD
ATOM     11  H3  UNL     1      16.247   9.356  51.715  1.00  0.00     0.181 HD
BRANCH   9  12
HETATM   12  N1  UNL     1      18.457   7.441  51.315  1.00  0.00    -0.331 N 
ATOM     13  H12 UNL     1      19.010   6.950  52.018  1.00  0.00     0.178 HD
ATOM     14  H11 UNL     1      18.845   7.142  50.421  1.00  0.00     0.178 HD
ENDBRANCH   9  12
ENDBRANCH   7   8
ENDBRANCH   1   7
BRANCH   1  15
HETATM   15  O1  UNL     1      18.659  10.704  52.349  1.00  0.00    -0.387 OA
ATOM     16  H1  UNL     1      18.182  11.187  51.684  1.00  0.00     0.210 HD
ENDBRANCH   1  15
TORSDOF 4
ENDMDL
MODEL 4
REMARK VINA RESULT: -5.734873889      1.485      2.035
REMARK  4 active torsions:
REMARK  status: ('A' for Active; 'I' for Inactive)
REMARK    1  A    between atoms: N1_1  and  N2_4 
REMARK    2  A    between atoms: N3_6  and  C1_8 
REMARK    3  A    between atoms: C1_8  and  C2_9 
REMARK    4  A    between atoms: C2_9  and  O1_10 
ROOT
HETATM    1  C2  UNL     1      17.875  11.204  53.906  1.00  0.00     0.087 C 
HETATM    2  C3  UNL     1      19.102  11.503  53.130  1.00  0.00     0.068 C 
HETATM    3  C4  UNL     1      19.864  12.709  53.575  1.00  0.00     0.188 C 
HETATM    4  O2  UNL     1      20.247  12.719  54.878  1.00  0.00    -0.320 OA
HETATM    5  S1  UNL     1      19.053  12.301  55.998  1.00  0.00    -0.009 SA
HETATM    6  C5  UNL     1      18.246  10.791  55.338  1.00  0.00     0.144 C 
ENDROOT
BRANCH   1   7
HETATM    7  C1  UNL     1      17.202   9.995  53.297  1.00  0.00     0.179 C 
BRANCH   7   8
HETATM    8  N3  UNL     1      18.059   9.571  52.211  1.00  0.00    -0.320 N 
HETATM    9  N2  UNL     1      17.917   8.438  51.761  1.00  0.00    -0.254 N 
ATOM     10  H2  UNL     1      16.903   8.361  51.684  1.00  0.00     0.207 HD
ATOM     11  H3  UNL     1      18.766  10.200  51.828  1.00  0.00     0.181 HD
BRANCH   9  12
HETATM   12  N1  UNL     1      18.298   7.327  51.343  1.00  0.00    -0.331 N 
ATOM     13  H12 UNL     1      17.440   7.010  50.892  1.00  0.00     0.178 HD
ATOM     14  H11 UNL     1      18.965   6.569  51.198  1.00  0.00     0.178 HD
ENDBRANCH   9  12
ENDBRANCH   7   8
ENDBRANCH   1   7
BRANCH   1  15
HETATM   15  O1  UNL     1      17.012  12.275  53.953  1.00  0.00    -0.387 OA
ATOM     16  H1  UNL     1      16.155  12.034  53.622  1.00  0.00     0.210 HD
ENDBRANCH   1  15
TORSDOF 4
ENDMDL
MODEL 5
REMARK VINA RESULT: -5.733893233      1.846      2.124
REMARK  4 active torsions:
REMARK  status: ('A' for Active; 'I' for Inactive)
REMARK    1  A    between atoms: N1_1  and  N2_4 
REMARK    2  A    between atoms: N3_6  and  C1_8 
REMARK    3  A    between atoms: C1_8  and  C2_9 
REMARK    4  A    between atoms: C2_9  and  O1_10 
ROOT
HETATM    1  C2  UNL     1      18.834  11.306  54.340  1.00  0.00     0.087 C 
HETATM    2  C3  UNL     1      18.287  11.969  55.548  1.00  0.00     0.068 C 
HETATM    3  C4  UNL     1      19.291  12.312  56.600  1.00  0.00     0.188 C 
HETATM    4  O2  UNL     1      20.328  13.091  56.197  1.00  0.00    -0.320 OA
HETATM    5  S1  UNL     1      21.083  12.622  54.760  1.00  0.00    -0.009 SA
HETATM    6  C5  UNL     1      19.732  12.282  53.566  1.00  0.00     0.144 C 
ENDROOT
BRANCH   1   7
HETATM    7  C1  UNL     1      17.689  10.983  53.407  1.00  0.00     0.179 C 
BRANCH   7   8
HETATM    8  N3  UNL     1      17.245  12.252  52.872  1.00  0.00    -0.320 N 
HETATM    9  N2  UNL     1      16.132  12.313  52.358  1.00  0.00    -0.254 N 
ATOM     10  H2  UNL     1      15.557  11.800  53.026  1.00  0.00     0.207 HD
ATOM     11  H3  UNL     1      17.844  13.076  52.920  1.00  0.00     0.181 HD
BRANCH   9  12
HETATM   12  N1  UNL     1      15.299  12.642  51.491  1.00  0.00    -0.331 N 
ATOM     13  H12 UNL     1      15.648  13.573  51.263  1.00  0.00     0.178 HD
ATOM     14  H11 UNL     1      14.484  12.514  50.890  1.00  0.00     0.178 HD
ENDBRANCH   9  12
ENDBRANCH   7   8
ENDBRANCH   1   7
BRANCH   1  15
HETATM   15  O1  UNL     1      19.553  10.174  54.645  1.00  0.00    -0.387 OA
ATOM     16  H1  UNL     1      20.462  10.387  54.822  1.00  0.00     0.210 HD
ENDBRANCH   1  15
TORSDOF 4
ENDMDL
