MODEL 1
REMARK VINA RESULT: -7.546961090      0.000      0.000
REMARK  12 active torsions:
REMARK  status: ('A' for Active; 'I' for Inactive)
REMARK    1  A    between atoms: C2_2  and  N1_3 
REMARK       I    between atoms: N1_3  and  C3_5 
REMARK    2  A    between atoms: C3_5  and  C4_7 
REMARK    3  A    between atoms: C4_7  and  C5_8 
REMARK    4  A    between atoms: C7_10  and  O2_11 
REMARK    5  A    between atoms: O2_11  and  C8_12 
REMARK    6  A    between atoms: C15_20  and  C16_21 
REMARK    7  A    between atoms: C16_21  and  C17_22 
REMARK    8  A    between atoms: C17_22  and  C18_23 
REMARK    9  A    between atoms: C18_23  and  C20_25 
REMARK   10  A    between atoms: C20_25  and  O4_27 
REMARK   11  A    between atoms: C24_31  and  O5_32 
REMARK   12  A    between atoms: C33_43  and  O7_44 
ROOT
HETATM    1  C8  UNL     1     -10.527 -14.230  -7.790  1.00  0.00     0.150 C 
HETATM    2  C9  UNL     1      -9.315 -13.636  -8.542  1.00  0.00     0.040 C 
HETATM    3  C10 UNL     1      -8.247 -14.654  -8.584  1.00  0.00     0.046 C 
HETATM    4  C11 UNL     1      -7.171 -14.537  -9.585  1.00  0.00     0.103 C 
HETATM    5  C12 UNL     1      -7.465 -13.885 -10.887  1.00  0.00     0.052 C 
HETATM    6  F1  UNL     1      -6.251 -13.624  -8.995  1.00  0.00    -0.243 F 
HETATM    7  C13 UNL     1      -6.348 -15.789  -9.700  1.00  0.00     0.025 C 
HETATM    8  C14 UNL     1      -5.650 -15.937  -8.348  1.00  0.00     0.014 C 
HETATM    9  C15 UNL     1      -6.944 -17.073 -10.040  1.00  0.00    -0.002 C 
HETATM   10  C22 UNL     1      -8.086 -17.251 -10.943  1.00  0.00     0.015 C 
HETATM   11  C23 UNL     1      -7.802 -18.001 -12.247  1.00  0.00     0.013 C 
HETATM   12  C24 UNL     1      -9.223 -18.118 -10.336  1.00  0.00     0.129 C 
HETATM   13  C25 UNL     1     -10.562 -17.774 -10.923  1.00  0.00     0.111 C 
HETATM   14  C26 UNL     1     -11.350 -16.790 -10.135  1.00  0.00     0.136 C 
HETATM   15  O6  UNL     1     -11.899 -17.173  -9.123  1.00  0.00    -0.297 OA
HETATM   16  C27 UNL     1     -11.460 -15.377 -10.586  1.00  0.00     0.074 C 
HETATM   17  C28 UNL     1     -12.138 -15.353 -11.978  1.00  0.00     0.022 C 
HETATM   18  C29 UNL     1     -12.165 -14.502  -9.656  1.00  0.00    -0.010 C 
HETATM   19  C30 UNL     1     -11.802 -14.011  -8.495  1.00  0.00    -0.058 C 
HETATM   20  C31 UNL     1     -12.778 -13.088  -7.766  1.00  0.00     0.046 C 
ENDROOT
BRANCH   1  21
HETATM   21  O2  UNL     1     -10.543 -13.723  -6.473  1.00  0.00    -0.376 OA
BRANCH  21  22
HETATM   22  C7  UNL     1      -9.914 -14.519  -5.556  1.00  0.00     0.125 C 
HETATM   23  C6  UNL     1     -10.327 -14.048  -4.147  1.00  0.00     0.039 C 
HETATM   24  C5  UNL     1     -11.654 -14.727  -3.874  1.00  0.00     0.025 C 
HETATM   25  C33 UNL     1     -11.735 -15.898  -4.834  1.00  0.00     0.125 C 
HETATM   26  C32 UNL     1     -10.400 -15.964  -5.554  1.00  0.00     0.064 C 
BRANCH  24  27
HETATM   27  C4  UNL     1     -11.692 -15.301  -2.463  1.00  0.00     0.110 C 
BRANCH  27  28
HETATM   28  C3  UNL     1     -12.817 -14.662  -1.713  1.00  0.00     0.217 C 
HETATM   29  N1  UNL     1     -12.768 -13.290  -1.367  1.00  0.00    -0.361 N 
ATOM     30  H1  UNL     1     -11.962 -12.721  -1.624  1.00  0.00     0.162 HD
HETATM   31  O1  UNL     1     -13.823 -15.343  -1.382  1.00  0.00    -0.274 OA
BRANCH  29  32
HETATM   32  C2  UNL     1     -13.875 -12.708  -0.645  1.00  0.00     0.118 C 
HETATM   33  C1  UNL     1     -13.798 -11.185  -0.664  1.00  0.00     0.026 C 
ENDBRANCH  29  32
ENDBRANCH  27  28
ENDBRANCH  24  27
BRANCH  25  34
HETATM   34  O7  UNL     1     -12.751 -15.627  -5.751  1.00  0.00    -0.395 OA
ATOM     35  H7  UNL     1     -13.210 -16.441  -5.923  1.00  0.00     0.210 HD
ENDBRANCH  25  34
ENDBRANCH  21  22
ENDBRANCH   1  21
BRANCH   9  36
HETATM   36  C16 UNL     1      -5.815 -18.075 -10.210  1.00  0.00     0.006 C 
BRANCH  36  37
HETATM   37  C17 UNL     1      -5.910 -19.317  -9.422  1.00  0.00     0.014 C 
BRANCH  37  38
HETATM   38  C18 UNL     1      -6.161 -19.111  -7.938  1.00  0.00     0.081 C 
HETATM   39  C19 UNL     1      -5.024 -19.817  -7.167  1.00  0.00     0.020 C 
BRANCH  38  40
HETATM   40  C20 UNL     1      -7.399 -19.686  -7.429  1.00  0.00     0.262 C 
HETATM   41  O3  UNL     1      -8.034 -20.620  -8.041  1.00  0.00    -0.265 OA
BRANCH  40  42
HETATM   42  O4  UNL     1      -7.978 -19.271  -6.255  1.00  0.00    -0.326 OA
HETATM   43  C21 UNL     1      -7.706 -17.981  -5.694  1.00  0.00     0.213 C 
ENDBRANCH  40  42
ENDBRANCH  38  40
ENDBRANCH  37  38
ENDBRANCH  36  37
ENDBRANCH   9  36
BRANCH  12  44
HETATM   44  O5  UNL     1      -8.900 -19.472 -10.548  1.00  0.00    -0.395 OA
ATOM     45  H5  UNL     1      -8.804 -19.887  -9.699  1.00  0.00     0.210 HD
ENDBRANCH  12  44
TORSDOF 12
ENDMDL
MODEL 2
REMARK VINA RESULT: -7.460804838      3.011      4.973
REMARK  12 active torsions:
REMARK  status: ('A' for Active; 'I' for Inactive)
REMARK    1  A    between atoms: C2_2  and  N1_3 
REMARK       I    between atoms: N1_3  and  C3_5 
REMARK    2  A    between atoms: C3_5  and  C4_7 
REMARK    3  A    between atoms: C4_7  and  C5_8 
REMARK    4  A    between atoms: C7_10  and  O2_11 
REMARK    5  A    between atoms: O2_11  and  C8_12 
REMARK    6  A    between atoms: C15_20  and  C16_21 
REMARK    7  A    between atoms: C16_21  and  C17_22 
REMARK    8  A    between atoms: C17_22  and  C18_23 
REMARK    9  A    between atoms: C18_23  and  C20_25 
REMARK   10  A    between atoms: C20_25  and  O4_27 
REMARK   11  A    between atoms: C24_31  and  O5_32 
REMARK   12  A    between atoms: C33_43  and  O7_44 
ROOT
HETATM    1  C8  UNL     1     -10.057 -13.694  -6.977  1.00  0.00     0.150 C 
HETATM    2  C9  UNL     1      -9.102 -14.199  -8.080  1.00  0.00     0.040 C 
HETATM    3  C10 UNL     1      -9.837 -15.153  -8.935  1.00  0.00     0.046 C 
HETATM    4  C11 UNL     1      -9.333 -15.455 -10.287  1.00  0.00     0.103 C 
HETATM    5  C12 UNL     1      -8.574 -14.412 -11.024  1.00  0.00     0.052 C 
HETATM    6  F1  UNL     1      -8.337 -16.449 -10.067  1.00  0.00    -0.243 F 
HETATM    7  C13 UNL     1     -10.337 -16.190 -11.128  1.00  0.00     0.025 C 
HETATM    8  C14 UNL     1     -10.527 -17.542 -10.439  1.00  0.00     0.014 C 
HETATM    9  C15 UNL     1     -11.655 -15.640 -11.410  1.00  0.00    -0.002 C 
HETATM   10  C22 UNL     1     -11.946 -14.213 -11.581  1.00  0.00     0.015 C 
HETATM   11  C23 UNL     1     -12.408 -13.784 -12.976  1.00  0.00     0.013 C 
HETATM   12  C24 UNL     1     -13.126 -13.714 -10.704  1.00  0.00     0.129 C 
HETATM   13  C25 UNL     1     -13.006 -12.252 -10.384  1.00  0.00     0.111 C 
HETATM   14  C26 UNL     1     -12.354 -11.952  -9.082  1.00  0.00     0.136 C 
HETATM   15  O6  UNL     1     -12.998 -12.115  -8.067  1.00  0.00    -0.297 OA
HETATM   16  C27 UNL     1     -10.950 -11.464  -9.036  1.00  0.00     0.074 C 
HETATM   17  C28 UNL     1     -10.868 -10.119  -9.800  1.00  0.00     0.022 C 
HETATM   18  C29 UNL     1     -10.405 -11.325  -7.690  1.00  0.00    -0.010 C 
HETATM   19  C30 UNL     1     -10.026 -12.229  -6.819  1.00  0.00    -0.058 C 
HETATM   20  C31 UNL     1      -9.465 -11.749  -5.480  1.00  0.00     0.046 C 
ENDROOT
BRANCH   1  21
HETATM   21  O2  UNL     1      -9.772 -14.375  -5.775  1.00  0.00    -0.376 OA
BRANCH  21  22
HETATM   22  C7  UNL     1     -10.548 -15.479  -5.555  1.00  0.00     0.125 C 
HETATM   23  C6  UNL     1     -10.342 -15.928  -4.095  1.00  0.00     0.039 C 
HETATM   24  C5  UNL     1     -11.282 -15.065  -3.277  1.00  0.00     0.025 C 
HETATM   25  C33 UNL     1     -12.318 -14.531  -4.248  1.00  0.00     0.125 C 
HETATM   26  C32 UNL     1     -12.046 -15.198  -5.585  1.00  0.00     0.064 C 
BRANCH  24  27
HETATM   27  C4  UNL     1     -12.027 -15.899  -2.242  1.00  0.00     0.110 C 
BRANCH  27  28
HETATM   28  C3  UNL     1     -13.075 -15.048  -1.601  1.00  0.00     0.217 C 
HETATM   29  N1  UNL     1     -12.820 -13.688  -1.302  1.00  0.00    -0.361 N 
ATOM     30  H1  UNL     1     -11.915 -13.272  -1.520  1.00  0.00     0.162 HD
HETATM   31  O1  UNL     1     -14.201 -15.538  -1.320  1.00  0.00    -0.274 OA
BRANCH  29  32
HETATM   32  C2  UNL     1     -13.859 -12.897  -0.685  1.00  0.00     0.118 C 
HETATM   33  C1  UNL     1     -13.541 -11.409  -0.782  1.00  0.00     0.026 C 
ENDBRANCH  29  32
ENDBRANCH  27  28
ENDBRANCH  24  27
BRANCH  25  34
HETATM   34  O7  UNL     1     -12.125 -13.154  -4.362  1.00  0.00    -0.395 OA
ATOM     35  H7  UNL     1     -12.323 -12.907  -5.257  1.00  0.00     0.210 HD
ENDBRANCH  25  34
ENDBRANCH  21  22
ENDBRANCH   1  21
BRANCH   9  36
HETATM   36  C16 UNL     1     -12.342 -16.569 -12.395  1.00  0.00     0.006 C 
BRANCH  36  37
HETATM   37  C17 UNL     1     -13.796 -16.748 -12.233  1.00  0.00     0.014 C 
BRANCH  37  38
HETATM   38  C18 UNL     1     -14.209 -18.083 -11.635  1.00  0.00     0.081 C 
HETATM   39  C19 UNL     1     -15.332 -18.667 -12.521  1.00  0.00     0.020 C 
BRANCH  38  40
HETATM   40  C20 UNL     1     -14.763 -18.018 -10.288  1.00  0.00     0.262 C 
HETATM   41  O3  UNL     1     -15.464 -18.965  -9.779  1.00  0.00    -0.265 OA
BRANCH  40  42
HETATM   42  O4  UNL     1     -14.574 -16.936  -9.464  1.00  0.00    -0.326 OA
HETATM   43  C21 UNL     1     -13.531 -16.908  -8.482  1.00  0.00     0.213 C 
ENDBRANCH  40  42
ENDBRANCH  38  40
ENDBRANCH  37  38
ENDBRANCH  36  37
ENDBRANCH   9  36
BRANCH  12  44
HETATM   44  O5  UNL     1     -14.326 -13.995 -11.384  1.00  0.00    -0.395 OA
ATOM     45  H5  UNL     1     -14.931 -14.386 -10.765  1.00  0.00     0.210 HD
ENDBRANCH  12  44
TORSDOF 12
ENDMDL
MODEL 3
REMARK VINA RESULT: -7.358355230      3.913      7.330
REMARK  12 active torsions:
REMARK  status: ('A' for Active; 'I' for Inactive)
REMARK    1  A    between atoms: C2_2  and  N1_3 
REMARK       I    between atoms: N1_3  and  C3_5 
REMARK    2  A    between atoms: C3_5  and  C4_7 
REMARK    3  A    between atoms: C4_7  and  C5_8 
REMARK    4  A    between atoms: C7_10  and  O2_11 
REMARK    5  A    between atoms: O2_11  and  C8_12 
REMARK    6  A    between atoms: C15_20  and  C16_21 
REMARK    7  A    between atoms: C16_21  and  C17_22 
REMARK    8  A    between atoms: C17_22  and  C18_23 
REMARK    9  A    between atoms: C18_23  and  C20_25 
REMARK   10  A    between atoms: C20_25  and  O4_27 
REMARK   11  A    between atoms: C24_31  and  O5_32 
REMARK   12  A    between atoms: C33_43  and  O7_44 
ROOT
HETATM    1  C8  UNL     1     -13.345 -13.297 -10.784  1.00  0.00     0.150 C 
HETATM    2  C9  UNL     1     -11.937 -12.725 -10.507  1.00  0.00     0.040 C 
HETATM    3  C10 UNL     1     -11.798 -12.510  -9.053  1.00  0.00     0.046 C 
HETATM    4  C11 UNL     1     -10.453 -12.390  -8.462  1.00  0.00     0.103 C 
HETATM    5  C12 UNL     1      -9.319 -13.107  -9.098  1.00  0.00     0.052 C 
HETATM    6  F1  UNL     1     -10.104 -11.027  -8.678  1.00  0.00    -0.243 F 
HETATM    7  C13 UNL     1     -10.470 -12.481  -6.962  1.00  0.00     0.025 C 
HETATM    8  C14 UNL     1     -11.247 -11.250  -6.493  1.00  0.00     0.014 C 
HETATM    9  C15 UNL     1     -11.007 -13.642  -6.267  1.00  0.00    -0.002 C 
HETATM   10  C22 UNL     1     -10.925 -15.022  -6.759  1.00  0.00     0.015 C 
HETATM   11  C23 UNL     1     -10.073 -15.983  -5.926  1.00  0.00     0.013 C 
HETATM   12  C24 UNL     1     -12.293 -15.756  -6.766  1.00  0.00     0.129 C 
HETATM   13  C25 UNL     1     -12.344 -16.836  -7.808  1.00  0.00     0.111 C 
HETATM   14  C26 UNL     1     -12.942 -16.420  -9.104  1.00  0.00     0.136 C 
HETATM   15  O6  UNL     1     -14.148 -16.309  -9.170  1.00  0.00    -0.297 OA
HETATM   16  C27 UNL     1     -12.076 -16.152 -10.283  1.00  0.00     0.074 C 
HETATM   17  C28 UNL     1     -11.308 -17.449 -10.639  1.00  0.00     0.022 C 
HETATM   18  C29 UNL     1     -12.789 -15.641 -11.449  1.00  0.00    -0.010 C 
HETATM   19  C30 UNL     1     -13.322 -14.465 -11.683  1.00  0.00    -0.058 C 
HETATM   20  C31 UNL     1     -13.989 -14.233 -13.039  1.00  0.00     0.046 C 
ENDROOT
BRANCH   1  21
HETATM   21  O2  UNL     1     -14.175 -12.262 -11.264  1.00  0.00    -0.376 OA
BRANCH  21  22
HETATM   22  C7  UNL     1     -15.490 -12.385 -10.909  1.00  0.00     0.125 C 
HETATM   23  C6  UNL     1     -15.589 -12.249  -9.377  1.00  0.00     0.039 C 
HETATM   24  C5  UNL     1     -15.625 -10.758  -9.111  1.00  0.00     0.025 C 
HETATM   25  C33 UNL     1     -16.039 -10.106 -10.416  1.00  0.00     0.125 C 
HETATM   26  C32 UNL     1     -16.369 -11.232 -11.380  1.00  0.00     0.064 C 
BRANCH  24  27
HETATM   27  C4  UNL     1     -16.692 -10.413  -8.080  1.00  0.00     0.110 C 
BRANCH  27  28
HETATM   28  C3  UNL     1     -16.588  -8.960  -7.746  1.00  0.00     0.217 C 
HETATM   29  N1  UNL     1     -17.722  -8.117  -7.818  1.00  0.00    -0.361 N 
ATOM     30  H1  UNL     1     -18.627  -8.492  -8.101  1.00  0.00     0.162 HD
HETATM   31  O1  UNL     1     -15.481  -8.471  -7.395  1.00  0.00    -0.274 OA
BRANCH  29  32
HETATM   32  C2  UNL     1     -17.582  -6.719  -7.485  1.00  0.00     0.118 C 
HETATM   33  C1  UNL     1     -18.674  -6.276  -6.516  1.00  0.00     0.026 C 
ENDBRANCH  29  32
ENDBRANCH  27  28
ENDBRANCH  24  27
BRANCH  25  34
HETATM   34  O7  UNL     1     -14.947  -9.382 -10.896  1.00  0.00    -0.395 OA
ATOM     35  H7  UNL     1     -15.128  -8.460 -10.755  1.00  0.00     0.210 HD
ENDBRANCH  25  34
ENDBRANCH  21  22
ENDBRANCH   1  21
BRANCH   9  36
HETATM   36  C16 UNL     1     -10.734 -13.460  -4.785  1.00  0.00     0.006 C 
BRANCH  36  37
HETATM   37  C17 UNL     1     -11.892 -13.133  -3.934  1.00  0.00     0.014 C 
BRANCH  37  38
HETATM   38  C18 UNL     1     -11.760 -13.574  -2.485  1.00  0.00     0.081 C 
HETATM   39  C19 UNL     1     -11.780 -15.118  -2.460  1.00  0.00     0.020 C 
BRANCH  38  40
HETATM   40  C20 UNL     1     -12.841 -13.151  -1.604  1.00  0.00     0.262 C 
HETATM   41  O3  UNL     1     -13.894 -13.858  -1.407  1.00  0.00    -0.265 OA
BRANCH  40  42
HETATM   42  O4  UNL     1     -12.812 -11.962  -0.918  1.00  0.00    -0.326 OA
HETATM   43  C21 UNL     1     -14.010 -11.235  -0.614  1.00  0.00     0.213 C 
ENDBRANCH  40  42
ENDBRANCH  38  40
ENDBRANCH  37  38
ENDBRANCH  36  37
ENDBRANCH   9  36
BRANCH  12  44
HETATM   44  O5  UNL     1     -12.517 -16.276  -5.476  1.00  0.00    -0.395 OA
ATOM     45  H5  UNL     1     -13.219 -16.912  -5.533  1.00  0.00     0.210 HD
ENDBRANCH  12  44
TORSDOF 12
ENDMDL
MODEL 4
REMARK VINA RESULT: -7.267373600      4.095      7.074
REMARK  12 active torsions:
REMARK  status: ('A' for Active; 'I' for Inactive)
REMARK    1  A    between atoms: C2_2  and  N1_3 
REMARK       I    between atoms: N1_3  and  C3_5 
REMARK    2  A    between atoms: C3_5  and  C4_7 
REMARK    3  A    between atoms: C4_7  and  C5_8 
REMARK    4  A    between atoms: C7_10  and  O2_11 
REMARK    5  A    between atoms: O2_11  and  C8_12 
REMARK    6  A    between atoms: C15_20  and  C16_21 
REMARK    7  A    between atoms: C16_21  and  C17_22 
REMARK    8  A    between atoms: C17_22  and  C18_23 
REMARK    9  A    between atoms: C18_23  and  C20_25 
REMARK   10  A    between atoms: C20_25  and  O4_27 
REMARK   11  A    between atoms: C24_31  and  O5_32 
REMARK   12  A    between atoms: C33_43  and  O7_44 
ROOT
HETATM    1  C8  UNL     1     -14.096 -12.813 -10.879  1.00  0.00     0.150 C 
HETATM    2  C9  UNL     1     -12.635 -12.333 -10.736  1.00  0.00     0.040 C 
HETATM    3  C10 UNL     1     -12.272 -12.362  -9.305  1.00  0.00     0.046 C 
HETATM    4  C11 UNL     1     -10.850 -12.378  -8.917  1.00  0.00     0.103 C 
HETATM    5  C12 UNL     1      -9.861 -13.011  -9.825  1.00  0.00     0.052 C 
HETATM    6  F1  UNL     1     -10.466 -11.007  -8.967  1.00  0.00    -0.243 F 
HETATM    7  C13 UNL     1     -10.650 -12.712  -7.466  1.00  0.00     0.025 C 
HETATM    8  C14 UNL     1     -11.284 -11.553  -6.695  1.00  0.00     0.014 C 
HETATM    9  C15 UNL     1     -11.138 -13.955  -6.887  1.00  0.00    -0.002 C 
HETATM   10  C22 UNL     1     -11.202 -15.238  -7.597  1.00  0.00     0.015 C 
HETATM   11  C23 UNL     1     -10.287 -16.345  -7.066  1.00  0.00     0.013 C 
HETATM   12  C24 UNL     1     -12.592 -15.923  -7.508  1.00  0.00     0.129 C 
HETATM   13  C25 UNL     1     -12.852 -16.817  -8.687  1.00  0.00     0.111 C 
HETATM   14  C26 UNL     1     -13.612 -16.178  -9.793  1.00  0.00     0.136 C 
HETATM   15  O6  UNL     1     -14.807 -16.026  -9.654  1.00  0.00    -0.297 OA
HETATM   16  C27 UNL     1     -12.917 -15.746 -11.035  1.00  0.00     0.074 C 
HETATM   17  C28 UNL     1     -12.279 -16.987 -11.704  1.00  0.00     0.022 C 
HETATM   18  C29 UNL     1     -13.767 -15.031 -11.982  1.00  0.00    -0.010 C 
HETATM   19  C30 UNL     1     -14.266 -13.819 -11.943  1.00  0.00    -0.058 C 
HETATM   20  C31 UNL     1     -15.114 -13.351 -13.126  1.00  0.00     0.046 C 
ENDROOT
BRANCH   1  21
HETATM   21  O2  UNL     1     -14.933 -11.691 -11.056  1.00  0.00    -0.376 OA
BRANCH  21  22
HETATM   22  C7  UNL     1     -16.151 -11.795 -10.442  1.00  0.00     0.125 C 
HETATM   23  C6  UNL     1     -15.959 -11.490  -8.943  1.00  0.00     0.039 C 
HETATM   24  C5  UNL     1     -15.999  -9.979  -8.837  1.00  0.00     0.025 C 
HETATM   25  C33 UNL     1     -16.679  -9.484 -10.098  1.00  0.00     0.125 C 
HETATM   26  C32 UNL     1     -17.146 -10.716 -10.853  1.00  0.00     0.064 C 
BRANCH  24  27
HETATM   27  C4  UNL     1     -16.861  -9.537  -7.660  1.00  0.00     0.110 C 
BRANCH  27  28
HETATM   28  C3  UNL     1     -16.548  -8.111  -7.342  1.00  0.00     0.217 C 
HETATM   29  N1  UNL     1     -15.222  -7.622  -7.437  1.00  0.00    -0.361 N 
ATOM     30  H1  UNL     1     -14.463  -8.241  -7.723  1.00  0.00     0.162 HD
HETATM   31  O1  UNL     1     -17.467  -7.327  -6.985  1.00  0.00    -0.274 OA
BRANCH  29  32
HETATM   32  C2  UNL     1     -14.959  -6.238  -7.123  1.00  0.00     0.118 C 
HETATM   33  C1  UNL     1     -13.851  -5.679  -8.010  1.00  0.00     0.026 C 
ENDBRANCH  29  32
ENDBRANCH  27  28
ENDBRANCH  24  27
BRANCH  25  34
HETATM   34  O7  UNL     1     -15.727  -8.801 -10.855  1.00  0.00    -0.395 OA
ATOM     35  H7  UNL     1     -15.930  -7.874 -10.808  1.00  0.00     0.210 HD
ENDBRANCH  25  34
ENDBRANCH  21  22
ENDBRANCH   1  21
BRANCH   9  36
HETATM   36  C16 UNL     1     -10.640 -14.025  -5.455  1.00  0.00     0.006 C 
BRANCH  36  37
HETATM   37  C17 UNL     1     -11.664 -13.987  -4.395  1.00  0.00     0.014 C 
BRANCH  37  38
HETATM   38  C18 UNL     1     -11.267 -14.682  -3.103  1.00  0.00     0.081 C 
HETATM   39  C19 UNL     1     -10.906 -16.144  -3.448  1.00  0.00     0.020 C 
BRANCH  38  40
HETATM   40  C20 UNL     1     -12.313 -14.762  -2.092  1.00  0.00     0.262 C 
HETATM   41  O3  UNL     1     -12.395 -15.729  -1.251  1.00  0.00    -0.265 OA
BRANCH  40  42
HETATM   42  O4  UNL     1     -13.290 -13.805  -1.963  1.00  0.00    -0.326 OA
HETATM   43  C21 UNL     1     -13.027 -12.535  -1.354  1.00  0.00     0.213 C 
ENDBRANCH  40  42
ENDBRANCH  38  40
ENDBRANCH  37  38
ENDBRANCH  36  37
ENDBRANCH   9  36
BRANCH  12  44
HETATM   44  O5  UNL     1     -12.649 -16.640  -6.297  1.00  0.00    -0.395 OA
ATOM     45  H5  UNL     1     -12.575 -16.018  -5.583  1.00  0.00     0.210 HD
ENDBRANCH  12  44
TORSDOF 12
ENDMDL
MODEL 5
REMARK VINA RESULT: -7.261752534      4.369      7.604
REMARK  12 active torsions:
REMARK  status: ('A' for Active; 'I' for Inactive)
REMARK    1  A    between atoms: C2_2  and  N1_3 
REMARK       I    between atoms: N1_3  and  C3_5 
REMARK    2  A    between atoms: C3_5  and  C4_7 
REMARK    3  A    between atoms: C4_7  and  C5_8 
REMARK    4  A    between atoms: C7_10  and  O2_11 
REMARK    5  A    between atoms: O2_11  and  C8_12 
REMARK    6  A    between atoms: C15_20  and  C16_21 
REMARK    7  A    between atoms: C16_21  and  C17_22 
REMARK    8  A    between atoms: C17_22  and  C18_23 
REMARK    9  A    between atoms: C18_23  and  C20_25 
REMARK   10  A    between atoms: C20_25  and  O4_27 
REMARK   11  A    between atoms: C24_31  and  O5_32 
REMARK   12  A    between atoms: C33_43  and  O7_44 
ROOT
HETATM    1  C8  UNL     1     -12.983 -12.159  -9.995  1.00  0.00     0.150 C 
HETATM    2  C9  UNL     1     -11.619 -11.734  -9.409  1.00  0.00     0.040 C 
HETATM    3  C10 UNL     1     -11.573 -12.141  -7.990  1.00  0.00     0.046 C 
HETATM    4  C11 UNL     1     -10.270 -12.258  -7.310  1.00  0.00     0.103 C 
HETATM    5  C12 UNL     1      -9.072 -12.628  -8.106  1.00  0.00     0.052 C 
HETATM    6  F1  UNL     1      -9.967 -10.923  -6.918  1.00  0.00    -0.243 F 
HETATM    7  C13 UNL     1     -10.369 -12.964  -5.988  1.00  0.00     0.025 C 
HETATM    8  C14 UNL     1     -11.222 -12.051  -5.107  1.00  0.00     0.014 C 
HETATM    9  C15 UNL     1     -10.895 -14.317  -5.875  1.00  0.00    -0.002 C 
HETATM   10  C22 UNL     1     -10.727 -15.366  -6.887  1.00  0.00     0.015 C 
HETATM   11  C23 UNL     1      -9.884 -16.574  -6.469  1.00  0.00     0.013 C 
HETATM   12  C24 UNL     1     -12.060 -16.051  -7.292  1.00  0.00     0.129 C 
HETATM   13  C25 UNL     1     -12.005 -16.600  -8.689  1.00  0.00     0.111 C 
HETATM   14  C26 UNL     1     -12.545 -15.692  -9.734  1.00  0.00     0.136 C 
HETATM   15  O6  UNL     1     -13.750 -15.582  -9.832  1.00  0.00    -0.297 OA
HETATM   16  C27 UNL     1     -11.626 -14.945 -10.634  1.00  0.00     0.074 C 
HETATM   17  C28 UNL     1     -10.785 -15.965 -11.440  1.00  0.00     0.022 C 
HETATM   18  C29 UNL     1     -12.292 -14.006 -11.529  1.00  0.00    -0.010 C 
HETATM   19  C30 UNL     1     -12.860 -12.847 -11.292  1.00  0.00    -0.058 C 
HETATM   20  C31 UNL     1     -13.458 -12.083 -12.473  1.00  0.00     0.046 C 
ENDROOT
BRANCH   1  21
HETATM   21  O2  UNL     1     -13.828 -11.031 -10.059  1.00  0.00    -0.376 OA
BRANCH  21  22
HETATM   22  C7  UNL     1     -14.589 -10.833  -8.940  1.00  0.00     0.125 C 
HETATM   23  C6  UNL     1     -15.200  -9.421  -9.018  1.00  0.00     0.039 C 
HETATM   24  C5  UNL     1     -16.441  -9.570  -9.874  1.00  0.00     0.025 C 
HETATM   25  C33 UNL     1     -16.794 -11.045  -9.853  1.00  0.00     0.125 C 
HETATM   26  C32 UNL     1     -15.837 -11.708  -8.878  1.00  0.00     0.064 C 
BRANCH  24  27
HETATM   27  C4  UNL     1     -17.619  -8.819  -9.264  1.00  0.00     0.110 C 
BRANCH  27  28
HETATM   28  C3  UNL     1     -18.868  -9.218  -9.982  1.00  0.00     0.217 C 
HETATM   29  N1  UNL     1     -19.883  -9.947  -9.317  1.00  0.00    -0.361 N 
ATOM     30  H1  UNL     1     -19.772 -10.211  -8.338  1.00  0.00     0.162 HD
HETATM   31  O1  UNL     1     -19.028  -8.906 -11.191  1.00  0.00    -0.274 OA
BRANCH  29  32
HETATM   32  C2  UNL     1     -21.077 -10.312 -10.042  1.00  0.00     0.118 C 
HETATM   33  C1  UNL     1     -21.090 -11.805 -10.355  1.00  0.00     0.026 C 
ENDBRANCH  29  32
ENDBRANCH  27  28
ENDBRANCH  24  27
BRANCH  25  34
HETATM   34  O7  UNL     1     -16.584 -11.551 -11.136  1.00  0.00    -0.395 OA
ATOM     35  H7  UNL     1     -16.514 -12.496 -11.066  1.00  0.00     0.210 HD
ENDBRANCH  25  34
ENDBRANCH  21  22
ENDBRANCH   1  21
BRANCH   9  36
HETATM   36  C16 UNL     1     -10.715 -14.764  -4.435  1.00  0.00     0.006 C 
BRANCH  36  37
HETATM   37  C17 UNL     1     -11.941 -15.094  -3.686  1.00  0.00     0.014 C 
BRANCH  37  38
HETATM   38  C18 UNL     1     -11.897 -14.740  -2.209  1.00  0.00     0.081 C 
HETATM   39  C19 UNL     1     -12.221 -16.020  -1.409  1.00  0.00     0.020 C 
BRANCH  38  40
HETATM   40  C20 UNL     1     -12.872 -13.747  -1.777  1.00  0.00     0.262 C 
HETATM   41  O3  UNL     1     -14.064 -14.057  -1.411  1.00  0.00    -0.265 OA
BRANCH  40  42
HETATM   42  O4  UNL     1     -12.588 -12.405  -1.729  1.00  0.00    -0.326 OA
HETATM   43  C21 UNL     1     -13.260 -11.522  -0.822  1.00  0.00     0.213 C 
ENDBRANCH  40  42
ENDBRANCH  38  40
ENDBRANCH  37  38
ENDBRANCH  36  37
ENDBRANCH   9  36
BRANCH  12  44
HETATM   44  O5  UNL     1     -12.334 -17.063  -6.352  1.00  0.00    -0.395 OA
ATOM     45  H5  UNL     1     -13.182 -17.437  -6.562  1.00  0.00     0.210 HD
ENDBRANCH  12  44
TORSDOF 12
ENDMDL
