MODEL 1
REMARK VINA RESULT: -6.766688417      0.000      0.000
REMARK  14 active torsions:
REMARK  status: ('A' for Active; 'I' for Inactive)
REMARK    1  A    between atoms: C2_2  and  C4_4 
REMARK    2  A    between atoms: C7_7  and  C8_8 
REMARK    3  A    between atoms: C8_8  and  O1_9 
REMARK    4  A    between atoms: C10_13  and  O2_14 
REMARK    5  A    between atoms: C13_18  and  O3_19 
REMARK    6  A    between atoms: C17_25  and  C18_26 
REMARK    7  A    between atoms: C18_26  and  O6_28 
REMARK    8  A    between atoms: C20_30  and  C21_31 
REMARK    9  A    between atoms: C21_31  and  C22_32 
REMARK   10  A    between atoms: C22_32  and  C24_34 
REMARK   11  A    between atoms: C24_34  and  C25_35 
REMARK   12  A    between atoms: C25_35  and  C26_36 
REMARK   13  A    between atoms: C26_36  and  C27_37 
REMARK   14  A    between atoms: C30_40  and  O7_41 
ROOT
HETATM    1  C4  UNL     1      -7.688 -17.966  -7.103  1.00  0.00     0.048 C 
HETATM    2  C5  UNL     1      -7.818 -17.165  -5.893  1.00  0.00     0.039 C 
HETATM    3  C6  UNL     1      -9.044 -17.187  -5.083  1.00  0.00    -0.020 C 
HETATM    4  C7  UNL     1     -10.139 -16.433  -5.115  1.00  0.00    -0.043 C 
HETATM    5  C9  UNL     1     -10.436 -15.320  -6.076  1.00  0.00     0.126 C 
HETATM    6 BR1  UNL     1     -12.111 -14.529  -5.548  1.00  0.00    -0.083 Br
HETATM    7  C10 UNL     1     -10.360 -15.771  -7.506  1.00  0.00     0.106 C 
HETATM    8  C11 UNL     1      -9.216 -15.156  -8.131  1.00  0.00     0.051 C 
HETATM    9  C12 UNL     1      -8.698 -13.833  -7.525  1.00  0.00     0.016 C 
HETATM   10  C13 UNL     1      -8.027 -15.886  -8.579  1.00  0.00     0.154 C 
HETATM   11  C14 UNL     1      -7.979 -17.369  -8.458  1.00  0.00     0.159 C 
HETATM   12  O4  UNL     1      -8.924 -18.050  -9.103  1.00  0.00    -0.377 OA
HETATM   13  C15 UNL     1      -9.650 -17.797 -10.131  1.00  0.00     0.132 C 
HETATM   14  C16 UNL     1      -8.725 -17.923 -11.378  1.00  0.00     0.040 C 
HETATM   15  C17 UNL     1     -10.558 -16.711 -10.462  1.00  0.00     0.120 C 
HETATM   16  C20 UNL     1     -11.689 -16.233  -9.654  1.00  0.00     0.034 C 
HETATM   17  C30 UNL     1     -11.595 -15.528  -8.371  1.00  0.00     0.159 C 
ENDROOT
BRANCH  16  18
HETATM   18  C21 UNL     1     -12.318 -15.157 -10.627  1.00  0.00     0.016 C 
BRANCH  18  19
HETATM   19  C22 UNL     1     -13.647 -15.433 -11.113  1.00  0.00     0.004 C 
HETATM   20  C23 UNL     1     -14.110 -14.502 -12.248  1.00  0.00     0.014 C 
BRANCH  19  21
HETATM   21  C24 UNL     1     -14.673 -15.379 -10.054  1.00  0.00    -0.022 C 
BRANCH  21  22
HETATM   22  C25 UNL     1     -15.425 -16.545  -9.603  1.00  0.00    -0.003 C 
BRANCH  22  23
HETATM   23  C26 UNL     1     -15.001 -17.904  -9.857  1.00  0.00     0.002 C 
BRANCH  23  24
HETATM   24  C27 UNL     1     -15.675 -18.603 -10.805  1.00  0.00    -0.088 C 
HETATM   25  C28 UNL     1     -15.205 -18.625 -12.219  1.00  0.00     0.043 C 
HETATM   26  C29 UNL     1     -16.902 -19.369 -10.473  1.00  0.00     0.043 C 
ENDBRANCH  23  24
ENDBRANCH  22  23
ENDBRANCH  21  22
ENDBRANCH  19  21
ENDBRANCH  18  19
ENDBRANCH  16  18
BRANCH  15  27
HETATM   27  C18 UNL     1     -11.241 -17.348 -11.702  1.00  0.00     0.265 C 
HETATM   28  O5  UNL     1     -11.939 -18.406 -11.502  1.00  0.00    -0.265 OA
BRANCH  27  29
HETATM   29  O6  UNL     1     -11.161 -16.887 -12.964  1.00  0.00    -0.326 OA
HETATM   30  C19 UNL     1     -12.029 -17.275 -13.988  1.00  0.00     0.213 C 
ENDBRANCH  27  29
ENDBRANCH  15  27
BRANCH  17  31
HETATM   31  O7  UNL     1     -12.688 -15.980  -7.643  1.00  0.00    -0.392 OA
ATOM     32  H7  UNL     1     -13.296 -16.355  -8.269  1.00  0.00     0.210 HD
ENDBRANCH  17  31
BRANCH   7  33
HETATM   33  O2  UNL     1     -10.568 -17.097  -7.319  1.00  0.00    -0.385 OA
ATOM     34  H2  UNL     1     -11.037 -17.288  -8.122  1.00  0.00     0.210 HD
ENDBRANCH   7  33
BRANCH   4  35
HETATM   35  C8  UNL     1     -11.211 -16.733  -4.123  1.00  0.00     0.199 C 
BRANCH  35  36
HETATM   36  O1  UNL     1     -12.046 -17.796  -4.555  1.00  0.00    -0.397 OA
ATOM     37  H1  UNL     1     -12.202 -17.763  -5.492  1.00  0.00     0.209 HD
ENDBRANCH  35  36
ENDBRANCH   4  35
BRANCH  10  38
HETATM   38  O3  UNL     1      -6.797 -15.379  -8.161  1.00  0.00    -0.393 OA
ATOM     39  H3  UNL     1      -6.145 -16.018  -7.900  1.00  0.00     0.210 HD
ENDBRANCH  10  38
BRANCH   1  40
HETATM   40  C2  UNL     1      -6.342 -18.655  -7.085  1.00  0.00    -0.086 C 
HETATM   41  C1  UNL     1      -5.396 -18.148  -6.315  1.00  0.00     0.014 C 
HETATM   42  C3  UNL     1      -6.076 -19.858  -7.897  1.00  0.00     0.043 C 
ENDBRANCH   1  40
TORSDOF 14
ENDMDL
MODEL 2
REMARK VINA RESULT: -6.629972165      2.753      6.288
REMARK  14 active torsions:
REMARK  status: ('A' for Active; 'I' for Inactive)
REMARK    1  A    between atoms: C2_2  and  C4_4 
REMARK    2  A    between atoms: C7_7  and  C8_8 
REMARK    3  A    between atoms: C8_8  and  O1_9 
REMARK    4  A    between atoms: C10_13  and  O2_14 
REMARK    5  A    between atoms: C13_18  and  O3_19 
REMARK    6  A    between atoms: C17_25  and  C18_26 
REMARK    7  A    between atoms: C18_26  and  O6_28 
REMARK    8  A    between atoms: C20_30  and  C21_31 
REMARK    9  A    between atoms: C21_31  and  C22_32 
REMARK   10  A    between atoms: C22_32  and  C24_34 
REMARK   11  A    between atoms: C24_34  and  C25_35 
REMARK   12  A    between atoms: C25_35  and  C26_36 
REMARK   13  A    between atoms: C26_36  and  C27_37 
REMARK   14  A    between atoms: C30_40  and  O7_41 
ROOT
HETATM    1  C4  UNL     1      -8.146 -18.795 -11.013  1.00  0.00     0.048 C 
HETATM    2  C5  UNL     1      -6.737 -18.974 -10.690  1.00  0.00     0.039 C 
HETATM    3  C6  UNL     1      -6.308 -19.705  -9.489  1.00  0.00    -0.020 C 
HETATM    4  C7  UNL     1      -6.037 -19.295  -8.255  1.00  0.00    -0.043 C 
HETATM    5  C9  UNL     1      -6.144 -17.893  -7.728  1.00  0.00     0.126 C 
HETATM    6 BR1  UNL     1      -5.503 -17.905  -5.912  1.00  0.00    -0.083 Br
HETATM    7  C10 UNL     1      -7.517 -17.319  -7.923  1.00  0.00     0.106 C 
HETATM    8  C11 UNL     1      -7.450 -16.269  -8.909  1.00  0.00     0.051 C 
HETATM    9  C12 UNL     1      -6.091 -15.565  -9.109  1.00  0.00     0.016 C 
HETATM   10  C13 UNL     1      -8.065 -16.343 -10.237  1.00  0.00     0.154 C 
HETATM   11  C14 UNL     1      -8.875 -17.534 -10.614  1.00  0.00     0.159 C 
HETATM   12  O4  UNL     1      -9.936 -17.799  -9.854  1.00  0.00    -0.377 OA
HETATM   13  C15 UNL     1     -10.687 -17.077  -9.105  1.00  0.00     0.132 C 
HETATM   14  C16 UNL     1     -11.590 -16.232 -10.050  1.00  0.00     0.040 C 
HETATM   15  C17 UNL     1     -10.414 -16.195  -7.981  1.00  0.00     0.120 C 
HETATM   16  C20 UNL     1      -9.667 -16.531  -6.761  1.00  0.00     0.034 C 
HETATM   17  C30 UNL     1      -8.225 -16.792  -6.677  1.00  0.00     0.159 C 
ENDROOT
BRANCH  16  18
HETATM   18  C21 UNL     1      -9.856 -15.205  -5.920  1.00  0.00     0.016 C 
BRANCH  18  19
HETATM   19  C22 UNL     1      -9.962 -15.363  -4.491  1.00  0.00     0.004 C 
HETATM   20  C23 UNL     1     -10.960 -16.449  -4.049  1.00  0.00     0.014 C 
BRANCH  19  21
HETATM   21  C24 UNL     1     -10.333 -14.116  -3.796  1.00  0.00    -0.022 C 
BRANCH  21  22
HETATM   22  C25 UNL     1     -11.702 -13.616  -3.717  1.00  0.00    -0.003 C 
BRANCH  22  23
HETATM   23  C26 UNL     1     -12.087 -12.497  -2.884  1.00  0.00     0.002 C 
BRANCH  23  24
HETATM   24  C27 UNL     1     -12.826 -12.766  -1.779  1.00  0.00    -0.088 C 
HETATM   25  C28 UNL     1     -13.254 -11.672  -0.861  1.00  0.00     0.043 C 
HETATM   26  C29 UNL     1     -13.234 -14.152  -1.439  1.00  0.00     0.043 C 
ENDBRANCH  23  24
ENDBRANCH  22  23
ENDBRANCH  21  22
ENDBRANCH  19  21
ENDBRANCH  18  19
ENDBRANCH  16  18
BRANCH  15  27
HETATM   27  C18 UNL     1     -11.870 -16.007  -7.474  1.00  0.00     0.265 C 
HETATM   28  O5  UNL     1     -12.544 -17.072  -7.230  1.00  0.00    -0.265 OA
BRANCH  27  29
HETATM   29  O6  UNL     1     -12.483 -14.825  -7.274  1.00  0.00    -0.326 OA
HETATM   30  C19 UNL     1     -12.156 -13.656  -7.965  1.00  0.00     0.213 C 
ENDBRANCH  27  29
ENDBRANCH  15  27
BRANCH  17  31
HETATM   31  O7  UNL     1      -8.105 -17.775  -5.703  1.00  0.00    -0.392 OA
ATOM     32  H7  UNL     1      -7.338 -17.555  -5.187  1.00  0.00     0.210 HD
ENDBRANCH  17  31
BRANCH   7  33
HETATM   33  O2  UNL     1      -8.217 -18.475  -8.015  1.00  0.00    -0.385 OA
ATOM     34  H2  UNL     1      -8.987 -18.222  -7.521  1.00  0.00     0.210 HD
ENDBRANCH   7  33
BRANCH   4  35
HETATM   35  C8  UNL     1      -5.615 -20.326  -7.263  1.00  0.00     0.199 C 
BRANCH  35  36
HETATM   36  O1  UNL     1      -5.699 -21.637  -7.799  1.00  0.00    -0.397 OA
ATOM     37  H1  UNL     1      -6.601 -21.922  -7.896  1.00  0.00     0.209 HD
ENDBRANCH  35  36
ENDBRANCH   4  35
BRANCH  10  38
HETATM   38  O3  UNL     1      -7.243 -16.020 -11.316  1.00  0.00    -0.393 OA
ATOM     39  H3  UNL     1      -7.301 -16.589 -12.074  1.00  0.00     0.210 HD
ENDBRANCH  10  38
BRANCH   1  40
HETATM   40  C2  UNL     1      -8.350 -19.106 -12.479  1.00  0.00    -0.086 C 
HETATM   41  C1  UNL     1      -9.567 -19.426 -12.882  1.00  0.00     0.014 C 
HETATM   42  C3  UNL     1      -7.235 -19.057 -13.443  1.00  0.00     0.043 C 
ENDBRANCH   1  40
TORSDOF 14
ENDMDL
MODEL 3
REMARK VINA RESULT: -6.590469682      2.357      4.960
REMARK  14 active torsions:
REMARK  status: ('A' for Active; 'I' for Inactive)
REMARK    1  A    between atoms: C2_2  and  C4_4 
REMARK    2  A    between atoms: C7_7  and  C8_8 
REMARK    3  A    between atoms: C8_8  and  O1_9 
REMARK    4  A    between atoms: C10_13  and  O2_14 
REMARK    5  A    between atoms: C13_18  and  O3_19 
REMARK    6  A    between atoms: C17_25  and  C18_26 
REMARK    7  A    between atoms: C18_26  and  O6_28 
REMARK    8  A    between atoms: C20_30  and  C21_31 
REMARK    9  A    between atoms: C21_31  and  C22_32 
REMARK   10  A    between atoms: C22_32  and  C24_34 
REMARK   11  A    between atoms: C24_34  and  C25_35 
REMARK   12  A    between atoms: C25_35  and  C26_36 
REMARK   13  A    between atoms: C26_36  and  C27_37 
REMARK   14  A    between atoms: C30_40  and  O7_41 
ROOT
HETATM    1  C4  UNL     1      -6.933 -16.999  -6.679  1.00  0.00     0.048 C 
HETATM    2  C5  UNL     1      -6.547 -16.855  -8.076  1.00  0.00     0.039 C 
HETATM    3  C6  UNL     1      -6.262 -15.538  -8.664  1.00  0.00    -0.020 C 
HETATM    4  C7  UNL     1      -7.040 -14.664  -9.295  1.00  0.00    -0.043 C 
HETATM    5  C9  UNL     1      -8.514 -14.792  -9.549  1.00  0.00     0.126 C 
HETATM    6 BR1  UNL     1      -9.053 -13.276 -10.608  1.00  0.00    -0.083 Br
HETATM    7  C10 UNL     1      -9.290 -15.000  -8.282  1.00  0.00     0.106 C 
HETATM    8  C11 UNL     1      -9.818 -16.342  -8.272  1.00  0.00     0.051 C 
HETATM    9  C12 UNL     1     -10.022 -17.038  -9.635  1.00  0.00     0.016 C 
HETATM   10  C13 UNL     1      -9.387 -17.392  -7.344  1.00  0.00     0.154 C 
HETATM   11  C14 UNL     1      -8.388 -17.082  -6.285  1.00  0.00     0.159 C 
HETATM   12  O4  UNL     1      -8.717 -16.128  -5.417  1.00  0.00    -0.377 OA
HETATM   13  C15 UNL     1      -9.838 -15.661  -5.001  1.00  0.00     0.132 C 
HETATM   14  C16 UNL     1     -10.443 -16.727  -4.040  1.00  0.00     0.040 C 
HETATM   15  C17 UNL     1     -10.989 -15.091  -5.681  1.00  0.00     0.120 C 
HETATM   16  C20 UNL     1     -10.982 -13.979  -6.642  1.00  0.00     0.034 C 
HETATM   17  C30 UNL     1     -10.422 -14.015  -7.998  1.00  0.00     0.159 C 
ENDROOT
BRANCH  16  18
HETATM   18  C21 UNL     1     -12.533 -13.782  -6.884  1.00  0.00     0.016 C 
BRANCH  18  19
HETATM   19  C22 UNL     1     -13.018 -14.090  -8.207  1.00  0.00     0.004 C 
HETATM   20  C23 UNL     1     -14.181 -13.197  -8.676  1.00  0.00     0.014 C 
BRANCH  19  21
HETATM   21  C24 UNL     1     -13.453 -15.492  -8.351  1.00  0.00    -0.022 C 
BRANCH  21  22
HETATM   22  C25 UNL     1     -14.095 -16.015  -9.553  1.00  0.00    -0.003 C 
BRANCH  22  23
HETATM   23  C26 UNL     1     -14.060 -17.414  -9.921  1.00  0.00     0.002 C 
BRANCH  23  24
HETATM   24  C27 UNL     1     -15.247 -18.062 -10.027  1.00  0.00    -0.088 C 
HETATM   25  C28 UNL     1     -15.521 -18.975 -11.172  1.00  0.00     0.043 C 
HETATM   26  C29 UNL     1     -16.316 -17.888  -9.012  1.00  0.00     0.043 C 
ENDBRANCH  23  24
ENDBRANCH  22  23
ENDBRANCH  21  22
ENDBRANCH  19  21
ENDBRANCH  18  19
ENDBRANCH  16  18
BRANCH  15  27
HETATM   27  C18 UNL     1     -11.720 -14.497  -4.446  1.00  0.00     0.265 C 
HETATM   28  O5  UNL     1     -12.795 -15.087  -4.068  1.00  0.00    -0.265 OA
BRANCH  27  29
HETATM   29  O6  UNL     1     -11.324 -13.419  -3.744  1.00  0.00    -0.326 OA
HETATM   30  C19 UNL     1     -12.179 -12.661  -2.940  1.00  0.00     0.213 C 
ENDBRANCH  27  29
ENDBRANCH  15  27
BRANCH  17  31
HETATM   31  O7  UNL     1      -9.902 -12.743  -8.195  1.00  0.00    -0.392 OA
ATOM     32  H7  UNL     1      -9.217 -12.624  -7.547  1.00  0.00     0.210 HD
ENDBRANCH  17  31
BRANCH   7  33
HETATM   33  O2  UNL     1      -8.406 -14.470  -7.404  1.00  0.00    -0.385 OA
ATOM     34  H2  UNL     1      -8.252 -15.238  -6.867  1.00  0.00     0.210 HD
ENDBRANCH   7  33
BRANCH   4  35
HETATM   35  C8  UNL     1      -6.409 -13.402  -9.776  1.00  0.00     0.199 C 
BRANCH  35  36
HETATM   36  O1  UNL     1      -5.228 -13.095  -9.052  1.00  0.00    -0.397 OA
ATOM     37  H1  UNL     1      -5.168 -12.167  -8.851  1.00  0.00     0.209 HD
ENDBRANCH  35  36
ENDBRANCH   4  35
BRANCH  10  38
HETATM   38  O3  UNL     1      -9.045 -18.618  -7.915  1.00  0.00    -0.393 OA
ATOM     39  H3  UNL     1      -8.196 -18.970  -7.677  1.00  0.00     0.210 HD
ENDBRANCH  10  38
BRANCH   1  40
HETATM   40  C2  UNL     1      -6.136 -18.132  -6.072  1.00  0.00    -0.086 C 
HETATM   41  C1  UNL     1      -6.787 -19.220  -5.701  1.00  0.00     0.014 C 
HETATM   42  C3  UNL     1      -4.674 -18.040  -5.891  1.00  0.00     0.043 C 
ENDBRANCH   1  40
TORSDOF 14
ENDMDL
MODEL 4
REMARK VINA RESULT: -6.452777912      2.626      5.270
REMARK  14 active torsions:
REMARK  status: ('A' for Active; 'I' for Inactive)
REMARK    1  A    between atoms: C2_2  and  C4_4 
REMARK    2  A    between atoms: C7_7  and  C8_8 
REMARK    3  A    between atoms: C8_8  and  O1_9 
REMARK    4  A    between atoms: C10_13  and  O2_14 
REMARK    5  A    between atoms: C13_18  and  O3_19 
REMARK    6  A    between atoms: C17_25  and  C18_26 
REMARK    7  A    between atoms: C18_26  and  O6_28 
REMARK    8  A    between atoms: C20_30  and  C21_31 
REMARK    9  A    between atoms: C21_31  and  C22_32 
REMARK   10  A    between atoms: C22_32  and  C24_34 
REMARK   11  A    between atoms: C24_34  and  C25_35 
REMARK   12  A    between atoms: C25_35  and  C26_36 
REMARK   13  A    between atoms: C26_36  and  C27_37 
REMARK   14  A    between atoms: C30_40  and  O7_41 
ROOT
HETATM    1  C4  UNL     1      -4.556 -17.356  -6.826  1.00  0.00     0.048 C 
HETATM    2  C5  UNL     1      -3.792 -17.823  -7.975  1.00  0.00     0.039 C 
HETATM    3  C6  UNL     1      -3.718 -17.046  -9.219  1.00  0.00    -0.020 C 
HETATM    4  C7  UNL     1      -4.462 -17.067 -10.321  1.00  0.00    -0.043 C 
HETATM    5  C9  UNL     1      -5.670 -17.921 -10.574  1.00  0.00     0.126 C 
HETATM    6 BR1  UNL     1      -6.242 -17.595 -12.384  1.00  0.00    -0.083 Br
HETATM    7  C10 UNL     1      -6.725 -17.735  -9.523  1.00  0.00     0.106 C 
HETATM    8  C11 UNL     1      -6.821 -18.940  -8.737  1.00  0.00     0.051 C 
HETATM    9  C12 UNL     1      -6.359 -20.258  -9.395  1.00  0.00     0.016 C 
HETATM   10  C13 UNL     1      -6.436 -19.039  -7.326  1.00  0.00     0.154 C 
HETATM   11  C14 UNL     1      -5.972 -17.827  -6.597  1.00  0.00     0.159 C 
HETATM   12  O4  UNL     1      -6.825 -16.806  -6.534  1.00  0.00    -0.377 OA
HETATM   13  C15 UNL     1      -8.104 -16.719  -6.595  1.00  0.00     0.132 C 
HETATM   14  C16 UNL     1      -8.659 -17.253  -5.242  1.00  0.00     0.040 C 
HETATM   15  C17 UNL     1      -9.081 -17.149  -7.582  1.00  0.00     0.120 C 
HETATM   16  C20 UNL     1      -9.077 -16.837  -9.018  1.00  0.00     0.034 C 
HETATM   17  C30 UNL     1      -8.118 -17.342 -10.008  1.00  0.00     0.159 C 
ENDROOT
BRANCH  16  18
HETATM   18  C21 UNL     1     -10.451 -17.478  -9.468  1.00  0.00     0.016 C 
BRANCH  18  19
HETATM   19  C22 UNL     1     -11.107 -16.861 -10.594  1.00  0.00     0.004 C 
HETATM   20  C23 UNL     1     -11.410 -15.363 -10.404  1.00  0.00     0.014 C 
BRANCH  19  21
HETATM   21  C24 UNL     1     -12.374 -17.523 -10.960  1.00  0.00    -0.022 C 
BRANCH  21  22
HETATM   22  C25 UNL     1     -13.688 -16.994 -10.609  1.00  0.00    -0.003 C 
BRANCH  22  23
HETATM   23  C26 UNL     1     -14.548 -17.609  -9.621  1.00  0.00     0.002 C 
BRANCH  23  24
HETATM   24  C27 UNL     1     -15.637 -18.281 -10.071  1.00  0.00    -0.088 C 
HETATM   25  C28 UNL     1     -16.899 -18.309  -9.279  1.00  0.00     0.043 C 
HETATM   26  C29 UNL     1     -15.615 -19.012 -11.362  1.00  0.00     0.043 C 
ENDBRANCH  23  24
ENDBRANCH  22  23
ENDBRANCH  21  22
ENDBRANCH  19  21
ENDBRANCH  18  19
ENDBRANCH  16  18
BRANCH  15  27
HETATM   27  C18 UNL     1     -10.313 -16.371  -7.045  1.00  0.00     0.265 C 
HETATM   28  O5  UNL     1     -10.247 -15.089  -7.071  1.00  0.00    -0.265 OA
BRANCH  27  29
HETATM   29  O6  UNL     1     -11.437 -16.925  -6.554  1.00  0.00    -0.326 OA
HETATM   30  C19 UNL     1     -12.096 -16.458  -5.413  1.00  0.00     0.213 C 
ENDBRANCH  27  29
ENDBRANCH  15  27
BRANCH  17  31
HETATM   31  O7  UNL     1      -7.949 -16.290 -10.898  1.00  0.00    -0.392 OA
ATOM     32  H7  UNL     1      -8.819 -15.995 -11.141  1.00  0.00     0.210 HD
ENDBRANCH  17  31
BRANCH   7  33
HETATM   33  O2  UNL     1      -6.367 -16.505  -9.082  1.00  0.00    -0.385 OA
ATOM     34  H2  UNL     1      -7.006 -16.406  -8.386  1.00  0.00     0.210 HD
ENDBRANCH   7  33
BRANCH   4  35
HETATM   35  C8  UNL     1      -4.096 -16.125 -11.418  1.00  0.00     0.199 C 
BRANCH  35  36
HETATM   36  O1  UNL     1      -4.491 -14.794 -11.123  1.00  0.00    -0.397 OA
ATOM     37  H1  UNL     1      -3.937 -14.400 -10.459  1.00  0.00     0.209 HD
ENDBRANCH  35  36
ENDBRANCH   4  35
BRANCH  10  38
HETATM   38  O3  UNL     1      -5.592 -20.096  -6.988  1.00  0.00    -0.393 OA
ATOM     39  H3  UNL     1      -5.140 -20.024  -6.156  1.00  0.00     0.210 HD
ENDBRANCH  10  38
BRANCH   1  40
HETATM   40  C2  UNL     1      -3.713 -17.529  -5.582  1.00  0.00    -0.086 C 
HETATM   41  C1  UNL     1      -3.039 -16.483  -5.139  1.00  0.00     0.014 C 
HETATM   42  C3  UNL     1      -3.635 -18.821  -4.873  1.00  0.00     0.043 C 
ENDBRANCH   1  40
TORSDOF 14
ENDMDL
MODEL 5
REMARK VINA RESULT: -6.447641301      2.096      7.748
REMARK  14 active torsions:
REMARK  status: ('A' for Active; 'I' for Inactive)
REMARK    1  A    between atoms: C2_2  and  C4_4 
REMARK    2  A    between atoms: C7_7  and  C8_8 
REMARK    3  A    between atoms: C8_8  and  O1_9 
REMARK    4  A    between atoms: C10_13  and  O2_14 
REMARK    5  A    between atoms: C13_18  and  O3_19 
REMARK    6  A    between atoms: C17_25  and  C18_26 
REMARK    7  A    between atoms: C18_26  and  O6_28 
REMARK    8  A    between atoms: C20_30  and  C21_31 
REMARK    9  A    between atoms: C21_31  and  C22_32 
REMARK   10  A    between atoms: C22_32  and  C24_34 
REMARK   11  A    between atoms: C24_34  and  C25_35 
REMARK   12  A    between atoms: C25_35  and  C26_36 
REMARK   13  A    between atoms: C26_36  and  C27_37 
REMARK   14  A    between atoms: C30_40  and  O7_41 
ROOT
HETATM    1  C4  UNL     1     -14.105 -17.962 -10.346  1.00  0.00     0.048 C 
HETATM    2  C5  UNL     1     -13.895 -17.862 -11.784  1.00  0.00     0.039 C 
HETATM    3  C6  UNL     1     -12.770 -18.536 -12.447  1.00  0.00    -0.020 C 
HETATM    4  C7  UNL     1     -11.537 -18.128 -12.730  1.00  0.00    -0.043 C 
HETATM    5  C9  UNL     1     -10.929 -16.799 -12.388  1.00  0.00     0.126 C 
HETATM    6 BR1  UNL     1      -9.167 -16.750 -13.164  1.00  0.00    -0.083 Br
HETATM    7  C10 UNL     1     -10.992 -16.510 -10.916  1.00  0.00     0.106 C 
HETATM    8  C11 UNL     1     -11.922 -15.431 -10.691  1.00  0.00     0.051 C 
HETATM    9  C12 UNL     1     -12.181 -14.457 -11.861  1.00  0.00     0.016 C 
HETATM   10  C13 UNL     1     -13.205 -15.577  -9.997  1.00  0.00     0.154 C 
HETATM   11  C14 UNL     1     -13.587 -16.892  -9.415  1.00  0.00     0.159 C 
HETATM   12  O4  UNL     1     -12.768 -17.398  -8.494  1.00  0.00    -0.377 OA
HETATM   13  C15 UNL     1     -11.928 -16.874  -7.677  1.00  0.00     0.132 C 
HETATM   14  C16 UNL     1     -12.759 -16.195  -6.548  1.00  0.00     0.040 C 
HETATM   15  C17 UNL     1     -10.780 -16.000  -7.858  1.00  0.00     0.120 C 
HETATM   16  C20 UNL     1      -9.637 -16.223  -8.754  1.00  0.00     0.034 C 
HETATM   17  C30 UNL     1      -9.672 -16.188 -10.221  1.00  0.00     0.159 C 
ENDROOT
BRANCH  16  18
HETATM   18  C21 UNL     1      -8.714 -14.997  -8.373  1.00  0.00     0.016 C 
BRANCH  18  19
HETATM   19  C22 UNL     1      -7.328 -15.297  -8.111  1.00  0.00     0.004 C 
HETATM   20  C23 UNL     1      -6.370 -14.900  -9.249  1.00  0.00     0.014 C 
BRANCH  19  21
HETATM   21  C24 UNL     1      -7.091 -16.722  -7.814  1.00  0.00    -0.022 C 
BRANCH  21  22
HETATM   22  C25 UNL     1      -6.471 -17.194  -6.579  1.00  0.00    -0.003 C 
BRANCH  22  23
HETATM   23  C26 UNL     1      -5.043 -17.376  -6.433  1.00  0.00     0.002 C 
BRANCH  23  24
HETATM   24  C27 UNL     1      -4.579 -18.648  -6.356  1.00  0.00    -0.088 C 
HETATM   25  C28 UNL     1      -3.405 -18.983  -5.502  1.00  0.00     0.043 C 
HETATM   26  C29 UNL     1      -5.218 -19.751  -7.116  1.00  0.00     0.043 C 
ENDBRANCH  23  24
ENDBRANCH  22  23
ENDBRANCH  21  22
ENDBRANCH  19  21
ENDBRANCH  18  19
ENDBRANCH  16  18
BRANCH  15  27
HETATM   27  C18 UNL     1     -10.160 -16.132  -6.440  1.00  0.00     0.265 C 
HETATM   28  O5  UNL     1      -9.932 -17.321  -6.014  1.00  0.00    -0.265 OA
BRANCH  27  29
HETATM   29  O6  UNL     1      -9.847 -15.109  -5.623  1.00  0.00    -0.326 OA
HETATM   30  C19 UNL     1     -10.174 -15.074  -4.265  1.00  0.00     0.213 C 
ENDBRANCH  27  29
ENDBRANCH  15  27
BRANCH  17  31
HETATM   31  O7  UNL     1      -8.765 -17.162 -10.615  1.00  0.00    -0.392 OA
ATOM     32  H7  UNL     1      -8.202 -17.329  -9.868  1.00  0.00     0.210 HD
ENDBRANCH  17  31
BRANCH   7  33
HETATM   33  O2  UNL     1     -11.097 -17.780 -10.458  1.00  0.00    -0.385 OA
ATOM     34  H2  UNL     1     -12.032 -17.800 -10.290  1.00  0.00     0.210 HD
ENDBRANCH   7  33
BRANCH   4  35
HETATM   35  C8  UNL     1     -10.637 -19.089 -13.430  1.00  0.00     0.199 C 
BRANCH  35  36
HETATM   36  O1  UNL     1     -10.174 -20.108 -12.558  1.00  0.00    -0.397 OA
ATOM     37  H1  UNL     1      -9.282 -19.948 -12.271  1.00  0.00     0.209 HD
ENDBRANCH  35  36
ENDBRANCH   4  35
BRANCH  10  38
HETATM   38  O3  UNL     1     -14.321 -15.051 -10.646  1.00  0.00    -0.393 OA
ATOM     39  H3  UNL     1     -14.876 -15.674 -11.100  1.00  0.00     0.210 HD
ENDBRANCH  10  38
BRANCH   1  40
HETATM   40  C2  UNL     1     -15.568 -18.250 -10.089  1.00  0.00    -0.086 C 
HETATM   41  C1  UNL     1     -16.154 -17.632  -9.080  1.00  0.00     0.014 C 
HETATM   42  C3  UNL     1     -16.330 -19.192 -10.931  1.00  0.00     0.043 C 
ENDBRANCH   1  40
TORSDOF 14
ENDMDL
