MODEL 1
REMARK VINA RESULT: -9.258242723      0.000      0.000
REMARK  5 active torsions:
REMARK  status: ('A' for Active; 'I' for Inactive)
REMARK    1  A    between atoms: C5_5  and  N1_6 
REMARK    2  A    between atoms: N1_6  and  C6_8 
REMARK    3  A    between atoms: C6_8  and  C7_9 
REMARK    4  A    between atoms: N2_13  and  C11_14 
REMARK    5  A    between atoms: C13_16  and  C14_17 
ROOT
HETATM    1  C7  UNL     1      17.025 222.576  43.514  1.00  0.00     0.021 C 
HETATM    2  C8  UNL     1      18.506 222.690  43.263  1.00  0.00     0.009 C 
HETATM    3  C9  UNL     1      18.951 224.126  43.126  1.00  0.00     0.020 C 
HETATM    4  C10 UNL     1      18.147 224.921  42.162  1.00  0.00     0.124 C 
HETATM    5  N2  UNL     1      16.741 224.669  42.373  1.00  0.00    -0.367 N 
HETATM    6  C21 UNL     1      16.355 223.931  43.554  1.00  0.00     0.130 C 
ENDROOT
BRANCH   5   7
HETATM    7  C11 UNL     1      15.777 225.138  41.443  1.00  0.00     0.105 A 
HETATM    8  C12 UNL     1      15.622 224.548  40.222  1.00  0.00     0.073 A 
HETATM    9  C13 UNL     1      14.680 225.014  39.330  1.00  0.00     0.017 A 
HETATM   10  N3  UNL     1      13.951 226.065  39.747  1.00  0.00    -0.355 N 
HETATM   11  C20 UNL     1      14.069 226.669  40.925  1.00  0.00     0.182 A 
ATOM     12  H3  UNL     1      13.247 226.429  39.105  1.00  0.00     0.166 HD
HETATM   13  N4  UNL     1      14.991 226.201  41.784  1.00  0.00    -0.339 N 
ATOM     14  H4  UNL     1      15.105 226.644  42.696  1.00  0.00     0.168 HD
BRANCH   9  15
HETATM   15  C14 UNL     1      14.519 224.374  38.023  1.00  0.00     0.036 C 
HETATM   16  C15 UNL     1      14.258 225.363  36.910  1.00  0.00     0.011 C 
HETATM   17  C16 UNL     1      15.490 226.132  36.526  1.00  0.00     0.001 C 
HETATM   18  C17 UNL     1      16.687 225.260  36.313  1.00  0.00     0.000 C 
HETATM   19  C18 UNL     1      16.853 224.173  37.322  1.00  0.00     0.001 C 
HETATM   20  C19 UNL     1      15.615 223.422  37.670  1.00  0.00     0.011 C 
ENDBRANCH   9  15
ENDBRANCH   5   7
BRANCH   1  21
HETATM   21  C6  UNL     1      16.747 221.768  44.754  1.00  0.00     0.126 C 
BRANCH  21  22
HETATM   22  N1  UNL     1      17.750 221.936  45.766  1.00  0.00    -0.388 N 
ATOM     23  H1  UNL     1      18.699 221.614  45.578  1.00  0.00     0.159 HD
BRANCH  22  24
HETATM   24  C5  UNL     1      17.468 222.533  47.017  1.00  0.00     0.043 A 
HETATM   25  C4  UNL     1      17.827 223.833  47.321  1.00  0.00     0.032 A 
HETATM   26  C3  UNL     1      17.520 224.348  48.561  1.00  0.00     0.027 A 
HETATM   27  C2  UNL     1      16.858 223.608  49.529  1.00  0.00     0.005 A 
HETATM   28  C1  UNL     1      16.525 224.161  50.869  1.00  0.00     0.068 C 
HETATM   29  N5  UNL     1      16.531 222.349  49.185  1.00  0.00    -0.367 N 
HETATM   30  C22 UNL     1      16.809 221.813  47.994  1.00  0.00     0.117 A 
ATOM     31  H5  UNL     1      16.042 221.774  49.871  1.00  0.00     0.165 HD
ENDBRANCH  22  24
ENDBRANCH  21  22
ENDBRANCH   1  21
TORSDOF 5
ENDMDL
MODEL 2
REMARK VINA RESULT: -9.148861212      0.934      1.454
REMARK  5 active torsions:
REMARK  status: ('A' for Active; 'I' for Inactive)
REMARK    1  A    between atoms: C5_5  and  N1_6 
REMARK    2  A    between atoms: N1_6  and  C6_8 
REMARK    3  A    between atoms: C6_8  and  C7_9 
REMARK    4  A    between atoms: N2_13  and  C11_14 
REMARK    5  A    between atoms: C13_16  and  C14_17 
ROOT
HETATM    1  C7  UNL     1      17.039 222.637  43.389  1.00  0.00     0.021 C 
HETATM    2  C8  UNL     1      18.535 222.815  43.394  1.00  0.00     0.009 C 
HETATM    3  C9  UNL     1      18.938 224.260  43.227  1.00  0.00     0.020 C 
HETATM    4  C10 UNL     1      18.287 224.942  42.079  1.00  0.00     0.124 C 
HETATM    5  N2  UNL     1      16.878 224.630  42.059  1.00  0.00    -0.367 N 
HETATM    6  C21 UNL     1      16.317 223.954  43.208  1.00  0.00     0.130 C 
ENDROOT
BRANCH   5   7
HETATM    7  C11 UNL     1      16.076 224.981  40.941  1.00  0.00     0.105 A 
HETATM    8  C12 UNL     1      16.636 225.418  39.776  1.00  0.00     0.073 A 
HETATM    9  C13 UNL     1      15.845 225.755  38.698  1.00  0.00     0.017 A 
HETATM   10  N3  UNL     1      14.519 225.622  38.884  1.00  0.00    -0.355 N 
HETATM   11  C20 UNL     1      13.933 225.202  40.000  1.00  0.00     0.182 A 
ATOM     12  H3  UNL     1      13.911 225.865  38.101  1.00  0.00     0.166 HD
HETATM   13  N4  UNL     1      14.719 224.876  41.041  1.00  0.00    -0.339 N 
ATOM     14  H4  UNL     1      14.298 224.549  41.911  1.00  0.00     0.168 HD
BRANCH   9  15
HETATM   15  C14 UNL     1      16.453 226.221  37.450  1.00  0.00     0.036 C 
HETATM   16  C15 UNL     1      17.962 226.127  37.459  1.00  0.00     0.011 C 
HETATM   17  C16 UNL     1      18.450 224.713  37.320  1.00  0.00     0.001 C 
HETATM   18  C17 UNL     1      17.788 223.968  36.204  1.00  0.00     0.000 C 
HETATM   19  C18 UNL     1      16.317 224.191  36.092  1.00  0.00     0.001 C 
HETATM   20  C19 UNL     1      15.868 225.605  36.220  1.00  0.00     0.011 C 
ENDBRANCH   9  15
ENDBRANCH   5   7
BRANCH   1  21
HETATM   21  C6  UNL     1      16.578 221.903  44.620  1.00  0.00     0.126 C 
BRANCH  21  22
HETATM   22  N1  UNL     1      17.574 221.860  45.652  1.00  0.00    -0.388 N 
ATOM     23  H1  UNL     1      18.458 221.388  45.463  1.00  0.00     0.159 HD
BRANCH  22  24
HETATM   24  C5  UNL     1      17.373 222.450  46.921  1.00  0.00     0.043 A 
HETATM   25  C4  UNL     1      17.789 223.733  47.222  1.00  0.00     0.032 A 
HETATM   26  C3  UNL     1      17.559 224.243  48.480  1.00  0.00     0.027 A 
HETATM   27  C2  UNL     1      16.921 223.512  49.471  1.00  0.00     0.005 A 
HETATM   28  C1  UNL     1      16.672 224.059  50.832  1.00  0.00     0.068 C 
HETATM   29  N5  UNL     1      16.536 222.269  49.130  1.00  0.00    -0.367 N 
HETATM   30  C22 UNL     1      16.739 221.739  47.921  1.00  0.00     0.117 A 
ATOM     31  H5  UNL     1      16.063 221.701  49.832  1.00  0.00     0.165 HD
ENDBRANCH  22  24
ENDBRANCH  21  22
ENDBRANCH   1  21
TORSDOF 5
ENDMDL
MODEL 3
REMARK VINA RESULT: -8.463695793      2.732      5.444
REMARK  5 active torsions:
REMARK  status: ('A' for Active; 'I' for Inactive)
REMARK    1  A    between atoms: C5_5  and  N1_6 
REMARK    2  A    between atoms: N1_6  and  C6_8 
REMARK    3  A    between atoms: C6_8  and  C7_9 
REMARK    4  A    between atoms: N2_13  and  C11_14 
REMARK    5  A    between atoms: C13_16  and  C14_17 
ROOT
HETATM    1  C7  UNL     1      16.373 223.252  48.584  1.00  0.00     0.021 C 
HETATM    2  C8  UNL     1      16.174 221.769  48.417  1.00  0.00     0.009 C 
HETATM    3  C9  UNL     1      17.292 221.128  47.632  1.00  0.00     0.020 C 
HETATM    4  C10 UNL     1      17.597 221.808  46.346  1.00  0.00     0.124 C 
HETATM    5  N2  UNL     1      17.649 223.236  46.550  1.00  0.00    -0.367 N 
HETATM    6  C21 UNL     1      17.641 223.728  47.909  1.00  0.00     0.130 C 
ENDROOT
BRANCH   5   7
HETATM    7  C11 UNL     1      17.709 224.121  45.441  1.00  0.00     0.105 A 
HETATM    8  C12 UNL     1      16.814 224.035  44.415  1.00  0.00     0.073 A 
HETATM    9  C13 UNL     1      16.884 224.902  43.346  1.00  0.00     0.017 A 
HETATM   10  N3  UNL     1      17.875 225.810  43.395  1.00  0.00    -0.355 N 
HETATM   11  C20 UNL     1      18.767 225.928  44.372  1.00  0.00     0.182 A 
ATOM     12  H3  UNL     1      17.949 226.464  42.615  1.00  0.00     0.166 HD
HETATM   13  N4  UNL     1      18.684 225.076  45.409  1.00  0.00    -0.339 N 
ATOM     14  H4  UNL     1      19.354 225.143  46.174  1.00  0.00     0.168 HD
BRANCH   9  15
HETATM   15  C14 UNL     1      15.918 224.804  42.249  1.00  0.00     0.036 C 
HETATM   16  C15 UNL     1      14.499 225.088  42.687  1.00  0.00     0.011 C 
HETATM   17  C16 UNL     1      14.258 226.549  42.941  1.00  0.00     0.001 C 
HETATM   18  C17 UNL     1      14.755 227.429  41.839  1.00  0.00     0.000 C 
HETATM   19  C18 UNL     1      16.089 227.048  41.291  1.00  0.00     0.001 C 
HETATM   20  C19 UNL     1      16.290 225.594  41.036  1.00  0.00     0.011 C 
ENDBRANCH   9  15
ENDBRANCH   5   7
BRANCH   1  21
HETATM   21  C6  UNL     1      16.321 223.646  50.035  1.00  0.00     0.126 C 
BRANCH  21  22
HETATM   22  N1  UNL     1      15.574 224.851  50.261  1.00  0.00    -0.388 N 
ATOM     23  H1  UNL     1      15.965 225.739  49.947  1.00  0.00     0.159 HD
BRANCH  22  24
HETATM   24  C5  UNL     1      14.313 224.849  50.903  1.00  0.00     0.043 A 
HETATM   25  C4  UNL     1      14.095 224.226  52.116  1.00  0.00     0.032 A 
HETATM   26  C3  UNL     1      12.840 224.265  52.682  1.00  0.00     0.027 A 
HETATM   27  C2  UNL     1      11.773 224.911  52.077  1.00  0.00     0.005 A 
HETATM   28  C1  UNL     1      10.416 224.956  52.686  1.00  0.00     0.068 C 
HETATM   29  N5  UNL     1      12.036 225.503  50.898  1.00  0.00    -0.367 N 
HETATM   30  C22 UNL     1      13.238 225.488  50.317  1.00  0.00     0.117 A 
ATOM     31  H5  UNL     1      11.276 225.990  50.423  1.00  0.00     0.165 HD
ENDBRANCH  22  24
ENDBRANCH  21  22
ENDBRANCH   1  21
TORSDOF 5
ENDMDL
MODEL 4
REMARK VINA RESULT: -8.398730929      1.536      2.364
REMARK  5 active torsions:
REMARK  status: ('A' for Active; 'I' for Inactive)
REMARK    1  A    between atoms: C5_5  and  N1_6 
REMARK    2  A    between atoms: N1_6  and  C6_8 
REMARK    3  A    between atoms: C6_8  and  C7_9 
REMARK    4  A    between atoms: N2_13  and  C11_14 
REMARK    5  A    between atoms: C13_16  and  C14_17 
ROOT
HETATM    1  C7  UNL     1      18.485 225.386  43.190  1.00  0.00     0.021 C 
HETATM    2  C8  UNL     1      19.674 225.530  42.277  1.00  0.00     0.009 C 
HETATM    3  C9  UNL     1      19.418 226.512  41.159  1.00  0.00     0.020 C 
HETATM    4  C10 UNL     1      18.155 226.267  40.415  1.00  0.00     0.124 C 
HETATM    5  N2  UNL     1      17.081 226.011  41.346  1.00  0.00    -0.367 N 
HETATM    6  C21 UNL     1      17.328 226.254  42.749  1.00  0.00     0.130 C 
ENDROOT
BRANCH   5   7
HETATM    7  C11 UNL     1      15.825 225.536  40.885  1.00  0.00     0.105 A 
HETATM    8  C12 UNL     1      15.676 225.026  39.628  1.00  0.00     0.073 A 
HETATM    9  C13 UNL     1      14.450 224.568  39.195  1.00  0.00     0.017 A 
HETATM   10  N3  UNL     1      13.445 224.663  40.085  1.00  0.00    -0.355 N 
HETATM   11  C20 UNL     1      13.546 225.152  41.315  1.00  0.00     0.182 A 
ATOM     12  H3  UNL     1      12.527 224.330  39.789  1.00  0.00     0.166 HD
HETATM   13  N4  UNL     1      14.749 225.594  41.723  1.00  0.00    -0.339 N 
ATOM     14  H4  UNL     1      14.857 225.974  42.663  1.00  0.00     0.168 HD
BRANCH   9  15
HETATM   15  C14 UNL     1      14.299 224.020  37.846  1.00  0.00     0.036 C 
HETATM   16  C15 UNL     1      13.825 225.046  36.842  1.00  0.00     0.011 C 
HETATM   17  C16 UNL     1      14.905 226.021  36.466  1.00  0.00     0.001 C 
HETATM   18  C17 UNL     1      16.200 225.359  36.113  1.00  0.00     0.000 C 
HETATM   19  C18 UNL     1      16.587 224.232  37.010  1.00  0.00     0.001 C 
HETATM   20  C19 UNL     1      15.498 223.276  37.352  1.00  0.00     0.011 C 
ENDBRANCH   9  15
ENDBRANCH   5   7
BRANCH   1  21
HETATM   21  C6  UNL     1      18.870 225.639  44.623  1.00  0.00     0.126 C 
BRANCH  21  22
HETATM   22  N1  UNL     1      17.819 225.324  45.549  1.00  0.00    -0.388 N 
ATOM     23  H1  UNL     1      17.155 226.054  45.806  1.00  0.00     0.159 HD
BRANCH  22  24
HETATM   24  C5  UNL     1      17.672 224.036  46.115  1.00  0.00     0.043 A 
HETATM   25  C4  UNL     1      17.800 223.798  47.470  1.00  0.00     0.032 A 
HETATM   26  C3  UNL     1      17.644 222.518  47.951  1.00  0.00     0.027 A 
HETATM   27  C2  UNL     1      17.360 221.443  47.121  1.00  0.00     0.005 A 
HETATM   28  C1  UNL     1      17.191 220.058  47.637  1.00  0.00     0.068 C 
HETATM   29  N5  UNL     1      17.245 221.726  45.812  1.00  0.00    -0.367 N 
HETATM   30  C22 UNL     1      17.388 222.954  45.306  1.00  0.00     0.117 A 
ATOM     31  H5  UNL     1      17.036 220.961  45.170  1.00  0.00     0.165 HD
ENDBRANCH  22  24
ENDBRANCH  21  22
ENDBRANCH   1  21
TORSDOF 5
ENDMDL
MODEL 5
REMARK VINA RESULT: -8.273397575      2.101      3.439
REMARK  5 active torsions:
REMARK  status: ('A' for Active; 'I' for Inactive)
REMARK    1  A    between atoms: C5_5  and  N1_6 
REMARK    2  A    between atoms: N1_6  and  C6_8 
REMARK    3  A    between atoms: C6_8  and  C7_9 
REMARK    4  A    between atoms: N2_13  and  C11_14 
REMARK    5  A    between atoms: C13_16  and  C14_17 
ROOT
HETATM    1  C7  UNL     1      18.102 225.428  42.840  1.00  0.00     0.021 C 
HETATM    2  C8  UNL     1      19.554 225.740  43.092  1.00  0.00     0.009 C 
HETATM    3  C9  UNL     1      20.091 226.772  42.130  1.00  0.00     0.020 C 
HETATM    4  C10 UNL     1      19.813 226.470  40.701  1.00  0.00     0.124 C 
HETATM    5  N2  UNL     1      18.439 226.056  40.547  1.00  0.00    -0.367 N 
HETATM    6  C21 UNL     1      17.550 226.221  41.676  1.00  0.00     0.130 C 
ENDROOT
BRANCH   5   7
HETATM    7  C11 UNL     1      17.984 225.506  39.320  1.00  0.00     0.105 A 
HETATM    8  C12 UNL     1      16.766 224.899  39.221  1.00  0.00     0.073 A 
HETATM    9  C13 UNL     1      16.338 224.371  38.023  1.00  0.00     0.017 A 
HETATM   10  N3  UNL     1      17.192 224.498  36.991  1.00  0.00    -0.355 N 
HETATM   11  C20 UNL     1      18.385 225.079  37.043  1.00  0.00     0.182 A 
ATOM     12  H3  UNL     1      16.898 224.115  36.092  1.00  0.00     0.166 HD
HETATM   13  N4  UNL     1      18.787 225.591  38.219  1.00  0.00    -0.339 N 
ATOM     14  H4  UNL     1      19.698 226.044  38.290  1.00  0.00     0.168 HD
BRANCH   9  15
HETATM   15  C14 UNL     1      15.028 223.723  37.925  1.00  0.00     0.036 C 
HETATM   16  C15 UNL     1      14.502 223.251  39.261  1.00  0.00     0.011 C 
HETATM   17  C16 UNL     1      14.021 224.385  40.121  1.00  0.00     0.001 C 
HETATM   18  C17 UNL     1      13.116 225.331  39.398  1.00  0.00     0.000 C 
HETATM   19  C18 UNL     1      13.550 225.669  38.010  1.00  0.00     0.001 C 
HETATM   20  C19 UNL     1      14.007 224.521  37.180  1.00  0.00     0.011 C 
ENDBRANCH   9  15
ENDBRANCH   5   7
BRANCH   1  21
HETATM   21  C6  UNL     1      17.284 225.613  44.090  1.00  0.00     0.126 C 
BRANCH  21  22
HETATM   22  N1  UNL     1      17.991 225.236  45.281  1.00  0.00    -0.388 N 
ATOM     23  H1  UNL     1      18.659 225.892  45.685  1.00  0.00     0.159 HD
BRANCH  22  24
HETATM   24  C5  UNL     1      17.793 223.987  45.915  1.00  0.00     0.043 A 
HETATM   25  C4  UNL     1      17.937 223.810  47.278  1.00  0.00     0.032 A 
HETATM   26  C3  UNL     1      17.729 222.565  47.826  1.00  0.00     0.027 A 
HETATM   27  C2  UNL     1      17.376 221.466  47.057  1.00  0.00     0.005 A 
HETATM   28  C1  UNL     1      17.150 220.118  47.645  1.00  0.00     0.068 C 
HETATM   29  N5  UNL     1      17.248 221.689  45.736  1.00  0.00    -0.367 N 
HETATM   30  C22 UNL     1      17.440 222.881  45.167  1.00  0.00     0.117 A 
ATOM     31  H5  UNL     1      16.988 220.904  45.138  1.00  0.00     0.165 HD
ENDBRANCH  22  24
ENDBRANCH  21  22
ENDBRANCH   1  21
TORSDOF 5
ENDMDL
