MODEL 1
REMARK VINA RESULT: -8.057748188      0.000      0.000
REMARK  9 active torsions:
REMARK  status: ('A' for Active; 'I' for Inactive)
REMARK    1  A    between atoms: N1_2  and  C2_3 
REMARK    2  A    between atoms: N1_2  and  C8_22 
REMARK    3  A    between atoms: C2_3  and  C3_4 
REMARK       I    between atoms: C3_4  and  N2_6 
REMARK    4  A    between atoms: N2_6  and  S1_8 
REMARK    5  A    between atoms: S1_8  and  C4_11 
REMARK    6  A    between atoms: C7_15  and  O4_16 
REMARK    7  A    between atoms: O4_16  and  N3_17 
REMARK    8  A    between atoms: C9_25  and  N6_26 
REMARK    9  A    between atoms: C10_31  and  N8_32 
ROOT
HETATM    1  C2  UNL     1     -42.725   8.284 -18.169  1.00  0.00     0.244 C 
ENDROOT
BRANCH   1   2
HETATM    2  N1  UNL     1     -41.577   8.228 -19.016  1.00  0.00    -0.212 N 
HETATM    3  C1  UNL     1     -40.939   9.441 -19.502  1.00  0.00     0.169 C 
BRANCH   2   4
HETATM    4  C8  UNL     1     -40.994   7.002 -19.424  1.00  0.00     0.709 A 
HETATM    5  N5  UNL     1     -40.954   5.981 -18.565  1.00  0.00    -0.022 N 
HETATM    6  C9  UNL     1     -40.396   4.827 -18.984  1.00  0.00     0.705 A 
ATOM      7  H5  UNL     1     -41.332   6.071 -17.622  1.00  0.00     0.203 HD
HETATM    8  N7  UNL     1     -39.892   4.686 -20.218  1.00  0.00    -0.022 N 
HETATM    9  C10 UNL     1     -39.945   5.731 -21.062  1.00  0.00     0.705 A 
ATOM     10  H7  UNL     1     -39.475   3.803 -20.512  1.00  0.00     0.203 HD
HETATM   11  N9  UNL     1     -40.497   6.891 -20.665  1.00  0.00    -0.022 N 
ATOM     12  H9  UNL     1     -40.538   7.684 -21.306  1.00  0.00     0.203 HD
BRANCH   6  13
HETATM   13  N6  UNL     1     -40.354   3.836 -18.161  1.00  0.00    -0.234 N 
ATOM     14  H62 UNL     1     -40.825   3.908 -17.259  1.00  0.00     0.174 HD
ATOM     15  H61 UNL     1     -39.844   2.998 -18.440  1.00  0.00     0.174 HD
ENDBRANCH   6  13
BRANCH   9  16
HETATM   16  N8  UNL     1     -39.480   5.648 -22.246  1.00  0.00    -0.234 N 
ATOM     17  H82 UNL     1     -39.832   4.914 -22.860  1.00  0.00     0.174 HD
ATOM     18  H81 UNL     1     -38.770   6.299 -22.582  1.00  0.00     0.174 HD
ENDBRANCH   9  16
ENDBRANCH   2   4
ENDBRANCH   1   2
BRANCH   1  19
HETATM   19  C3  UNL     1     -42.486   8.859 -16.830  1.00  0.00     0.249 C 
HETATM   20  O1  UNL     1     -42.450  10.135 -16.796  1.00  0.00    -0.271 OA
HETATM   21  N2  UNL     1     -42.304   8.129 -15.641  1.00  0.00    -0.248 N 
ATOM     22  H2  UNL     1     -42.333   7.113 -15.723  1.00  0.00     0.182 HD
BRANCH  21  23
HETATM   23  S1  UNL     1     -42.039   8.755 -14.082  1.00  0.00     0.274 S 
HETATM   24  O2  UNL     1     -40.749   9.565 -14.103  1.00  0.00    -0.199 OA
HETATM   25  O3  UNL     1     -41.951   7.681 -13.033  1.00  0.00    -0.199 OA
BRANCH  23  26
HETATM   26  C4  UNL     1     -43.280   9.884 -13.549  1.00  0.00     0.156 A 
HETATM   27  S2  UNL     1     -44.873  10.065 -14.178  1.00  0.00    -0.086 SA
HETATM   28  C5  UNL     1     -45.417  11.336 -13.185  1.00  0.00     0.054 A 
HETATM   29  C6  UNL     1     -44.336  11.586 -12.383  1.00  0.00     0.049 A 
HETATM   30  C7  UNL     1     -43.240  10.839 -12.573  1.00  0.00     0.131 A 
BRANCH  30  31
HETATM   31  O4  UNL     1     -42.062  11.015 -11.801  1.00  0.00    -0.221 OA
BRANCH  31  32
HETATM   32  N3  UNL     1     -41.625  10.108 -10.898  1.00  0.00    -0.208 N 
HETATM   33  N4  UNL     1     -40.511   9.552 -11.057  1.00  0.00    -0.325 N 
ATOM     34  H42 UNL     1     -39.947   9.794 -11.872  1.00  0.00     0.178 HD
ATOM     35  H41 UNL     1     -40.181   8.867 -10.376  1.00  0.00     0.178 HD
ATOM     36  H3  UNL     1     -42.200   9.877 -10.088  1.00  0.00     0.215 HD
ENDBRANCH  31  32
ENDBRANCH  30  31
ENDBRANCH  23  26
ENDBRANCH  21  23
ENDBRANCH   1  19
TORSDOF 9
ENDMDL
MODEL 2
REMARK VINA RESULT: -8.028485980      5.779      7.865
REMARK  9 active torsions:
REMARK  status: ('A' for Active; 'I' for Inactive)
REMARK    1  A    between atoms: N1_2  and  C2_3 
REMARK    2  A    between atoms: N1_2  and  C8_22 
REMARK    3  A    between atoms: C2_3  and  C3_4 
REMARK       I    between atoms: C3_4  and  N2_6 
REMARK    4  A    between atoms: N2_6  and  S1_8 
REMARK    5  A    between atoms: S1_8  and  C4_11 
REMARK    6  A    between atoms: C7_15  and  O4_16 
REMARK    7  A    between atoms: O4_16  and  N3_17 
REMARK    8  A    between atoms: C9_25  and  N6_26 
REMARK    9  A    between atoms: C10_31  and  N8_32 
ROOT
HETATM    1  C2  UNL     1     -44.380   3.208 -17.576  1.00  0.00     0.244 C 
ENDROOT
BRANCH   1   2
HETATM    2  N1  UNL     1     -43.726   4.474 -17.668  1.00  0.00    -0.212 N 
HETATM    3  C1  UNL     1     -44.205   5.626 -16.922  1.00  0.00     0.169 C 
BRANCH   2   4
HETATM    4  C8  UNL     1     -42.580   4.679 -18.476  1.00  0.00     0.709 A 
HETATM    5  N5  UNL     1     -41.373   4.394 -17.983  1.00  0.00    -0.022 N 
HETATM    6  C9  UNL     1     -40.303   4.595 -18.777  1.00  0.00     0.705 A 
ATOM      7  H5  UNL     1     -41.264   4.034 -17.034  1.00  0.00     0.203 HD
HETATM    8  N7  UNL     1     -40.422   5.068 -20.027  1.00  0.00    -0.022 N 
HETATM    9  C10 UNL     1     -41.649   5.348 -20.498  1.00  0.00     0.705 A 
ATOM     10  H7  UNL     1     -39.598   5.212 -20.609  1.00  0.00     0.203 HD
HETATM   11  N9  UNL     1     -42.730   5.153 -19.722  1.00  0.00    -0.022 N 
ATOM     12  H9  UNL     1     -43.662   5.365 -20.080  1.00  0.00     0.203 HD
BRANCH   6  13
HETATM   13  N6  UNL     1     -39.134   4.321 -18.309  1.00  0.00    -0.234 N 
ATOM     14  H62 UNL     1     -39.033   3.601 -17.593  1.00  0.00     0.174 HD
ATOM     15  H61 UNL     1     -38.334   4.839 -18.672  1.00  0.00     0.174 HD
ENDBRANCH   6  13
BRANCH   9  16
HETATM   16  N8  UNL     1     -41.817   5.798 -21.679  1.00  0.00    -0.234 N 
ATOM     17  H82 UNL     1     -41.108   6.417 -22.072  1.00  0.00     0.174 HD
ATOM     18  H81 UNL     1     -42.641   5.551 -22.227  1.00  0.00     0.174 HD
ENDBRANCH   9  16
ENDBRANCH   2   4
ENDBRANCH   1   2
BRANCH   1  19
HETATM   19  C3  UNL     1     -44.055   2.423 -16.368  1.00  0.00     0.249 C 
HETATM   20  O1  UNL     1     -42.841   2.035 -16.295  1.00  0.00    -0.271 OA
HETATM   21  N2  UNL     1     -44.951   2.089 -15.338  1.00  0.00    -0.248 N 
ATOM     22  H2  UNL     1     -45.911   2.416 -15.447  1.00  0.00     0.182 HD
BRANCH  21  23
HETATM   23  S1  UNL     1     -44.612   1.199 -13.928  1.00  0.00     0.274 S 
HETATM   24  O2  UNL     1     -45.930   0.870 -13.241  1.00  0.00    -0.199 OA
HETATM   25  O3  UNL     1     -43.710   1.938 -12.978  1.00  0.00    -0.199 OA
BRANCH  23  26
HETATM   26  C4  UNL     1     -43.855  -0.361 -14.237  1.00  0.00     0.156 A 
HETATM   27  S2  UNL     1     -44.571  -1.748 -14.964  1.00  0.00    -0.086 SA
HETATM   28  C5  UNL     1     -43.247  -2.815 -14.882  1.00  0.00     0.054 A 
HETATM   29  C6  UNL     1     -42.276  -2.055 -14.287  1.00  0.00     0.049 A 
HETATM   30  C7  UNL     1     -42.591  -0.797 -13.957  1.00  0.00     0.131 A 
BRANCH  30  31
HETATM   31  O4  UNL     1     -41.662   0.078 -13.333  1.00  0.00    -0.221 OA
BRANCH  31  32
HETATM   32  N3  UNL     1     -40.920   0.980 -14.015  1.00  0.00    -0.208 N 
HETATM   33  N4  UNL     1     -39.784   1.306 -13.591  1.00  0.00    -0.325 N 
ATOM     34  H42 UNL     1     -39.435   0.882 -12.731  1.00  0.00     0.178 HD
ATOM     35  H41 UNL     1     -39.225   1.987 -14.105  1.00  0.00     0.178 HD
ATOM     36  H3  UNL     1     -41.283   1.395 -14.873  1.00  0.00     0.215 HD
ENDBRANCH  31  32
ENDBRANCH  30  31
ENDBRANCH  23  26
ENDBRANCH  21  23
ENDBRANCH   1  19
TORSDOF 9
ENDMDL
MODEL 3
REMARK VINA RESULT: -8.028094427      0.145      1.592
REMARK  9 active torsions:
REMARK  status: ('A' for Active; 'I' for Inactive)
REMARK    1  A    between atoms: N1_2  and  C2_3 
REMARK    2  A    between atoms: N1_2  and  C8_22 
REMARK    3  A    between atoms: C2_3  and  C3_4 
REMARK       I    between atoms: C3_4  and  N2_6 
REMARK    4  A    between atoms: N2_6  and  S1_8 
REMARK    5  A    between atoms: S1_8  and  C4_11 
REMARK    6  A    between atoms: C7_15  and  O4_16 
REMARK    7  A    between atoms: O4_16  and  N3_17 
REMARK    8  A    between atoms: C9_25  and  N6_26 
REMARK    9  A    between atoms: C10_31  and  N8_32 
ROOT
HETATM    1  C2  UNL     1     -42.719   8.335 -18.175  1.00  0.00     0.244 C 
ENDROOT
BRANCH   1   2
HETATM    2  N1  UNL     1     -41.582   8.340 -19.039  1.00  0.00    -0.212 N 
HETATM    3  C1  UNL     1     -41.003   9.586 -19.515  1.00  0.00     0.169 C 
BRANCH   2   4
HETATM    4  C8  UNL     1     -40.954   7.146 -19.475  1.00  0.00     0.709 A 
HETATM    5  N5  UNL     1     -40.538   7.052 -20.739  1.00  0.00    -0.022 N 
HETATM    6  C9  UNL     1     -39.941   5.905 -21.123  1.00  0.00     0.705 A 
ATOM      7  H5  UNL     1     -40.668   7.822 -21.396  1.00  0.00     0.203 HD
HETATM    8  N7  UNL     1     -39.760   4.880 -20.278  1.00  0.00    -0.022 N 
HETATM    9  C10 UNL     1     -40.190   5.002 -19.011  1.00  0.00     0.705 A 
ATOM     10  H7  UNL     1     -39.305   4.023 -20.591  1.00  0.00     0.203 HD
HETATM   11  N9  UNL     1     -40.787   6.137 -18.608  1.00  0.00    -0.022 N 
ATOM     12  H9  UNL     1     -41.113   6.230 -17.645  1.00  0.00     0.203 HD
BRANCH   6  13
HETATM   13  N6  UNL     1     -39.535   5.806 -22.342  1.00  0.00    -0.234 N 
ATOM     14  H62 UNL     1     -39.200   6.636 -22.832  1.00  0.00     0.174 HD
ATOM     15  H61 UNL     1     -39.563   4.889 -22.787  1.00  0.00     0.174 HD
ENDBRANCH   6  13
BRANCH   9  16
HETATM   16  N8  UNL     1     -40.041   4.057 -18.168  1.00  0.00    -0.234 N 
ATOM     17  H82 UNL     1     -39.095   3.767 -17.920  1.00  0.00     0.174 HD
ATOM     18  H81 UNL     1     -40.846   3.592 -17.747  1.00  0.00     0.174 HD
ENDBRANCH   9  16
ENDBRANCH   2   4
ENDBRANCH   1   2
BRANCH   1  19
HETATM   19  C3  UNL     1     -42.485   8.905 -16.833  1.00  0.00     0.249 C 
HETATM   20  O1  UNL     1     -42.490  10.181 -16.787  1.00  0.00    -0.271 OA
HETATM   21  N2  UNL     1     -42.268   8.172 -15.653  1.00  0.00    -0.248 N 
ATOM     22  H2  UNL     1     -42.265   7.156 -15.743  1.00  0.00     0.182 HD
BRANCH  21  23
HETATM   23  S1  UNL     1     -42.008   8.792 -14.090  1.00  0.00     0.274 S 
HETATM   24  O2  UNL     1     -40.724   9.610 -14.107  1.00  0.00    -0.199 OA
HETATM   25  O3  UNL     1     -41.915   7.713 -13.046  1.00  0.00    -0.199 OA
BRANCH  23  26
HETATM   26  C4  UNL     1     -43.257   9.911 -13.552  1.00  0.00     0.156 A 
HETATM   27  S2  UNL     1     -44.849  10.088 -14.187  1.00  0.00    -0.086 SA
HETATM   28  C5  UNL     1     -45.403  11.348 -13.185  1.00  0.00     0.054 A 
HETATM   29  C6  UNL     1     -44.326  11.597 -12.377  1.00  0.00     0.049 A 
HETATM   30  C7  UNL     1     -43.226  10.858 -12.569  1.00  0.00     0.131 A 
BRANCH  30  31
HETATM   31  O4  UNL     1     -42.052  11.034 -11.791  1.00  0.00    -0.221 OA
BRANCH  31  32
HETATM   32  N3  UNL     1     -41.616  10.124 -10.891  1.00  0.00    -0.208 N 
HETATM   33  N4  UNL     1     -40.505   9.562 -11.054  1.00  0.00    -0.325 N 
ATOM     34  H42 UNL     1     -39.943   9.804 -11.871  1.00  0.00     0.178 HD
ATOM     35  H41 UNL     1     -40.176   8.876 -10.375  1.00  0.00     0.178 HD
ATOM     36  H3  UNL     1     -42.189   9.894 -10.079  1.00  0.00     0.215 HD
ENDBRANCH  31  32
ENDBRANCH  30  31
ENDBRANCH  23  26
ENDBRANCH  21  23
ENDBRANCH   1  19
TORSDOF 9
ENDMDL
MODEL 4
REMARK VINA RESULT: -8.019312846      5.785      7.977
REMARK  9 active torsions:
REMARK  status: ('A' for Active; 'I' for Inactive)
REMARK    1  A    between atoms: N1_2  and  C2_3 
REMARK    2  A    between atoms: N1_2  and  C8_22 
REMARK    3  A    between atoms: C2_3  and  C3_4 
REMARK       I    between atoms: C3_4  and  N2_6 
REMARK    4  A    between atoms: N2_6  and  S1_8 
REMARK    5  A    between atoms: S1_8  and  C4_11 
REMARK    6  A    between atoms: C7_15  and  O4_16 
REMARK    7  A    between atoms: O4_16  and  N3_17 
REMARK    8  A    between atoms: C9_25  and  N6_26 
REMARK    9  A    between atoms: C10_31  and  N8_32 
ROOT
HETATM    1  C2  UNL     1     -44.391   3.198 -17.578  1.00  0.00     0.244 C 
ENDROOT
BRANCH   1   2
HETATM    2  N1  UNL     1     -43.739   4.465 -17.676  1.00  0.00    -0.212 N 
HETATM    3  C1  UNL     1     -44.213   5.616 -16.924  1.00  0.00     0.169 C 
BRANCH   2   4
HETATM    4  C8  UNL     1     -42.602   4.672 -18.497  1.00  0.00     0.709 A 
HETATM    5  N5  UNL     1     -42.768   5.136 -19.737  1.00  0.00    -0.022 N 
HETATM    6  C9  UNL     1     -41.667   5.327 -20.492  1.00  0.00     0.705 A 
ATOM      7  H5  UNL     1     -43.699   5.341 -20.103  1.00  0.00     0.203 HD
HETATM    8  N7  UNL     1     -40.435   5.064 -20.032  1.00  0.00    -0.022 N 
HETATM    9  C10 UNL     1     -40.298   4.597 -18.780  1.00  0.00     0.705 A 
ATOM     10  H7  UNL     1     -39.617   5.217 -20.622  1.00  0.00     0.203 HD
HETATM   11  N9  UNL     1     -41.382   4.400 -18.011  1.00  0.00    -0.022 N 
ATOM     12  H9  UNL     1     -41.277   4.046 -17.060  1.00  0.00     0.203 HD
BRANCH   6  13
HETATM   13  N6  UNL     1     -41.819   5.776 -21.690  1.00  0.00    -0.234 N 
ATOM     14  H62 UNL     1     -41.886   6.782 -21.848  1.00  0.00     0.174 HD
ATOM     15  H61 UNL     1     -41.868   5.104 -22.455  1.00  0.00     0.174 HD
ENDBRANCH   6  13
BRANCH   9  16
HETATM   16  N8  UNL     1     -39.148   4.333 -18.296  1.00  0.00    -0.234 N 
ATOM     17  H82 UNL     1     -38.670   3.486 -18.604  1.00  0.00     0.174 HD
ATOM     18  H81 UNL     1     -38.707   4.949 -17.613  1.00  0.00     0.174 HD
ENDBRANCH   9  16
ENDBRANCH   2   4
ENDBRANCH   1   2
BRANCH   1  19
HETATM   19  C3  UNL     1     -44.063   2.419 -16.367  1.00  0.00     0.249 C 
HETATM   20  O1  UNL     1     -42.844   2.048 -16.285  1.00  0.00    -0.271 OA
HETATM   21  N2  UNL     1     -44.962   2.073 -15.343  1.00  0.00    -0.248 N 
ATOM     22  H2  UNL     1     -45.926   2.386 -15.460  1.00  0.00     0.182 HD
BRANCH  21  23
HETATM   23  S1  UNL     1     -44.621   1.189 -13.930  1.00  0.00     0.274 S 
HETATM   24  O2  UNL     1     -45.938   0.858 -13.242  1.00  0.00    -0.199 OA
HETATM   25  O3  UNL     1     -43.722   1.935 -12.983  1.00  0.00    -0.199 OA
BRANCH  23  26
HETATM   26  C4  UNL     1     -43.857  -0.368 -14.233  1.00  0.00     0.156 A 
HETATM   27  S2  UNL     1     -44.570  -1.762 -14.951  1.00  0.00    -0.086 SA
HETATM   28  C5  UNL     1     -43.241  -2.823 -14.867  1.00  0.00     0.054 A 
HETATM   29  C6  UNL     1     -42.271  -2.056 -14.277  1.00  0.00     0.049 A 
HETATM   30  C7  UNL     1     -42.591  -0.797 -13.953  1.00  0.00     0.131 A 
BRANCH  30  31
HETATM   31  O4  UNL     1     -41.664   0.084 -13.336  1.00  0.00    -0.221 OA
BRANCH  31  32
HETATM   32  N3  UNL     1     -40.918   0.976 -14.025  1.00  0.00    -0.208 N 
HETATM   33  N4  UNL     1     -39.789   1.316 -13.593  1.00  0.00    -0.325 N 
ATOM     34  H42 UNL     1     -39.449   0.910 -12.721  1.00  0.00     0.178 HD
ATOM     35  H41 UNL     1     -39.225   1.989 -14.113  1.00  0.00     0.178 HD
ATOM     36  H3  UNL     1     -41.271   1.372 -14.897  1.00  0.00     0.215 HD
ENDBRANCH  31  32
ENDBRANCH  30  31
ENDBRANCH  23  26
ENDBRANCH  21  23
ENDBRANCH   1  19
TORSDOF 9
ENDMDL
MODEL 5
REMARK VINA RESULT: -7.932511305      1.030      1.507
REMARK  9 active torsions:
REMARK  status: ('A' for Active; 'I' for Inactive)
REMARK    1  A    between atoms: N1_2  and  C2_3 
REMARK    2  A    between atoms: N1_2  and  C8_22 
REMARK    3  A    between atoms: C2_3  and  C3_4 
REMARK       I    between atoms: C3_4  and  N2_6 
REMARK    4  A    between atoms: N2_6  and  S1_8 
REMARK    5  A    between atoms: S1_8  and  C4_11 
REMARK    6  A    between atoms: C7_15  and  O4_16 
REMARK    7  A    between atoms: O4_16  and  N3_17 
REMARK    8  A    between atoms: C9_25  and  N6_26 
REMARK    9  A    between atoms: C10_31  and  N8_32 
ROOT
HETATM    1  C2  UNL     1     -43.100   8.451 -18.264  1.00  0.00     0.244 C 
ENDROOT
BRANCH   1   2
HETATM    2  N1  UNL     1     -41.982   8.034 -19.047  1.00  0.00    -0.212 N 
HETATM    3  C1  UNL     1     -41.057   9.001 -19.616  1.00  0.00     0.169 C 
BRANCH   2   4
HETATM    4  C8  UNL     1     -41.705   6.668 -19.307  1.00  0.00     0.709 A 
HETATM    5  N5  UNL     1     -42.497   5.989 -20.140  1.00  0.00    -0.022 N 
HETATM    6  C9  UNL     1     -42.205   4.693 -20.371  1.00  0.00     0.705 A 
ATOM      7  H5  UNL     1     -43.297   6.436 -20.587  1.00  0.00     0.203 HD
HETATM    8  N7  UNL     1     -41.159   4.084 -19.793  1.00  0.00    -0.022 N 
HETATM    9  C10 UNL     1     -40.380   4.792 -18.958  1.00  0.00     0.705 A 
ATOM     10  H7  UNL     1     -40.959   3.103 -19.983  1.00  0.00     0.203 HD
HETATM   11  N9  UNL     1     -40.652   6.086 -18.715  1.00  0.00    -0.022 N 
ATOM     12  H9  UNL     1     -40.059   6.623 -18.081  1.00  0.00     0.203 HD
BRANCH   6  13
HETATM   13  N6  UNL     1     -42.964   4.030 -21.174  1.00  0.00    -0.234 N 
ATOM     14  H62 UNL     1     -43.060   4.333 -22.144  1.00  0.00     0.174 HD
ATOM     15  H61 UNL     1     -43.454   3.212 -20.812  1.00  0.00     0.174 HD
ENDBRANCH   6  13
BRANCH   9  16
HETATM   16  N8  UNL     1     -39.373   4.260 -18.384  1.00  0.00    -0.234 N 
ATOM     17  H82 UNL     1     -38.572   3.987 -18.954  1.00  0.00     0.174 HD
ATOM     18  H81 UNL     1     -39.359   4.106 -17.376  1.00  0.00     0.174 HD
ENDBRANCH   9  16
ENDBRANCH   2   4
ENDBRANCH   1   2
BRANCH   1  19
HETATM   19  C3  UNL     1     -42.763   8.991 -16.931  1.00  0.00     0.249 C 
HETATM   20  O1  UNL     1     -42.669  10.263 -16.879  1.00  0.00    -0.271 OA
HETATM   21  N2  UNL     1     -42.548   8.233 -15.766  1.00  0.00    -0.248 N 
ATOM     22  H2  UNL     1     -42.627   7.221 -15.862  1.00  0.00     0.182 HD
BRANCH  21  23
HETATM   23  S1  UNL     1     -42.171   8.818 -14.214  1.00  0.00     0.274 S 
HETATM   24  O2  UNL     1     -40.862   9.591 -14.299  1.00  0.00    -0.199 OA
HETATM   25  O3  UNL     1     -42.053   7.720 -13.193  1.00  0.00    -0.199 OA
BRANCH  23  26
HETATM   26  C4  UNL     1     -43.344   9.971 -13.585  1.00  0.00     0.156 A 
HETATM   27  S2  UNL     1     -44.959  10.225 -14.126  1.00  0.00    -0.086 SA
HETATM   28  C5  UNL     1     -45.409  11.481 -13.069  1.00  0.00     0.054 A 
HETATM   29  C6  UNL     1     -44.280  11.670 -12.317  1.00  0.00     0.049 A 
HETATM   30  C7  UNL     1     -43.222  10.893 -12.584  1.00  0.00     0.131 A 
BRANCH  30  31
HETATM   31  O4  UNL     1     -42.001  11.005 -11.868  1.00  0.00    -0.221 OA
BRANCH  31  32
HETATM   32  N3  UNL     1     -41.572  10.077 -10.985  1.00  0.00    -0.208 N 
HETATM   33  N4  UNL     1     -40.517   9.434 -11.212  1.00  0.00    -0.325 N 
ATOM     34  H42 UNL     1     -39.995   9.626 -12.068  1.00  0.00     0.178 HD
ATOM     35  H41 UNL     1     -40.193   8.733 -10.545  1.00  0.00     0.178 HD
ATOM     36  H3  UNL     1     -42.105   9.897 -10.133  1.00  0.00     0.215 HD
ENDBRANCH  31  32
ENDBRANCH  30  31
ENDBRANCH  23  26
ENDBRANCH  21  23
ENDBRANCH   1  19
TORSDOF 9
ENDMDL
