MODEL 1
REMARK VINA RESULT: -7.419831625      0.000      0.000
REMARK  10 active torsions:
REMARK  status: ('A' for Active; 'I' for Inactive)
REMARK    1  A    between atoms: C5_9  and  N3_10 
REMARK       I    between atoms: N3_10  and  C6_12 
REMARK       I    between atoms: C6_12  and  N6_27 
REMARK    2  A    between atoms: N4_13  and  C7_15 
REMARK    3  A    between atoms: C7_15  and  C8_16 
REMARK    4  A    between atoms: C8_16  and  O2_17 
REMARK    5  A    between atoms: C8_16  and  C9_19 
REMARK    6  A    between atoms: C9_19  and  C10_20 
REMARK    7  A    between atoms: C10_20  and  O3_21 
REMARK    8  A    between atoms: N5_23  and  O4_25 
REMARK    9  A    between atoms: N6_27  and  N7_29 
REMARK   10  A    between atoms: C11_32  and  N8_33 
ROOT
HETATM    1  N1  UNL     1     -44.279   2.281 -21.314  1.00  0.00    -0.190 NA
HETATM    2  C1  UNL     1     -44.302   2.880 -20.327  1.00  0.00     0.120 C 
HETATM    3  C2  UNL     1     -44.352   3.644 -19.089  1.00  0.00     0.152 A 
HETATM    4  N2  UNL     1     -45.464   3.682 -18.330  1.00  0.00    -0.313 N 
ATOM      5  H2  UNL     1     -46.294   3.167 -18.622  1.00  0.00     0.170 HD
HETATM    6  C3  UNL     1     -45.489   4.396 -17.185  1.00  0.00     0.248 A 
HETATM    7  O1  UNL     1     -46.554   4.394 -16.520  1.00  0.00    -0.268 OA
HETATM    8  C4  UNL     1     -44.421   5.105 -16.737  1.00  0.00     0.107 A 
HETATM    9  C5  UNL     1     -43.262   5.100 -17.473  1.00  0.00     0.090 A 
HETATM   10  C11 UNL     1     -43.254   4.360 -18.649  1.00  0.00     0.167 A 
ENDROOT
BRANCH  10  11
HETATM   11  N8  UNL     1     -42.088   4.304 -19.471  1.00  0.00    -0.110 N 
HETATM   12  O7  UNL     1     -41.174   3.524 -19.129  1.00  0.00    -0.532 OA
HETATM   13  O8  UNL     1     -41.918   5.044 -20.595  1.00  0.00    -0.532 OA
ENDBRANCH  10  11
BRANCH   9  14
HETATM   14  N3  UNL     1     -42.119   5.804 -17.081  1.00  0.00    -0.188 N 
HETATM   15  C6  UNL     1     -41.947   7.143 -17.532  1.00  0.00     0.698 C 
HETATM   16  N4  UNL     1     -41.113   7.333 -18.478  1.00  0.00    -0.222 N 
HETATM   17  N6  UNL     1     -42.705   8.170 -16.907  1.00  0.00    -0.072 N 
ATOM     18  H4  UNL     1     -40.617   6.528 -18.861  1.00  0.00     0.177 HD
ATOM     19  H6  UNL     1     -42.945   9.021 -17.415  1.00  0.00     0.212 HD
ATOM     20  H3  UNL     1     -41.421   5.365 -16.482  1.00  0.00     0.184 HD
BRANCH  16  21
HETATM   21  C7  UNL     1     -40.845   8.625 -19.025  1.00  0.00     0.176 C 
BRANCH  21  22
HETATM   22  C8  UNL     1     -39.627   8.535 -19.930  1.00  0.00     0.186 C 
BRANCH  22  23
HETATM   23  O2  UNL     1     -38.593   7.993 -19.157  1.00  0.00    -0.388 OA
ATOM     24  H2  UNL     1     -37.996   7.567 -19.761  1.00  0.00     0.210 HD
ENDBRANCH  22  23
BRANCH  22  25
HETATM   25  C9  UNL     1     -39.910   7.687 -21.111  1.00  0.00     0.063 C 
HETATM   26  N5  UNL     1     -39.396   6.512 -21.152  1.00  0.00    -0.273 N 
ATOM     27  H5  UNL     1     -38.820   6.239 -20.356  1.00  0.00     0.193 HD
BRANCH  25  28
HETATM   28  C10 UNL     1     -40.751   8.139 -22.235  1.00  0.00     0.221 C 
BRANCH  28  29
HETATM   29  O3  UNL     1     -41.691   7.163 -22.603  1.00  0.00    -0.395 OA
ATOM     30  H3  UNL     1     -42.582   7.481 -22.510  1.00  0.00     0.209 HD
ENDBRANCH  28  29
ENDBRANCH  25  28
BRANCH  26  31
HETATM   31  O4  UNL     1     -39.535   5.598 -22.135  1.00  0.00    -0.290 OA
ATOM     32  H4  UNL     1     -38.849   5.072 -22.528  1.00  0.00     0.244 HD
ENDBRANCH  26  31
ENDBRANCH  22  25
ENDBRANCH  21  22
ENDBRANCH  16  21
BRANCH  17  33
HETATM   33  N7  UNL     1     -43.116   7.990 -15.581  1.00  0.00    -0.024 N 
HETATM   34  O5  UNL     1     -44.292   8.201 -15.249  1.00  0.00    -0.516 OA
HETATM   35  O6  UNL     1     -42.242   7.572 -14.597  1.00  0.00    -0.516 OA
ENDBRANCH  17  33
ENDBRANCH   9  14
TORSDOF 10
ENDMDL
MODEL 2
REMARK VINA RESULT: -7.339530943      2.955      6.106
REMARK  10 active torsions:
REMARK  status: ('A' for Active; 'I' for Inactive)
REMARK    1  A    between atoms: C5_9  and  N3_10 
REMARK       I    between atoms: N3_10  and  C6_12 
REMARK       I    between atoms: C6_12  and  N6_27 
REMARK    2  A    between atoms: N4_13  and  C7_15 
REMARK    3  A    between atoms: C7_15  and  C8_16 
REMARK    4  A    between atoms: C8_16  and  O2_17 
REMARK    5  A    between atoms: C8_16  and  C9_19 
REMARK    6  A    between atoms: C9_19  and  C10_20 
REMARK    7  A    between atoms: C10_20  and  O3_21 
REMARK    8  A    between atoms: N5_23  and  O4_25 
REMARK    9  A    between atoms: N6_27  and  N7_29 
REMARK   10  A    between atoms: C11_32  and  N8_33 
ROOT
HETATM    1  N1  UNL     1     -43.482  11.177 -12.055  1.00  0.00    -0.190 NA
HETATM    2  C1  UNL     1     -43.527  10.884 -13.171  1.00  0.00     0.120 C 
HETATM    3  C2  UNL     1     -43.607  10.512 -14.576  1.00  0.00     0.152 A 
HETATM    4  N2  UNL     1     -44.537  11.043 -15.393  1.00  0.00    -0.313 N 
ATOM      5  H2  UNL     1     -45.204  11.721 -15.026  1.00  0.00     0.170 HD
HETATM    6  C3  UNL     1     -44.594  10.685 -16.693  1.00  0.00     0.248 A 
HETATM    7  O1  UNL     1     -45.482  11.213 -17.405  1.00  0.00    -0.268 OA
HETATM    8  C4  UNL     1     -43.737   9.788 -17.246  1.00  0.00     0.107 A 
HETATM    9  C5  UNL     1     -42.769   9.217 -16.458  1.00  0.00     0.090 A 
HETATM   10  C11 UNL     1     -42.725   9.597 -15.122  1.00  0.00     0.167 A 
ENDROOT
BRANCH  10  11
HETATM   11  N8  UNL     1     -41.750   9.049 -14.235  1.00  0.00    -0.110 N 
HETATM   12  O7  UNL     1     -40.725   9.728 -14.010  1.00  0.00    -0.532 OA
HETATM   13  O8  UNL     1     -41.871   7.842 -13.628  1.00  0.00    -0.532 OA
ENDBRANCH  10  11
BRANCH   9  14
HETATM   14  N3  UNL     1     -41.850   8.286 -16.951  1.00  0.00    -0.188 N 
HETATM   15  C6  UNL     1     -42.082   7.699 -18.226  1.00  0.00     0.698 C 
HETATM   16  N4  UNL     1     -42.524   6.502 -18.242  1.00  0.00    -0.222 N 
HETATM   17  N6  UNL     1     -41.810   8.473 -19.387  1.00  0.00    -0.072 N 
ATOM     18  H4  UNL     1     -42.687   6.030 -17.352  1.00  0.00     0.177 HD
ATOM     19  H6  UNL     1     -42.314   8.300 -20.257  1.00  0.00     0.212 HD
ATOM     20  H3  UNL     1     -41.026   8.032 -16.405  1.00  0.00     0.184 HD
BRANCH  16  21
HETATM   21  C7  UNL     1     -42.800   5.796 -19.452  1.00  0.00     0.176 C 
BRANCH  21  22
HETATM   22  C8  UNL     1     -42.130   4.432 -19.391  1.00  0.00     0.186 C 
BRANCH  22  23
HETATM   23  O2  UNL     1     -42.516   3.744 -20.548  1.00  0.00    -0.388 OA
ATOM     24  H2  UNL     1     -42.985   2.969 -20.260  1.00  0.00     0.210 HD
ENDBRANCH  22  23
BRANCH  22  25
HETATM   25  C9  UNL     1     -40.656   4.572 -19.321  1.00  0.00     0.063 C 
HETATM   26  N5  UNL     1     -40.060   4.188 -18.251  1.00  0.00    -0.273 N 
ATOM     27  H5  UNL     1     -40.651   3.809 -17.512  1.00  0.00     0.193 HD
BRANCH  25  28
HETATM   28  C10 UNL     1     -39.855   5.130 -20.426  1.00  0.00     0.221 C 
BRANCH  28  29
HETATM   29  O3  UNL     1     -38.922   4.201 -20.911  1.00  0.00    -0.395 OA
ATOM     30  H3  UNL     1     -38.595   3.638 -20.219  1.00  0.00     0.209 HD
ENDBRANCH  28  29
ENDBRANCH  25  28
BRANCH  26  31
HETATM   31  O4  UNL     1     -38.736   4.234 -17.999  1.00  0.00    -0.290 OA
ATOM     32  H4  UNL     1     -38.255   4.945 -17.592  1.00  0.00     0.244 HD
ENDBRANCH  26  31
ENDBRANCH  22  25
ENDBRANCH  21  22
ENDBRANCH  16  21
BRANCH  17  33
HETATM   33  N7  UNL     1     -40.836   9.476 -19.312  1.00  0.00    -0.024 N 
HETATM   34  O5  UNL     1     -41.089  10.631 -19.685  1.00  0.00    -0.516 OA
HETATM   35  O6  UNL     1     -39.569   9.229 -18.824  1.00  0.00    -0.516 OA
ENDBRANCH  17  33
ENDBRANCH   9  14
TORSDOF 10
ENDMDL
MODEL 3
REMARK VINA RESULT: -7.047633574      2.807      5.565
REMARK  10 active torsions:
REMARK  status: ('A' for Active; 'I' for Inactive)
REMARK    1  A    between atoms: C5_9  and  N3_10 
REMARK       I    between atoms: N3_10  and  C6_12 
REMARK       I    between atoms: C6_12  and  N6_27 
REMARK    2  A    between atoms: N4_13  and  C7_15 
REMARK    3  A    between atoms: C7_15  and  C8_16 
REMARK    4  A    between atoms: C8_16  and  O2_17 
REMARK    5  A    between atoms: C8_16  and  C9_19 
REMARK    6  A    between atoms: C9_19  and  C10_20 
REMARK    7  A    between atoms: C10_20  and  O3_21 
REMARK    8  A    between atoms: N5_23  and  O4_25 
REMARK    9  A    between atoms: N6_27  and  N7_29 
REMARK   10  A    between atoms: C11_32  and  N8_33 
ROOT
HETATM    1  N1  UNL     1     -43.340  10.731 -11.533  1.00  0.00    -0.190 NA
HETATM    2  C1  UNL     1     -43.563  10.141 -12.501  1.00  0.00     0.120 C 
HETATM    3  C2  UNL     1     -43.860   9.387 -13.710  1.00  0.00     0.152 A 
HETATM    4  N2  UNL     1     -45.123   9.229 -14.148  1.00  0.00    -0.313 N 
ATOM      5  H2  UNL     1     -45.895   9.643 -13.626  1.00  0.00     0.170 HD
HETATM    6  C3  UNL     1     -45.377   8.526 -15.271  1.00  0.00     0.248 A 
HETATM    7  O1  UNL     1     -46.574   8.412 -15.630  1.00  0.00    -0.268 OA
HETATM    8  C4  UNL     1     -44.398   7.948 -16.014  1.00  0.00     0.107 A 
HETATM    9  C5  UNL     1     -43.091   8.079 -15.612  1.00  0.00     0.090 A 
HETATM   10  C11 UNL     1     -42.848   8.805 -14.453  1.00  0.00     0.167 A 
ENDROOT
BRANCH  10  11
HETATM   11  N8  UNL     1     -41.518   8.987 -13.967  1.00  0.00    -0.110 N 
HETATM   12  O7  UNL     1     -40.834   9.900 -14.479  1.00  0.00    -0.532 OA
HETATM   13  O8  UNL     1     -40.959   8.232 -12.990  1.00  0.00    -0.532 OA
ENDBRANCH  10  11
BRANCH   9  14
HETATM   14  N3  UNL     1     -42.026   7.514 -16.320  1.00  0.00    -0.188 N 
HETATM   15  C6  UNL     1     -42.257   7.024 -17.636  1.00  0.00     0.698 C 
HETATM   16  N4  UNL     1     -42.349   5.759 -17.776  1.00  0.00    -0.222 N 
HETATM   17  N6  UNL     1     -42.369   7.962 -18.697  1.00  0.00    -0.072 N 
ATOM     18  H4  UNL     1     -42.254   5.168 -16.950  1.00  0.00     0.177 HD
ATOM     19  H6  UNL     1     -42.919   7.744 -19.528  1.00  0.00     0.212 HD
ATOM     20  H3  UNL     1     -41.099   7.454 -15.899  1.00  0.00     0.184 HD
BRANCH  16  21
HETATM   21  C7  UNL     1     -42.580   5.136 -19.040  1.00  0.00     0.176 C 
BRANCH  21  22
HETATM   22  C8  UNL     1     -41.242   4.791 -19.672  1.00  0.00     0.186 C 
BRANCH  22  23
HETATM   23  O2  UNL     1     -41.344   3.473 -20.134  1.00  0.00    -0.388 OA
ATOM     24  H2  UNL     1     -41.273   2.911 -19.371  1.00  0.00     0.210 HD
ENDBRANCH  22  23
BRANCH  22  25
HETATM   25  C9  UNL     1     -40.929   5.721 -20.783  1.00  0.00     0.063 C 
HETATM   26  N5  UNL     1     -41.796   5.866 -21.717  1.00  0.00    -0.273 N 
ATOM     27  H5  UNL     1     -42.654   5.322 -21.629  1.00  0.00     0.193 HD
BRANCH  25  28
HETATM   28  C10 UNL     1     -39.667   6.481 -20.855  1.00  0.00     0.221 C 
BRANCH  28  29
HETATM   29  O3  UNL     1     -39.316   7.023 -19.608  1.00  0.00    -0.395 OA
ATOM     30  H3  UNL     1     -39.603   7.925 -19.524  1.00  0.00     0.209 HD
ENDBRANCH  28  29
ENDBRANCH  25  28
BRANCH  26  31
HETATM   31  O4  UNL     1     -41.696   6.659 -22.803  1.00  0.00    -0.290 OA
ATOM     32  H4  UNL     1     -41.969   6.453 -23.689  1.00  0.00     0.244 HD
ENDBRANCH  26  31
ENDBRANCH  22  25
ENDBRANCH  21  22
ENDBRANCH  16  21
BRANCH  17  33
HETATM   33  N7  UNL     1     -41.710   9.192 -18.579  1.00  0.00    -0.024 N 
HETATM   34  O5  UNL     1     -42.321  10.256 -18.756  1.00  0.00    -0.516 OA
HETATM   35  O6  UNL     1     -40.369   9.273 -18.262  1.00  0.00    -0.516 OA
ENDBRANCH  17  33
ENDBRANCH   9  14
TORSDOF 10
ENDMDL
MODEL 4
REMARK VINA RESULT: -7.037621085      1.738      2.232
REMARK  10 active torsions:
REMARK  status: ('A' for Active; 'I' for Inactive)
REMARK    1  A    between atoms: C5_9  and  N3_10 
REMARK       I    between atoms: N3_10  and  C6_12 
REMARK       I    between atoms: C6_12  and  N6_27 
REMARK    2  A    between atoms: N4_13  and  C7_15 
REMARK    3  A    between atoms: C7_15  and  C8_16 
REMARK    4  A    between atoms: C8_16  and  O2_17 
REMARK    5  A    between atoms: C8_16  and  C9_19 
REMARK    6  A    between atoms: C9_19  and  C10_20 
REMARK    7  A    between atoms: C10_20  and  O3_21 
REMARK    8  A    between atoms: N5_23  and  O4_25 
REMARK    9  A    between atoms: N6_27  and  N7_29 
REMARK   10  A    between atoms: C11_32  and  N8_33 
ROOT
HETATM    1  N1  UNL     1     -46.084   3.568 -19.269  1.00  0.00    -0.190 NA
HETATM    2  C1  UNL     1     -45.742   4.376 -18.519  1.00  0.00     0.120 C 
HETATM    3  C2  UNL     1     -45.328   5.408 -17.579  1.00  0.00     0.152 A 
HETATM    4  N2  UNL     1     -46.208   5.993 -16.745  1.00  0.00    -0.313 N 
ATOM      5  H2  UNL     1     -47.188   5.713 -16.766  1.00  0.00     0.170 HD
HETATM    6  C3  UNL     1     -45.804   6.948 -15.881  1.00  0.00     0.248 A 
HETATM    7  O1  UNL     1     -46.669   7.457 -15.128  1.00  0.00    -0.268 OA
HETATM    8  C4  UNL     1     -44.515   7.368 -15.800  1.00  0.00     0.107 A 
HETATM    9  C5  UNL     1     -43.577   6.803 -16.628  1.00  0.00     0.090 A 
HETATM   10  C11 UNL     1     -44.010   5.823 -17.512  1.00  0.00     0.167 A 
ENDROOT
BRANCH  10  11
HETATM   11  N8  UNL     1     -43.098   5.187 -18.407  1.00  0.00    -0.110 N 
HETATM   12  O7  UNL     1     -42.400   4.253 -17.956  1.00  0.00    -0.532 OA
HETATM   13  O8  UNL     1     -42.947   5.536 -19.709  1.00  0.00    -0.532 OA
ENDBRANCH  10  11
BRANCH   9  14
HETATM   14  N3  UNL     1     -42.231   7.181 -16.608  1.00  0.00    -0.188 N 
HETATM   15  C6  UNL     1     -41.789   8.205 -17.491  1.00  0.00     0.698 C 
HETATM   16  N4  UNL     1     -41.139   7.839 -18.525  1.00  0.00    -0.222 N 
HETATM   17  N6  UNL     1     -42.097   9.555 -17.168  1.00  0.00    -0.072 N 
ATOM     18  H4  UNL     1     -40.969   6.843 -18.668  1.00  0.00     0.177 HD
ATOM     19  H6  UNL     1     -42.189  10.257 -17.903  1.00  0.00     0.212 HD
ATOM     20  H3  UNL     1     -41.575   6.728 -15.970  1.00  0.00     0.184 HD
BRANCH  16  21
HETATM   21  C7  UNL     1     -40.640   8.764 -19.493  1.00  0.00     0.176 C 
BRANCH  21  22
HETATM   22  C8  UNL     1     -39.558   8.082 -20.315  1.00  0.00     0.186 C 
BRANCH  22  23
HETATM   23  O2  UNL     1     -38.488   7.836 -19.445  1.00  0.00    -0.388 OA
ATOM     24  H2  UNL     1     -37.713   8.200 -19.858  1.00  0.00     0.210 HD
ENDBRANCH  22  23
BRANCH  22  25
HETATM   25  C9  UNL     1     -40.063   6.822 -20.908  1.00  0.00     0.063 C 
HETATM   26  N5  UNL     1     -40.941   6.898 -21.841  1.00  0.00    -0.273 N 
ATOM     27  H5  UNL     1     -41.234   7.836 -22.114  1.00  0.00     0.193 HD
BRANCH  25  28
HETATM   28  C10 UNL     1     -39.599   5.492 -20.468  1.00  0.00     0.221 C 
BRANCH  28  29
HETATM   29  O3  UNL     1     -39.813   5.297 -19.095  1.00  0.00    -0.395 OA
ATOM     30  H3  UNL     1     -39.434   4.479 -18.794  1.00  0.00     0.209 HD
ENDBRANCH  28  29
ENDBRANCH  25  28
BRANCH  26  31
HETATM   31  O4  UNL     1     -41.517   5.871 -22.500  1.00  0.00    -0.290 OA
ATOM     32  H4  UNL     1     -42.105   5.927 -23.243  1.00  0.00     0.244 HD
ENDBRANCH  26  31
ENDBRANCH  22  25
ENDBRANCH  21  22
ENDBRANCH  16  21
BRANCH  17  33
HETATM   33  N7  UNL     1     -42.271   9.902 -15.823  1.00  0.00    -0.024 N 
HETATM   34  O5  UNL     1     -43.184  10.668 -15.481  1.00  0.00    -0.516 OA
HETATM   35  O6  UNL     1     -41.448   9.410 -14.831  1.00  0.00    -0.516 OA
ENDBRANCH  17  33
ENDBRANCH   9  14
TORSDOF 10
ENDMDL
MODEL 5
REMARK VINA RESULT: -6.938339740      2.627      4.770
REMARK  10 active torsions:
REMARK  status: ('A' for Active; 'I' for Inactive)
REMARK    1  A    between atoms: C5_9  and  N3_10 
REMARK       I    between atoms: N3_10  and  C6_12 
REMARK       I    between atoms: C6_12  and  N6_27 
REMARK    2  A    between atoms: N4_13  and  C7_15 
REMARK    3  A    between atoms: C7_15  and  C8_16 
REMARK    4  A    between atoms: C8_16  and  O2_17 
REMARK    5  A    between atoms: C8_16  and  C9_19 
REMARK    6  A    between atoms: C9_19  and  C10_20 
REMARK    7  A    between atoms: C10_20  and  O3_21 
REMARK    8  A    between atoms: N5_23  and  O4_25 
REMARK    9  A    between atoms: N6_27  and  N7_29 
REMARK   10  A    between atoms: C11_32  and  N8_33 
ROOT
HETATM    1  N1  UNL     1     -47.826   3.818 -15.485  1.00  0.00    -0.190 NA
HETATM    2  C1  UNL     1     -46.790   3.548 -15.918  1.00  0.00     0.120 C 
HETATM    3  C2  UNL     1     -45.474   3.213 -16.444  1.00  0.00     0.152 A 
HETATM    4  N2  UNL     1     -44.622   2.428 -15.758  1.00  0.00    -0.313 N 
ATOM      5  H2  UNL     1     -44.897   2.056 -14.850  1.00  0.00     0.170 HD
HETATM    6  C3  UNL     1     -43.407   2.130 -16.264  1.00  0.00     0.248 A 
HETATM    7  O1  UNL     1     -42.656   1.393 -15.579  1.00  0.00    -0.268 OA
HETATM    8  C4  UNL     1     -42.977   2.591 -17.466  1.00  0.00     0.107 A 
HETATM    9  C5  UNL     1     -43.807   3.396 -18.206  1.00  0.00     0.090 A 
HETATM   10  C11 UNL     1     -45.054   3.694 -17.671  1.00  0.00     0.167 A 
ENDROOT
BRANCH  10  11
HETATM   11  N8  UNL     1     -45.975   4.525 -18.377  1.00  0.00    -0.110 N 
HETATM   12  O7  UNL     1     -45.797   5.761 -18.326  1.00  0.00    -0.532 OA
HETATM   13  O8  UNL     1     -47.025   4.053 -19.093  1.00  0.00    -0.532 OA
ENDBRANCH  10  11
BRANCH   9  14
HETATM   14  N3  UNL     1     -43.439   3.913 -19.452  1.00  0.00    -0.188 N 
HETATM   15  C6  UNL     1     -42.082   3.811 -19.867  1.00  0.00     0.698 C 
HETATM   16  N4  UNL     1     -41.372   4.868 -19.793  1.00  0.00    -0.222 N 
HETATM   17  N6  UNL     1     -41.608   2.553 -20.330  1.00  0.00    -0.072 N 
ATOM     18  H4  UNL     1     -41.805   5.724 -19.447  1.00  0.00     0.177 HD
ATOM     19  H6  UNL     1     -40.623   2.304 -20.243  1.00  0.00     0.212 HD
ATOM     20  H3  UNL     1     -44.133   4.356 -20.055  1.00  0.00     0.184 HD
BRANCH  16  21
HETATM   21  C7  UNL     1     -39.996   4.904 -20.176  1.00  0.00     0.176 C 
BRANCH  21  22
HETATM   22  C8  UNL     1     -39.800   6.000 -21.210  1.00  0.00     0.186 C 
BRANCH  22  23
HETATM   23  O2  UNL     1     -40.831   5.857 -22.148  1.00  0.00    -0.388 OA
ATOM     24  H2  UNL     1     -41.278   6.694 -22.192  1.00  0.00     0.210 HD
ENDBRANCH  22  23
BRANCH  22  25
HETATM   25  C9  UNL     1     -39.842   7.338 -20.575  1.00  0.00     0.063 C 
HETATM   26  N5  UNL     1     -39.012   7.586 -19.627  1.00  0.00    -0.273 N 
ATOM     27  H5  UNL     1     -38.373   6.834 -19.374  1.00  0.00     0.193 HD
BRANCH  25  28
HETATM   28  C10 UNL     1     -40.793   8.387 -20.986  1.00  0.00     0.221 C 
BRANCH  28  29
HETATM   29  O3  UNL     1     -40.641   8.723 -22.341  1.00  0.00    -0.395 OA
ATOM     30  H3  UNL     1     -40.113   9.505 -22.451  1.00  0.00     0.209 HD
ENDBRANCH  28  29
ENDBRANCH  25  28
BRANCH  26  31
HETATM   31  O4  UNL     1     -38.896   8.736 -18.930  1.00  0.00    -0.290 OA
ATOM     32  H4  UNL     1     -38.092   9.150 -18.641  1.00  0.00     0.244 HD
ENDBRANCH  26  31
ENDBRANCH  22  25
ENDBRANCH  21  22
ENDBRANCH  16  21
BRANCH  17  33
HETATM   33  N7  UNL     1     -42.522   1.662 -20.907  1.00  0.00    -0.024 N 
HETATM   34  O5  UNL     1     -42.308   0.441 -20.894  1.00  0.00    -0.516 OA
HETATM   35  O6  UNL     1     -43.687   2.098 -21.505  1.00  0.00    -0.516 OA
ENDBRANCH  17  33
ENDBRANCH   9  14
TORSDOF 10
ENDMDL
