MODEL 1
REMARK VINA RESULT: -8.071248957      0.000      0.000
REMARK  10 active torsions:
REMARK  status: ('A' for Active; 'I' for Inactive)
REMARK    1  A    between atoms: O1_2  and  C2_3 
REMARK       I    between atoms: C2_3  and  N1_5 
REMARK    2  A    between atoms: N1_5  and  N2_7 
REMARK    3  A    between atoms: N2_7  and  C3_9 
REMARK    4  A    between atoms: C4_12  and  N4_13 
REMARK    5  A    between atoms: N4_13  and  N5_15 
REMARK    6  A    between atoms: N6_17  and  N7_19 
REMARK    7  A    between atoms: N7_19  and  N8_21 
REMARK    8  A    between atoms: N9_26  and  C8_27 
REMARK    9  A    between atoms: C8_27  and  C10_29 
REMARK   10  A    between atoms: C11_32  and  N10_33 
ROOT
HETATM    1  C3  UNL     1     -39.847   4.794 -19.029  1.00  0.00     0.713 C 
HETATM    2  N3  UNL     1     -40.847   3.945 -19.360  1.00  0.00    -0.168 N 
ATOM      3  H3  UNL     1     -40.735   2.978 -19.057  1.00  0.00     0.186 HD
HETATM    4  C4  UNL     1     -41.970   4.226 -20.040  1.00  0.00     0.206 C 
HETATM    5  C7  UNL     1     -42.405   5.495 -20.412  1.00  0.00     0.308 C 
HETATM    6  O3  UNL     1     -43.371   5.494 -21.167  1.00  0.00    -0.263 OA
HETATM    7  N9  UNL     1     -41.955   6.705 -20.093  1.00  0.00    -0.129 N 
HETATM    8  C11 UNL     1     -40.768   6.978 -19.519  1.00  0.00     0.696 C 
HETATM    9  N11 UNL     1     -39.837   6.129 -19.001  1.00  0.00    -0.021 N 
ATOM     10  H11 UNL     1     -39.041   6.564 -18.536  1.00  0.00     0.203 HD
ENDROOT
BRANCH   4  11
HETATM   11  N4  UNL     1     -42.706   3.230 -20.377  1.00  0.00    -0.265 N 
ATOM     12  H4  UNL     1     -43.658   3.379 -20.711  1.00  0.00     0.190 HD
BRANCH  11  13
HETATM   13  N5  UNL     1     -42.182   1.945 -20.280  1.00  0.00    -0.226 N 
HETATM   14  N6  UNL     1     -42.481   1.090 -21.156  1.00  0.00    -0.218 N 
ATOM     15  H6  UNL     1     -42.108   0.143 -21.101  1.00  0.00     0.211 HD
ATOM     16  H5  UNL     1     -41.563   1.698 -19.508  1.00  0.00     0.210 HD
BRANCH  14  17
HETATM   17  N7  UNL     1     -43.329   1.454 -22.199  1.00  0.00    -0.247 N 
ATOM     18  H7  UNL     1     -42.989   2.005 -22.988  1.00  0.00     0.203 HD
BRANCH  17  19
HETATM   19  N8  UNL     1     -44.657   1.038 -22.128  1.00  0.00    -0.224 NA
HETATM   20  C5  UNL     1     -45.580   2.112 -21.910  1.00  0.00     0.137 C 
HETATM   21  C6  UNL     1     -45.035   0.138 -23.183  1.00  0.00     0.137 C 
ENDBRANCH  17  19
ENDBRANCH  14  17
ENDBRANCH  11  13
ENDBRANCH   4  11
BRANCH   1  22
HETATM   22  N2  UNL     1     -38.749   4.201 -18.699  1.00  0.00    -0.127 N 
ATOM     23  H2  UNL     1     -38.036   4.087 -19.419  1.00  0.00     0.205 HD
BRANCH  22  24
HETATM   24  N1  UNL     1     -38.474   3.713 -17.442  1.00  0.00    -0.231 N 
HETATM   25  C2  UNL     1     -37.336   2.883 -17.240  1.00  0.00     0.379 C 
HETATM   26  O2  UNL     1     -36.566   2.582 -18.204  1.00  0.00    -0.237 OA
ATOM     27  H1  UNL     1     -39.083   3.945 -16.657  1.00  0.00     0.193 HD
BRANCH  25  28
HETATM   28  O1  UNL     1     -36.994   2.353 -16.004  1.00  0.00    -0.308 OA
HETATM   29  C1  UNL     1     -37.403   1.046 -15.593  1.00  0.00     0.215 C 
ENDBRANCH  25  28
ENDBRANCH  22  24
ENDBRANCH   1  22
BRANCH   7  30
HETATM   30  C8  UNL     1     -42.768   7.815 -20.364  1.00  0.00     0.208 C 
HETATM   31  C9  UNL     1     -44.185   7.786 -19.892  1.00  0.00     0.045 C 
BRANCH  30  32
HETATM   32  C10 UNL     1     -42.822   8.131 -21.808  1.00  0.00     0.197 C 
HETATM   33  O4  UNL     1     -43.886   8.455 -22.353  1.00  0.00    -0.646 OA
HETATM   34  O5  UNL     1     -41.676   8.063 -22.555  1.00  0.00    -0.646 OA
ENDBRANCH  30  32
ENDBRANCH   7  30
BRANCH   8  35
HETATM   35  N10 UNL     1     -40.451   8.195 -19.442  1.00  0.00    -0.234 N 
ATOM     36 2H10 UNL     1     -41.247   8.833 -19.467  1.00  0.00     0.174 HD
ATOM     37 1H10 UNL     1     -39.455   8.400 -19.365  1.00  0.00     0.174 HD
ENDBRANCH   8  35
TORSDOF 10
ENDMDL
MODEL 2
REMARK VINA RESULT: -7.987948971      2.250      4.687
REMARK  10 active torsions:
REMARK  status: ('A' for Active; 'I' for Inactive)
REMARK    1  A    between atoms: O1_2  and  C2_3 
REMARK       I    between atoms: C2_3  and  N1_5 
REMARK    2  A    between atoms: N1_5  and  N2_7 
REMARK    3  A    between atoms: N2_7  and  C3_9 
REMARK    4  A    between atoms: C4_12  and  N4_13 
REMARK    5  A    between atoms: N4_13  and  N5_15 
REMARK    6  A    between atoms: N6_17  and  N7_19 
REMARK    7  A    between atoms: N7_19  and  N8_21 
REMARK    8  A    between atoms: N9_26  and  C8_27 
REMARK    9  A    between atoms: C8_27  and  C10_29 
REMARK   10  A    between atoms: C11_32  and  N10_33 
ROOT
HETATM    1  C3  UNL     1     -39.871   4.046 -18.674  1.00  0.00     0.713 C 
HETATM    2  N3  UNL     1     -39.975   4.560 -19.921  1.00  0.00    -0.168 N 
ATOM      3  H3  UNL     1     -39.101   4.683 -20.431  1.00  0.00     0.186 HD
HETATM    4  C4  UNL     1     -41.093   4.928 -20.566  1.00  0.00     0.206 C 
HETATM    5  C7  UNL     1     -42.398   4.709 -20.131  1.00  0.00     0.308 C 
HETATM    6  O3  UNL     1     -43.253   5.277 -20.802  1.00  0.00    -0.263 OA
HETATM    7  N9  UNL     1     -42.876   3.994 -19.118  1.00  0.00    -0.129 N 
HETATM    8  C11 UNL     1     -42.157   3.510 -18.087  1.00  0.00     0.696 C 
HETATM    9  N11 UNL     1     -40.808   3.490 -17.901  1.00  0.00    -0.021 N 
ATOM     10  H11 UNL     1     -40.475   2.993 -17.075  1.00  0.00     0.203 HD
ENDROOT
BRANCH   4  11
HETATM   11  N4  UNL     1     -40.941   5.540 -21.684  1.00  0.00    -0.265 N 
ATOM     12  H4  UNL     1     -41.750   5.785 -22.255  1.00  0.00     0.190 HD
BRANCH  11  13
HETATM   13  N5  UNL     1     -39.655   5.862 -22.103  1.00  0.00    -0.226 N 
HETATM   14  N6  UNL     1     -39.376   7.062 -22.368  1.00  0.00    -0.218 N 
ATOM     15  H6  UNL     1     -38.438   7.318 -22.677  1.00  0.00     0.211 HD
ATOM     16  H5  UNL     1     -38.945   5.136 -22.194  1.00  0.00     0.210 HD
BRANCH  14  17
HETATM   17  N7  UNL     1     -40.364   8.035 -22.235  1.00  0.00    -0.247 N 
ATOM     18  H7  UNL     1     -40.987   8.264 -23.009  1.00  0.00     0.203 HD
BRANCH  17  19
HETATM   19  N8  UNL     1     -40.470   8.683 -21.006  1.00  0.00    -0.224 NA
HETATM   20  C5  UNL     1     -41.815   8.772 -20.523  1.00  0.00     0.137 C 
HETATM   21  C6  UNL     1     -39.520   8.225 -20.031  1.00  0.00     0.137 C 
ENDBRANCH  17  19
ENDBRANCH  14  17
ENDBRANCH  11  13
ENDBRANCH   4  11
BRANCH   1  22
HETATM   22  N2  UNL     1     -38.682   4.116 -18.179  1.00  0.00    -0.127 N 
ATOM     23  H2  UNL     1     -38.028   4.774 -18.605  1.00  0.00     0.205 HD
BRANCH  22  24
HETATM   24  N1  UNL     1     -38.233   3.364 -17.117  1.00  0.00    -0.231 N 
HETATM   25  C2  UNL     1     -37.035   2.607 -17.244  1.00  0.00     0.379 C 
HETATM   26  O2  UNL     1     -36.369   2.612 -18.325  1.00  0.00    -0.237 OA
ATOM     27  H1  UNL     1     -38.757   3.350 -16.242  1.00  0.00     0.193 HD
BRANCH  25  28
HETATM   28  O1  UNL     1     -36.521   1.826 -16.219  1.00  0.00    -0.308 OA
HETATM   29  C1  UNL     1     -37.326   0.898 -15.487  1.00  0.00     0.215 C 
ENDBRANCH  25  28
ENDBRANCH  22  24
ENDBRANCH   1  22
BRANCH   7  30
HETATM   30  C8  UNL     1     -44.247   3.699 -19.093  1.00  0.00     0.208 C 
HETATM   31  C9  UNL     1     -44.878   3.166 -20.338  1.00  0.00     0.045 C 
BRANCH  30  32
HETATM   32  C10 UNL     1     -45.064   4.863 -18.684  1.00  0.00     0.197 C 
HETATM   33  O4  UNL     1     -44.773   5.529 -17.682  1.00  0.00    -0.646 OA
HETATM   34  O5  UNL     1     -46.161   5.208 -19.428  1.00  0.00    -0.646 OA
ENDBRANCH  30  32
ENDBRANCH   7  30
BRANCH   8  35
HETATM   35  N10 UNL     1     -42.813   2.995 -17.142  1.00  0.00    -0.234 N 
ATOM     36 2H10 UNL     1     -43.077   3.656 -16.411  1.00  0.00     0.174 HD
ATOM     37 1H10 UNL     1     -43.001   1.995 -17.214  1.00  0.00     0.174 HD
ENDBRANCH   8  35
TORSDOF 10
ENDMDL
MODEL 3
REMARK VINA RESULT: -7.961819303      1.023      1.351
REMARK  10 active torsions:
REMARK  status: ('A' for Active; 'I' for Inactive)
REMARK    1  A    between atoms: O1_2  and  C2_3 
REMARK       I    between atoms: C2_3  and  N1_5 
REMARK    2  A    between atoms: N1_5  and  N2_7 
REMARK    3  A    between atoms: N2_7  and  C3_9 
REMARK    4  A    between atoms: C4_12  and  N4_13 
REMARK    5  A    between atoms: N4_13  and  N5_15 
REMARK    6  A    between atoms: N6_17  and  N7_19 
REMARK    7  A    between atoms: N7_19  and  N8_21 
REMARK    8  A    between atoms: N9_26  and  C8_27 
REMARK    9  A    between atoms: C8_27  and  C10_29 
REMARK   10  A    between atoms: C11_32  and  N10_33 
ROOT
HETATM    1  C3  UNL     1     -39.852   4.658 -18.925  1.00  0.00     0.713 C 
HETATM    2  N3  UNL     1     -40.809   3.705 -19.000  1.00  0.00    -0.168 N 
ATOM      3  H3  UNL     1     -40.609   2.827 -18.521  1.00  0.00     0.186 HD
HETATM    4  C4  UNL     1     -41.991   3.778 -19.632  1.00  0.00     0.206 C 
HETATM    5  C7  UNL     1     -42.538   4.919 -20.214  1.00  0.00     0.308 C 
HETATM    6  O3  UNL     1     -43.549   4.710 -20.875  1.00  0.00    -0.263 OA
HETATM    7  N9  UNL     1     -42.155   6.191 -20.178  1.00  0.00    -0.129 N 
HETATM    8  C11 UNL     1     -40.955   6.641 -19.765  1.00  0.00     0.696 C 
HETATM    9  N11 UNL     1     -39.935   5.969 -19.163  1.00  0.00    -0.021 N 
ATOM     10  H11 UNL     1     -39.142   6.534 -18.858  1.00  0.00     0.203 HD
ENDROOT
BRANCH   4  11
HETATM   11  N4  UNL     1     -42.676   2.695 -19.706  1.00  0.00    -0.265 N 
ATOM     12  H4  UNL     1     -43.605   2.639 -19.289  1.00  0.00     0.190 HD
BRANCH  11  13
HETATM   13  N5  UNL     1     -42.129   1.599 -20.365  1.00  0.00    -0.226 N 
HETATM   14  N6  UNL     1     -42.591   1.262 -21.488  1.00  0.00    -0.218 N 
ATOM     15  H6  UNL     1     -42.204   0.461 -21.987  1.00  0.00     0.211 HD
ATOM     16  H5  UNL     1     -41.362   1.074 -19.945  1.00  0.00     0.210 HD
BRANCH  14  17
HETATM   17  N7  UNL     1     -43.639   1.996 -22.040  1.00  0.00    -0.247 N 
ATOM     18  H7  UNL     1     -43.478   2.913 -22.457  1.00  0.00     0.203 HD
BRANCH  17  19
HETATM   19  N8  UNL     1     -44.913   1.433 -22.001  1.00  0.00    -0.224 NA
HETATM   20  C5  UNL     1     -45.962   2.402 -21.896  1.00  0.00     0.137 C 
HETATM   21  C6  UNL     1     -45.130   0.433 -23.010  1.00  0.00     0.137 C 
ENDBRANCH  17  19
ENDBRANCH  14  17
ENDBRANCH  11  13
ENDBRANCH   4  11
BRANCH   1  22
HETATM   22  N2  UNL     1     -38.696   4.207 -18.571  1.00  0.00    -0.127 N 
ATOM     23  H2  UNL     1     -37.939   4.253 -19.253  1.00  0.00     0.205 HD
BRANCH  22  24
HETATM   24  N1  UNL     1     -38.413   3.668 -17.335  1.00  0.00    -0.231 N 
HETATM   25  C2  UNL     1     -37.274   2.832 -17.174  1.00  0.00     0.379 C 
HETATM   26  O2  UNL     1     -36.509   2.570 -18.153  1.00  0.00    -0.237 OA
ATOM     27  H1  UNL     1     -39.018   3.869 -16.539  1.00  0.00     0.193 HD
BRANCH  25  28
HETATM   28  O1  UNL     1     -36.925   2.253 -15.962  1.00  0.00    -0.308 OA
HETATM   29  C1  UNL     1     -37.493   1.021 -15.512  1.00  0.00     0.215 C 
ENDBRANCH  25  28
ENDBRANCH  22  24
ENDBRANCH   1  22
BRANCH   7  30
HETATM   30  C8  UNL     1     -43.060   7.177 -20.599  1.00  0.00     0.208 C 
HETATM   31  C9  UNL     1     -42.649   8.084 -21.713  1.00  0.00     0.045 C 
BRANCH  30  32
HETATM   32  C10 UNL     1     -43.488   8.057 -19.489  1.00  0.00     0.197 C 
HETATM   33  O4  UNL     1     -43.332   9.284 -19.549  1.00  0.00    -0.646 OA
HETATM   34  O5  UNL     1     -44.065   7.504 -18.377  1.00  0.00    -0.646 OA
ENDBRANCH  30  32
ENDBRANCH   7  30
BRANCH   8  35
HETATM   35  N10 UNL     1     -40.721   7.865 -19.956  1.00  0.00    -0.234 N 
ATOM     36 2H10 UNL     1     -41.453   8.352 -20.474  1.00  0.00     0.174 HD
ATOM     37 1H10 UNL     1     -39.843   8.222 -19.578  1.00  0.00     0.174 HD
ENDBRANCH   8  35
TORSDOF 10
ENDMDL
MODEL 4
REMARK VINA RESULT: -7.887081806      2.837      6.566
REMARK  10 active torsions:
REMARK  status: ('A' for Active; 'I' for Inactive)
REMARK    1  A    between atoms: O1_2  and  C2_3 
REMARK       I    between atoms: C2_3  and  N1_5 
REMARK    2  A    between atoms: N1_5  and  N2_7 
REMARK    3  A    between atoms: N2_7  and  C3_9 
REMARK    4  A    between atoms: C4_12  and  N4_13 
REMARK    5  A    between atoms: N4_13  and  N5_15 
REMARK    6  A    between atoms: N6_17  and  N7_19 
REMARK    7  A    between atoms: N7_19  and  N8_21 
REMARK    8  A    between atoms: N9_26  and  C8_27 
REMARK    9  A    between atoms: C8_27  and  C10_29 
REMARK   10  A    between atoms: C11_32  and  N10_33 
ROOT
HETATM    1  C3  UNL     1     -42.909   2.782 -20.762  1.00  0.00     0.713 C 
HETATM    2  N3  UNL     1     -41.849   2.921 -19.932  1.00  0.00    -0.168 N 
ATOM      3  H3  UNL     1     -41.102   2.235 -20.038  1.00  0.00     0.186 HD
HETATM    4  C4  UNL     1     -41.665   3.855 -18.986  1.00  0.00     0.206 C 
HETATM    5  C7  UNL     1     -42.469   4.971 -18.771  1.00  0.00     0.308 C 
HETATM    6  O3  UNL     1     -42.201   5.594 -17.750  1.00  0.00    -0.263 OA
HETATM    7  N9  UNL     1     -43.474   5.478 -19.480  1.00  0.00    -0.129 N 
HETATM    8  C11 UNL     1     -44.134   4.849 -20.471  1.00  0.00     0.696 C 
HETATM    9  N11 UNL     1     -43.862   3.662 -21.080  1.00  0.00    -0.021 N 
ATOM     10  H11 UNL     1     -44.455   3.417 -21.873  1.00  0.00     0.203 HD
ENDROOT
BRANCH   4  11
HETATM   11  N4  UNL     1     -40.654   3.701 -18.210  1.00  0.00    -0.265 N 
ATOM     12  H4  UNL     1     -40.657   2.975 -17.493  1.00  0.00     0.190 HD
BRANCH  11  13
HETATM   13  N5  UNL     1     -39.556   4.540 -18.363  1.00  0.00    -0.226 N 
HETATM   14  N6  UNL     1     -38.473   4.248 -17.789  1.00  0.00    -0.218 N 
ATOM     15  H6  UNL     1     -37.656   4.851 -17.890  1.00  0.00     0.211 HD
ATOM     16  H5  UNL     1     -39.626   5.382 -18.935  1.00  0.00     0.210 HD
BRANCH  14  17
HETATM   17  N7  UNL     1     -38.404   3.092 -17.016  1.00  0.00    -0.247 N 
ATOM     18  H7  UNL     1     -39.249   2.622 -16.693  1.00  0.00     0.203 HD
BRANCH  17  19
HETATM   19  N8  UNL     1     -37.138   2.602 -16.699  1.00  0.00    -0.224 NA
HETATM   20  C5  UNL     1     -37.171   1.426 -15.882  1.00  0.00     0.137 C 
HETATM   21  C6  UNL     1     -36.257   2.512 -17.830  1.00  0.00     0.137 C 
ENDBRANCH  17  19
ENDBRANCH  14  17
ENDBRANCH  11  13
ENDBRANCH   4  11
BRANCH   1  22
HETATM   22  N2  UNL     1     -42.990   1.618 -21.312  1.00  0.00    -0.127 N 
ATOM     23  H2  UNL     1     -42.158   1.029 -21.302  1.00  0.00     0.205 HD
BRANCH  22  24
HETATM   24  N1  UNL     1     -44.123   1.116 -21.912  1.00  0.00    -0.231 N 
HETATM   25  C2  UNL     1     -44.013   0.055 -22.853  1.00  0.00     0.379 C 
HETATM   26  O2  UNL     1     -42.882  -0.442 -23.151  1.00  0.00    -0.237 OA
ATOM     27  H1  UNL     1     -45.038   1.504 -21.683  1.00  0.00     0.193 HD
BRANCH  25  28
HETATM   28  O1  UNL     1     -45.107  -0.503 -23.498  1.00  0.00    -0.308 OA
HETATM   29  C1  UNL     1     -46.290   0.249 -23.783  1.00  0.00     0.215 C 
ENDBRANCH  25  28
ENDBRANCH  22  24
ENDBRANCH   1  22
BRANCH   7  30
HETATM   30  C8  UNL     1     -43.906   6.781 -19.194  1.00  0.00     0.208 C 
HETATM   31  C9  UNL     1     -42.877   7.859 -19.084  1.00  0.00     0.045 C 
BRANCH  30  32
HETATM   32  C10 UNL     1     -44.704   6.846 -17.949  1.00  0.00     0.197 C 
HETATM   33  O4  UNL     1     -44.479   7.707 -17.089  1.00  0.00    -0.646 OA
HETATM   34  O5  UNL     1     -45.709   5.938 -17.747  1.00  0.00    -0.646 OA
ENDBRANCH  30  32
ENDBRANCH   7  30
BRANCH   8  35
HETATM   35  N10 UNL     1     -45.161   5.430 -20.913  1.00  0.00    -0.234 N 
ATOM     36 2H10 UNL     1     -45.161   6.440 -20.771  1.00  0.00     0.174 HD
ATOM     37 1H10 UNL     1     -45.862   4.834 -21.355  1.00  0.00     0.174 HD
ENDBRANCH   8  35
TORSDOF 10
ENDMDL
MODEL 5
REMARK VINA RESULT: -7.746710939      2.239      5.929
REMARK  10 active torsions:
REMARK  status: ('A' for Active; 'I' for Inactive)
REMARK    1  A    between atoms: O1_2  and  C2_3 
REMARK       I    between atoms: C2_3  and  N1_5 
REMARK    2  A    between atoms: N1_5  and  N2_7 
REMARK    3  A    between atoms: N2_7  and  C3_9 
REMARK    4  A    between atoms: C4_12  and  N4_13 
REMARK    5  A    between atoms: N4_13  and  N5_15 
REMARK    6  A    between atoms: N6_17  and  N7_19 
REMARK    7  A    between atoms: N7_19  and  N8_21 
REMARK    8  A    between atoms: N9_26  and  C8_27 
REMARK    9  A    between atoms: C8_27  and  C10_29 
REMARK   10  A    between atoms: C11_32  and  N10_33 
ROOT
HETATM    1  C3  UNL     1     -42.662   3.738 -20.575  1.00  0.00     0.713 C 
HETATM    2  N3  UNL     1     -41.362   3.732 -20.199  1.00  0.00    -0.168 N 
ATOM      3  H3  UNL     1     -40.897   2.825 -20.203  1.00  0.00     0.186 HD
HETATM    4  C4  UNL     1     -40.613   4.780 -19.821  1.00  0.00     0.206 C 
HETATM    5  C7  UNL     1     -40.987   6.119 -19.888  1.00  0.00     0.308 C 
HETATM    6  O3  UNL     1     -40.206   6.887 -19.336  1.00  0.00    -0.263 OA
HETATM    7  N9  UNL     1     -42.041   6.709 -20.445  1.00  0.00    -0.129 N 
HETATM    8  C11 UNL     1     -43.161   6.088 -20.862  1.00  0.00     0.696 C 
HETATM    9  N11 UNL     1     -43.431   4.758 -20.964  1.00  0.00    -0.021 N 
ATOM     10  H11 UNL     1     -44.325   4.511 -21.389  1.00  0.00     0.203 HD
ENDROOT
BRANCH   4  11
HETATM   11  N4  UNL     1     -39.446   4.518 -19.355  1.00  0.00    -0.265 N 
ATOM     12  H4  UNL     1     -38.664   4.337 -19.985  1.00  0.00     0.190 HD
BRANCH  11  13
HETATM   13  N5  UNL     1     -39.267   4.486 -17.976  1.00  0.00    -0.226 N 
HETATM   14  N6  UNL     1     -38.257   3.902 -17.500  1.00  0.00    -0.218 N 
ATOM     15  H6  UNL     1     -38.108   3.868 -16.491  1.00  0.00     0.211 HD
ATOM     16  H5  UNL     1     -39.945   4.931 -17.357  1.00  0.00     0.210 HD
BRANCH  14  17
HETATM   17  N7  UNL     1     -37.346   3.304 -18.367  1.00  0.00    -0.247 N 
ATOM     18  H7  UNL     1     -37.240   3.629 -19.328  1.00  0.00     0.203 HD
BRANCH  17  19
HETATM   19  N8  UNL     1     -36.585   2.246 -17.874  1.00  0.00    -0.224 NA
HETATM   20  C5  UNL     1     -35.200   2.324 -18.231  1.00  0.00     0.137 C 
HETATM   21  C6  UNL     1     -36.822   1.965 -16.485  1.00  0.00     0.137 C 
ENDBRANCH  17  19
ENDBRANCH  14  17
ENDBRANCH  11  13
ENDBRANCH   4  11
BRANCH   1  22
HETATM   22  N2  UNL     1     -43.219   2.574 -20.540  1.00  0.00    -0.127 N 
ATOM     23  H2  UNL     1     -44.126   2.496 -20.081  1.00  0.00     0.205 HD
BRANCH  22  24
HETATM   24  N1  UNL     1     -42.673   1.432 -21.082  1.00  0.00    -0.231 N 
HETATM   25  C2  UNL     1     -43.427   0.661 -22.010  1.00  0.00     0.379 C 
HETATM   26  O2  UNL     1     -44.600   1.010 -22.351  1.00  0.00    -0.237 OA
ATOM     27  H1  UNL     1     -41.733   1.139 -20.818  1.00  0.00     0.193 HD
BRANCH  25  28
HETATM   28  O1  UNL     1     -42.946  -0.500 -22.597  1.00  0.00    -0.308 OA
HETATM   29  C1  UNL     1     -43.754  -1.317 -23.448  1.00  0.00     0.215 C 
ENDBRANCH  25  28
ENDBRANCH  22  24
ENDBRANCH   1  22
BRANCH   7  30
HETATM   30  C8  UNL     1     -42.012   8.099 -20.629  1.00  0.00     0.208 C 
HETATM   31  C9  UNL     1     -43.202   8.893 -20.196  1.00  0.00     0.045 C 
BRANCH  30  32
HETATM   32  C10 UNL     1     -41.759   8.473 -22.038  1.00  0.00     0.197 C 
HETATM   33  O4  UNL     1     -40.635   8.351 -22.540  1.00  0.00    -0.646 OA
HETATM   34  O5  UNL     1     -42.787   8.965 -22.797  1.00  0.00    -0.646 OA
ENDBRANCH  30  32
ENDBRANCH   7  30
BRANCH   8  35
HETATM   35  N10 UNL     1     -44.114   6.834 -21.214  1.00  0.00    -0.234 N 
ATOM     36 2H10 UNL     1     -43.830   7.781 -21.467  1.00  0.00     0.174 HD
ATOM     37 1H10 UNL     1     -45.044   6.414 -21.206  1.00  0.00     0.174 HD
ENDBRANCH   8  35
TORSDOF 10
ENDMDL
