MODEL 1
REMARK VINA RESULT: -8.676109366      0.000      0.000
REMARK  18 active torsions:
REMARK  status: ('A' for Active; 'I' for Inactive)
REMARK    1  A    between atoms: O1_2  and  C2_3 
REMARK    2  A    between atoms: C2_3  and  C3_5 
REMARK    3  A    between atoms: C6_10  and  O3_11 
REMARK    4  A    between atoms: O3_11  and  C7_12 
REMARK    5  A    between atoms: C7_12  and  C8_14 
REMARK    6  A    between atoms: C8_14  and  C9_15 
REMARK    7  A    between atoms: C8_14  and  O6_18 
REMARK    8  A    between atoms: C9_15  and  O5_16 
REMARK    9  A    between atoms: C11_20  and  O7_21 
REMARK   10  A    between atoms: C11_20  and  O8_23 
REMARK   11  A    between atoms: C12_25  and  O9_26 
REMARK   12  A    between atoms: N2_28  and  N3_29 
REMARK   13  A    between atoms: N3_29  and  C13_31 
REMARK   14  A    between atoms: C15_33  and  C16_34 
REMARK       I    between atoms: C16_34  and  N4_36 
REMARK   15  A    between atoms: N4_36  and  S1_38 
REMARK   16  A    between atoms: S1_38  and  C17_41 
REMARK   17  A    between atoms: C20_44  and  C21_45 
REMARK   18  A    between atoms: C25_51  and  O13_52 
ROOT
HETATM    1  C21 UNL     1      42.942 -22.727  37.709  1.00  0.00     0.170 C 
HETATM    2  C22 UNL     1      43.395 -21.389  38.099  1.00  0.00     0.064 C 
HETATM    3  N5  UNL     1      43.754 -20.337  38.409  1.00  0.00    -0.197 NA
ENDROOT
BRANCH   1   4
HETATM    4  C20 UNL     1      43.097 -22.830  36.214  1.00  0.00    -0.003 A 
HETATM    5  C19 UNL     1      43.483 -21.832  35.363  1.00  0.00     0.017 A 
HETATM    6  C18 UNL     1      43.568 -22.115  34.063  1.00  0.00     0.034 A 
HETATM    7  C17 UNL     1      43.261 -23.399  33.674  1.00  0.00     0.120 A 
HETATM    8  S2  UNL     1      42.862 -24.149  35.166  1.00  0.00    -0.080 SA
BRANCH   7   9
HETATM    9  S1  UNL     1      43.305 -24.083  32.050  1.00  0.00     0.272 S 
HETATM   10  O11 UNL     1      44.542 -23.586  31.384  1.00  0.00    -0.200 OA
HETATM   11  O12 UNL     1      43.462 -25.587  32.174  1.00  0.00    -0.200 OA
BRANCH   9  12
HETATM   12  N4  UNL     1      41.882 -23.688  31.204  1.00  0.00    -0.245 N 
HETATM   13  C16 UNL     1      41.569 -24.114  29.870  1.00  0.00     0.265 C 
HETATM   14  O10 UNL     1      42.390 -24.835  29.248  1.00  0.00    -0.267 OA
ATOM     15  H4  UNL     1      41.197 -23.103  31.682  1.00  0.00     0.182 HD
BRANCH  13  16
HETATM   16  C15 UNL     1      40.297 -23.672  29.325  1.00  0.00     0.035 A 
HETATM   17  C14 UNL     1      39.722 -22.449  29.498  1.00  0.00     0.051 A 
HETATM   18  C13 UNL     1      38.504 -22.060  28.956  1.00  0.00     0.082 A 
HETATM   19  C25 UNL     1      37.828 -23.001  28.178  1.00  0.00     0.093 A 
HETATM   20  C24 UNL     1      38.374 -24.243  27.980  1.00  0.00     0.040 A 
HETATM   21  C23 UNL     1      39.585 -24.579  28.540  1.00  0.00     0.020 A 
BRANCH  18  22
HETATM   22  N3  UNL     1      37.876 -20.843  29.139  1.00  0.00    -0.292 N 
ATOM     23  H3  UNL     1      37.069 -20.805  28.518  1.00  0.00     0.187 HD
BRANCH  22  24
HETATM   24  N2  UNL     1      37.927 -19.707  29.817  1.00  0.00    -0.249 N 
HETATM   25  C4  UNL     1      38.640 -18.851  30.763  1.00  0.00     0.137 C 
HETATM   26  C3  UNL     1      39.689 -18.166  30.587  1.00  0.00     0.096 C 
HETATM   27  N1  UNL     1      37.386 -18.838  31.387  1.00  0.00    -0.349 N 
HETATM   28  C12 UNL     1      39.697 -16.613  30.860  1.00  0.00     0.226 C 
HETATM   29  C11 UNL     1      38.623 -16.378  29.742  1.00  0.00     0.222 C 
HETATM   30  C6  UNL     1      37.393 -17.132  29.794  1.00  0.00     0.241 C 
HETATM   31  C5  UNL     1      37.032 -18.493  29.942  1.00  0.00     0.244 C 
ATOM     32  H1  UNL     1      36.951 -18.980  32.298  1.00  0.00     0.163 HD
BRANCH  26  33
HETATM   33  C2  UNL     1      40.773 -18.652  29.858  1.00  0.00     0.295 C 
HETATM   34  O2  UNL     1      41.336 -18.089  28.937  1.00  0.00    -0.259 OA
BRANCH  33  35
HETATM   35  O1  UNL     1      41.345 -19.922  30.152  1.00  0.00    -0.323 OA
HETATM   36  C1  UNL     1      41.875 -20.113  31.437  1.00  0.00     0.213 C 
ENDBRANCH  33  35
ENDBRANCH  26  33
BRANCH  28  37
HETATM   37  O9  UNL     1      39.212 -16.348  32.083  1.00  0.00    -0.385 OA
ATOM     38  H9  UNL     1      39.788 -16.696  32.754  1.00  0.00     0.210 HD
ENDBRANCH  28  37
BRANCH  29  39
HETATM   39  O7  UNL     1      38.323 -15.001  29.824  1.00  0.00    -0.361 OA
ATOM     40  H7  UNL     1      39.096 -14.501  29.593  1.00  0.00     0.213 HD
ENDBRANCH  29  39
BRANCH  29  41
HETATM   41  O8  UNL     1      39.254 -16.539  28.512  1.00  0.00    -0.361 OA
ATOM     42  H8  UNL     1      40.118 -16.144  28.520  1.00  0.00     0.213 HD
ENDBRANCH  29  41
BRANCH  30  43
HETATM   43  O3  UNL     1      36.572 -16.408  30.785  1.00  0.00    -0.304 OA
BRANCH  43  44
HETATM   44  C7  UNL     1      35.282 -16.062  30.579  1.00  0.00     0.290 C 
HETATM   45  O4  UNL     1      34.895 -15.837  29.377  1.00  0.00    -0.262 OA
BRANCH  44  46
HETATM   46  C8  UNL     1      34.246 -15.914  31.617  1.00  0.00     0.243 C 
BRANCH  46  47
HETATM   47  C9  UNL     1      34.268 -17.068  32.604  1.00  0.00     0.206 C 
BRANCH  47  48
HETATM   48  O5  UNL     1      34.378 -18.278  31.939  1.00  0.00    -0.398 OA
ATOM     49  H5  UNL     1      34.824 -18.164  31.108  1.00  0.00     0.209 HD
ENDBRANCH  47  48
ENDBRANCH  46  47
BRANCH  46  50
HETATM   50  O6  UNL     1      34.446 -14.755  32.371  1.00  0.00    -0.379 OA
HETATM   51  C10 UNL     1      34.420 -15.050  33.744  1.00  0.00     0.202 C 
ENDBRANCH  46  50
ENDBRANCH  44  46
ENDBRANCH  43  44
ENDBRANCH  30  43
ENDBRANCH  22  24
ENDBRANCH  18  22
BRANCH  19  52
HETATM   52  O13 UNL     1      36.612 -22.697  27.604  1.00  0.00    -0.358 OA
ATOM     53  H13 UNL     1      36.256 -21.818  27.661  1.00  0.00     0.217 HD
ENDBRANCH  19  52
ENDBRANCH  13  16
ENDBRANCH   9  12
ENDBRANCH   7   9
ENDBRANCH   1   4
TORSDOF 18
ENDMDL
MODEL 2
REMARK VINA RESULT: -8.525570492      3.311      7.536
REMARK  18 active torsions:
REMARK  status: ('A' for Active; 'I' for Inactive)
REMARK    1  A    between atoms: O1_2  and  C2_3 
REMARK    2  A    between atoms: C2_3  and  C3_5 
REMARK    3  A    between atoms: C6_10  and  O3_11 
REMARK    4  A    between atoms: O3_11  and  C7_12 
REMARK    5  A    between atoms: C7_12  and  C8_14 
REMARK    6  A    between atoms: C8_14  and  C9_15 
REMARK    7  A    between atoms: C8_14  and  O6_18 
REMARK    8  A    between atoms: C9_15  and  O5_16 
REMARK    9  A    between atoms: C11_20  and  O7_21 
REMARK   10  A    between atoms: C11_20  and  O8_23 
REMARK   11  A    between atoms: C12_25  and  O9_26 
REMARK   12  A    between atoms: N2_28  and  N3_29 
REMARK   13  A    between atoms: N3_29  and  C13_31 
REMARK   14  A    between atoms: C15_33  and  C16_34 
REMARK       I    between atoms: C16_34  and  N4_36 
REMARK   15  A    between atoms: N4_36  and  S1_38 
REMARK   16  A    between atoms: S1_38  and  C17_41 
REMARK   17  A    between atoms: C20_44  and  C21_45 
REMARK   18  A    between atoms: C25_51  and  O13_52 
ROOT
HETATM    1  C21 UNL     1      40.680 -16.125  34.087  1.00  0.00     0.170 C 
HETATM    2  C22 UNL     1      40.523 -16.582  35.471  1.00  0.00     0.064 C 
HETATM    3  N5  UNL     1      40.400 -16.937  36.562  1.00  0.00    -0.197 NA
ENDROOT
BRANCH   1   4
HETATM    4  C20 UNL     1      39.586 -16.773  33.278  1.00  0.00    -0.003 A 
HETATM    5  C19 UNL     1      38.239 -16.625  33.461  1.00  0.00     0.017 A 
HETATM    6  C18 UNL     1      37.420 -17.279  32.638  1.00  0.00     0.034 A 
HETATM    7  C17 UNL     1      37.995 -18.057  31.659  1.00  0.00     0.120 A 
HETATM    8  S2  UNL     1      39.672 -17.831  31.949  1.00  0.00    -0.080 SA
BRANCH   7   9
HETATM    9  S1  UNL     1      37.189 -19.010  30.415  1.00  0.00     0.272 S 
HETATM   10  O11 UNL     1      35.796 -19.268  30.875  1.00  0.00    -0.200 OA
HETATM   11  O12 UNL     1      37.074 -18.156  29.166  1.00  0.00    -0.200 OA
BRANCH   9  12
HETATM   12  N4  UNL     1      38.067 -20.434  30.099  1.00  0.00    -0.245 N 
HETATM   13  C16 UNL     1      37.712 -21.424  29.125  1.00  0.00     0.265 C 
HETATM   14  O10 UNL     1      36.675 -21.260  28.433  1.00  0.00    -0.267 OA
ATOM     15  H4  UNL     1      38.913 -20.595  30.646  1.00  0.00     0.182 HD
BRANCH  13  16
HETATM   16  C15 UNL     1      38.597 -22.570  29.005  1.00  0.00     0.035 A 
HETATM   17  C14 UNL     1      39.755 -22.774  29.693  1.00  0.00     0.051 A 
HETATM   18  C13 UNL     1      40.575 -23.886  29.554  1.00  0.00     0.082 A 
HETATM   19  C25 UNL     1      40.173 -24.860  28.638  1.00  0.00     0.093 A 
HETATM   20  C24 UNL     1      39.013 -24.690  27.926  1.00  0.00     0.040 A 
HETATM   21  C23 UNL     1      38.235 -23.569  28.101  1.00  0.00     0.020 A 
BRANCH  18  22
HETATM   22  N3  UNL     1      41.772 -24.110  30.209  1.00  0.00    -0.292 N 
ATOM     23  H3  UNL     1      42.060 -25.071  30.025  1.00  0.00     0.187 HD
BRANCH  22  24
HETATM   24  N2  UNL     1      42.684 -23.548  30.985  1.00  0.00    -0.249 N 
HETATM   25  C4  UNL     1      44.088 -23.215  31.218  1.00  0.00     0.137 C 
HETATM   26  C3  UNL     1      44.804 -22.334  30.657  1.00  0.00     0.096 C 
HETATM   27  N1  UNL     1      43.819 -23.818  32.452  1.00  0.00    -0.349 N 
HETATM   28  C12 UNL     1      45.534 -21.224  31.505  1.00  0.00     0.226 C 
HETATM   29  C11 UNL     1      44.160 -20.660  32.010  1.00  0.00     0.222 C 
HETATM   30  C6  UNL     1      43.225 -21.568  32.629  1.00  0.00     0.241 C 
HETATM   31  C5  UNL     1      42.663 -22.829  32.317  1.00  0.00     0.244 C 
ATOM     32  H1  UNL     1      44.189 -24.525  33.088  1.00  0.00     0.163 HD
BRANCH  26  33
HETATM   33  C2  UNL     1      44.736 -22.093  29.287  1.00  0.00     0.295 C 
HETATM   34  O2  UNL     1      43.733 -21.840  28.644  1.00  0.00    -0.259 OA
BRANCH  33  35
HETATM   35  O1  UNL     1      45.907 -22.123  28.477  1.00  0.00    -0.323 OA
HETATM   36  C1  UNL     1      46.064 -21.104  27.524  1.00  0.00     0.213 C 
ENDBRANCH  33  35
ENDBRANCH  26  33
BRANCH  28  37
HETATM   37  O9  UNL     1      46.242 -21.782  32.501  1.00  0.00    -0.385 OA
ATOM     38  H9  UNL     1      45.676 -21.992  33.234  1.00  0.00     0.210 HD
ENDBRANCH  28  37
BRANCH  29  39
HETATM   39  O7  UNL     1      44.510 -19.656  32.938  1.00  0.00    -0.361 OA
ATOM     40  H7  UNL     1      45.448 -19.680  33.083  1.00  0.00     0.213 HD
ENDBRANCH  29  39
BRANCH  29  41
HETATM   41  O8  UNL     1      43.569 -19.982  30.949  1.00  0.00    -0.361 OA
ATOM     42  H8  UNL     1      44.202 -19.805  30.264  1.00  0.00     0.213 HD
ENDBRANCH  29  41
BRANCH  30  43
HETATM   43  O3  UNL     1      43.720 -21.701  34.014  1.00  0.00    -0.304 OA
BRANCH  43  44
HETATM   44  C7  UNL     1      42.985 -21.389  35.105  1.00  0.00     0.290 C 
HETATM   45  O4  UNL     1      42.391 -20.253  35.135  1.00  0.00    -0.262 OA
BRANCH  44  46
HETATM   46  C8  UNL     1      42.790 -22.239  36.293  1.00  0.00     0.243 C 
BRANCH  46  47
HETATM   47  C9  UNL     1      42.611 -21.412  37.554  1.00  0.00     0.206 C 
BRANCH  47  48
HETATM   48  O5  UNL     1      43.765 -20.702  37.842  1.00  0.00    -0.398 OA
ATOM     49  H5  UNL     1      43.694 -19.808  37.531  1.00  0.00     0.209 HD
ENDBRANCH  47  48
ENDBRANCH  46  47
BRANCH  46  50
HETATM   50  O6  UNL     1      41.639 -23.021  36.174  1.00  0.00    -0.379 OA
HETATM   51  C10 UNL     1      41.961 -24.304  35.702  1.00  0.00     0.202 C 
ENDBRANCH  46  50
ENDBRANCH  44  46
ENDBRANCH  43  44
ENDBRANCH  30  43
ENDBRANCH  22  24
ENDBRANCH  18  22
BRANCH  19  52
HETATM   52  O13 UNL     1      40.930 -25.995  28.439  1.00  0.00    -0.358 OA
ATOM     53  H13 UNL     1      40.896 -26.461  27.612  1.00  0.00     0.217 HD
ENDBRANCH  19  52
ENDBRANCH  13  16
ENDBRANCH   9  12
ENDBRANCH   7   9
ENDBRANCH   1   4
TORSDOF 18
ENDMDL
MODEL 3
REMARK VINA RESULT: -8.482443278      2.673      4.261
REMARK  18 active torsions:
REMARK  status: ('A' for Active; 'I' for Inactive)
REMARK    1  A    between atoms: O1_2  and  C2_3 
REMARK    2  A    between atoms: C2_3  and  C3_5 
REMARK    3  A    between atoms: C6_10  and  O3_11 
REMARK    4  A    between atoms: O3_11  and  C7_12 
REMARK    5  A    between atoms: C7_12  and  C8_14 
REMARK    6  A    between atoms: C8_14  and  C9_15 
REMARK    7  A    between atoms: C8_14  and  O6_18 
REMARK    8  A    between atoms: C9_15  and  O5_16 
REMARK    9  A    between atoms: C11_20  and  O7_21 
REMARK   10  A    between atoms: C11_20  and  O8_23 
REMARK   11  A    between atoms: C12_25  and  O9_26 
REMARK   12  A    between atoms: N2_28  and  N3_29 
REMARK   13  A    between atoms: N3_29  and  C13_31 
REMARK   14  A    between atoms: C15_33  and  C16_34 
REMARK       I    between atoms: C16_34  and  N4_36 
REMARK   15  A    between atoms: N4_36  and  S1_38 
REMARK   16  A    between atoms: S1_38  and  C17_41 
REMARK   17  A    between atoms: C20_44  and  C21_45 
REMARK   18  A    between atoms: C25_51  and  O13_52 
ROOT
HETATM    1  C21 UNL     1      46.944 -20.411  32.899  1.00  0.00     0.170 C 
HETATM    2  C22 UNL     1      47.392 -20.957  34.184  1.00  0.00     0.064 C 
HETATM    3  N5  UNL     1      47.745 -21.383  35.197  1.00  0.00    -0.197 NA
ENDROOT
BRANCH   1   4
HETATM    4  C20 UNL     1      45.758 -21.230  32.458  1.00  0.00    -0.003 A 
HETATM    5  C19 UNL     1      44.439 -20.920  32.638  1.00  0.00     0.017 A 
HETATM    6  C18 UNL     1      43.526 -21.771  32.171  1.00  0.00     0.034 A 
HETATM    7  C17 UNL     1      43.983 -22.904  31.537  1.00  0.00     0.120 A 
HETATM    8  S2  UNL     1      45.686 -22.716  31.633  1.00  0.00    -0.080 SA
BRANCH   7   9
HETATM    9  S1  UNL     1      43.035 -24.191  30.796  1.00  0.00     0.272 S 
HETATM   10  O11 UNL     1      43.908 -24.884  29.807  1.00  0.00    -0.200 OA
HETATM   11  O12 UNL     1      42.708 -25.216  31.866  1.00  0.00    -0.200 OA
BRANCH   9  12
HETATM   12  N4  UNL     1      41.613 -23.557  30.107  1.00  0.00    -0.245 N 
HETATM   13  C16 UNL     1      40.756 -24.255  29.194  1.00  0.00     0.265 C 
HETATM   14  O10 UNL     1      41.049 -25.428  28.851  1.00  0.00    -0.267 OA
ATOM     15  H4  UNL     1      41.350 -22.606  30.365  1.00  0.00     0.182 HD
BRANCH  13  16
HETATM   16  C15 UNL     1      39.584 -23.538  28.721  1.00  0.00     0.035 A 
HETATM   17  C14 UNL     1      39.089 -22.372  29.224  1.00  0.00     0.051 A 
HETATM   18  C13 UNL     1      37.966 -21.712  28.743  1.00  0.00     0.082 A 
HETATM   19  C25 UNL     1      37.302 -22.297  27.663  1.00  0.00     0.093 A 
HETATM   20  C24 UNL     1      37.769 -23.471  27.129  1.00  0.00     0.040 A 
HETATM   21  C23 UNL     1      38.887 -24.085  27.643  1.00  0.00     0.020 A 
BRANCH  18  22
HETATM   22  N3  UNL     1      37.418 -20.549  29.249  1.00  0.00    -0.292 N 
ATOM     23  H3  UNL     1      37.176 -19.944  28.465  1.00  0.00     0.187 HD
BRANCH  22  24
HETATM   24  N2  UNL     1      37.089 -19.924  30.368  1.00  0.00    -0.249 N 
HETATM   25  C4  UNL     1      37.205 -18.738  31.214  1.00  0.00     0.137 C 
HETATM   26  C3  UNL     1      36.689 -17.593  31.060  1.00  0.00     0.096 C 
HETATM   27  N1  UNL     1      37.519 -19.703  32.179  1.00  0.00    -0.349 N 
HETATM   28  C12 UNL     1      35.778 -16.957  32.178  1.00  0.00     0.226 C 
HETATM   29  C11 UNL     1      34.734 -18.119  32.033  1.00  0.00     0.222 C 
HETATM   30  C6  UNL     1      35.196 -19.482  32.140  1.00  0.00     0.241 C 
HETATM   31  C5  UNL     1      36.234 -20.259  31.572  1.00  0.00     0.244 C 
ATOM     32  H1  UNL     1      38.218 -19.915  32.891  1.00  0.00     0.163 HD
BRANCH  26  33
HETATM   33  C2  UNL     1      36.622 -16.977  29.811  1.00  0.00     0.295 C 
HETATM   34  O2  UNL     1      35.828 -17.227  28.923  1.00  0.00    -0.259 OA
BRANCH  33  35
HETATM   35  O1  UNL     1      37.531 -15.941  29.453  1.00  0.00    -0.323 OA
HETATM   36  C1  UNL     1      38.463 -16.216  28.440  1.00  0.00     0.213 C 
ENDBRANCH  33  35
ENDBRANCH  26  33
BRANCH  28  37
HETATM   37  O9  UNL     1      36.400 -16.990  33.367  1.00  0.00    -0.385 OA
ATOM     38  H9  UNL     1      36.168 -17.779  33.843  1.00  0.00     0.210 HD
ENDBRANCH  28  37
BRANCH  29  39
HETATM   39  O7  UNL     1      33.786 -17.873  33.049  1.00  0.00    -0.361 OA
ATOM     40  H7  UNL     1      32.926 -17.787  32.656  1.00  0.00     0.213 HD
ENDBRANCH  29  39
BRANCH  29  41
HETATM   41  O8  UNL     1      34.046 -17.919  30.840  1.00  0.00    -0.361 OA
ATOM     42  H8  UNL     1      33.219 -18.385  30.842  1.00  0.00     0.213 HD
ENDBRANCH  29  41
BRANCH  30  43
HETATM   43  O3  UNL     1      35.300 -19.710  33.595  1.00  0.00    -0.304 OA
BRANCH  43  44
HETATM   44  C7  UNL     1      34.892 -20.844  34.207  1.00  0.00     0.290 C 
HETATM   45  O4  UNL     1      33.637 -21.004  34.421  1.00  0.00    -0.262 OA
BRANCH  44  46
HETATM   46  C8  UNL     1      35.759 -21.944  34.665  1.00  0.00     0.243 C 
BRANCH  46  47
HETATM   47  C9  UNL     1      35.637 -23.167  33.773  1.00  0.00     0.206 C 
BRANCH  47  48
HETATM   48  O5  UNL     1      34.577 -23.026  32.892  1.00  0.00    -0.398 OA
ATOM     49  H5  UNL     1      34.326 -23.868  32.531  1.00  0.00     0.209 HD
ENDBRANCH  47  48
ENDBRANCH  46  47
BRANCH  46  50
HETATM   50  O6  UNL     1      37.106 -21.575  34.634  1.00  0.00    -0.379 OA
HETATM   51  C10 UNL     1      37.890 -22.513  35.326  1.00  0.00     0.202 C 
ENDBRANCH  46  50
ENDBRANCH  44  46
ENDBRANCH  43  44
ENDBRANCH  30  43
ENDBRANCH  22  24
ENDBRANCH  18  22
BRANCH  19  52
HETATM   52  O13 UNL     1      36.178 -21.708  27.125  1.00  0.00    -0.358 OA
ATOM     53  H13 UNL     1      36.067 -20.765  27.148  1.00  0.00     0.217 HD
ENDBRANCH  19  52
ENDBRANCH  13  16
ENDBRANCH   9  12
ENDBRANCH   7   9
ENDBRANCH   1   4
TORSDOF 18
ENDMDL
MODEL 4
REMARK VINA RESULT: -8.466260731      3.249      8.888
REMARK  18 active torsions:
REMARK  status: ('A' for Active; 'I' for Inactive)
REMARK    1  A    between atoms: O1_2  and  C2_3 
REMARK    2  A    between atoms: C2_3  and  C3_5 
REMARK    3  A    between atoms: C6_10  and  O3_11 
REMARK    4  A    between atoms: O3_11  and  C7_12 
REMARK    5  A    between atoms: C7_12  and  C8_14 
REMARK    6  A    between atoms: C8_14  and  C9_15 
REMARK    7  A    between atoms: C8_14  and  O6_18 
REMARK    8  A    between atoms: C9_15  and  O5_16 
REMARK    9  A    between atoms: C11_20  and  O7_21 
REMARK   10  A    between atoms: C11_20  and  O8_23 
REMARK   11  A    between atoms: C12_25  and  O9_26 
REMARK   12  A    between atoms: N2_28  and  N3_29 
REMARK   13  A    between atoms: N3_29  and  C13_31 
REMARK   14  A    between atoms: C15_33  and  C16_34 
REMARK       I    between atoms: C16_34  and  N4_36 
REMARK   15  A    between atoms: N4_36  and  S1_38 
REMARK   16  A    between atoms: S1_38  and  C17_41 
REMARK   17  A    between atoms: C20_44  and  C21_45 
REMARK   18  A    between atoms: C25_51  and  O13_52 
ROOT
HETATM    1  C21 UNL     1      40.754 -15.976  34.074  1.00  0.00     0.170 C 
HETATM    2  C22 UNL     1      40.521 -16.526  35.413  1.00  0.00     0.064 C 
HETATM    3  N5  UNL     1      40.339 -16.955  36.468  1.00  0.00    -0.197 NA
ENDROOT
BRANCH   1   4
HETATM    4  C20 UNL     1      39.612 -16.430  33.202  1.00  0.00    -0.003 A 
HETATM    5  C19 UNL     1      38.315 -16.620  33.591  1.00  0.00     0.017 A 
HETATM    6  C18 UNL     1      37.438 -17.023  32.671  1.00  0.00     0.034 A 
HETATM    7  C17 UNL     1      37.908 -17.216  31.391  1.00  0.00     0.120 A 
HETATM    8  S2  UNL     1      39.571 -16.821  31.548  1.00  0.00    -0.080 SA
BRANCH   7   9
HETATM    9  S1  UNL     1      37.002 -17.712  29.964  1.00  0.00     0.272 S 
HETATM   10  O11 UNL     1      35.561 -17.763  30.339  1.00  0.00    -0.200 OA
HETATM   11  O12 UNL     1      37.131 -16.620  28.918  1.00  0.00    -0.200 OA
BRANCH   9  12
HETATM   12  N4  UNL     1      37.595 -19.194  29.372  1.00  0.00    -0.245 N 
HETATM   13  C16 UNL     1      37.614 -20.427  30.104  1.00  0.00     0.265 C 
HETATM   14  O10 UNL     1      37.166 -20.451  31.279  1.00  0.00    -0.267 OA
ATOM     15  H4  UNL     1      37.966 -19.205  28.423  1.00  0.00     0.182 HD
BRANCH  13  16
HETATM   16  C15 UNL     1      38.160 -21.585  29.419  1.00  0.00     0.035 A 
HETATM   17  C14 UNL     1      39.330 -22.221  29.708  1.00  0.00     0.051 A 
HETATM   18  C13 UNL     1      39.820 -23.331  29.032  1.00  0.00     0.082 A 
HETATM   19  C25 UNL     1      39.046 -23.822  27.979  1.00  0.00     0.093 A 
HETATM   20  C24 UNL     1      37.863 -23.210  27.656  1.00  0.00     0.040 A 
HETATM   21  C23 UNL     1      37.422 -22.112  28.358  1.00  0.00     0.020 A 
BRANCH  18  22
HETATM   22  N3  UNL     1      41.016 -23.979  29.276  1.00  0.00    -0.292 N 
ATOM     23  H3  UNL     1      40.884 -24.971  29.084  1.00  0.00     0.187 HD
BRANCH  22  24
HETATM   24  N2  UNL     1      42.267 -23.797  29.665  1.00  0.00    -0.249 N 
HETATM   25  C4  UNL     1      43.527 -23.072  29.513  1.00  0.00     0.137 C 
HETATM   26  C3  UNL     1      43.817 -21.891  29.863  1.00  0.00     0.096 C 
HETATM   27  N1  UNL     1      44.036 -24.375  29.443  1.00  0.00    -0.349 N 
HETATM   28  C12 UNL     1      45.033 -21.605  30.824  1.00  0.00     0.226 C 
HETATM   29  C11 UNL     1      44.359 -22.432  31.974  1.00  0.00     0.222 C 
HETATM   30  C6  UNL     1      43.935 -23.783  31.699  1.00  0.00     0.241 C 
HETATM   31  C5  UNL     1      43.171 -24.433  30.700  1.00  0.00     0.244 C 
ATOM     32  H1  UNL     1      44.646 -24.959  28.871  1.00  0.00     0.163 HD
BRANCH  26  33
HETATM   33  C2  UNL     1      42.924 -20.834  29.696  1.00  0.00     0.295 C 
HETATM   34  O2  UNL     1      41.971 -20.573  30.408  1.00  0.00    -0.259 OA
BRANCH  33  35
HETATM   35  O1  UNL     1      43.065 -19.916  28.617  1.00  0.00    -0.323 OA
HETATM   36  C1  UNL     1      42.352 -18.710  28.692  1.00  0.00     0.213 C 
ENDBRANCH  33  35
ENDBRANCH  26  33
BRANCH  28  37
HETATM   37  O9  UNL     1      46.145 -22.201  30.365  1.00  0.00    -0.385 OA
ATOM     38  H9  UNL     1      46.918 -21.726  30.647  1.00  0.00     0.210 HD
ENDBRANCH  28  37
BRANCH  29  39
HETATM   39  O7  UNL     1      45.323 -22.453  33.006  1.00  0.00    -0.361 OA
ATOM     40  H7  UNL     1      45.019 -21.911  33.724  1.00  0.00     0.213 HD
ENDBRANCH  29  39
BRANCH  29  41
HETATM   41  O8  UNL     1      43.307 -21.672  32.477  1.00  0.00    -0.361 OA
ATOM     42  H8  UNL     1      43.433 -20.750  32.288  1.00  0.00     0.213 HD
ENDBRANCH  29  41
BRANCH  30  43
HETATM   43  O3  UNL     1      45.176 -24.576  31.808  1.00  0.00    -0.304 OA
BRANCH  43  44
HETATM   44  C7  UNL     1      45.499 -25.317  32.891  1.00  0.00     0.290 C 
HETATM   45  O4  UNL     1      44.572 -25.991  33.467  1.00  0.00    -0.262 OA
BRANCH  44  46
HETATM   46  C8  UNL     1      46.838 -25.435  33.495  1.00  0.00     0.243 C 
BRANCH  46  47
HETATM   47  C9  UNL     1      47.939 -25.237  32.468  1.00  0.00     0.206 C 
BRANCH  47  48
HETATM   48  O5  UNL     1      47.818 -24.002  31.853  1.00  0.00    -0.398 OA
ATOM     49  H5  UNL     1      47.796 -24.099  30.908  1.00  0.00     0.209 HD
ENDBRANCH  47  48
ENDBRANCH  46  47
BRANCH  46  50
HETATM   50  O6  UNL     1      47.041 -24.458  34.474  1.00  0.00    -0.379 OA
HETATM   51  C10 UNL     1      47.639 -25.021  35.614  1.00  0.00     0.202 C 
ENDBRANCH  46  50
ENDBRANCH  44  46
ENDBRANCH  43  44
ENDBRANCH  30  43
ENDBRANCH  22  24
ENDBRANCH  18  22
BRANCH  19  52
HETATM   52  O13 UNL     1      39.460 -24.920  27.255  1.00  0.00    -0.358 OA
ATOM     53  H13 UNL     1      39.044 -25.142  26.430  1.00  0.00     0.217 HD
ENDBRANCH  19  52
ENDBRANCH  13  16
ENDBRANCH   9  12
ENDBRANCH   7   9
ENDBRANCH   1   4
TORSDOF 18
ENDMDL
MODEL 5
REMARK VINA RESULT: -8.438478153      3.104      7.865
REMARK  18 active torsions:
REMARK  status: ('A' for Active; 'I' for Inactive)
REMARK    1  A    between atoms: O1_2  and  C2_3 
REMARK    2  A    between atoms: C2_3  and  C3_5 
REMARK    3  A    between atoms: C6_10  and  O3_11 
REMARK    4  A    between atoms: O3_11  and  C7_12 
REMARK    5  A    between atoms: C7_12  and  C8_14 
REMARK    6  A    between atoms: C8_14  and  C9_15 
REMARK    7  A    between atoms: C8_14  and  O6_18 
REMARK    8  A    between atoms: C9_15  and  O5_16 
REMARK    9  A    between atoms: C11_20  and  O7_21 
REMARK   10  A    between atoms: C11_20  and  O8_23 
REMARK   11  A    between atoms: C12_25  and  O9_26 
REMARK   12  A    between atoms: N2_28  and  N3_29 
REMARK   13  A    between atoms: N3_29  and  C13_31 
REMARK   14  A    between atoms: C15_33  and  C16_34 
REMARK       I    between atoms: C16_34  and  N4_36 
REMARK   15  A    between atoms: N4_36  and  S1_38 
REMARK   16  A    between atoms: S1_38  and  C17_41 
REMARK   17  A    between atoms: C20_44  and  C21_45 
REMARK   18  A    between atoms: C25_51  and  O13_52 
ROOT
HETATM    1  C21 UNL     1      39.999 -16.182  35.026  1.00  0.00     0.170 C 
HETATM    2  C22 UNL     1      40.853 -17.290  35.462  1.00  0.00     0.064 C 
HETATM    3  N5  UNL     1      41.524 -18.163  35.809  1.00  0.00    -0.197 NA
ENDROOT
BRANCH   1   4
HETATM    4  C20 UNL     1      39.515 -16.513  33.638  1.00  0.00    -0.003 A 
HETATM    5  C19 UNL     1      39.969 -15.975  32.466  1.00  0.00     0.017 A 
HETATM    6  C18 UNL     1      39.419 -16.399  31.327  1.00  0.00     0.034 A 
HETATM    7  C17 UNL     1      38.432 -17.354  31.420  1.00  0.00     0.120 A 
HETATM    8  S2  UNL     1      38.323 -17.607  33.114  1.00  0.00    -0.080 SA
BRANCH   7   9
HETATM    9  S1  UNL     1      37.542 -18.127  30.110  1.00  0.00     0.272 S 
HETATM   10  O11 UNL     1      36.121 -18.250  30.538  1.00  0.00    -0.200 OA
HETATM   11  O12 UNL     1      37.548 -17.189  28.916  1.00  0.00    -0.200 OA
BRANCH   9  12
HETATM   12  N4  UNL     1      38.255 -19.621  29.712  1.00  0.00    -0.245 N 
HETATM   13  C16 UNL     1      37.658 -20.906  29.934  1.00  0.00     0.265 C 
HETATM   14  O10 UNL     1      36.520 -20.970  30.463  1.00  0.00    -0.267 OA
ATOM     15  H4  UNL     1      39.180 -19.600  29.283  1.00  0.00     0.182 HD
BRANCH  13  16
HETATM   16  C15 UNL     1      38.430 -22.065  29.519  1.00  0.00     0.035 A 
HETATM   17  C14 UNL     1      39.761 -22.268  29.726  1.00  0.00     0.051 A 
HETATM   18  C13 UNL     1      40.466 -23.393  29.319  1.00  0.00     0.082 A 
HETATM   19  C25 UNL     1      39.745 -24.383  28.648  1.00  0.00     0.093 A 
HETATM   20  C24 UNL     1      38.403 -24.215  28.420  1.00  0.00     0.040 A 
HETATM   21  C23 UNL     1      37.752 -23.080  28.845  1.00  0.00     0.020 A 
BRANCH  18  22
HETATM   22  N3  UNL     1      41.820 -23.617  29.481  1.00  0.00    -0.292 N 
ATOM     23  H3  UNL     1      42.127 -24.253  28.746  1.00  0.00     0.187 HD
BRANCH  22  24
HETATM   24  N2  UNL     1      42.868 -23.317  30.231  1.00  0.00    -0.249 N 
HETATM   25  C4  UNL     1      44.257 -22.868  30.310  1.00  0.00     0.137 C 
HETATM   26  C3  UNL     1      44.732 -21.708  30.132  1.00  0.00     0.096 C 
HETATM   27  N1  UNL     1      44.373 -24.015  31.103  1.00  0.00    -0.349 N 
HETATM   28  C12 UNL     1      45.588 -21.004  31.253  1.00  0.00     0.226 C 
HETATM   29  C11 UNL     1      44.367 -21.015  32.238  1.00  0.00     0.222 C 
HETATM   30  C6  UNL     1      43.697 -22.268  32.495  1.00  0.00     0.241 C 
HETATM   31  C5  UNL     1      43.159 -23.320  31.716  1.00  0.00     0.244 C 
ATOM     32  H1  UNL     1      44.948 -24.851  31.211  1.00  0.00     0.163 HD
BRANCH  26  33
HETATM   33  C2  UNL     1      44.280 -20.875  29.111  1.00  0.00     0.295 C 
HETATM   34  O2  UNL     1      44.959 -20.369  28.235  1.00  0.00    -0.259 OA
BRANCH  33  35
HETATM   35  O1  UNL     1      42.903 -20.529  29.000  1.00  0.00    -0.323 OA
HETATM   36  C1  UNL     1      42.592 -19.209  28.639  1.00  0.00     0.213 C 
ENDBRANCH  33  35
ENDBRANCH  26  33
BRANCH  28  37
HETATM   37  O9  UNL     1      46.574 -21.812  31.670  1.00  0.00    -0.385 OA
ATOM     38  H9  UNL     1      47.378 -21.629  31.198  1.00  0.00     0.210 HD
ENDBRANCH  28  37
BRANCH  29  39
HETATM   39  O7  UNL     1      44.885 -20.512  33.450  1.00  0.00    -0.361 OA
ATOM     40  H7  UNL     1      44.165 -20.242  34.007  1.00  0.00     0.213 HD
ENDBRANCH  29  39
BRANCH  29  41
HETATM   41  O8  UNL     1      43.465 -20.050  31.801  1.00  0.00    -0.361 OA
ATOM     42  H8  UNL     1      43.670 -19.768  30.917  1.00  0.00     0.213 HD
ENDBRANCH  29  41
BRANCH  30  43
HETATM   43  O3  UNL     1      44.557 -22.932  33.496  1.00  0.00    -0.304 OA
BRANCH  43  44
HETATM   44  C7  UNL     1      44.085 -23.507  34.625  1.00  0.00     0.290 C 
HETATM   45  O4  UNL     1      44.319 -24.753  34.818  1.00  0.00    -0.262 OA
BRANCH  44  46
HETATM   46  C8  UNL     1      43.311 -22.835  35.683  1.00  0.00     0.243 C 
BRANCH  46  47
HETATM   47  C9  UNL     1      43.251 -23.666  36.952  1.00  0.00     0.206 C 
BRANCH  47  48
HETATM   48  O5  UNL     1      42.250 -24.620  36.864  1.00  0.00    -0.398 OA
ATOM     49  H5  UNL     1      42.469 -25.276  36.212  1.00  0.00     0.209 HD
ENDBRANCH  47  48
ENDBRANCH  46  47
BRANCH  46  50
HETATM   50  O6  UNL     1      43.895 -21.618  36.044  1.00  0.00    -0.379 OA
HETATM   51  C10 UNL     1      44.936 -21.825  36.964  1.00  0.00     0.202 C 
ENDBRANCH  46  50
ENDBRANCH  44  46
ENDBRANCH  43  44
ENDBRANCH  30  43
ENDBRANCH  22  24
ENDBRANCH  18  22
BRANCH  19  52
HETATM   52  O13 UNL     1      40.368 -25.531  28.208  1.00  0.00    -0.358 OA
ATOM     53  H13 UNL     1      40.795 -25.557  27.360  1.00  0.00     0.217 HD
ENDBRANCH  19  52
ENDBRANCH  13  16
ENDBRANCH   9  12
ENDBRANCH   7   9
ENDBRANCH   1   4
TORSDOF 18
ENDMDL
