MODEL 1
REMARK VINA RESULT: -8.891552830      0.000      0.000
REMARK  20 active torsions:
REMARK  status: ('A' for Active; 'I' for Inactive)
REMARK    1  A    between atoms: O1_2  and  C2_3 
REMARK    2  A    between atoms: C2_3  and  C3_5 
REMARK    3  A    between atoms: C3_5  and  O3_6 
REMARK    4  A    between atoms: C6_11  and  C7_12 
REMARK    5  A    between atoms: C7_12  and  O5_13 
REMARK    6  A    between atoms: O5_13  and  C8_14 
REMARK    7  A    between atoms: C8_14  and  C9_16 
REMARK    8  A    between atoms: C11_18  and  O7_19 
REMARK    9  A    between atoms: C14_23  and  O8_24 
REMARK   10  A    between atoms: N1_29  and  N2_30 
REMARK   11  A    between atoms: N2_30  and  C17_32 
REMARK   12  A    between atoms: C17_32  and  C18_33 
REMARK   13  A    between atoms: C17_32  and  C23_44 
REMARK   14  A    between atoms: C18_33  and  C19_34 
REMARK   15  A    between atoms: C19_34  and  N3_35 
REMARK   16  A    between atoms: C19_34  and  C21_40 
REMARK   17  A    between atoms: N3_35  and  O10_36 
REMARK   18  A    between atoms: O10_36  and  C20_37 
REMARK   19  A    between atoms: C21_40  and  S1_42 
REMARK   20  A    between atoms: C25_48  and  O15_49 
ROOT
HETATM    1  C3  UNL     1      40.918 -20.131  35.109  1.00  0.00     0.201 C 
HETATM    2  C4  UNL     1      41.751 -18.922  34.710  1.00  0.00     0.145 C 
HETATM    3  C5  UNL     1      42.559 -19.877  33.902  1.00  0.00     0.179 C 
HETATM    4  O4  UNL     1      43.708 -19.991  33.541  1.00  0.00    -0.293 OA
HETATM    5  C6  UNL     1      41.306 -20.674  33.717  1.00  0.00     0.191 C 
HETATM    6  O9  UNL     1      40.469 -20.091  32.740  1.00  0.00    -0.324 OA
HETATM    7  C15 UNL     1      40.298 -18.715  32.780  1.00  0.00     0.098 A 
HETATM    8  C16 UNL     1      39.534 -18.018  31.880  1.00  0.00     0.152 A 
HETATM    9  N1  UNL     1      39.389 -16.657  31.955  1.00  0.00    -0.277 N 
HETATM   10  C24 UNL     1      40.040 -16.048  32.962  1.00  0.00     0.152 A 
HETATM   11  C25 UNL     1      40.825 -16.733  33.892  1.00  0.00     0.093 A 
HETATM   12  C26 UNL     1      40.960 -18.073  33.809  1.00  0.00     0.026 A 
ENDROOT
BRANCH   9  13
HETATM   13  N2  UNL     1      38.606 -16.014  30.999  1.00  0.00    -0.315 N 
ATOM     14  H2  UNL     1      38.402 -15.031  31.181  1.00  0.00     0.181 HD
BRANCH  13  15
HETATM   15  C17 UNL     1      38.052 -16.545  29.805  1.00  0.00     0.202 C 
BRANCH  15  16
HETATM   16  C18 UNL     1      36.566 -16.681  29.740  1.00  0.00     0.070 C 
BRANCH  16  17
HETATM   17  C19 UNL     1      35.991 -17.356  30.967  1.00  0.00     0.190 C 
BRANCH  17  18
HETATM   18  N3  UNL     1      36.147 -18.776  30.915  1.00  0.00    -0.076 NA
BRANCH  18  19
HETATM   19  O10 UNL     1      36.081 -19.343  32.171  1.00  0.00    -0.191 OA
BRANCH  19  20
HETATM   20  C20 UNL     1      35.066 -20.241  32.426  1.00  0.00     0.391 C 
HETATM   21  N4  UNL     1      35.182 -21.609  32.049  1.00  0.00    -0.031 NA
HETATM   22  O11 UNL     1      34.029 -19.831  33.002  1.00  0.00    -0.241 OA
ENDBRANCH  19  20
ENDBRANCH  18  19
ENDBRANCH  17  18
BRANCH  17  23
HETATM   23  C21 UNL     1      34.549 -16.956  31.115  1.00  0.00     0.207 C 
HETATM   24  O12 UNL     1      33.676 -17.544  30.502  1.00  0.00    -0.284 OA
BRANCH  23  25
HETATM   25  S1  UNL     1      34.069 -15.615  32.189  1.00  0.00    -0.095 SA
HETATM   26  C22 UNL     1      35.177 -15.580  33.618  1.00  0.00     0.099 C 
ENDBRANCH  23  25
ENDBRANCH  17  23
ENDBRANCH  16  17
ENDBRANCH  15  16
BRANCH  15  27
HETATM   27  C23 UNL     1      38.536 -15.916  28.549  1.00  0.00     0.198 C 
HETATM   28  O13 UNL     1      38.549 -16.535  27.463  1.00  0.00    -0.646 OA
HETATM   29  O14 UNL     1      38.993 -14.610  28.549  1.00  0.00    -0.646 OA
ENDBRANCH  15  27
ENDBRANCH  13  15
ENDBRANCH   9  13
BRANCH  11  30
HETATM   30  O15 UNL     1      41.442 -16.000  34.878  1.00  0.00    -0.359 OA
ATOM     31  H15 UNL     1      41.899 -16.473  35.564  1.00  0.00     0.217 HD
ENDBRANCH  11  30
BRANCH   5  32
HETATM   32  C7  UNL     1      41.493 -22.146  33.674  1.00  0.00     0.229 C 
BRANCH  32  33
HETATM   33  O5  UNL     1      40.560 -22.916  33.031  1.00  0.00    -0.314 OA
BRANCH  33  34
HETATM   34  C8  UNL     1      40.592 -23.534  31.830  1.00  0.00     0.296 C 
HETATM   35  O6  UNL     1      41.522 -24.381  31.643  1.00  0.00    -0.259 OA
BRANCH  34  36
HETATM   36  C9  UNL     1      39.652 -23.316  30.723  1.00  0.00     0.075 A 
HETATM   37  C10 UNL     1      39.881 -24.016  29.547  1.00  0.00     0.057 A 
HETATM   38  C11 UNL     1      39.067 -23.897  28.432  1.00  0.00     0.066 A 
HETATM   39  C12 UNL     1      37.998 -23.045  28.521  1.00  0.00     0.039 A 
HETATM   40  C13 UNL     1      37.769 -22.361  29.662  1.00  0.00     0.040 A 
HETATM   41  C14 UNL     1      38.577 -22.460  30.812  1.00  0.00     0.082 A 
BRANCH  38  42
HETATM   42  O7  UNL     1      39.318 -24.606  27.273  1.00  0.00    -0.361 OA
ATOM     43  H7  UNL     1      38.628 -25.070  26.813  1.00  0.00     0.217 HD
ENDBRANCH  38  42
BRANCH  41  44
HETATM   44  O8  UNL     1      38.276 -21.736  31.922  1.00  0.00    -0.360 OA
ATOM     45  H8  UNL     1      37.401 -21.435  32.136  1.00  0.00     0.217 HD
ENDBRANCH  41  44
ENDBRANCH  34  36
ENDBRANCH  33  34
ENDBRANCH  32  33
ENDBRANCH   5  32
BRANCH   1  46
HETATM   46  C2  UNL     1      41.591 -20.853  36.186  1.00  0.00     0.298 C 
HETATM   47  O2  UNL     1      40.975 -21.831  36.734  1.00  0.00    -0.262 OA
BRANCH  46  48
HETATM   48  O1  UNL     1      42.837 -20.567  36.659  1.00  0.00    -0.324 OA
HETATM   49  C1  UNL     1      43.255 -20.757  38.007  1.00  0.00     0.213 C 
ENDBRANCH  46  48
ENDBRANCH   1  46
BRANCH   1  50
HETATM   50  O3  UNL     1      39.565 -19.924  35.252  1.00  0.00    -0.375 OA
ATOM     51  H3  UNL     1      39.144 -19.381  34.596  1.00  0.00     0.211 HD
ENDBRANCH   1  50
TORSDOF 20
ENDMDL
MODEL 2
REMARK VINA RESULT: -8.693866946      2.245      6.185
REMARK  20 active torsions:
REMARK  status: ('A' for Active; 'I' for Inactive)
REMARK    1  A    between atoms: O1_2  and  C2_3 
REMARK    2  A    between atoms: C2_3  and  C3_5 
REMARK    3  A    between atoms: C3_5  and  O3_6 
REMARK    4  A    between atoms: C6_11  and  C7_12 
REMARK    5  A    between atoms: C7_12  and  O5_13 
REMARK    6  A    between atoms: O5_13  and  C8_14 
REMARK    7  A    between atoms: C8_14  and  C9_16 
REMARK    8  A    between atoms: C11_18  and  O7_19 
REMARK    9  A    between atoms: C14_23  and  O8_24 
REMARK   10  A    between atoms: N1_29  and  N2_30 
REMARK   11  A    between atoms: N2_30  and  C17_32 
REMARK   12  A    between atoms: C17_32  and  C18_33 
REMARK   13  A    between atoms: C17_32  and  C23_44 
REMARK   14  A    between atoms: C18_33  and  C19_34 
REMARK   15  A    between atoms: C19_34  and  N3_35 
REMARK   16  A    between atoms: C19_34  and  C21_40 
REMARK   17  A    between atoms: N3_35  and  O10_36 
REMARK   18  A    between atoms: O10_36  and  C20_37 
REMARK   19  A    between atoms: C21_40  and  S1_42 
REMARK   20  A    between atoms: C25_48  and  O15_49 
ROOT
HETATM    1  C3  UNL     1      42.703 -20.513  30.358  1.00  0.00     0.201 C 
HETATM    2  C4  UNL     1      41.893 -21.771  30.081  1.00  0.00     0.145 C 
HETATM    3  C5  UNL     1      42.391 -22.254  31.399  1.00  0.00     0.179 C 
HETATM    4  O4  UNL     1      42.670 -23.313  31.913  1.00  0.00    -0.293 OA
HETATM    5  C6  UNL     1      42.406 -20.824  31.840  1.00  0.00     0.191 C 
HETATM    6  O9  UNL     1      41.107 -20.374  32.160  1.00  0.00    -0.324 OA
HETATM    7  C15 UNL     1      40.078 -20.718  31.296  1.00  0.00     0.098 A 
HETATM    8  C16 UNL     1      38.768 -20.367  31.496  1.00  0.00     0.152 A 
HETATM    9  N1  UNL     1      37.779 -20.727  30.616  1.00  0.00    -0.277 N 
HETATM   10  C24 UNL     1      38.171 -21.441  29.547  1.00  0.00     0.152 A 
HETATM   11  C25 UNL     1      39.498 -21.811  29.317  1.00  0.00     0.093 A 
HETATM   12  C26 UNL     1      40.463 -21.452  30.190  1.00  0.00     0.026 A 
ENDROOT
BRANCH   9  13
HETATM   13  N2  UNL     1      36.468 -20.345  30.892  1.00  0.00    -0.315 N 
ATOM     14  H2  UNL     1      35.793 -20.510  30.145  1.00  0.00     0.181 HD
BRANCH  13  15
HETATM   15  C17 UNL     1      35.945 -19.757  32.073  1.00  0.00     0.202 C 
BRANCH  15  16
HETATM   16  C18 UNL     1      35.909 -18.266  32.138  1.00  0.00     0.070 C 
BRANCH  16  17
HETATM   17  C19 UNL     1      36.331 -17.617  30.836  1.00  0.00     0.190 C 
BRANCH  17  18
HETATM   18  N3  UNL     1      37.607 -16.983  30.948  1.00  0.00    -0.076 NA
BRANCH  18  19
HETATM   19  O10 UNL     1      38.376 -17.181  29.819  1.00  0.00    -0.191 OA
BRANCH  19  20
HETATM   20  C20 UNL     1      38.619 -16.099  29.000  1.00  0.00     0.391 C 
HETATM   21  N4  UNL     1      39.073 -14.860  29.534  1.00  0.00    -0.031 NA
HETATM   22  O11 UNL     1      38.434 -16.224  27.764  1.00  0.00    -0.241 OA
ENDBRANCH  19  20
ENDBRANCH  18  19
ENDBRANCH  17  18
BRANCH  17  23
HETATM   23  C21 UNL     1      35.263 -16.654  30.400  1.00  0.00     0.207 C 
HETATM   24  O12 UNL     1      35.302 -16.142  29.296  1.00  0.00    -0.284 OA
BRANCH  23  25
HETATM   25  S1  UNL     1      33.906 -16.231  31.479  1.00  0.00    -0.095 SA
HETATM   26  C22 UNL     1      34.491 -15.063  32.730  1.00  0.00     0.099 C 
ENDBRANCH  23  25
ENDBRANCH  17  23
ENDBRANCH  16  17
ENDBRANCH  15  16
BRANCH  15  27
HETATM   27  C23 UNL     1      34.635 -20.294  32.521  1.00  0.00     0.198 C 
HETATM   28  O13 UNL     1      33.822 -19.598  33.167  1.00  0.00    -0.646 OA
HETATM   29  O14 UNL     1      34.274 -21.597  32.228  1.00  0.00    -0.646 OA
ENDBRANCH  15  27
ENDBRANCH  13  15
ENDBRANCH   9  13
BRANCH  11  30
HETATM   30  O15 UNL     1      39.777 -22.542  28.187  1.00  0.00    -0.359 OA
ATOM     31  H15 UNL     1      40.681 -22.782  28.024  1.00  0.00     0.217 HD
ENDBRANCH  11  30
BRANCH   5  32
HETATM   32  C7  UNL     1      43.509 -20.460  32.765  1.00  0.00     0.229 C 
BRANCH  32  33
HETATM   33  O5  UNL     1      43.307 -19.457  33.677  1.00  0.00    -0.314 OA
BRANCH  33  34
HETATM   34  C8  UNL     1      42.335 -19.274  34.597  1.00  0.00     0.296 C 
HETATM   35  O6  UNL     1      42.102 -20.241  35.389  1.00  0.00    -0.259 OA
BRANCH  34  36
HETATM   36  C9  UNL     1      41.524 -18.060  34.765  1.00  0.00     0.075 A 
HETATM   37  C10 UNL     1      40.981 -17.497  33.619  1.00  0.00     0.057 A 
HETATM   38  C11 UNL     1      40.199 -16.353  33.644  1.00  0.00     0.066 A 
HETATM   39  C12 UNL     1      39.968 -15.775  34.864  1.00  0.00     0.039 A 
HETATM   40  C13 UNL     1      40.493 -16.318  35.982  1.00  0.00     0.040 A 
HETATM   41  C14 UNL     1      41.292 -17.479  35.991  1.00  0.00     0.082 A 
BRANCH  38  42
HETATM   42  O7  UNL     1      39.670 -15.812  32.487  1.00  0.00    -0.361 OA
ATOM     43  H7  UNL     1      39.044 -16.289  31.955  1.00  0.00     0.217 HD
ENDBRANCH  38  42
BRANCH  41  44
HETATM   44  O8  UNL     1      41.782 -17.961  37.163  1.00  0.00    -0.360 OA
ATOM     45  H8  UNL     1      41.431 -17.734  38.016  1.00  0.00     0.217 HD
ENDBRANCH  41  44
ENDBRANCH  34  36
ENDBRANCH  33  34
ENDBRANCH  32  33
ENDBRANCH   5  32
BRANCH   1  46
HETATM   46  C2  UNL     1      44.104 -20.749  30.018  1.00  0.00     0.298 C 
HETATM   47  O2  UNL     1      44.971 -19.892  30.401  1.00  0.00    -0.262 OA
BRANCH  46  48
HETATM   48  O1  UNL     1      44.567 -21.824  29.317  1.00  0.00    -0.324 OA
HETATM   49  C1  UNL     1      45.331 -21.741  28.118  1.00  0.00     0.213 C 
ENDBRANCH  46  48
ENDBRANCH   1  46
BRANCH   1  50
HETATM   50  O3  UNL     1      42.154 -19.324  29.934  1.00  0.00    -0.375 OA
ATOM     51  H3  UNL     1      41.851 -18.728  30.608  1.00  0.00     0.211 HD
ENDBRANCH   1  50
TORSDOF 20
ENDMDL
MODEL 3
REMARK VINA RESULT: -8.559530288      2.046      2.732
REMARK  20 active torsions:
REMARK  status: ('A' for Active; 'I' for Inactive)
REMARK    1  A    between atoms: O1_2  and  C2_3 
REMARK    2  A    between atoms: C2_3  and  C3_5 
REMARK    3  A    between atoms: C3_5  and  O3_6 
REMARK    4  A    between atoms: C6_11  and  C7_12 
REMARK    5  A    between atoms: C7_12  and  O5_13 
REMARK    6  A    between atoms: O5_13  and  C8_14 
REMARK    7  A    between atoms: C8_14  and  C9_16 
REMARK    8  A    between atoms: C11_18  and  O7_19 
REMARK    9  A    between atoms: C14_23  and  O8_24 
REMARK   10  A    between atoms: N1_29  and  N2_30 
REMARK   11  A    between atoms: N2_30  and  C17_32 
REMARK   12  A    between atoms: C17_32  and  C18_33 
REMARK   13  A    between atoms: C17_32  and  C23_44 
REMARK   14  A    between atoms: C18_33  and  C19_34 
REMARK   15  A    between atoms: C19_34  and  N3_35 
REMARK   16  A    between atoms: C19_34  and  C21_40 
REMARK   17  A    between atoms: N3_35  and  O10_36 
REMARK   18  A    between atoms: O10_36  and  C20_37 
REMARK   19  A    between atoms: C21_40  and  S1_42 
REMARK   20  A    between atoms: C25_48  and  O15_49 
ROOT
HETATM    1  C3  UNL     1      41.174 -20.209  34.769  1.00  0.00     0.201 C 
HETATM    2  C4  UNL     1      41.954 -18.935  34.480  1.00  0.00     0.145 C 
HETATM    3  C5  UNL     1      42.807 -19.781  33.600  1.00  0.00     0.179 C 
HETATM    4  O4  UNL     1      43.962 -19.813  33.240  1.00  0.00    -0.293 OA
HETATM    5  C6  UNL     1      41.592 -20.614  33.339  1.00  0.00     0.191 C 
HETATM    6  O9  UNL     1      40.734 -19.988  32.408  1.00  0.00    -0.324 OA
HETATM    7  C15 UNL     1      40.501 -18.629  32.563  1.00  0.00     0.098 A 
HETATM    8  C16 UNL     1      39.709 -17.893  31.720  1.00  0.00     0.152 A 
HETATM    9  N1  UNL     1      39.504 -16.551  31.908  1.00  0.00    -0.277 N 
HETATM   10  C24 UNL     1      40.122 -16.002  32.968  1.00  0.00     0.152 A 
HETATM   11  C25 UNL     1      40.934 -16.727  33.843  1.00  0.00     0.093 A 
HETATM   12  C26 UNL     1      41.129 -18.048  33.647  1.00  0.00     0.026 A 
ENDROOT
BRANCH   9  13
HETATM   13  N2  UNL     1      38.696 -15.865  31.004  1.00  0.00    -0.315 N 
ATOM     14  H2  UNL     1      38.561 -14.872  31.195  1.00  0.00     0.181 HD
BRANCH  13  15
HETATM   15  C17 UNL     1      38.034 -16.363  29.851  1.00  0.00     0.202 C 
BRANCH  15  16
HETATM   16  C18 UNL     1      36.541 -16.375  29.869  1.00  0.00     0.070 C 
BRANCH  16  17
HETATM   17  C19 UNL     1      35.980 -16.910  31.170  1.00  0.00     0.190 C 
BRANCH  17  18
HETATM   18  N3  UNL     1      36.338 -18.277  31.381  1.00  0.00    -0.076 NA
BRANCH  18  19
HETATM   19  O10 UNL     1      35.811 -18.767  32.557  1.00  0.00    -0.191 OA
BRANCH  19  20
HETATM   20  C20 UNL     1      35.036 -19.906  32.497  1.00  0.00     0.391 C 
HETATM   21  N4  UNL     1      33.961 -20.114  33.407  1.00  0.00    -0.031 NA
HETATM   22  O11 UNL     1      35.293 -20.765  31.618  1.00  0.00    -0.241 OA
ENDBRANCH  19  20
ENDBRANCH  18  19
ENDBRANCH  17  18
BRANCH  17  23
HETATM   23  C21 UNL     1      34.490 -16.713  31.177  1.00  0.00     0.207 C 
HETATM   24  O12 UNL     1      33.773 -17.380  30.453  1.00  0.00    -0.284 OA
BRANCH  23  25
HETATM   25  S1  UNL     1      33.722 -15.505  32.242  1.00  0.00    -0.095 SA
HETATM   26  C22 UNL     1      34.719 -15.325  33.741  1.00  0.00     0.099 C 
ENDBRANCH  23  25
ENDBRANCH  17  23
ENDBRANCH  16  17
ENDBRANCH  15  16
BRANCH  15  27
HETATM   27  C23 UNL     1      38.500 -15.795  28.560  1.00  0.00     0.198 C 
HETATM   28  O13 UNL     1      38.936 -14.627  28.472  1.00  0.00    -0.646 OA
HETATM   29  O14 UNL     1      38.462 -16.555  27.404  1.00  0.00    -0.646 OA
ENDBRANCH  15  27
ENDBRANCH  13  15
ENDBRANCH   9  13
BRANCH  11  30
HETATM   30  O15 UNL     1      41.513 -16.054  34.892  1.00  0.00    -0.359 OA
ATOM     31  H15 UNL     1      42.257 -16.459  35.323  1.00  0.00     0.217 HD
ENDBRANCH  11  30
BRANCH   5  32
HETATM   32  C7  UNL     1      41.845 -22.068  33.173  1.00  0.00     0.229 C 
BRANCH  32  33
HETATM   33  O5  UNL     1      41.475 -22.678  32.003  1.00  0.00    -0.314 OA
BRANCH  33  34
HETATM   34  C8  UNL     1      42.210 -23.120  30.959  1.00  0.00     0.296 C 
HETATM   35  O6  UNL     1      42.106 -24.352  30.663  1.00  0.00    -0.259 OA
BRANCH  34  36
HETATM   36  C9  UNL     1      43.117 -22.307  30.138  1.00  0.00     0.075 A 
HETATM   37  C10 UNL     1      42.773 -20.978  29.939  1.00  0.00     0.057 A 
HETATM   38  C11 UNL     1      43.545 -20.108  29.186  1.00  0.00     0.066 A 
HETATM   39  C12 UNL     1      44.690 -20.607  28.623  1.00  0.00     0.039 A 
HETATM   40  C13 UNL     1      45.030 -21.900  28.813  1.00  0.00     0.040 A 
HETATM   41  C14 UNL     1      44.268 -22.809  29.573  1.00  0.00     0.082 A 
BRANCH  38  42
HETATM   42  O7  UNL     1      43.180 -18.787  29.003  1.00  0.00    -0.361 OA
ATOM     43  H7  UNL     1      43.687 -18.074  29.373  1.00  0.00     0.217 HD
ENDBRANCH  38  42
BRANCH  41  44
HETATM   44  O8  UNL     1      44.682 -24.095  29.715  1.00  0.00    -0.360 OA
ATOM     45  H8  UNL     1      44.288 -24.831  29.262  1.00  0.00     0.217 HD
ENDBRANCH  41  44
ENDBRANCH  34  36
ENDBRANCH  33  34
ENDBRANCH  32  33
ENDBRANCH   5  32
BRANCH   1  46
HETATM   46  C2  UNL     1      41.875 -20.990  35.785  1.00  0.00     0.298 C 
HETATM   47  O2  UNL     1      41.265 -21.984  36.309  1.00  0.00    -0.262 OA
BRANCH  46  48
HETATM   48  O1  UNL     1      43.141 -20.741  36.227  1.00  0.00    -0.324 OA
HETATM   49  C1  UNL     1      44.100 -21.744  36.545  1.00  0.00     0.213 C 
ENDBRANCH  46  48
ENDBRANCH   1  46
BRANCH   1  50
HETATM   50  O3  UNL     1      39.813 -20.075  34.918  1.00  0.00    -0.375 OA
ATOM     51  H3  UNL     1      39.495 -19.223  35.192  1.00  0.00     0.211 HD
ENDBRANCH   1  50
TORSDOF 20
ENDMDL
MODEL 4
REMARK VINA RESULT: -8.471903387      1.864      2.637
REMARK  20 active torsions:
REMARK  status: ('A' for Active; 'I' for Inactive)
REMARK    1  A    between atoms: O1_2  and  C2_3 
REMARK    2  A    between atoms: C2_3  and  C3_5 
REMARK    3  A    between atoms: C3_5  and  O3_6 
REMARK    4  A    between atoms: C6_11  and  C7_12 
REMARK    5  A    between atoms: C7_12  and  O5_13 
REMARK    6  A    between atoms: O5_13  and  C8_14 
REMARK    7  A    between atoms: C8_14  and  C9_16 
REMARK    8  A    between atoms: C11_18  and  O7_19 
REMARK    9  A    between atoms: C14_23  and  O8_24 
REMARK   10  A    between atoms: N1_29  and  N2_30 
REMARK   11  A    between atoms: N2_30  and  C17_32 
REMARK   12  A    between atoms: C17_32  and  C18_33 
REMARK   13  A    between atoms: C17_32  and  C23_44 
REMARK   14  A    between atoms: C18_33  and  C19_34 
REMARK   15  A    between atoms: C19_34  and  N3_35 
REMARK   16  A    between atoms: C19_34  and  C21_40 
REMARK   17  A    between atoms: N3_35  and  O10_36 
REMARK   18  A    between atoms: O10_36  and  C20_37 
REMARK   19  A    between atoms: C21_40  and  S1_42 
REMARK   20  A    between atoms: C25_48  and  O15_49 
ROOT
HETATM    1  C3  UNL     1      40.935 -20.107  35.107  1.00  0.00     0.201 C 
HETATM    2  C4  UNL     1      41.782 -18.902  34.725  1.00  0.00     0.145 C 
HETATM    3  C5  UNL     1      42.578 -19.856  33.903  1.00  0.00     0.179 C 
HETATM    4  O4  UNL     1      43.726 -19.979  33.540  1.00  0.00    -0.293 OA
HETATM    5  C6  UNL     1      41.316 -20.635  33.707  1.00  0.00     0.191 C 
HETATM    6  O9  UNL     1      40.486 -20.029  32.739  1.00  0.00    -0.324 OA
HETATM    7  C15 UNL     1      40.332 -18.651  32.798  1.00  0.00     0.098 A 
HETATM    8  C16 UNL     1      39.575 -17.933  31.908  1.00  0.00     0.152 A 
HETATM    9  N1  UNL     1      39.447 -16.571  32.002  1.00  0.00    -0.277 N 
HETATM   10  C24 UNL     1      40.106 -15.984  33.016  1.00  0.00     0.152 A 
HETATM   11  C25 UNL     1      40.882 -16.691  33.937  1.00  0.00     0.093 A 
HETATM   12  C26 UNL     1      41.001 -18.031  33.835  1.00  0.00     0.026 A 
ENDROOT
BRANCH   9  13
HETATM   13  N2  UNL     1      38.671 -15.906  31.055  1.00  0.00    -0.315 N 
ATOM     14  H2  UNL     1      38.530 -14.909  31.220  1.00  0.00     0.181 HD
BRANCH  13  15
HETATM   15  C17 UNL     1      38.051 -16.431  29.890  1.00  0.00     0.202 C 
BRANCH  15  16
HETATM   16  C18 UNL     1      36.559 -16.492  29.879  1.00  0.00     0.070 C 
BRANCH  16  17
HETATM   17  C19 UNL     1      35.994 -17.146  31.122  1.00  0.00     0.190 C 
BRANCH  17  18
HETATM   18  N3  UNL     1      35.529 -18.472  30.861  1.00  0.00    -0.076 NA
BRANCH  18  19
HETATM   19  O10 UNL     1      34.467 -18.809  31.674  1.00  0.00    -0.191 OA
BRANCH  19  20
HETATM   20  C20 UNL     1      34.507 -20.024  32.324  1.00  0.00     0.391 C 
HETATM   21  N4  UNL     1      33.873 -20.206  33.585  1.00  0.00    -0.031 NA
HETATM   22  O11 UNL     1      35.116 -20.979  31.781  1.00  0.00    -0.241 OA
ENDBRANCH  19  20
ENDBRANCH  18  19
ENDBRANCH  17  18
BRANCH  17  23
HETATM   23  C21 UNL     1      34.908 -16.271  31.684  1.00  0.00     0.207 C 
HETATM   24  O12 UNL     1      33.997 -15.882  30.976  1.00  0.00    -0.284 OA
BRANCH  23  25
HETATM   25  S1  UNL     1      34.914 -15.778  33.399  1.00  0.00    -0.095 SA
HETATM   26  C22 UNL     1      34.139 -14.151  33.546  1.00  0.00     0.099 C 
ENDBRANCH  23  25
ENDBRANCH  17  23
ENDBRANCH  16  17
ENDBRANCH  15  16
BRANCH  15  27
HETATM   27  C23 UNL     1      38.523 -15.851  28.607  1.00  0.00     0.198 C 
HETATM   28  O13 UNL     1      38.945 -14.677  28.529  1.00  0.00    -0.646 OA
HETATM   29  O14 UNL     1      38.508 -16.607  27.448  1.00  0.00    -0.646 OA
ENDBRANCH  15  27
ENDBRANCH  13  15
ENDBRANCH   9  13
BRANCH  11  30
HETATM   30  O15 UNL     1      41.508 -15.980  34.932  1.00  0.00    -0.359 OA
ATOM     31  H15 UNL     1      42.330 -15.551  34.723  1.00  0.00     0.217 HD
ENDBRANCH  11  30
BRANCH   5  32
HETATM   32  C7  UNL     1      41.485 -22.109  33.645  1.00  0.00     0.229 C 
BRANCH  32  33
HETATM   33  O5  UNL     1      41.175 -22.764  32.482  1.00  0.00    -0.314 OA
BRANCH  33  34
HETATM   34  C8  UNL     1      41.909 -23.002  31.372  1.00  0.00     0.296 C 
HETATM   35  O6  UNL     1      41.718 -24.113  30.783  1.00  0.00    -0.259 OA
BRANCH  34  36
HETATM   36  C9  UNL     1      42.905 -22.096  30.787  1.00  0.00     0.075 A 
HETATM   37  C10 UNL     1      44.241 -22.437  30.940  1.00  0.00     0.057 A 
HETATM   38  C11 UNL     1      45.275 -21.665  30.434  1.00  0.00     0.066 A 
HETATM   39  C12 UNL     1      44.936 -20.522  29.760  1.00  0.00     0.039 A 
HETATM   40  C13 UNL     1      43.638 -20.184  29.607  1.00  0.00     0.040 A 
HETATM   41  C14 UNL     1      42.564 -20.947  30.109  1.00  0.00     0.082 A 
BRANCH  38  42
HETATM   42  O7  UNL     1      46.598 -22.027  30.600  1.00  0.00    -0.361 OA
ATOM     43  H7  UNL     1      46.916 -22.885  30.344  1.00  0.00     0.217 HD
ENDBRANCH  38  42
BRANCH  41  44
HETATM   44  O8  UNL     1      41.285 -20.536  29.911  1.00  0.00    -0.360 OA
ATOM     45  H8  UNL     1      41.046 -19.652  29.660  1.00  0.00     0.217 HD
ENDBRANCH  41  44
ENDBRANCH  34  36
ENDBRANCH  33  34
ENDBRANCH  32  33
ENDBRANCH   5  32
BRANCH   1  46
HETATM   46  C2  UNL     1      41.599 -20.852  36.173  1.00  0.00     0.298 C 
HETATM   47  O2  UNL     1      40.987 -21.853  36.682  1.00  0.00    -0.262 OA
BRANCH  46  48
HETATM   48  O1  UNL     1      42.833 -20.563  36.677  1.00  0.00    -0.324 OA
HETATM   49  C1  UNL     1      43.241 -20.816  38.017  1.00  0.00     0.213 C 
ENDBRANCH  46  48
ENDBRANCH   1  46
BRANCH   1  50
HETATM   50  O3  UNL     1      39.585 -19.885  35.253  1.00  0.00    -0.375 OA
ATOM     51  H3  UNL     1      39.222 -20.015  36.121  1.00  0.00     0.211 HD
ENDBRANCH   1  50
TORSDOF 20
ENDMDL
MODEL 5
REMARK VINA RESULT: -8.171055152      2.288      2.853
REMARK  20 active torsions:
REMARK  status: ('A' for Active; 'I' for Inactive)
REMARK    1  A    between atoms: O1_2  and  C2_3 
REMARK    2  A    between atoms: C2_3  and  C3_5 
REMARK    3  A    between atoms: C3_5  and  O3_6 
REMARK    4  A    between atoms: C6_11  and  C7_12 
REMARK    5  A    between atoms: C7_12  and  O5_13 
REMARK    6  A    between atoms: O5_13  and  C8_14 
REMARK    7  A    between atoms: C8_14  and  C9_16 
REMARK    8  A    between atoms: C11_18  and  O7_19 
REMARK    9  A    between atoms: C14_23  and  O8_24 
REMARK   10  A    between atoms: N1_29  and  N2_30 
REMARK   11  A    between atoms: N2_30  and  C17_32 
REMARK   12  A    between atoms: C17_32  and  C18_33 
REMARK   13  A    between atoms: C17_32  and  C23_44 
REMARK   14  A    between atoms: C18_33  and  C19_34 
REMARK   15  A    between atoms: C19_34  and  N3_35 
REMARK   16  A    between atoms: C19_34  and  C21_40 
REMARK   17  A    between atoms: N3_35  and  O10_36 
REMARK   18  A    between atoms: O10_36  and  C20_37 
REMARK   19  A    between atoms: C21_40  and  S1_42 
REMARK   20  A    between atoms: C25_48  and  O15_49 
ROOT
HETATM    1  C3  UNL     1      41.019 -20.064  35.418  1.00  0.00     0.201 C 
HETATM    2  C4  UNL     1      41.836 -18.884  34.913  1.00  0.00     0.145 C 
HETATM    3  C5  UNL     1      42.603 -19.889  34.124  1.00  0.00     0.179 C 
HETATM    4  O4  UNL     1      43.734 -20.029  33.718  1.00  0.00    -0.293 OA
HETATM    5  C6  UNL     1      41.341 -20.688  34.043  1.00  0.00     0.191 C 
HETATM    6  O9  UNL     1      40.462 -20.157  33.074  1.00  0.00    -0.324 OA
HETATM    7  C15 UNL     1      40.297 -18.780  33.042  1.00  0.00     0.098 A 
HETATM    8  C16 UNL     1      39.493 -18.132  32.141  1.00  0.00     0.152 A 
HETATM    9  N1  UNL     1      39.356 -16.767  32.144  1.00  0.00    -0.277 N 
HETATM   10  C24 UNL     1      40.054 -16.106  33.083  1.00  0.00     0.152 A 
HETATM   11  C25 UNL     1      40.879 -16.741  34.014  1.00  0.00     0.093 A 
HETATM   12  C26 UNL     1      41.006 -18.084  34.001  1.00  0.00     0.026 A 
ENDROOT
BRANCH   9  13
HETATM   13  N2  UNL     1      38.531 -16.176  31.189  1.00  0.00    -0.315 N 
ATOM     14  H2  UNL     1      38.192 -15.241  31.416  1.00  0.00     0.181 HD
BRANCH  13  15
HETATM   15  C17 UNL     1      38.098 -16.702  29.944  1.00  0.00     0.202 C 
BRANCH  15  16
HETATM   16  C18 UNL     1      36.655 -17.064  29.818  1.00  0.00     0.070 C 
BRANCH  16  17
HETATM   17  C19 UNL     1      36.112 -17.730  31.065  1.00  0.00     0.190 C 
BRANCH  17  18
HETATM   18  N3  UNL     1      36.212 -19.154  30.993  1.00  0.00    -0.076 NA
BRANCH  18  19
HETATM   19  O10 UNL     1      36.088 -19.738  32.237  1.00  0.00    -0.191 OA
BRANCH  19  20
HETATM   20  C20 UNL     1      35.001 -20.554  32.466  1.00  0.00     0.391 C 
HETATM   21  N4  UNL     1      33.954 -20.156  33.344  1.00  0.00    -0.031 NA
HETATM   22  O11 UNL     1      34.947 -21.665  31.883  1.00  0.00    -0.241 OA
ENDBRANCH  19  20
ENDBRANCH  18  19
ENDBRANCH  17  18
BRANCH  17  23
HETATM   23  C21 UNL     1      34.695 -17.278  31.284  1.00  0.00     0.207 C 
HETATM   24  O12 UNL     1      33.842 -17.480  30.438  1.00  0.00    -0.284 OA
BRANCH  23  25
HETATM   25  S1  UNL     1      34.215 -16.438  32.783  1.00  0.00    -0.095 SA
HETATM   26  C22 UNL     1      33.185 -15.014  32.355  1.00  0.00     0.099 C 
ENDBRANCH  23  25
ENDBRANCH  17  23
ENDBRANCH  16  17
ENDBRANCH  15  16
BRANCH  15  27
HETATM   27  C23 UNL     1      38.507 -15.919  28.750  1.00  0.00     0.198 C 
HETATM   28  O13 UNL     1      38.871 -14.726  28.837  1.00  0.00    -0.646 OA
HETATM   29  O14 UNL     1      38.498 -16.498  27.494  1.00  0.00    -0.646 OA
ENDBRANCH  15  27
ENDBRANCH  13  15
ENDBRANCH   9  13
BRANCH  11  30
HETATM   30  O15 UNL     1      41.543 -15.956  34.927  1.00  0.00    -0.359 OA
ATOM     31  H15 UNL     1      41.672 -15.039  34.715  1.00  0.00     0.217 HD
ENDBRANCH  11  30
BRANCH   5  32
HETATM   32  C7  UNL     1      41.522 -22.161  34.076  1.00  0.00     0.229 C 
BRANCH  32  33
HETATM   33  O5  UNL     1      40.426 -22.969  33.916  1.00  0.00    -0.314 OA
BRANCH  33  34
HETATM   34  C8  UNL     1      39.758 -23.745  34.798  1.00  0.00     0.296 C 
HETATM   35  O6  UNL     1      40.458 -24.470  35.573  1.00  0.00    -0.259 OA
BRANCH  34  36
HETATM   36  C9  UNL     1      38.298 -23.826  34.940  1.00  0.00     0.075 A 
HETATM   37  C10 UNL     1      37.771 -25.023  35.403  1.00  0.00     0.057 A 
HETATM   38  C11 UNL     1      36.412 -25.225  35.581  1.00  0.00     0.066 A 
HETATM   39  C12 UNL     1      35.575 -24.184  35.278  1.00  0.00     0.039 A 
HETATM   40  C13 UNL     1      36.082 -23.016  34.827  1.00  0.00     0.040 A 
HETATM   41  C14 UNL     1      37.457 -22.779  34.636  1.00  0.00     0.082 A 
BRANCH  38  42
HETATM   42  O7  UNL     1      35.912 -26.428  36.044  1.00  0.00    -0.361 OA
ATOM     43  H7  UNL     1      35.847 -26.616  36.972  1.00  0.00     0.217 HD
ENDBRANCH  38  42
BRANCH  41  44
HETATM   44  O8  UNL     1      37.885 -21.573  34.178  1.00  0.00    -0.360 OA
ATOM     45  H8  UNL     1      37.369 -21.009  33.615  1.00  0.00     0.217 HD
ENDBRANCH  41  44
ENDBRANCH  34  36
ENDBRANCH  33  34
ENDBRANCH  32  33
ENDBRANCH   5  32
BRANCH   1  46
HETATM   46  C2  UNL     1      41.739 -20.728  36.502  1.00  0.00     0.298 C 
HETATM   47  O2  UNL     1      41.121 -21.616  37.183  1.00  0.00    -0.262 OA
BRANCH  46  48
HETATM   48  O1  UNL     1      43.033 -20.474  36.851  1.00  0.00    -0.324 OA
HETATM   49  C1  UNL     1      43.958 -21.458  37.301  1.00  0.00     0.213 C 
ENDBRANCH  46  48
ENDBRANCH   1  46
BRANCH   1  50
HETATM   50  O3  UNL     1      39.675 -19.842  35.611  1.00  0.00    -0.375 OA
ATOM     51  H3  UNL     1      39.082 -20.236  34.982  1.00  0.00     0.211 HD
ENDBRANCH   1  50
TORSDOF 20
ENDMDL
