MODEL 1
REMARK VINA RESULT: -6.104705460      0.000      0.000
REMARK  14 active torsions:
REMARK  status: ('A' for Active; 'I' for Inactive)
REMARK    1  A    between atoms: C2_2  and  O1_3 
REMARK    2  A    between atoms: C2_2  and  C3_5 
REMARK    3  A    between atoms: C3_5  and  C4_6 
REMARK    4  A    between atoms: C4_6  and  C5_7 
REMARK    5  A    between atoms: C5_7  and  N1_8 
REMARK    6  A    between atoms: N1_8  and  C6_10 
REMARK    7  A    between atoms: N3_14  and  C8_16 
REMARK    8  A    between atoms: C8_16  and  C9_17 
REMARK    9  A    between atoms: C9_17  and  O2_18 
REMARK   10  A    between atoms: C10_22  and  N5_23 
REMARK   11  A    between atoms: N5_23  and  C11_25 
REMARK   12  A    between atoms: C11_25  and  C12_26 
REMARK   13  A    between atoms: C12_26  and  C13_27 
REMARK   14  A    between atoms: C13_27  and  O3_28 
ROOT
HETATM    1  C6  UNL     1      16.373 -14.636  25.092  1.00  0.00     0.707 A 
HETATM    2  N2  UNL     1      16.913 -15.869  25.336  1.00  0.00    -0.022 N 
ATOM      3  H2  UNL     1      16.356 -16.704  25.152  1.00  0.00     0.203 HD
HETATM    4  C7  UNL     1      18.157 -16.004  25.811  1.00  0.00     0.707 A 
HETATM    5  N3  UNL     1      18.650 -17.153  26.036  1.00  0.00    -0.223 N 
ATOM      6  H3  UNL     1      19.603 -17.191  26.399  1.00  0.00     0.177 HD
HETATM    7  N4  UNL     1      18.915 -14.887  26.062  1.00  0.00    -0.022 N 
ATOM      8  H4  UNL     1      19.865 -14.976  26.424  1.00  0.00     0.203 HD
HETATM    9  C10 UNL     1      18.397 -13.696  25.828  1.00  0.00     0.707 A 
HETATM   10  N6  UNL     1      17.137 -13.575  25.346  1.00  0.00    -0.022 N 
ATOM     11  H6  UNL     1      16.762 -12.642  25.174  1.00  0.00     0.203 HD
ENDROOT
BRANCH   1  12
HETATM   12  N1  UNL     1      15.174 -14.587  24.637  1.00  0.00    -0.225 N 
ATOM     13  H1  UNL     1      14.370 -14.621  25.263  1.00  0.00     0.177 HD
BRANCH  12  14
HETATM   14  C5  UNL     1      15.001 -14.481  23.202  1.00  0.00     0.138 C 
BRANCH  14  15
HETATM   15  C4  UNL     1      13.848 -13.568  22.844  1.00  0.00     0.023 C 
BRANCH  15  16
HETATM   16  C3  UNL     1      14.405 -12.476  21.931  1.00  0.00     0.033 C 
BRANCH  16  17
HETATM   17  C2  UNL     1      14.444 -11.182  22.750  1.00  0.00     0.114 C 
HETATM   18  C1  UNL     1      13.018 -10.950  23.236  1.00  0.00     0.039 C 
BRANCH  17  19
HETATM   19  O1  UNL     1      15.280 -11.325  23.840  1.00  0.00    -0.396 OA
ATOM     20  H1  UNL     1      16.021 -10.738  23.746  1.00  0.00     0.210 HD
ENDBRANCH  17  19
ENDBRANCH  16  17
ENDBRANCH  15  16
ENDBRANCH  14  15
ENDBRANCH  12  14
ENDBRANCH   1  12
BRANCH   9  21
HETATM   21  N5  UNL     1      19.072 -12.625  26.049  1.00  0.00    -0.225 N 
ATOM     22  H5  UNL     1      18.863 -12.057  26.870  1.00  0.00     0.177 HD
BRANCH  21  23
HETATM   23  C11 UNL     1      20.125 -12.215  25.148  1.00  0.00     0.140 C 
BRANCH  23  24
HETATM   24  C12 UNL     1      20.161 -10.683  25.098  1.00  0.00     0.046 C 
BRANCH  24  25
HETATM   25  C13 UNL     1      19.264 -10.191  24.007  1.00  0.00     0.165 C 
BRANCH  25  26
HETATM   26  O3  UNL     1      17.983 -10.677  24.208  1.00  0.00    -0.401 OA
ATOM     27  H3  UNL     1      18.009 -11.625  24.259  1.00  0.00     0.209 HD
ENDBRANCH  25  26
ENDBRANCH  24  25
ENDBRANCH  23  24
ENDBRANCH  21  23
ENDBRANCH   9  21
BRANCH   5  28
HETATM   28  C8  UNL     1      17.985 -18.380  25.824  1.00  0.00     0.164 C 
BRANCH  28  29
HETATM   29  C9  UNL     1      18.992 -19.448  25.380  1.00  0.00     0.184 C 
BRANCH  29  30
HETATM   30  O2  UNL     1      18.528 -20.700  25.681  1.00  0.00    -0.399 OA
ATOM     31  H2  UNL     1      19.251 -21.298  25.826  1.00  0.00     0.209 HD
ENDBRANCH  29  30
ENDBRANCH  28  29
ENDBRANCH   5  28
TORSDOF 14
ENDMDL
MODEL 2
REMARK VINA RESULT: -6.077970634      9.929     12.491
REMARK  14 active torsions:
REMARK  status: ('A' for Active; 'I' for Inactive)
REMARK    1  A    between atoms: C2_2  and  O1_3 
REMARK    2  A    between atoms: C2_2  and  C3_5 
REMARK    3  A    between atoms: C3_5  and  C4_6 
REMARK    4  A    between atoms: C4_6  and  C5_7 
REMARK    5  A    between atoms: C5_7  and  N1_8 
REMARK    6  A    between atoms: N1_8  and  C6_10 
REMARK    7  A    between atoms: N3_14  and  C8_16 
REMARK    8  A    between atoms: C8_16  and  C9_17 
REMARK    9  A    between atoms: C9_17  and  O2_18 
REMARK   10  A    between atoms: C10_22  and  N5_23 
REMARK   11  A    between atoms: N5_23  and  C11_25 
REMARK   12  A    between atoms: C11_25  and  C12_26 
REMARK   13  A    between atoms: C12_26  and  C13_27 
REMARK   14  A    between atoms: C13_27  and  O3_28 
ROOT
HETATM    1  C6  UNL     1      26.984 -17.835  20.344  1.00  0.00     0.707 A 
HETATM    2  N2  UNL     1      27.768 -16.844  20.868  1.00  0.00    -0.022 N 
ATOM      3  H2  UNL     1      27.573 -15.872  20.626  1.00  0.00     0.203 HD
HETATM    4  C7  UNL     1      28.786 -17.124  21.691  1.00  0.00     0.707 A 
HETATM    5  N3  UNL     1      29.509 -16.197  22.173  1.00  0.00    -0.223 N 
ATOM      6  H3  UNL     1      30.271 -16.472  22.794  1.00  0.00     0.177 HD
HETATM    7  N4  UNL     1      29.056 -18.429  22.023  1.00  0.00    -0.022 N 
ATOM      8  H4  UNL     1      29.829 -18.654  22.650  1.00  0.00     0.203 HD
HETATM    9  C10 UNL     1      28.301 -19.386  21.518  1.00  0.00     0.707 A 
HETATM   10  N6  UNL     1      27.274 -19.089  20.687  1.00  0.00    -0.022 N 
ATOM     11  H6  UNL     1      26.706 -19.849  20.312  1.00  0.00     0.203 HD
ENDROOT
BRANCH   1  12
HETATM   12  N1  UNL     1      26.026 -17.490  19.561  1.00  0.00    -0.225 N 
ATOM     13  H1  UNL     1      26.209 -16.983  18.696  1.00  0.00     0.177 HD
BRANCH  12  14
HETATM   14  C5  UNL     1      24.676 -17.845  19.949  1.00  0.00     0.138 C 
BRANCH  14  15
HETATM   15  C4  UNL     1      23.946 -16.674  20.570  1.00  0.00     0.023 C 
BRANCH  15  16
HETATM   16  C3  UNL     1      23.981 -15.531  19.556  1.00  0.00     0.033 C 
BRANCH  16  17
HETATM   17  C2  UNL     1      24.538 -14.303  20.284  1.00  0.00     0.114 C 
HETATM   18  C1  UNL     1      23.608 -14.058  21.466  1.00  0.00     0.039 C 
BRANCH  17  19
HETATM   19  O1  UNL     1      25.813 -14.554  20.750  1.00  0.00    -0.396 OA
ATOM     20  H1  UNL     1      25.935 -14.113  21.583  1.00  0.00     0.210 HD
ENDBRANCH  17  19
ENDBRANCH  16  17
ENDBRANCH  15  16
ENDBRANCH  14  15
ENDBRANCH  12  14
ENDBRANCH   1  12
BRANCH   9  21
HETATM   21  N5  UNL     1      28.520 -20.620  21.803  1.00  0.00    -0.225 N 
ATOM     22  H5  UNL     1      27.795 -21.164  22.272  1.00  0.00     0.177 HD
BRANCH  21  23
HETATM   23  C11 UNL     1      29.777 -21.246  21.467  1.00  0.00     0.140 C 
BRANCH  23  24
HETATM   24  C12 UNL     1      29.791 -22.666  22.045  1.00  0.00     0.046 C 
BRANCH  24  25
HETATM   25  C13 UNL     1      29.420 -23.650  20.980  1.00  0.00     0.165 C 
BRANCH  25  26
HETATM   26  O3  UNL     1      28.052 -23.608  20.770  1.00  0.00    -0.401 OA
ATOM     27  H3  UNL     1      27.861 -23.884  19.881  1.00  0.00     0.209 HD
ENDBRANCH  25  26
ENDBRANCH  24  25
ENDBRANCH  23  24
ENDBRANCH  21  23
ENDBRANCH   9  21
BRANCH   5  28
HETATM   28  C8  UNL     1      29.345 -14.818  21.918  1.00  0.00     0.164 C 
BRANCH  28  29
HETATM   29  C9  UNL     1      28.622 -14.153  23.095  1.00  0.00     0.184 C 
BRANCH  29  30
HETATM   30  O2  UNL     1      27.324 -14.579  23.164  1.00  0.00    -0.399 OA
ATOM     31  H2  UNL     1      26.771 -14.060  22.592  1.00  0.00     0.209 HD
ENDBRANCH  29  30
ENDBRANCH  28  29
ENDBRANCH   5  28
TORSDOF 14
ENDMDL
MODEL 3
REMARK VINA RESULT: -5.838171382      1.767      5.198
REMARK  14 active torsions:
REMARK  status: ('A' for Active; 'I' for Inactive)
REMARK    1  A    between atoms: C2_2  and  O1_3 
REMARK    2  A    between atoms: C2_2  and  C3_5 
REMARK    3  A    between atoms: C3_5  and  C4_6 
REMARK    4  A    between atoms: C4_6  and  C5_7 
REMARK    5  A    between atoms: C5_7  and  N1_8 
REMARK    6  A    between atoms: N1_8  and  C6_10 
REMARK    7  A    between atoms: N3_14  and  C8_16 
REMARK    8  A    between atoms: C8_16  and  C9_17 
REMARK    9  A    between atoms: C9_17  and  O2_18 
REMARK   10  A    between atoms: C10_22  and  N5_23 
REMARK   11  A    between atoms: N5_23  and  C11_25 
REMARK   12  A    between atoms: C11_25  and  C12_26 
REMARK   13  A    between atoms: C12_26  and  C13_27 
REMARK   14  A    between atoms: C13_27  and  O3_28 
ROOT
HETATM    1  C6  UNL     1      16.718 -14.536  25.070  1.00  0.00     0.707 A 
HETATM    2  N2  UNL     1      17.794 -13.820  25.521  1.00  0.00    -0.022 N 
ATOM      3  H2  UNL     1      17.806 -12.808  25.402  1.00  0.00     0.203 HD
HETATM    4  C7  UNL     1      18.831 -14.423  26.115  1.00  0.00     0.707 A 
HETATM    5  N3  UNL     1      19.826 -13.751  26.531  1.00  0.00    -0.223 N 
ATOM      6  H3  UNL     1      20.587 -14.266  26.975  1.00  0.00     0.177 HD
HETATM    7  N4  UNL     1      18.825 -15.786  26.281  1.00  0.00    -0.022 N 
ATOM      8  H4  UNL     1      19.610 -16.256  26.732  1.00  0.00     0.203 HD
HETATM    9  C10 UNL     1      17.789 -16.478  25.846  1.00  0.00     0.707 A 
HETATM   10  N6  UNL     1      16.746 -15.856  25.247  1.00  0.00    -0.022 N 
ATOM     11  H6  UNL     1      15.958 -16.415  24.922  1.00  0.00     0.203 HD
ENDROOT
BRANCH   1  12
HETATM   12  N1  UNL     1      15.762 -13.889  24.510  1.00  0.00    -0.225 N 
ATOM     13  H1  UNL     1      15.617 -12.897  24.695  1.00  0.00     0.177 HD
BRANCH  12  14
HETATM   14  C5  UNL     1      14.894 -14.616  23.605  1.00  0.00     0.138 C 
BRANCH  14  15
HETATM   15  C4  UNL     1      13.742 -13.759  23.126  1.00  0.00     0.023 C 
BRANCH  15  16
HETATM   16  C3  UNL     1      14.333 -12.658  22.247  1.00  0.00     0.033 C 
BRANCH  16  17
HETATM   17  C2  UNL     1      13.456 -11.416  22.433  1.00  0.00     0.114 C 
HETATM   18  C1  UNL     1      12.744 -11.201  21.103  1.00  0.00     0.039 C 
BRANCH  17  19
HETATM   19  O1  UNL     1      12.518 -11.630  23.424  1.00  0.00    -0.396 OA
ATOM     20  H1  UNL     1      12.956 -11.681  24.265  1.00  0.00     0.210 HD
ENDBRANCH  17  19
ENDBRANCH  16  17
ENDBRANCH  15  16
ENDBRANCH  14  15
ENDBRANCH  12  14
ENDBRANCH   1  12
BRANCH   9  21
HETATM   21  N5  UNL     1      17.743 -17.756  25.981  1.00  0.00    -0.225 N 
ATOM     22  H5  UNL     1      16.840 -18.231  25.968  1.00  0.00     0.177 HD
BRANCH  21  23
HETATM   23  C11 UNL     1      18.953 -18.526  26.152  1.00  0.00     0.140 C 
BRANCH  23  24
HETATM   24  C12 UNL     1      19.416 -19.027  24.779  1.00  0.00     0.046 C 
BRANCH  24  25
HETATM   25  C13 UNL     1      19.280 -20.515  24.711  1.00  0.00     0.165 C 
BRANCH  25  26
HETATM   26  O3  UNL     1      19.321 -20.922  23.388  1.00  0.00    -0.401 OA
ATOM     27  H3  UNL     1      20.156 -20.676  23.007  1.00  0.00     0.209 HD
ENDBRANCH  25  26
ENDBRANCH  24  25
ENDBRANCH  23  24
ENDBRANCH  21  23
ENDBRANCH   9  21
BRANCH   5  28
HETATM   28  C8  UNL     1      19.964 -12.350  26.427  1.00  0.00     0.164 C 
BRANCH  28  29
HETATM   29  C9  UNL     1      20.363 -11.763  27.785  1.00  0.00     0.184 C 
BRANCH  29  30
HETATM   30  O2  UNL     1      19.614 -12.316  28.787  1.00  0.00    -0.399 OA
ATOM     31  H2  UNL     1      18.841 -11.790  28.956  1.00  0.00     0.209 HD
ENDBRANCH  29  30
ENDBRANCH  28  29
ENDBRANCH   5  28
TORSDOF 14
ENDMDL
MODEL 4
REMARK VINA RESULT: -5.831615316      7.449      9.873
REMARK  14 active torsions:
REMARK  status: ('A' for Active; 'I' for Inactive)
REMARK    1  A    between atoms: C2_2  and  O1_3 
REMARK    2  A    between atoms: C2_2  and  C3_5 
REMARK    3  A    between atoms: C3_5  and  C4_6 
REMARK    4  A    between atoms: C4_6  and  C5_7 
REMARK    5  A    between atoms: C5_7  and  N1_8 
REMARK    6  A    between atoms: N1_8  and  C6_10 
REMARK    7  A    between atoms: N3_14  and  C8_16 
REMARK    8  A    between atoms: C8_16  and  C9_17 
REMARK    9  A    between atoms: C9_17  and  O2_18 
REMARK   10  A    between atoms: C10_22  and  N5_23 
REMARK   11  A    between atoms: N5_23  and  C11_25 
REMARK   12  A    between atoms: C11_25  and  C12_26 
REMARK   13  A    between atoms: C12_26  and  C13_27 
REMARK   14  A    between atoms: C13_27  and  O3_28 
ROOT
HETATM    1  C6  UNL     1      20.064 -14.944  32.776  1.00  0.00     0.707 A 
HETATM    2  N2  UNL     1      20.152 -14.097  31.706  1.00  0.00    -0.022 N 
ATOM      3  H2  UNL     1      19.561 -13.266  31.677  1.00  0.00     0.203 HD
HETATM    4  C7  UNL     1      20.997 -14.336  30.696  1.00  0.00     0.707 A 
HETATM    5  N3  UNL     1      21.071 -13.544  29.705  1.00  0.00    -0.223 N 
ATOM      6  H3  UNL     1      21.734 -13.779  28.965  1.00  0.00     0.177 HD
HETATM    7  N4  UNL     1      21.797 -15.452  30.725  1.00  0.00    -0.022 N 
ATOM      8  H4  UNL     1      22.445 -15.645  29.961  1.00  0.00     0.203 HD
HETATM    9  C10 UNL     1      21.714 -16.271  31.756  1.00  0.00     0.707 A 
HETATM   10  N6  UNL     1      20.855 -16.017  32.772  1.00  0.00    -0.022 N 
ATOM     11  H6  UNL     1      20.812 -16.666  33.557  1.00  0.00     0.203 HD
ENDROOT
BRANCH   1  12
HETATM   12  N1  UNL     1      19.230 -14.649  33.707  1.00  0.00    -0.225 N 
ATOM     13  H1  UNL     1      18.225 -14.715  33.553  1.00  0.00     0.177 HD
BRANCH  12  14
HETATM   14  C5  UNL     1      19.767 -14.220  34.982  1.00  0.00     0.138 C 
BRANCH  14  15
HETATM   15  C4  UNL     1      18.675 -13.743  35.915  1.00  0.00     0.023 C 
BRANCH  15  16
HETATM   16  C3  UNL     1      17.457 -13.410  35.054  1.00  0.00     0.033 C 
BRANCH  16  17
HETATM   17  C2  UNL     1      16.322 -13.031  36.009  1.00  0.00     0.114 C 
HETATM   18  C1  UNL     1      15.029 -13.408  35.296  1.00  0.00     0.039 C 
BRANCH  17  19
HETATM   19  O1  UNL     1      16.420 -13.746  37.187  1.00  0.00    -0.396 OA
ATOM     20  H1  UNL     1      16.345 -13.151  37.923  1.00  0.00     0.210 HD
ENDBRANCH  17  19
ENDBRANCH  16  17
ENDBRANCH  15  16
ENDBRANCH  14  15
ENDBRANCH  12  14
ENDBRANCH   1  12
BRANCH   9  21
HETATM   21  N5  UNL     1      22.445 -17.326  31.824  1.00  0.00    -0.225 N 
ATOM     22  H5  UNL     1      23.268 -17.331  32.427  1.00  0.00     0.177 HD
BRANCH  21  23
HETATM   23  C11 UNL     1      22.116 -18.505  31.057  1.00  0.00     0.140 C 
BRANCH  23  24
HETATM   24  C12 UNL     1      23.321 -18.880  30.188  1.00  0.00     0.046 C 
BRANCH  24  25
HETATM   25  C13 UNL     1      23.141 -18.331  28.808  1.00  0.00     0.165 C 
BRANCH  25  26
HETATM   26  O3  UNL     1      21.858 -17.828  28.675  1.00  0.00    -0.401 OA
ATOM     27  H3  UNL     1      21.898 -16.887  28.557  1.00  0.00     0.209 HD
ENDBRANCH  25  26
ENDBRANCH  24  25
ENDBRANCH  23  24
ENDBRANCH  21  23
ENDBRANCH   9  21
BRANCH   5  28
HETATM   28  C8  UNL     1      20.311 -12.365  29.545  1.00  0.00     0.164 C 
BRANCH  28  29
HETATM   29  C9  UNL     1      20.315 -11.937  28.073  1.00  0.00     0.184 C 
BRANCH  29  30
HETATM   30  O2  UNL     1      19.195 -12.397  27.436  1.00  0.00    -0.399 OA
ATOM     31  H2  UNL     1      19.396 -13.169  26.921  1.00  0.00     0.209 HD
ENDBRANCH  29  30
ENDBRANCH  28  29
ENDBRANCH   5  28
TORSDOF 14
ENDMDL
MODEL 5
REMARK VINA RESULT: -5.788550072      5.828      7.179
REMARK  14 active torsions:
REMARK  status: ('A' for Active; 'I' for Inactive)
REMARK    1  A    between atoms: C2_2  and  O1_3 
REMARK    2  A    between atoms: C2_2  and  C3_5 
REMARK    3  A    between atoms: C3_5  and  C4_6 
REMARK    4  A    between atoms: C4_6  and  C5_7 
REMARK    5  A    between atoms: C5_7  and  N1_8 
REMARK    6  A    between atoms: N1_8  and  C6_10 
REMARK    7  A    between atoms: N3_14  and  C8_16 
REMARK    8  A    between atoms: C8_16  and  C9_17 
REMARK    9  A    between atoms: C9_17  and  O2_18 
REMARK   10  A    between atoms: C10_22  and  N5_23 
REMARK   11  A    between atoms: N5_23  and  C11_25 
REMARK   12  A    between atoms: C11_25  and  C12_26 
REMARK   13  A    between atoms: C12_26  and  C13_27 
REMARK   14  A    between atoms: C13_27  and  O3_28 
ROOT
HETATM    1  C6  UNL     1      21.174 -16.443  24.886  1.00  0.00     0.707 A 
HETATM    2  N2  UNL     1      20.309 -17.483  25.086  1.00  0.00    -0.022 N 
ATOM      3  H2  UNL     1      19.779 -17.852  24.297  1.00  0.00     0.203 HD
HETATM    4  C7  UNL     1      20.142 -18.026  26.299  1.00  0.00     0.707 A 
HETATM    5  N3  UNL     1      19.335 -18.992  26.477  1.00  0.00    -0.223 N 
ATOM      6  H3  UNL     1      19.250 -19.363  27.423  1.00  0.00     0.177 HD
HETATM    7  N4  UNL     1      20.850 -17.536  27.369  1.00  0.00    -0.022 N 
ATOM      8  H4  UNL     1      20.732 -17.942  28.297  1.00  0.00     0.203 HD
HETATM    9  C10 UNL     1      21.685 -16.533  27.177  1.00  0.00     0.707 A 
HETATM   10  N6  UNL     1      21.845 -15.993  25.945  1.00  0.00    -0.022 N 
ATOM     11  H6  UNL     1      22.498 -15.219  25.826  1.00  0.00     0.203 HD
ENDROOT
BRANCH   1  12
HETATM   12  N1  UNL     1      21.280 -15.974  23.695  1.00  0.00    -0.225 N 
ATOM     13  H1  UNL     1      21.164 -14.979  23.508  1.00  0.00     0.177 HD
BRANCH  12  14
HETATM   14  C5  UNL     1      21.572 -16.908  22.626  1.00  0.00     0.138 C 
BRANCH  14  15
HETATM   15  C4  UNL     1      21.824 -16.195  21.315  1.00  0.00     0.023 C 
BRANCH  15  16
HETATM   16  C3  UNL     1      23.292 -16.418  20.955  1.00  0.00     0.033 C 
BRANCH  16  17
HETATM   17  C2  UNL     1      23.906 -15.038  20.700  1.00  0.00     0.114 C 
HETATM   18  C1  UNL     1      24.892 -15.222  19.552  1.00  0.00     0.039 C 
BRANCH  17  19
HETATM   19  O1  UNL     1      22.930 -14.136  20.323  1.00  0.00    -0.396 OA
ATOM     20  H1  UNL     1      23.239 -13.253  20.485  1.00  0.00     0.210 HD
ENDBRANCH  17  19
ENDBRANCH  16  17
ENDBRANCH  15  16
ENDBRANCH  14  15
ENDBRANCH  12  14
ENDBRANCH   1  12
BRANCH   9  21
HETATM   21  N5  UNL     1      22.368 -16.045  28.151  1.00  0.00    -0.225 N 
ATOM     22  H5  UNL     1      22.048 -15.193  28.613  1.00  0.00     0.177 HD
BRANCH  21  23
HETATM   23  C11 UNL     1      23.582 -16.687  28.599  1.00  0.00     0.140 C 
BRANCH  23  24
HETATM   24  C12 UNL     1      23.339 -17.284  29.990  1.00  0.00     0.046 C 
BRANCH  24  25
HETATM   25  C13 UNL     1      23.415 -18.776  29.922  1.00  0.00     0.165 C 
BRANCH  25  26
HETATM   26  O3  UNL     1      22.999 -19.203  28.673  1.00  0.00    -0.401 OA
ATOM     27  H3  UNL     1      22.155 -18.816  28.472  1.00  0.00     0.209 HD
ENDBRANCH  25  26
ENDBRANCH  24  25
ENDBRANCH  23  24
ENDBRANCH  21  23
ENDBRANCH   9  21
BRANCH   5  28
HETATM   28  C8  UNL     1      18.547 -19.591  25.471  1.00  0.00     0.164 C 
BRANCH  28  29
HETATM   29  C9  UNL     1      19.236 -20.859  24.955  1.00  0.00     0.184 C 
BRANCH  29  30
HETATM   30  O2  UNL     1      19.292 -20.854  23.588  1.00  0.00    -0.399 OA
ATOM     31  H2  UNL     1      18.493 -20.493  23.222  1.00  0.00     0.209 HD
ENDBRANCH  29  30
ENDBRANCH  28  29
ENDBRANCH   5  28
TORSDOF 14
ENDMDL
