MODEL 1
REMARK VINA RESULT: -6.191856160      0.000      0.000
REMARK  15 active torsions:
REMARK  status: ('A' for Active; 'I' for Inactive)
REMARK    1  A    between atoms: C2_2  and  C3_3 
REMARK    2  A    between atoms: C2_2  and  N1_6 
REMARK    3  A    between atoms: C3_3  and  O1_4 
REMARK    4  A    between atoms: N1_6  and  C4_8 
REMARK    5  A    between atoms: C5_11  and  N3_12 
REMARK    6  A    between atoms: N3_12  and  C6_14 
REMARK    7  A    between atoms: C6_14  and  C7_15 
REMARK    8  A    between atoms: C7_15  and  O2_16 
REMARK    9  A    between atoms: C8_20  and  N5_21 
REMARK   10  A    between atoms: N5_21  and  C9_23 
REMARK   11  A    between atoms: C9_23  and  C10_24 
REMARK   12  A    between atoms: C10_24  and  C11_25 
REMARK   13  A    between atoms: C11_25  and  C12_26 
REMARK   14  A    between atoms: C12_26  and  C13_27 
REMARK   15  A    between atoms: C13_27  and  N6_28 
ROOT
HETATM    1  C4  UNL     1      20.394 -16.824  25.611  1.00  0.00     0.707 A 
HETATM    2  N2  UNL     1      20.490 -15.670  26.291  1.00  0.00    -0.022 N 
ATOM      3  H2  UNL     1      20.116 -15.616  27.239  1.00  0.00     0.203 HD
HETATM    4  C5  UNL     1      21.077 -14.570  25.739  1.00  0.00     0.707 A 
HETATM    5  N4  UNL     1      21.569 -14.644  24.489  1.00  0.00    -0.022 N 
ATOM      6  H4  UNL     1      22.010 -13.826  24.068  1.00  0.00     0.203 HD
HETATM    7  C8  UNL     1      21.484 -15.792  23.790  1.00  0.00     0.707 A 
HETATM    8  N7  UNL     1      20.891 -16.880  24.365  1.00  0.00    -0.022 N 
ATOM      9  H7  UNL     1      20.825 -17.751  23.838  1.00  0.00     0.203 HD
ENDROOT
BRANCH   7  10
HETATM   10  N5  UNL     1      21.959 -15.850  22.592  1.00  0.00    -0.225 N 
ATOM     11  H5  UNL     1      22.652 -15.172  22.275  1.00  0.00     0.177 HD
BRANCH  10  12
HETATM   12  C9  UNL     1      21.492 -16.890  21.711  1.00  0.00     0.138 C 
BRANCH  12  13
HETATM   13  C10 UNL     1      22.571 -17.828  21.280  1.00  0.00     0.020 C 
BRANCH  13  14
HETATM   14  C11 UNL     1      23.749 -17.097  20.676  1.00  0.00     0.003 C 
BRANCH  14  15
HETATM   15  C12 UNL     1      24.576 -18.013  19.798  1.00  0.00     0.027 C 
BRANCH  15  16
HETATM   16  C13 UNL     1      26.032 -17.643  19.804  1.00  0.00     0.229 C 
BRANCH  16  17
HETATM   17  N6  UNL     1      26.865 -18.770  20.175  1.00  0.00    -0.079 N 
ATOM     18  H63 UNL     1      26.309 -19.536  20.557  1.00  0.00     0.274 HD
ATOM     19  H62 UNL     1      27.241 -19.243  19.353  1.00  0.00     0.274 HD
ATOM     20  H61 UNL     1      27.606 -18.491  20.817  1.00  0.00     0.274 HD
ENDBRANCH  16  17
ENDBRANCH  15  16
ENDBRANCH  14  15
ENDBRANCH  13  14
ENDBRANCH  12  13
ENDBRANCH  10  12
ENDBRANCH   7  10
BRANCH   4  21
HETATM   21  N3  UNL     1      21.171 -13.459  26.384  1.00  0.00    -0.223 N 
ATOM     22  H3  UNL     1      22.086 -13.052  26.579  1.00  0.00     0.177 HD
BRANCH  21  23
HETATM   23  C6  UNL     1      19.970 -12.795  26.827  1.00  0.00     0.164 C 
BRANCH  23  24
HETATM   24  C7  UNL     1      19.143 -12.295  25.653  1.00  0.00     0.184 C 
BRANCH  24  25
HETATM   25  O2  UNL     1      17.881 -12.844  25.672  1.00  0.00    -0.399 OA
ATOM     26  H2  UNL     1      17.741 -13.398  24.914  1.00  0.00     0.209 HD
ENDBRANCH  24  25
ENDBRANCH  23  24
ENDBRANCH  21  23
ENDBRANCH   4  21
BRANCH   1  27
HETATM   27  N1  UNL     1      19.852 -17.875  26.096  1.00  0.00    -0.219 N 
ATOM     28  H1  UNL     1      20.298 -18.300  26.909  1.00  0.00     0.178 HD
BRANCH  27  29
HETATM   29  C2  UNL     1      18.672 -18.502  25.591  1.00  0.00     0.118 C 
HETATM   30  C1  UNL     1      18.790 -20.010  25.530  1.00  0.00     0.035 C 
BRANCH  29  31
HETATM   31  C3  UNL     1      17.547 -18.174  26.585  1.00  0.00     0.189 C 
BRANCH  31  32
HETATM   32  O1  UNL     1      16.404 -17.879  25.876  1.00  0.00    -0.399 OA
ATOM     33  H1  UNL     1      15.788 -18.594  25.981  1.00  0.00     0.209 HD
ENDBRANCH  31  32
ENDBRANCH  29  31
ENDBRANCH  27  29
ENDBRANCH   1  27
TORSDOF 15
ENDMDL
MODEL 2
REMARK VINA RESULT: -6.176019235      4.489      6.877
REMARK  15 active torsions:
REMARK  status: ('A' for Active; 'I' for Inactive)
REMARK    1  A    between atoms: C2_2  and  C3_3 
REMARK    2  A    between atoms: C2_2  and  N1_6 
REMARK    3  A    between atoms: C3_3  and  O1_4 
REMARK    4  A    between atoms: N1_6  and  C4_8 
REMARK    5  A    between atoms: C5_11  and  N3_12 
REMARK    6  A    between atoms: N3_12  and  C6_14 
REMARK    7  A    between atoms: C6_14  and  C7_15 
REMARK    8  A    between atoms: C7_15  and  O2_16 
REMARK    9  A    between atoms: C8_20  and  N5_21 
REMARK   10  A    between atoms: N5_21  and  C9_23 
REMARK   11  A    between atoms: C9_23  and  C10_24 
REMARK   12  A    between atoms: C10_24  and  C11_25 
REMARK   13  A    between atoms: C11_25  and  C12_26 
REMARK   14  A    between atoms: C12_26  and  C13_27 
REMARK   15  A    between atoms: C13_27  and  N6_28 
ROOT
HETATM    1  C4  UNL     1      17.738 -15.890  25.634  1.00  0.00     0.707 A 
HETATM    2  N2  UNL     1      18.403 -14.752  25.887  1.00  0.00    -0.022 N 
ATOM      3  H2  UNL     1      19.334 -14.797  26.303  1.00  0.00     0.203 HD
HETATM    4  C5  UNL     1      17.858 -13.535  25.599  1.00  0.00     0.707 A 
HETATM    5  N4  UNL     1      16.630 -13.477  25.051  1.00  0.00    -0.022 N 
ATOM      6  H4  UNL     1      16.214 -12.572  24.833  1.00  0.00     0.203 HD
HETATM    7  C8  UNL     1      15.947 -14.608  24.789  1.00  0.00     0.707 A 
HETATM    8  N7  UNL     1      16.515 -15.814  25.087  1.00  0.00    -0.022 N 
ATOM      9  H7  UNL     1      16.000 -16.671  24.889  1.00  0.00     0.203 HD
ENDROOT
BRANCH   7  10
HETATM   10  N5  UNL     1      14.771 -14.539  24.264  1.00  0.00    -0.225 N 
ATOM     11  H5  UNL     1      13.966 -14.953  24.734  1.00  0.00     0.177 HD
BRANCH  10  12
HETATM   12  C9  UNL     1      14.615 -13.865  23.000  1.00  0.00     0.138 C 
BRANCH  12  13
HETATM   13  C10 UNL     1      13.374 -13.038  22.919  1.00  0.00     0.020 C 
BRANCH  13  14
HETATM   14  C11 UNL     1      13.651 -11.651  22.384  1.00  0.00     0.003 C 
BRANCH  14  15
HETATM   15  C12 UNL     1      14.852 -11.028  23.063  1.00  0.00     0.027 C 
BRANCH  15  16
HETATM   16  C13 UNL     1      15.386  -9.848  22.302  1.00  0.00     0.229 C 
BRANCH  16  17
HETATM   17  N6  UNL     1      16.617 -10.175  21.609  1.00  0.00    -0.079 N 
ATOM     18  H63 UNL     1      17.229 -10.751  22.188  1.00  0.00     0.274 HD
ATOM     19  H62 UNL     1      16.453 -10.834  20.848  1.00  0.00     0.274 HD
ATOM     20  H61 UNL     1      17.095  -9.336  21.281  1.00  0.00     0.274 HD
ENDBRANCH  16  17
ENDBRANCH  15  16
ENDBRANCH  14  15
ENDBRANCH  13  14
ENDBRANCH  12  13
ENDBRANCH  10  12
ENDBRANCH   7  10
BRANCH   4  21
HETATM   21  N3  UNL     1      18.488 -12.438  25.840  1.00  0.00    -0.223 N 
ATOM     22  H3  UNL     1      18.042 -11.694  26.378  1.00  0.00     0.177 HD
BRANCH  21  23
HETATM   23  C6  UNL     1      19.830 -12.270  25.340  1.00  0.00     0.164 C 
BRANCH  23  24
HETATM   24  C7  UNL     1      19.985 -10.960  24.583  1.00  0.00     0.184 C 
BRANCH  24  25
HETATM   25  O2  UNL     1      18.801 -10.600  23.978  1.00  0.00    -0.399 OA
ATOM     26  H2  UNL     1      18.162 -10.322  24.623  1.00  0.00     0.209 HD
ENDBRANCH  24  25
ENDBRANCH  23  24
ENDBRANCH  21  23
ENDBRANCH   4  21
BRANCH   1  27
HETATM   27  N1  UNL     1      18.217 -17.048  25.889  1.00  0.00    -0.219 N 
ATOM     28  H1  UNL     1      17.690 -17.642  26.529  1.00  0.00     0.178 HD
BRANCH  27  29
HETATM   29  C2  UNL     1      19.430 -17.575  25.351  1.00  0.00     0.118 C 
HETATM   30  C1  UNL     1      20.581 -17.515  26.334  1.00  0.00     0.035 C 
BRANCH  29  31
HETATM   31  C3  UNL     1      19.165 -19.058  25.051  1.00  0.00     0.189 C 
BRANCH  31  32
HETATM   32  O1  UNL     1      19.670 -19.352  23.805  1.00  0.00    -0.399 OA
ATOM     33  H1  UNL     1      20.609 -19.474  23.878  1.00  0.00     0.209 HD
ENDBRANCH  31  32
ENDBRANCH  29  31
ENDBRANCH  27  29
ENDBRANCH   1  27
TORSDOF 15
ENDMDL
MODEL 3
REMARK VINA RESULT: -6.152889898      6.486     10.920
REMARK  15 active torsions:
REMARK  status: ('A' for Active; 'I' for Inactive)
REMARK    1  A    between atoms: C2_2  and  C3_3 
REMARK    2  A    between atoms: C2_2  and  N1_6 
REMARK    3  A    between atoms: C3_3  and  O1_4 
REMARK    4  A    between atoms: N1_6  and  C4_8 
REMARK    5  A    between atoms: C5_11  and  N3_12 
REMARK    6  A    between atoms: N3_12  and  C6_14 
REMARK    7  A    between atoms: C6_14  and  C7_15 
REMARK    8  A    between atoms: C7_15  and  O2_16 
REMARK    9  A    between atoms: C8_20  and  N5_21 
REMARK   10  A    between atoms: N5_21  and  C9_23 
REMARK   11  A    between atoms: C9_23  and  C10_24 
REMARK   12  A    between atoms: C10_24  and  C11_25 
REMARK   13  A    between atoms: C11_25  and  C12_26 
REMARK   14  A    between atoms: C12_26  and  C13_27 
REMARK   15  A    between atoms: C13_27  and  N6_28 
ROOT
HETATM    1  C4  UNL     1      21.168 -14.855  30.115  1.00  0.00     0.707 A 
HETATM    2  N2  UNL     1      21.601 -16.107  29.891  1.00  0.00    -0.022 N 
ATOM      3  H2  UNL     1      22.019 -16.339  28.990  1.00  0.00     0.203 HD
HETATM    4  C5  UNL     1      21.493 -17.074  30.847  1.00  0.00     0.707 A 
HETATM    5  N4  UNL     1      20.941 -16.766  32.036  1.00  0.00    -0.022 N 
ATOM      6  H4  UNL     1      20.856 -17.483  32.756  1.00  0.00     0.203 HD
HETATM    7  C8  UNL     1      20.502 -15.516  32.280  1.00  0.00     0.707 A 
HETATM    8  N7  UNL     1      20.622 -14.566  31.306  1.00  0.00    -0.022 N 
ATOM      9  H7  UNL     1      20.289 -13.619  31.488  1.00  0.00     0.203 HD
ENDROOT
BRANCH   7  10
HETATM   10  N5  UNL     1      19.975 -15.234  33.422  1.00  0.00    -0.225 N 
ATOM     11  H5  UNL     1      18.968 -15.318  33.565  1.00  0.00     0.177 HD
BRANCH  10  12
HETATM   12  C9  UNL     1      20.835 -14.798  34.493  1.00  0.00     0.138 C 
BRANCH  12  13
HETATM   13  C10 UNL     1      20.106 -14.084  35.583  1.00  0.00     0.020 C 
BRANCH  13  14
HETATM   14  C11 UNL     1      18.674 -13.778  35.201  1.00  0.00     0.003 C 
BRANCH  14  15
HETATM   15  C12 UNL     1      17.839 -13.438  36.417  1.00  0.00     0.027 C 
BRANCH  15  16
HETATM   16  C13 UNL     1      16.412 -13.134  36.059  1.00  0.00     0.229 C 
BRANCH  16  17
HETATM   17  N6  UNL     1      16.196 -13.212  34.627  1.00  0.00    -0.079 N 
ATOM     18  H63 UNL     1      16.270 -12.294  34.188  1.00  0.00     0.274 HD
ATOM     19  H62 UNL     1      16.974 -13.675  34.157  1.00  0.00     0.274 HD
ATOM     20  H61 UNL     1      15.307 -13.661  34.408  1.00  0.00     0.274 HD
ENDBRANCH  16  17
ENDBRANCH  15  16
ENDBRANCH  14  15
ENDBRANCH  13  14
ENDBRANCH  12  13
ENDBRANCH  10  12
ENDBRANCH   7  10
BRANCH   4  21
HETATM   21  N3  UNL     1      21.903 -18.277  30.641  1.00  0.00    -0.223 N 
ATOM     22  H3  UNL     1      21.241 -19.053  30.627  1.00  0.00     0.177 HD
BRANCH  21  23
HETATM   23  C6  UNL     1      23.310 -18.516  30.431  1.00  0.00     0.164 C 
BRANCH  23  24
HETATM   24  C7  UNL     1      23.592 -18.976  29.010  1.00  0.00     0.184 C 
BRANCH  24  25
HETATM   25  O2  UNL     1      22.486 -18.799  28.208  1.00  0.00    -0.399 OA
ATOM     26  H2  UNL     1      22.135 -17.922  28.304  1.00  0.00     0.209 HD
ENDBRANCH  24  25
ENDBRANCH  23  24
ENDBRANCH  21  23
ENDBRANCH   4  21
BRANCH   1  27
HETATM   27  N1  UNL     1      21.254 -13.924  29.244  1.00  0.00    -0.219 N 
ATOM     28  H1  UNL     1      21.164 -14.189  28.263  1.00  0.00     0.178 HD
BRANCH  27  29
HETATM   29  C2  UNL     1      21.465 -12.541  29.534  1.00  0.00     0.118 C 
HETATM   30  C1  UNL     1      22.629 -11.953  28.765  1.00  0.00     0.035 C 
BRANCH  29  31
HETATM   31  C3  UNL     1      20.198 -11.803  29.076  1.00  0.00     0.189 C 
BRANCH  31  32
HETATM   32  O1  UNL     1      19.217 -11.982  30.024  1.00  0.00    -0.399 OA
ATOM     33  H1  UNL     1      19.339 -11.341  30.714  1.00  0.00     0.209 HD
ENDBRANCH  31  32
ENDBRANCH  29  31
ENDBRANCH  27  29
ENDBRANCH   1  27
TORSDOF 15
ENDMDL
MODEL 4
REMARK VINA RESULT: -6.145344688      7.042     10.686
REMARK  15 active torsions:
REMARK  status: ('A' for Active; 'I' for Inactive)
REMARK    1  A    between atoms: C2_2  and  C3_3 
REMARK    2  A    between atoms: C2_2  and  N1_6 
REMARK    3  A    between atoms: C3_3  and  O1_4 
REMARK    4  A    between atoms: N1_6  and  C4_8 
REMARK    5  A    between atoms: C5_11  and  N3_12 
REMARK    6  A    between atoms: N3_12  and  C6_14 
REMARK    7  A    between atoms: C6_14  and  C7_15 
REMARK    8  A    between atoms: C7_15  and  O2_16 
REMARK    9  A    between atoms: C8_20  and  N5_21 
REMARK   10  A    between atoms: N5_21  and  C9_23 
REMARK   11  A    between atoms: C9_23  and  C10_24 
REMARK   12  A    between atoms: C10_24  and  C11_25 
REMARK   13  A    between atoms: C11_25  and  C12_26 
REMARK   14  A    between atoms: C12_26  and  C13_27 
REMARK   15  A    between atoms: C13_27  and  N6_28 
ROOT
HETATM    1  C4  UNL     1      22.080 -16.524  31.281  1.00  0.00     0.707 A 
HETATM    2  N2  UNL     1      22.247 -15.426  30.527  1.00  0.00    -0.022 N 
ATOM      3  H2  UNL     1      22.896 -15.453  29.740  1.00  0.00     0.203 HD
HETATM    4  C5  UNL     1      21.566 -14.275  30.794  1.00  0.00     0.707 A 
HETATM    5  N4  UNL     1      20.711 -14.241  31.833  1.00  0.00    -0.022 N 
ATOM      6  H4  UNL     1      20.197 -13.385  32.040  1.00  0.00     0.203 HD
HETATM    7  C8  UNL     1      20.528 -15.333  32.600  1.00  0.00     0.707 A 
HETATM    8  N7  UNL     1      21.222 -16.474  32.312  1.00  0.00    -0.022 N 
ATOM      9  H7  UNL     1      21.086 -17.302  32.892  1.00  0.00     0.203 HD
ENDROOT
BRANCH   7  10
HETATM   10  N5  UNL     1      19.706 -15.288  33.593  1.00  0.00    -0.225 N 
ATOM     11  H5  UNL     1      19.961 -15.687  34.497  1.00  0.00     0.177 HD
BRANCH  10  12
HETATM   12  C9  UNL     1      18.421 -14.665  33.401  1.00  0.00     0.138 C 
BRANCH  12  13
HETATM   13  C10 UNL     1      18.203 -13.477  34.280  1.00  0.00     0.020 C 
BRANCH  13  14
HETATM   14  C11 UNL     1      18.529 -13.776  35.726  1.00  0.00     0.003 C 
BRANCH  14  15
HETATM   15  C12 UNL     1      17.394 -13.370  36.643  1.00  0.00     0.027 C 
BRANCH  15  16
HETATM   16  C13 UNL     1      16.153 -13.001  35.880  1.00  0.00     0.229 C 
BRANCH  16  17
HETATM   17  N6  UNL     1      15.010 -13.776  36.319  1.00  0.00    -0.079 N 
ATOM     18  H63 UNL     1      15.274 -14.735  36.548  1.00  0.00     0.274 HD
ATOM     19  H62 UNL     1      14.686 -13.477  37.239  1.00  0.00     0.274 HD
ATOM     20  H61 UNL     1      14.256 -13.751  35.632  1.00  0.00     0.274 HD
ENDBRANCH  16  17
ENDBRANCH  15  16
ENDBRANCH  14  15
ENDBRANCH  13  14
ENDBRANCH  12  13
ENDBRANCH  10  12
ENDBRANCH   7  10
BRANCH   4  21
HETATM   21  N3  UNL     1      21.721 -13.215  30.078  1.00  0.00    -0.223 N 
ATOM     22  H3  UNL     1      22.476 -12.560  30.282  1.00  0.00     0.177 HD
BRANCH  21  23
HETATM   23  C6  UNL     1      20.816 -12.965  28.983  1.00  0.00     0.164 C 
BRANCH  23  24
HETATM   24  C7  UNL     1      19.978 -11.720  29.226  1.00  0.00     0.184 C 
BRANCH  24  25
HETATM   25  O2  UNL     1      19.023 -11.951  30.191  1.00  0.00    -0.399 OA
ATOM     26  H2  UNL     1      18.641 -11.135  30.491  1.00  0.00     0.209 HD
ENDBRANCH  24  25
ENDBRANCH  23  24
ENDBRANCH  21  23
ENDBRANCH   4  21
BRANCH   1  27
HETATM   27  N1  UNL     1      22.699 -17.621  31.060  1.00  0.00    -0.219 N 
ATOM     28  H1  UNL     1      22.311 -18.469  31.471  1.00  0.00     0.178 HD
BRANCH  27  29
HETATM   29  C2  UNL     1      23.891 -17.752  30.284  1.00  0.00     0.118 C 
HETATM   30  C1  UNL     1      25.146 -17.499  31.092  1.00  0.00     0.035 C 
BRANCH  29  31
HETATM   31  C3  UNL     1      23.942 -19.213  29.810  1.00  0.00     0.189 C 
BRANCH  31  32
HETATM   32  O1  UNL     1      23.079 -19.362  28.748  1.00  0.00    -0.399 OA
ATOM     33  H1  UNL     1      23.395 -20.067  28.196  1.00  0.00     0.209 HD
ENDBRANCH  31  32
ENDBRANCH  29  31
ENDBRANCH  27  29
ENDBRANCH   1  27
TORSDOF 15
ENDMDL
MODEL 5
REMARK VINA RESULT: -6.088944036      1.088      1.088
REMARK  15 active torsions:
REMARK  status: ('A' for Active; 'I' for Inactive)
REMARK    1  A    between atoms: C2_2  and  C3_3 
REMARK    2  A    between atoms: C2_2  and  N1_6 
REMARK    3  A    between atoms: C3_3  and  O1_4 
REMARK    4  A    between atoms: N1_6  and  C4_8 
REMARK    5  A    between atoms: C5_11  and  N3_12 
REMARK    6  A    between atoms: N3_12  and  C6_14 
REMARK    7  A    between atoms: C6_14  and  C7_15 
REMARK    8  A    between atoms: C7_15  and  O2_16 
REMARK    9  A    between atoms: C8_20  and  N5_21 
REMARK   10  A    between atoms: N5_21  and  C9_23 
REMARK   11  A    between atoms: C9_23  and  C10_24 
REMARK   12  A    between atoms: C10_24  and  C11_25 
REMARK   13  A    between atoms: C11_25  and  C12_26 
REMARK   14  A    between atoms: C12_26  and  C13_27 
REMARK   15  A    between atoms: C13_27  and  N6_28 
ROOT
HETATM    1  C4  UNL     1      20.286 -16.754  25.644  1.00  0.00     0.707 A 
HETATM    2  N2  UNL     1      20.284 -15.571  26.278  1.00  0.00    -0.022 N 
ATOM      3  H2  UNL     1      19.852 -15.497  27.200  1.00  0.00     0.203 HD
HETATM    4  C5  UNL     1      20.848 -14.465  25.714  1.00  0.00     0.707 A 
HETATM    5  N4  UNL     1      21.418 -14.565  24.498  1.00  0.00    -0.022 N 
ATOM      6  H4  UNL     1      21.842 -13.743  24.068  1.00  0.00     0.203 HD
HETATM    7  C8  UNL     1      21.431 -15.743  23.846  1.00  0.00     0.707 A 
HETATM    8  N7  UNL     1      20.859 -16.835  24.433  1.00  0.00    -0.022 N 
ATOM      9  H7  UNL     1      20.867 -17.729  23.942  1.00  0.00     0.203 HD
ENDROOT
BRANCH   7  10
HETATM   10  N5  UNL     1      21.979 -15.825  22.681  1.00  0.00    -0.225 N 
ATOM     11  H5  UNL     1      22.745 -15.203  22.423  1.00  0.00     0.177 HD
BRANCH  10  12
HETATM   12  C9  UNL     1      21.489 -16.812  21.753  1.00  0.00     0.138 C 
BRANCH  12  13
HETATM   13  C10 UNL     1      22.540 -17.770  21.299  1.00  0.00     0.020 C 
BRANCH  13  14
HETATM   14  C11 UNL     1      23.715 -17.062  20.663  1.00  0.00     0.003 C 
BRANCH  14  15
HETATM   15  C12 UNL     1      24.554 -18.015  19.838  1.00  0.00     0.027 C 
BRANCH  15  16
HETATM   16  C13 UNL     1      26.002 -17.617  19.809  1.00  0.00     0.229 C 
BRANCH  16  17
HETATM   17  N6  UNL     1      26.866 -18.728  20.158  1.00  0.00    -0.079 N 
ATOM     18  H63 UNL     1      26.811 -18.945  21.153  1.00  0.00     0.274 HD
ATOM     19  H62 UNL     1      26.511 -19.609  19.784  1.00  0.00     0.274 HD
ATOM     20  H61 UNL     1      27.828 -18.560  19.865  1.00  0.00     0.274 HD
ENDBRANCH  16  17
ENDBRANCH  15  16
ENDBRANCH  14  15
ENDBRANCH  13  14
ENDBRANCH  12  13
ENDBRANCH  10  12
ENDBRANCH   7  10
BRANCH   4  21
HETATM   21  N3  UNL     1      20.850 -13.325  26.313  1.00  0.00    -0.223 N 
ATOM     22  H3  UNL     1      21.031 -12.468  25.791  1.00  0.00     0.177 HD
BRANCH  21  23
HETATM   23  C6  UNL     1      20.593 -13.274  27.731  1.00  0.00     0.164 C 
BRANCH  23  24
HETATM   24  C7  UNL     1      20.094 -11.903  28.159  1.00  0.00     0.184 C 
BRANCH  24  25
HETATM   25  O2  UNL     1      19.442 -11.973  29.370  1.00  0.00    -0.399 OA
ATOM     26  H2  UNL     1      19.940 -11.534  30.049  1.00  0.00     0.209 HD
ENDBRANCH  24  25
ENDBRANCH  23  24
ENDBRANCH  21  23
ENDBRANCH   4  21
BRANCH   1  27
HETATM   27  N1  UNL     1      19.768 -17.812  26.143  1.00  0.00    -0.219 N 
ATOM     28  H1  UNL     1      20.196 -18.190  26.988  1.00  0.00     0.178 HD
BRANCH  27  29
HETATM   29  C2  UNL     1      18.638 -18.505  25.612  1.00  0.00     0.118 C 
HETATM   30  C1  UNL     1      18.863 -19.999  25.510  1.00  0.00     0.035 C 
BRANCH  29  31
HETATM   31  C3  UNL     1      17.487 -18.285  26.604  1.00  0.00     0.189 C 
BRANCH  31  32
HETATM   32  O1  UNL     1      16.424 -17.726  25.931  1.00  0.00    -0.399 OA
ATOM     33  H1  UNL     1      15.670 -18.295  26.026  1.00  0.00     0.209 HD
ENDBRANCH  31  32
ENDBRANCH  29  31
ENDBRANCH  27  29
ENDBRANCH   1  27
TORSDOF 15
ENDMDL
