MODEL 1
REMARK VINA RESULT: -6.818881485      0.000      0.000
REMARK  12 active torsions:
REMARK  status: ('A' for Active; 'I' for Inactive)
REMARK    1  A    between atoms: N1_1  and  C1_4 
REMARK    2  A    between atoms: C4_9  and  N3_10 
REMARK    3  A    between atoms: N3_10  and  C5_12 
REMARK    4  A    between atoms: C5_12  and  C6_13 
REMARK    5  A    between atoms: C6_13  and  N4_14 
REMARK    6  A    between atoms: N4_14  and  C7_17 
REMARK    7  A    between atoms: C7_17  and  C8_18 
REMARK    8  A    between atoms: C8_18  and  O1_19 
REMARK    9  A    between atoms: O1_19  and  C9_20 
REMARK   10  A    between atoms: C9_20  and  C10_21 
REMARK   11  A    between atoms: C10_21  and  N5_22 
REMARK   12  A    between atoms: N5_22  and  C11_24 
ROOT
HETATM    1  N4  UNL     1      21.151 -16.345  23.569  1.00  0.00    -0.072 N 
ATOM      2  H41 UNL     1      20.996 -17.347  23.459  1.00  0.00     0.277 HD
ATOM      3  H42 UNL     1      20.214 -16.021  23.332  1.00  0.00     0.277 HD
ENDROOT
BRANCH   1   4
HETATM    4  C6  UNL     1      22.139 -15.850  22.647  1.00  0.00     0.251 C 
BRANCH   4   5
HETATM    5  C5  UNL     1      21.817 -16.338  21.260  1.00  0.00     0.148 C 
BRANCH   5   6
HETATM    6  N3  UNL     1      22.662 -15.710  20.301  1.00  0.00    -0.374 N 
ATOM      7  H3  UNL     1      22.229 -15.006  19.702  1.00  0.00     0.161 HD
BRANCH   6   8
HETATM    8  C4  UNL     1      23.877 -15.930  20.116  1.00  0.00     0.118 A 
HETATM    9  C3  UNL     1      24.884 -15.008  20.043  1.00  0.00     0.066 A 
HETATM   10  C2  UNL     1      26.209 -15.382  19.850  1.00  0.00     0.110 A 
HETATM   11  N2  UNL     1      26.511 -16.670  19.732  1.00  0.00    -0.202 N 
HETATM   12  C1  UNL     1      25.537 -17.604  19.800  1.00  0.00     0.677 A 
ATOM     13  H2  UNL     1      27.481 -16.955  19.590  1.00  0.00     0.183 HD
HETATM   14  N9  UNL     1      24.261 -17.234  19.987  1.00  0.00    -0.177 N 
ATOM     15  H9  UNL     1      23.546 -17.960  20.035  1.00  0.00     0.185 HD
BRANCH  12  16
HETATM   16  N1  UNL     1      25.839 -18.849  19.688  1.00  0.00    -0.234 N 
ATOM     17  H12 UNL     1      25.833 -19.453  20.509  1.00  0.00     0.174 HD
ATOM     18  H11 UNL     1      26.088 -19.228  18.774  1.00  0.00     0.174 HD
ENDBRANCH  12  16
ENDBRANCH   6   8
ENDBRANCH   5   6
ENDBRANCH   4   5
ENDBRANCH   1   4
BRANCH   1  19
HETATM   19  C7  UNL     1      21.516 -15.998  24.930  1.00  0.00     0.258 C 
BRANCH  19  20
HETATM   20  C8  UNL     1      20.717 -16.890  25.879  1.00  0.00     0.195 C 
BRANCH  20  21
HETATM   21  O1  UNL     1      19.865 -17.733  25.217  1.00  0.00    -0.388 OA
BRANCH  21  22
HETATM   22  C9  UNL     1      18.643 -17.938  25.796  1.00  0.00     0.187 C 
BRANCH  22  23
HETATM   23  C10 UNL     1      17.967 -16.632  26.067  1.00  0.00     0.164 C 
BRANCH  23  24
HETATM   24  N5  UNL     1      16.534 -16.842  25.971  1.00  0.00    -0.223 N 
ATOM     25  H5  UNL     1      16.099 -17.538  26.576  1.00  0.00     0.177 HD
BRANCH  24  26
HETATM   26  C11 UNL     1      15.799 -16.191  25.162  1.00  0.00     0.693 A 
HETATM   27  N6  UNL     1      16.058 -15.081  24.457  1.00  0.00    -0.185 N 
HETATM   28  C12 UNL     1      15.001 -14.715  23.708  1.00  0.00     0.215 A 
ATOM     29  H6  UNL     1      16.944 -14.578  24.485  1.00  0.00     0.185 HD
HETATM   30  N7  UNL     1      14.048 -15.650  23.969  1.00  0.00    -0.281 N 
HETATM   31  N8  UNL     1      14.522 -16.526  24.831  1.00  0.00    -0.131 N 
ATOM     32  H7  UNL     1      13.114 -15.670  23.561  1.00  0.00     0.188 HD
ATOM     33  H8  UNL     1      14.011 -17.330  25.195  1.00  0.00     0.205 HD
ENDBRANCH  24  26
ENDBRANCH  23  24
ENDBRANCH  22  23
ENDBRANCH  21  22
ENDBRANCH  20  21
ENDBRANCH  19  20
ENDBRANCH   1  19
TORSDOF 12
ENDMDL
MODEL 2
REMARK VINA RESULT: -6.784005424      2.439      3.384
REMARK  12 active torsions:
REMARK  status: ('A' for Active; 'I' for Inactive)
REMARK    1  A    between atoms: N1_1  and  C1_4 
REMARK    2  A    between atoms: C4_9  and  N3_10 
REMARK    3  A    between atoms: N3_10  and  C5_12 
REMARK    4  A    between atoms: C5_12  and  C6_13 
REMARK    5  A    between atoms: C6_13  and  N4_14 
REMARK    6  A    between atoms: N4_14  and  C7_17 
REMARK    7  A    between atoms: C7_17  and  C8_18 
REMARK    8  A    between atoms: C8_18  and  O1_19 
REMARK    9  A    between atoms: O1_19  and  C9_20 
REMARK   10  A    between atoms: C9_20  and  C10_21 
REMARK   11  A    between atoms: C10_21  and  N5_22 
REMARK   12  A    between atoms: N5_22  and  C11_24 
ROOT
HETATM    1  N4  UNL     1      21.205 -16.646  22.651  1.00  0.00    -0.072 N 
ATOM      2  H41 UNL     1      21.145 -17.542  23.135  1.00  0.00     0.277 HD
ATOM      3  H42 UNL     1      20.210 -16.432  22.607  1.00  0.00     0.277 HD
ENDROOT
BRANCH   1   4
HETATM    4  C6  UNL     1      21.784 -16.782  21.341  1.00  0.00     0.251 C 
BRANCH   4   5
HETATM    5  C5  UNL     1      22.582 -15.547  21.017  1.00  0.00     0.148 C 
BRANCH   5   6
HETATM    6  N3  UNL     1      23.408 -15.771  19.878  1.00  0.00    -0.374 N 
ATOM      7  H3  UNL     1      22.936 -15.822  18.975  1.00  0.00     0.161 HD
BRANCH   6   8
HETATM    8  C4  UNL     1      24.648 -15.913  19.869  1.00  0.00     0.118 A 
HETATM    9  C3  UNL     1      25.594 -14.924  19.860  1.00  0.00     0.066 A 
HETATM   10  C2  UNL     1      26.954 -15.211  19.870  1.00  0.00     0.110 A 
HETATM   11  N2  UNL     1      27.353 -16.478  19.887  1.00  0.00    -0.202 N 
HETATM   12  C1  UNL     1      26.441 -17.475  19.896  1.00  0.00     0.677 A 
ATOM     13  H2  UNL     1      28.349 -16.698  19.894  1.00  0.00     0.183 HD
HETATM   14  N9  UNL     1      25.130 -17.189  19.888  1.00  0.00    -0.177 N 
ATOM     15  H9  UNL     1      24.464 -17.962  19.895  1.00  0.00     0.185 HD
BRANCH  12  16
HETATM   16  N1  UNL     1      26.836 -18.698  19.916  1.00  0.00    -0.234 N 
ATOM     17  H12 UNL     1      26.506 -19.354  19.209  1.00  0.00     0.174 HD
ATOM     18  H11 UNL     1      27.477 -19.011  20.646  1.00  0.00     0.174 HD
ENDBRANCH  12  16
ENDBRANCH   6   8
ENDBRANCH   5   6
ENDBRANCH   4   5
ENDBRANCH   1   4
BRANCH   1  19
HETATM   19  C7  UNL     1      21.938 -15.660  23.424  1.00  0.00     0.258 C 
BRANCH  19  20
HETATM   20  C8  UNL     1      21.550 -15.824  24.893  1.00  0.00     0.195 C 
BRANCH  20  21
HETATM   21  O1  UNL     1      20.785 -16.937  25.115  1.00  0.00    -0.388 OA
BRANCH  21  22
HETATM   22  C9  UNL     1      19.946 -16.890  26.195  1.00  0.00     0.187 C 
BRANCH  22  23
HETATM   23  C10 UNL     1      18.576 -17.353  25.816  1.00  0.00     0.164 C 
BRANCH  23  24
HETATM   24  N5  UNL     1      18.459 -18.752  26.182  1.00  0.00    -0.223 N 
ATOM     25  H5  UNL     1      18.002 -18.992  27.062  1.00  0.00     0.177 HD
BRANCH  24  26
HETATM   26  C11 UNL     1      18.903 -19.692  25.449  1.00  0.00     0.693 A 
HETATM   27  N6  UNL     1      19.361 -19.666  24.189  1.00  0.00    -0.185 N 
HETATM   28  C12 UNL     1      19.745 -20.889  23.779  1.00  0.00     0.215 A 
ATOM     29  H6  UNL     1      19.411 -18.825  23.615  1.00  0.00     0.185 HD
HETATM   30  N7  UNL     1      19.510 -21.703  24.843  1.00  0.00    -0.281 N 
HETATM   31  N8  UNL     1      19.011 -20.993  25.833  1.00  0.00    -0.131 N 
ATOM     32  H7  UNL     1      19.692 -22.706  24.869  1.00  0.00     0.188 HD
ATOM     33  H8  UNL     1      18.746 -21.361  26.747  1.00  0.00     0.205 HD
ENDBRANCH  24  26
ENDBRANCH  23  24
ENDBRANCH  22  23
ENDBRANCH  21  22
ENDBRANCH  20  21
ENDBRANCH  19  20
ENDBRANCH   1  19
TORSDOF 12
ENDMDL
MODEL 3
REMARK VINA RESULT: -6.664609072      5.533      7.512
REMARK  12 active torsions:
REMARK  status: ('A' for Active; 'I' for Inactive)
REMARK    1  A    between atoms: N1_1  and  C1_4 
REMARK    2  A    between atoms: C4_9  and  N3_10 
REMARK    3  A    between atoms: N3_10  and  C5_12 
REMARK    4  A    between atoms: C5_12  and  C6_13 
REMARK    5  A    between atoms: C6_13  and  N4_14 
REMARK    6  A    between atoms: N4_14  and  C7_17 
REMARK    7  A    between atoms: C7_17  and  C8_18 
REMARK    8  A    between atoms: C8_18  and  O1_19 
REMARK    9  A    between atoms: O1_19  and  C9_20 
REMARK   10  A    between atoms: C9_20  and  C10_21 
REMARK   11  A    between atoms: C10_21  and  N5_22 
REMARK   12  A    between atoms: N5_22  and  C11_24 
ROOT
HETATM    1  N4  UNL     1      19.167 -11.592  25.083  1.00  0.00    -0.072 N 
ATOM      2  H41 UNL     1      18.576 -11.252  25.842  1.00  0.00     0.277 HD
ATOM      3  H42 UNL     1      18.440 -12.006  24.500  1.00  0.00     0.277 HD
ENDROOT
BRANCH   1   4
HETATM    4  C6  UNL     1      20.114 -12.574  25.538  1.00  0.00     0.251 C 
BRANCH   4   5
HETATM    5  C5  UNL     1      19.379 -13.710  26.198  1.00  0.00     0.148 C 
BRANCH   5   6
HETATM    6  N3  UNL     1      19.927 -14.961  25.794  1.00  0.00    -0.374 N 
ATOM      7  H3  UNL     1      20.898 -14.955  25.483  1.00  0.00     0.161 HD
BRANCH   6   8
HETATM    8  C4  UNL     1      19.343 -16.064  25.781  1.00  0.00     0.118 A 
HETATM    9  C3  UNL     1      19.918 -17.305  25.750  1.00  0.00     0.066 A 
HETATM   10  C2  UNL     1      19.156 -18.467  25.757  1.00  0.00     0.110 A 
HETATM   11  N2  UNL     1      17.831 -18.377  25.795  1.00  0.00    -0.202 N 
HETATM   12  C1  UNL     1      17.235 -17.165  25.826  1.00  0.00     0.677 A 
ATOM     13  H2  UNL     1      17.262 -19.224  25.800  1.00  0.00     0.183 HD
HETATM   14  N9  UNL     1      17.979 -16.048  25.819  1.00  0.00    -0.177 N 
ATOM     15  H9  UNL     1      17.503 -15.146  25.844  1.00  0.00     0.185 HD
BRANCH  12  16
HETATM   16  N1  UNL     1      15.952 -17.086  25.865  1.00  0.00    -0.234 N 
ATOM     17  H12 UNL     1      15.410 -17.801  26.349  1.00  0.00     0.174 HD
ATOM     18  H11 UNL     1      15.479 -16.307  25.407  1.00  0.00     0.174 HD
ENDBRANCH  12  16
ENDBRANCH   6   8
ENDBRANCH   5   6
ENDBRANCH   4   5
ENDBRANCH   1   4
BRANCH   1  19
HETATM   19  C7  UNL     1      19.853 -10.508  24.403  1.00  0.00     0.258 C 
BRANCH  19  20
HETATM   20  C8  UNL     1      18.813  -9.466  23.998  1.00  0.00     0.195 C 
BRANCH  20  21
HETATM   21  O1  UNL     1      17.843  -9.980  23.180  1.00  0.00    -0.388 OA
BRANCH  21  22
HETATM   22  C9  UNL     1      16.558  -9.592  23.444  1.00  0.00     0.187 C 
BRANCH  22  23
HETATM   23  C10 UNL     1      15.743  -9.588  22.191  1.00  0.00     0.164 C 
BRANCH  23  24
HETATM   24  N5  UNL     1      15.663 -10.954  21.705  1.00  0.00    -0.223 N 
ATOM     25  H5  UNL     1      16.448 -11.332  21.174  1.00  0.00     0.177 HD
BRANCH  24  26
HETATM   26  C11 UNL     1      14.654 -11.698  21.917  1.00  0.00     0.693 A 
HETATM   27  N6  UNL     1      14.341 -12.453  22.979  1.00  0.00    -0.185 N 
HETATM   28  C12 UNL     1      13.168 -13.089  22.804  1.00  0.00     0.215 A 
ATOM     29  H6  UNL     1      14.920 -12.535  23.815  1.00  0.00     0.185 HD
HETATM   30  N7  UNL     1      12.743 -12.702  21.572  1.00  0.00    -0.281 N 
HETATM   31  N8  UNL     1      13.624 -11.877  21.046  1.00  0.00    -0.131 N 
ATOM     32  H7  UNL     1      11.877 -13.004  21.125  1.00  0.00     0.188 HD
ATOM     33  H8  UNL     1      13.547 -11.439  20.128  1.00  0.00     0.205 HD
ENDBRANCH  24  26
ENDBRANCH  23  24
ENDBRANCH  22  23
ENDBRANCH  21  22
ENDBRANCH  20  21
ENDBRANCH  19  20
ENDBRANCH   1  19
TORSDOF 12
ENDMDL
MODEL 4
REMARK VINA RESULT: -6.507766711      8.712     13.957
REMARK  12 active torsions:
REMARK  status: ('A' for Active; 'I' for Inactive)
REMARK    1  A    between atoms: N1_1  and  C1_4 
REMARK    2  A    between atoms: C4_9  and  N3_10 
REMARK    3  A    between atoms: N3_10  and  C5_12 
REMARK    4  A    between atoms: C5_12  and  C6_13 
REMARK    5  A    between atoms: C6_13  and  N4_14 
REMARK    6  A    between atoms: N4_14  and  C7_17 
REMARK    7  A    between atoms: C7_17  and  C8_18 
REMARK    8  A    between atoms: C8_18  and  O1_19 
REMARK    9  A    between atoms: O1_19  and  C9_20 
REMARK   10  A    between atoms: C9_20  and  C10_21 
REMARK   11  A    between atoms: C10_21  and  N5_22 
REMARK   12  A    between atoms: N5_22  and  C11_24 
ROOT
HETATM    1  N4  UNL     1      19.055 -13.820  36.269  1.00  0.00    -0.072 N 
ATOM      2  H41 UNL     1      19.356 -14.703  36.682  1.00  0.00     0.277 HD
ATOM      3  H42 UNL     1      19.790 -13.221  36.643  1.00  0.00     0.277 HD
ENDROOT
BRANCH   1   4
HETATM    4  C6  UNL     1      17.752 -13.427  36.734  1.00  0.00     0.251 C 
BRANCH   4   5
HETATM    5  C5  UNL     1      16.884 -13.079  35.554  1.00  0.00     0.148 C 
BRANCH   5   6
HETATM    6  N3  UNL     1      15.508 -13.255  35.877  1.00  0.00    -0.374 N 
ATOM      7  H3  UNL     1      15.261 -13.205  36.865  1.00  0.00     0.161 HD
BRANCH   6   8
HETATM    8  C4  UNL     1      14.573 -13.465  35.077  1.00  0.00     0.118 A 
HETATM    9  C3  UNL     1      13.231 -13.410  35.338  1.00  0.00     0.066 A 
HETATM   10  C2  UNL     1      12.281 -13.648  34.352  1.00  0.00     0.110 A 
HETATM   11  N2  UNL     1      12.681 -13.938  33.119  1.00  0.00    -0.202 N 
HETATM   12  C1  UNL     1      14.000 -14.001  32.831  1.00  0.00     0.677 A 
ATOM     13  H2  UNL     1      11.992 -14.115  32.388  1.00  0.00     0.183 HD
HETATM   14  N9  UNL     1      14.911 -13.768  33.790  1.00  0.00    -0.177 N 
ATOM     15  H9  UNL     1      15.899 -13.821  33.544  1.00  0.00     0.185 HD
BRANCH  12  16
HETATM   16  N1  UNL     1      14.379 -14.279  31.635  1.00  0.00    -0.234 N 
ATOM     17  H12 UNL     1      13.912 -15.017  31.108  1.00  0.00     0.174 HD
ATOM     18  H11 UNL     1      15.152 -13.762  31.216  1.00  0.00     0.174 HD
ENDBRANCH  12  16
ENDBRANCH   6   8
ENDBRANCH   5   6
ENDBRANCH   4   5
ENDBRANCH   1   4
BRANCH   1  19
HETATM   19  C7  UNL     1      19.079 -13.865  34.818  1.00  0.00     0.258 C 
BRANCH  19  20
HETATM   20  C8  UNL     1      19.673 -15.206  34.393  1.00  0.00     0.195 C 
BRANCH  20  21
HETATM   21  O1  UNL     1      19.574 -15.422  33.044  1.00  0.00    -0.388 OA
BRANCH  21  22
HETATM   22  C9  UNL     1      20.748 -15.415  32.342  1.00  0.00     0.187 C 
BRANCH  22  23
HETATM   23  C10 UNL     1      21.831 -16.088  33.123  1.00  0.00     0.164 C 
BRANCH  23  24
HETATM   24  N5  UNL     1      21.899 -17.472  32.691  1.00  0.00    -0.223 N 
ATOM     25  H5  UNL     1      21.503 -18.193  33.293  1.00  0.00     0.177 HD
BRANCH  24  26
HETATM   26  C11 UNL     1      22.435 -17.820  31.591  1.00  0.00     0.693 A 
HETATM   27  N6  UNL     1      23.523 -17.348  30.969  1.00  0.00    -0.185 N 
HETATM   28  C12 UNL     1      23.755 -18.002  29.816  1.00  0.00     0.215 A 
ATOM     29  H6  UNL     1      24.103 -16.588  31.325  1.00  0.00     0.185 HD
HETATM   30  N7  UNL     1      22.756 -18.921  29.730  1.00  0.00    -0.281 N 
HETATM   31  N8  UNL     1      21.974 -18.814  30.783  1.00  0.00    -0.131 N 
ATOM     32  H7  UNL     1      22.634 -19.589  28.969  1.00  0.00     0.188 HD
ATOM     33  H8  UNL     1      21.149 -19.386  30.965  1.00  0.00     0.205 HD
ENDBRANCH  24  26
ENDBRANCH  23  24
ENDBRANCH  22  23
ENDBRANCH  21  22
ENDBRANCH  20  21
ENDBRANCH  19  20
ENDBRANCH   1  19
TORSDOF 12
ENDMDL
MODEL 5
REMARK VINA RESULT: -6.476509201      6.724      8.902
REMARK  12 active torsions:
REMARK  status: ('A' for Active; 'I' for Inactive)
REMARK    1  A    between atoms: N1_1  and  C1_4 
REMARK    2  A    between atoms: C4_9  and  N3_10 
REMARK    3  A    between atoms: N3_10  and  C5_12 
REMARK    4  A    between atoms: C5_12  and  C6_13 
REMARK    5  A    between atoms: C6_13  and  N4_14 
REMARK    6  A    between atoms: N4_14  and  C7_17 
REMARK    7  A    between atoms: C7_17  and  C8_18 
REMARK    8  A    between atoms: C8_18  and  O1_19 
REMARK    9  A    between atoms: O1_19  and  C9_20 
REMARK   10  A    between atoms: C9_20  and  C10_21 
REMARK   11  A    between atoms: C10_21  and  N5_22 
REMARK   12  A    between atoms: N5_22  and  C11_24 
ROOT
HETATM    1  N4  UNL     1      20.800 -16.799  31.807  1.00  0.00    -0.072 N 
ATOM      2  H41 UNL     1      21.084 -17.122  32.732  1.00  0.00     0.277 HD
ATOM      3  H42 UNL     1      19.794 -16.936  31.903  1.00  0.00     0.277 HD
ENDROOT
BRANCH   1   4
HETATM    4  C6  UNL     1      21.356 -17.612  30.760  1.00  0.00     0.251 C 
BRANCH   4   5
HETATM    5  C5  UNL     1      21.496 -16.789  29.508  1.00  0.00     0.148 C 
BRANCH   5   6
HETATM    6  N3  UNL     1      21.488 -17.626  28.355  1.00  0.00    -0.374 N 
ATOM      7  H3  UNL     1      21.990 -18.511  28.431  1.00  0.00     0.161 HD
BRANCH   6   8
HETATM    8  C4  UNL     1      20.931 -17.391  27.263  1.00  0.00     0.118 A 
HETATM    9  C3  UNL     1      21.407 -16.614  26.242  1.00  0.00     0.066 A 
HETATM   10  C2  UNL     1      20.696 -16.442  25.059  1.00  0.00     0.110 A 
HETATM   11  N2  UNL     1      19.522 -17.046  24.911  1.00  0.00    -0.202 N 
HETATM   12  C1  UNL     1      19.028 -17.819  25.903  1.00  0.00     0.677 A 
ATOM     13  H2  UNL     1      18.993 -16.926  24.047  1.00  0.00     0.183 HD
HETATM   14  N9  UNL     1      19.721 -17.980  27.041  1.00  0.00    -0.177 N 
ATOM     15  H9  UNL     1      19.324 -18.570  27.773  1.00  0.00     0.185 HD
BRANCH  12  16
HETATM   16  N1  UNL     1      17.892 -18.402  25.750  1.00  0.00    -0.234 N 
ATOM     17  H12 UNL     1      17.848 -19.340  25.353  1.00  0.00     0.174 HD
ATOM     18  H11 UNL     1      17.036 -17.921  26.025  1.00  0.00     0.174 HD
ENDBRANCH  12  16
ENDBRANCH   6   8
ENDBRANCH   5   6
ENDBRANCH   4   5
ENDBRANCH   1   4
BRANCH   1  19
HETATM   19  C7  UNL     1      21.138 -15.404  31.593  1.00  0.00     0.258 C 
BRANCH  19  20
HETATM   20  C8  UNL     1      20.059 -14.546  32.252  1.00  0.00     0.195 C 
BRANCH  20  21
HETATM   21  O1  UNL     1      19.323 -15.241  33.173  1.00  0.00    -0.388 OA
BRANCH  21  22
HETATM   22  C9  UNL     1      18.646 -14.493  34.097  1.00  0.00     0.187 C 
BRANCH  22  23
HETATM   23  C10 UNL     1      17.509 -13.768  33.453  1.00  0.00     0.164 C 
BRANCH  23  24
HETATM   24  N5  UNL     1      16.725 -13.142  34.502  1.00  0.00    -0.223 N 
ATOM     25  H5  UNL     1      17.169 -12.436  35.090  1.00  0.00     0.177 HD
BRANCH  24  26
HETATM   26  C11 UNL     1      15.507 -13.439  34.718  1.00  0.00     0.693 A 
HETATM   27  N6  UNL     1      14.795 -13.404  35.852  1.00  0.00    -0.185 N 
HETATM   28  C12 UNL     1      13.524 -13.797  35.648  1.00  0.00     0.215 A 
ATOM     29  H6  UNL     1      15.169 -13.115  36.756  1.00  0.00     0.185 HD
HETATM   30  N7  UNL     1      13.458 -14.087  34.321  1.00  0.00    -0.281 N 
HETATM   31  N8  UNL     1      14.634 -13.874  33.769  1.00  0.00    -0.131 N 
ATOM     32  H7  UNL     1      12.627 -14.417  33.830  1.00  0.00     0.188 HD
ATOM     33  H8  UNL     1      14.857 -14.014  32.784  1.00  0.00     0.205 HD
ENDBRANCH  24  26
ENDBRANCH  23  24
ENDBRANCH  22  23
ENDBRANCH  21  22
ENDBRANCH  20  21
ENDBRANCH  19  20
ENDBRANCH   1  19
TORSDOF 12
ENDMDL
