MODEL 1
REMARK VINA RESULT: -6.728442867      0.000      0.000
REMARK  5 active torsions:
REMARK  status: ('A' for Active; 'I' for Inactive)
REMARK    1  A    between atoms: C2_2  and  N1_3 
REMARK    2  A    between atoms: C3_8  and  C4_9 
REMARK    3  A    between atoms: N4_10  and  N5_12 
REMARK    4  A    between atoms: C6_17  and  N7_18 
REMARK    5  A    between atoms: N9_24  and  C8_26 
ROOT
HETATM    1  N5  UNL     1      16.116   7.021   8.922  1.00  0.00    -0.058 N 
HETATM    2  C5  UNL     1      16.222   5.675   9.086  1.00  0.00     0.229 A 
HETATM    3  S1  UNL     1      16.297   4.647   7.821  1.00  0.00    -0.038 SA
HETATM    4  N6  UNL     1      16.252   5.206  10.342  1.00  0.00    -0.164 N 
ATOM      5  H6  UNL     1      16.331   4.203  10.511  1.00  0.00     0.186 HD
HETATM    6  C6  UNL     1      16.179   6.061  11.379  1.00  0.00     0.692 A 
HETATM    7  N8  UNL     1      16.075   7.367  11.185  1.00  0.00    -0.020 N 
ATOM      8  H8  UNL     1      16.021   7.990  11.991  1.00  0.00     0.203 HD
HETATM    9  C7  UNL     1      16.039   7.902   9.907  1.00  0.00     0.723 A 
HETATM   10  N9  UNL     1      15.922   9.148   9.790  1.00  0.00    -0.156 N 
ATOM     11  H9  UNL     1      15.880   9.664  10.670  1.00  0.00     0.187 HD
ENDROOT
BRANCH   1  12
HETATM   12  N4  UNL     1      16.104   7.443   7.595  1.00  0.00    -0.286 N 
HETATM   13  C4  UNL     1      17.226   7.475   6.916  1.00  0.00     0.141 C 
ATOM     14  H4  UNL     1      15.229   7.725   7.153  1.00  0.00     0.187 HD
BRANCH  13  15
HETATM   15  C3  UNL     1      17.213   7.915   5.526  1.00  0.00     0.090 A 
HETATM   16  N3  UNL     1      16.482   8.916   5.015  1.00  0.00    -0.283 N 
HETATM   17  N2  UNL     1      16.717   9.041   3.719  1.00  0.00    -0.240 N 
ATOM     18  H3  UNL     1      15.837   9.499   5.549  1.00  0.00     0.188 HD
HETATM   19  N1  UNL     1      17.600   8.126   3.369  1.00  0.00    -0.281 N 
ATOM     20  H2  UNL     1      16.288   9.727   3.097  1.00  0.00     0.208 HD
HETATM   21  C9  UNL     1      17.929   7.413   4.462  1.00  0.00     0.055 A 
HETATM   22  C10 UNL     1      18.880   6.286   4.554  1.00  0.00     0.072 C 
BRANCH  19  23
HETATM   23  C2  UNL     1      18.118   7.933   2.046  1.00  0.00     0.146 C 
HETATM   24  C1  UNL     1      17.085   7.553   1.035  1.00  0.00     0.028 C 
ENDBRANCH  19  23
ENDBRANCH  13  15
ENDBRANCH   1  12
BRANCH  10  25
HETATM   25  C8  UNL     1      15.841   9.921   8.657  1.00  0.00     0.224 C 
HETATM   26  N10 UNL     1      16.792  10.702   8.190  1.00  0.00    -0.255 N 
HETATM   27  N11 UNL     1      16.362  11.335   7.024  1.00  0.00    -0.006 NA
ATOM     28  H10 UNL     1      17.710  10.825   8.619  1.00  0.00     0.187 HD
HETATM   29  N12 UNL     1      14.967  11.241   6.947  1.00  0.00    -0.006 NA
HETATM   30  N13 UNL     1      14.743  10.106   7.729  1.00  0.00    -0.255 N 
ATOM     31  H13 UNL     1      13.928   9.497   7.657  1.00  0.00     0.187 HD
ENDBRANCH  10  25
BRANCH   6  32
HETATM   32  N7  UNL     1      16.212   5.565  12.587  1.00  0.00    -0.234 N 
ATOM     33  H72 UNL     1      16.770   4.738  12.796  1.00  0.00     0.174 HD
ATOM     34  H71 UNL     1      15.665   6.029  13.311  1.00  0.00     0.174 HD
ENDBRANCH   6  32
TORSDOF 5
ENDMDL
MODEL 2
REMARK VINA RESULT: -6.525835777      2.305      2.748
REMARK  5 active torsions:
REMARK  status: ('A' for Active; 'I' for Inactive)
REMARK    1  A    between atoms: C2_2  and  N1_3 
REMARK    2  A    between atoms: C3_8  and  C4_9 
REMARK    3  A    between atoms: N4_10  and  N5_12 
REMARK    4  A    between atoms: C6_17  and  N7_18 
REMARK    5  A    between atoms: N9_24  and  C8_26 
ROOT
HETATM    1  N5  UNL     1      18.255   6.436   7.805  1.00  0.00    -0.058 N 
HETATM    2  C5  UNL     1      19.318   5.706   7.376  1.00  0.00     0.229 A 
HETATM    3  S1  UNL     1      19.613   5.444   5.792  1.00  0.00    -0.038 SA
HETATM    4  N6  UNL     1      20.129   5.186   8.310  1.00  0.00    -0.164 N 
ATOM      5  H6  UNL     1      20.939   4.631   8.033  1.00  0.00     0.186 HD
HETATM    6  C6  UNL     1      19.871   5.398   9.614  1.00  0.00     0.692 A 
HETATM    7  N8  UNL     1      18.826   6.115   9.999  1.00  0.00    -0.020 N 
ATOM      8  H8  UNL     1      18.656   6.258  10.995  1.00  0.00     0.203 HD
HETATM    9  C7  UNL     1      17.958   6.673   9.073  1.00  0.00     0.723 A 
HETATM   10  N9  UNL     1      16.974   7.327   9.503  1.00  0.00    -0.156 N 
ATOM     11  H9  UNL     1      16.914   7.402  10.519  1.00  0.00     0.187 HD
ENDROOT
BRANCH   1  12
HETATM   12  N4  UNL     1      17.463   6.959   6.785  1.00  0.00    -0.286 N 
HETATM   13  C4  UNL     1      17.879   8.007   6.115  1.00  0.00     0.141 C 
ATOM     14  H4  UNL     1      16.566   6.530   6.561  1.00  0.00     0.187 HD
BRANCH  13  15
HETATM   15  C3  UNL     1      17.051   8.552   5.047  1.00  0.00     0.090 A 
HETATM   16  N3  UNL     1      15.944   9.295   5.197  1.00  0.00    -0.283 N 
HETATM   17  N2  UNL     1      15.445   9.619   4.015  1.00  0.00    -0.240 N 
ATOM     18  H3  UNL     1      15.545   9.572   6.094  1.00  0.00     0.188 HD
HETATM   19  N1  UNL     1      16.215   9.092   3.083  1.00  0.00    -0.281 N 
ATOM     20  H2  UNL     1      14.608  10.179   3.853  1.00  0.00     0.208 HD
HETATM   21  C9  UNL     1      17.217   8.427   3.685  1.00  0.00     0.055 A 
HETATM   22  C10 UNL     1      18.320   7.681   3.045  1.00  0.00     0.072 C 
BRANCH  19  23
HETATM   23  C2  UNL     1      16.011   9.216   1.669  1.00  0.00     0.146 C 
HETATM   24  C1  UNL     1      14.586   9.435   1.274  1.00  0.00     0.028 C 
ENDBRANCH  19  23
ENDBRANCH  13  15
ENDBRANCH   1  12
BRANCH  10  25
HETATM   25  C8  UNL     1      15.967   7.956   8.812  1.00  0.00     0.224 C 
HETATM   26  N10 UNL     1      15.798   9.257   8.716  1.00  0.00    -0.255 N 
HETATM   27  N11 UNL     1      14.674   9.538   7.938  1.00  0.00    -0.006 NA
ATOM     28  H10 UNL     1      16.401   9.958   9.147  1.00  0.00     0.187 HD
HETATM   29  N12 UNL     1      13.891   8.381   7.841  1.00  0.00    -0.006 NA
HETATM   30  N13 UNL     1      14.858   7.398   8.063  1.00  0.00    -0.255 N 
ATOM     31  H13 UNL     1      14.794   6.431   7.745  1.00  0.00     0.187 HD
ENDBRANCH  10  25
BRANCH   6  32
HETATM   32  N7  UNL     1      20.684   4.876  10.493  1.00  0.00    -0.234 N 
ATOM     33  H72 UNL     1      20.858   5.341  11.383  1.00  0.00     0.174 HD
ATOM     34  H71 UNL     1      21.136   3.991  10.261  1.00  0.00     0.174 HD
ENDBRANCH   6  32
TORSDOF 5
ENDMDL
MODEL 3
REMARK VINA RESULT: -6.491152969      1.070      1.102
REMARK  5 active torsions:
REMARK  status: ('A' for Active; 'I' for Inactive)
REMARK    1  A    between atoms: C2_2  and  N1_3 
REMARK    2  A    between atoms: C3_8  and  C4_9 
REMARK    3  A    between atoms: N4_10  and  N5_12 
REMARK    4  A    between atoms: C6_17  and  N7_18 
REMARK    5  A    between atoms: N9_24  and  C8_26 
ROOT
HETATM    1  N5  UNL     1      16.772   6.781   8.473  1.00  0.00    -0.058 N 
HETATM    2  C5  UNL     1      17.122   5.468   8.424  1.00  0.00     0.229 A 
HETATM    3  S1  UNL     1      17.073   4.603   7.041  1.00  0.00    -0.038 SA
HETATM    4  N6  UNL     1      17.507   4.888   9.572  1.00  0.00    -0.164 N 
ATOM      5  H6  UNL     1      17.779   3.905   9.581  1.00  0.00     0.186 HD
HETATM    6  C6  UNL     1      17.534   5.606  10.710  1.00  0.00     0.692 A 
HETATM    7  N8  UNL     1      17.186   6.884  10.723  1.00  0.00    -0.020 N 
ATOM      8  H8  UNL     1      17.217   7.403  11.601  1.00  0.00     0.203 HD
HETATM    9  C7  UNL     1      16.781   7.529   9.564  1.00  0.00     0.723 A 
HETATM   10  N9  UNL     1      16.446   8.739   9.647  1.00  0.00    -0.156 N 
ATOM     11  H9  UNL     1      16.522   9.147  10.579  1.00  0.00     0.187 HD
ENDROOT
BRANCH   1  12
HETATM   12  N4  UNL     1      16.398   7.325   7.247  1.00  0.00    -0.286 N 
HETATM   13  C4  UNL     1      17.322   7.686   6.389  1.00  0.00     0.141 C 
ATOM     14  H4  UNL     1      15.411   7.442   7.017  1.00  0.00     0.187 HD
BRANCH  13  15
HETATM   15  C3  UNL     1      16.929   8.254   5.105  1.00  0.00     0.090 A 
HETATM   16  N3  UNL     1      16.063   9.260   4.910  1.00  0.00    -0.283 N 
HETATM   17  N2  UNL     1      15.942   9.518   3.619  1.00  0.00    -0.240 N 
ATOM     18  H3  UNL     1      15.569   9.755   5.653  1.00  0.00     0.188 HD
HETATM   19  N1  UNL     1      16.723   8.686   2.956  1.00  0.00    -0.281 N 
ATOM     20  H2  UNL     1      15.347  10.236   3.205  1.00  0.00     0.208 HD
HETATM   21  C9  UNL     1      17.348   7.891   3.844  1.00  0.00     0.055 A 
HETATM   22  C10 UNL     1      18.317   6.811   3.565  1.00  0.00     0.072 C 
BRANCH  19  23
HETATM   23  C2  UNL     1      16.875   8.645   1.531  1.00  0.00     0.146 C 
HETATM   24  C1  UNL     1      15.830   9.410   0.783  1.00  0.00     0.028 C 
ENDBRANCH  19  23
ENDBRANCH  13  15
ENDBRANCH   1  12
BRANCH  10  25
HETATM   25  C8  UNL     1      15.993   9.594   8.671  1.00  0.00     0.224 C 
HETATM   26  N10 UNL     1      16.678  10.582   8.137  1.00  0.00    -0.255 N 
HETATM   27  N11 UNL     1      15.905  11.238   7.180  1.00  0.00    -0.006 NA
ATOM     28  H10 UNL     1      17.636  10.831   8.387  1.00  0.00     0.187 HD
HETATM   29  N12 UNL     1      14.561  10.893   7.370  1.00  0.00    -0.006 NA
HETATM   30  N13 UNL     1      14.702   9.662   8.015  1.00  0.00    -0.255 N 
ATOM     31  H13 UNL     1      14.000   8.922   8.024  1.00  0.00     0.187 HD
ENDBRANCH  10  25
BRANCH   6  32
HETATM   32  N7  UNL     1      17.915   5.006  11.805  1.00  0.00    -0.234 N 
ATOM     33  H72 UNL     1      17.273   4.406  12.321  1.00  0.00     0.174 HD
ATOM     34  H71 UNL     1      18.872   5.156  12.126  1.00  0.00     0.174 HD
ENDBRANCH   6  32
TORSDOF 5
ENDMDL
MODEL 4
REMARK VINA RESULT: -6.384763942      2.618      6.758
REMARK  5 active torsions:
REMARK  status: ('A' for Active; 'I' for Inactive)
REMARK    1  A    between atoms: C2_2  and  N1_3 
REMARK    2  A    between atoms: C3_8  and  C4_9 
REMARK    3  A    between atoms: N4_10  and  N5_12 
REMARK    4  A    between atoms: C6_17  and  N7_18 
REMARK    5  A    between atoms: N9_24  and  C8_26 
ROOT
HETATM    1  N5  UNL     1      17.831   7.418   4.020  1.00  0.00    -0.058 N 
HETATM    2  C5  UNL     1      17.141   7.875   2.941  1.00  0.00     0.229 A 
HETATM    3  S1  UNL     1      16.201   9.207   3.008  1.00  0.00    -0.038 SA
HETATM    4  N6  UNL     1      17.249   7.180   1.798  1.00  0.00    -0.164 N 
ATOM      5  H6  UNL     1      16.749   7.488   0.964  1.00  0.00     0.186 HD
HETATM    6  C6  UNL     1      18.018   6.077   1.754  1.00  0.00     0.692 A 
HETATM    7  N8  UNL     1      18.677   5.657   2.824  1.00  0.00    -0.020 N 
ATOM      8  H8  UNL     1      19.252   4.817   2.761  1.00  0.00     0.203 HD
HETATM    9  C7  UNL     1      18.599   6.340   4.028  1.00  0.00     0.723 A 
HETATM   10  N9  UNL     1      19.233   5.880   5.012  1.00  0.00    -0.156 N 
ATOM     11  H9  UNL     1      19.774   5.035   4.822  1.00  0.00     0.187 HD
ENDROOT
BRANCH   1  12
HETATM   12  N4  UNL     1      17.688   8.192   5.168  1.00  0.00    -0.286 N 
HETATM   13  C4  UNL     1      16.579   8.120   5.864  1.00  0.00     0.141 C 
ATOM     14  H4  UNL     1      18.442   8.811   5.467  1.00  0.00     0.187 HD
BRANCH  13  15
HETATM   15  C3  UNL     1      16.431   8.930   7.067  1.00  0.00     0.090 A 
HETATM   16  N3  UNL     1      17.243   9.921   7.465  1.00  0.00    -0.283 N 
HETATM   17  N2  UNL     1      16.810  10.441   8.602  1.00  0.00    -0.240 N 
ATOM     18  H3  UNL     1      18.075  10.230   6.962  1.00  0.00     0.188 HD
HETATM   19  N1  UNL     1      15.715   9.798   8.960  1.00  0.00    -0.281 N 
ATOM     20  H2  UNL     1      17.248  11.207   9.114  1.00  0.00     0.208 HD
HETATM   21  C9  UNL     1      15.452   8.858   8.034  1.00  0.00     0.055 A 
HETATM   22  C10 UNL     1      14.329   7.898   8.013  1.00  0.00     0.072 C 
BRANCH  19  23
HETATM   23  C2  UNL     1      14.942  10.064  10.138  1.00  0.00     0.146 C 
HETATM   24  C1  UNL     1      15.193   9.111  11.262  1.00  0.00     0.028 C 
ENDBRANCH  19  23
ENDBRANCH  13  15
ENDBRANCH   1  12
BRANCH  10  25
HETATM   25  C8  UNL     1      19.310   6.342   6.303  1.00  0.00     0.224 C 
HETATM   26  N10 UNL     1      18.673   5.838   7.339  1.00  0.00    -0.255 N 
HETATM   27  N11 UNL     1      18.987   6.559   8.491  1.00  0.00    -0.006 NA
ATOM     28  H10 UNL     1      18.043   5.036   7.304  1.00  0.00     0.187 HD
HETATM   29  N12 UNL     1      19.550   7.786   8.117  1.00  0.00    -0.006 NA
HETATM   30  N13 UNL     1      20.045   7.465   6.851  1.00  0.00    -0.255 N 
ATOM     31  H13 UNL     1      20.811   7.949   6.382  1.00  0.00     0.187 HD
ENDBRANCH  10  25
BRANCH   6  32
HETATM   32  N7  UNL     1      18.097   5.428   0.624  1.00  0.00    -0.234 N 
ATOM     33  H72 UNL     1      18.816   5.660  -0.061  1.00  0.00     0.174 HD
ATOM     34  H71 UNL     1      17.420   4.686   0.448  1.00  0.00     0.174 HD
ENDBRANCH   6  32
TORSDOF 5
ENDMDL
MODEL 5
REMARK VINA RESULT: -6.252834219      2.682      6.125
REMARK  5 active torsions:
REMARK  status: ('A' for Active; 'I' for Inactive)
REMARK    1  A    between atoms: C2_2  and  N1_3 
REMARK    2  A    between atoms: C3_8  and  C4_9 
REMARK    3  A    between atoms: N4_10  and  N5_12 
REMARK    4  A    between atoms: C6_17  and  N7_18 
REMARK    5  A    between atoms: N9_24  and  C8_26 
ROOT
HETATM    1  N5  UNL     1      16.869   8.195   4.092  1.00  0.00    -0.058 N 
HETATM    2  C5  UNL     1      17.317   7.690   2.911  1.00  0.00     0.229 A 
HETATM    3  S1  UNL     1      18.363   6.440   2.838  1.00  0.00    -0.038 SA
HETATM    4  N6  UNL     1      16.873   8.268   1.784  1.00  0.00    -0.164 N 
ATOM      5  H6  UNL     1      17.183   7.922   0.876  1.00  0.00     0.186 HD
HETATM    6  C6  UNL     1      16.019   9.306   1.854  1.00  0.00     0.692 A 
HETATM    7  N8  UNL     1      15.603   9.774   3.022  1.00  0.00    -0.020 N 
ATOM      8  H8  UNL     1      14.955  10.562   3.043  1.00  0.00     0.203 HD
HETATM    9  C7  UNL     1      16.032   9.212   4.214  1.00  0.00     0.723 A 
HETATM   10  N9  UNL     1      15.614   9.714   5.289  1.00  0.00    -0.156 N 
ATOM     11  H9  UNL     1      14.969  10.497   5.179  1.00  0.00     0.187 HD
ENDROOT
BRANCH   1  12
HETATM   12  N4  UNL     1      17.355   7.540   5.221  1.00  0.00    -0.286 N 
HETATM   13  C4  UNL     1      18.603   7.718   5.586  1.00  0.00     0.141 C 
ATOM     14  H4  UNL     1      16.745   6.927   5.761  1.00  0.00     0.187 HD
BRANCH  13  15
HETATM   15  C3  UNL     1      19.109   7.034   6.769  1.00  0.00     0.090 A 
HETATM   16  N3  UNL     1      19.489   7.609   7.920  1.00  0.00    -0.283 N 
HETATM   17  N2  UNL     1      19.896   6.689   8.780  1.00  0.00    -0.240 N 
ATOM     18  H3  UNL     1      19.468   8.612   8.106  1.00  0.00     0.188 HD
HETATM   19  N1  UNL     1      19.788   5.507   8.203  1.00  0.00    -0.281 N 
ATOM     20  H2  UNL     1      20.235   6.864   9.726  1.00  0.00     0.208 HD
HETATM   21  C9  UNL     1      19.304   5.684   6.960  1.00  0.00     0.055 A 
HETATM   22  C10 UNL     1      19.018   4.648   5.946  1.00  0.00     0.072 C 
BRANCH  19  23
HETATM   23  C2  UNL     1      20.128   4.253   8.809  1.00  0.00     0.146 C 
HETATM   24  C1  UNL     1      20.525   4.356  10.246  1.00  0.00     0.028 C 
ENDBRANCH  19  23
ENDBRANCH  13  15
ENDBRANCH   1  12
BRANCH  10  25
HETATM   25  C8  UNL     1      15.895   9.367   6.588  1.00  0.00     0.224 C 
HETATM   26  N10 UNL     1      16.728   9.996   7.389  1.00  0.00    -0.255 N 
HETATM   27  N11 UNL     1      16.764   9.367   8.633  1.00  0.00    -0.006 NA
ATOM     28  H10 UNL     1      17.268  10.824   7.136  1.00  0.00     0.187 HD
HETATM   29  N12 UNL     1      16.218   8.084   8.506  1.00  0.00    -0.006 NA
HETATM   30  N13 UNL     1      15.403   8.261   7.387  1.00  0.00    -0.255 N 
ATOM     31  H13 UNL     1      14.583   7.696   7.164  1.00  0.00     0.187 HD
ENDBRANCH  10  25
BRANCH   6  32
HETATM   32  N7  UNL     1      15.611   9.841   0.735  1.00  0.00    -0.234 N 
ATOM     33  H72 UNL     1      15.202   9.265   0.000  1.00  0.00     0.174 HD
ATOM     34  H71 UNL     1      15.712  10.850   0.621  1.00  0.00     0.174 HD
ENDBRANCH   6  32
TORSDOF 5
ENDMDL
