MODEL 1
REMARK VINA RESULT: -7.508882661      0.000      0.000
REMARK  7 active torsions:
REMARK  status: ('A' for Active; 'I' for Inactive)
REMARK    1  A    between atoms: C2_5  and  N3_6 
REMARK    2  A    between atoms: N4_9  and  C3_10 
REMARK    3  A    between atoms: N6_15  and  N7_16 
REMARK    4  A    between atoms: N7_16  and  C5_18 
REMARK    5  A    between atoms: C7_20  and  C8_21 
REMARK    6  A    between atoms: C10_26  and  N8_27 
REMARK    7  A    between atoms: C11_31  and  N9_32 
ROOT
HETATM    1  C3  UNL     1      15.567   9.000   9.659  1.00  0.00     0.275 A 
HETATM    2  N5  UNL     1      14.770   9.577   8.736  1.00  0.00    -0.271 N 
ATOM      3  H5  UNL     1      13.806   9.798   8.985  1.00  0.00     0.174 HD
HETATM    4  C4  UNL     1      15.201   9.870   7.506  1.00  0.00     0.352 A 
HETATM    5  O1  UNL     1      14.448  10.411   6.649  1.00  0.00    -0.244 OA
HETATM    6  N6  UNL     1      16.501   9.581   7.145  1.00  0.00    -0.165 N 
HETATM    7  C10 UNL     1      17.281   9.010   8.070  1.00  0.00     0.251 A 
HETATM    8  O5  UNL     1      16.789   8.754   9.251  1.00  0.00    -0.243 OA
ENDROOT
BRANCH   1   9
HETATM    9  N4  UNL     1      15.113   8.693  10.961  1.00  0.00     0.063 N 
HETATM   10  C2  UNL     1      14.929   7.477  11.467  1.00  0.00     0.715 A 
HETATM   11  N2  UNL     1      14.494   7.567  12.731  1.00  0.00    -0.115 N 
HETATM   12  N1  UNL     1      14.400   8.851  13.028  1.00  0.00    -0.113 N 
ATOM     13  H2  UNL     1      14.275   6.786  13.351  1.00  0.00     0.206 HD
HETATM   14  C1  UNL     1      13.966   9.412  14.295  1.00  0.00     0.198 C 
HETATM   15  C11 UNL     1      14.787   9.562  11.920  1.00  0.00     0.717 A 
BRANCH  10  16
HETATM   16  N3  UNL     1      15.142   6.358  10.838  1.00  0.00    -0.232 N 
ATOM     17  H32 UNL     1      14.587   5.509  10.938  1.00  0.00     0.174 HD
ATOM     18  H31 UNL     1      15.894   6.207  10.165  1.00  0.00     0.174 HD
ENDBRANCH  10  16
BRANCH  15  19
HETATM   19  N9  UNL     1      14.827  10.826  11.840  1.00  0.00    -0.232 N 
ATOM     20  H92 UNL     1      14.650  11.388  11.008  1.00  0.00     0.174 HD
ATOM     21  H91 UNL     1      15.049  11.458  12.610  1.00  0.00     0.174 HD
ENDBRANCH  15  19
ENDBRANCH   1   9
BRANCH   7  22
HETATM   22  N8  UNL     1      18.532   8.708   7.787  1.00  0.00    -0.363 N 
ATOM     23  H82 UNL     1      19.226   9.446   7.663  1.00  0.00     0.159 HD
ATOM     24  H81 UNL     1      18.815   7.734   7.692  1.00  0.00     0.159 HD
ENDBRANCH   7  22
BRANCH   6  25
HETATM   25  N7  UNL     1      16.915   9.867   5.850  1.00  0.00    -0.266 N 
ATOM     26  H7  UNL     1      16.992  10.859   5.624  1.00  0.00     0.190 HD
BRANCH  25  27
HETATM   27  C5  UNL     1      17.245   8.985   4.804  1.00  0.00     0.163 A 
HETATM   28  C6  UNL     1      16.650   9.021   3.531  1.00  0.00     0.078 A 
HETATM   29  C7  UNL     1      17.200   8.017   2.762  1.00  0.00     0.067 A 
HETATM   30  C9  UNL     1      18.115   7.400   3.584  1.00  0.00     0.162 A 
HETATM   31  O4  UNL     1      18.096   8.001   4.746  1.00  0.00    -0.303 OA
BRANCH  29  32
HETATM   32  C8  UNL     1      16.877   7.658   1.380  1.00  0.00     0.211 C 
HETATM   33  O2  UNL     1      16.440   8.516   0.574  1.00  0.00    -0.644 OA
HETATM   34  O3  UNL     1      17.055   6.338   0.955  1.00  0.00    -0.644 OA
ENDBRANCH  29  32
ENDBRANCH  25  27
ENDBRANCH   6  25
TORSDOF 7
ENDMDL
MODEL 2
REMARK VINA RESULT: -7.349511502      1.008      1.853
REMARK  7 active torsions:
REMARK  status: ('A' for Active; 'I' for Inactive)
REMARK    1  A    between atoms: C2_5  and  N3_6 
REMARK    2  A    between atoms: N4_9  and  C3_10 
REMARK    3  A    between atoms: N6_15  and  N7_16 
REMARK    4  A    between atoms: N7_16  and  C5_18 
REMARK    5  A    between atoms: C7_20  and  C8_21 
REMARK    6  A    between atoms: C10_26  and  N8_27 
REMARK    7  A    between atoms: C11_31  and  N9_32 
ROOT
HETATM    1  C3  UNL     1      15.025   9.220   9.268  1.00  0.00     0.275 A 
HETATM    2  N5  UNL     1      14.413   9.615   8.132  1.00  0.00    -0.271 N 
ATOM      3  H5  UNL     1      13.401   9.738   8.135  1.00  0.00     0.174 HD
HETATM    4  C4  UNL     1      15.089   9.851   7.005  1.00  0.00     0.352 A 
HETATM    5  O1  UNL     1      14.507  10.222   5.947  1.00  0.00    -0.244 OA
HETATM    6  N6  UNL     1      16.459   9.692   6.976  1.00  0.00    -0.165 N 
HETATM    7  C10 UNL     1      17.053   9.301   8.109  1.00  0.00     0.251 A 
HETATM    8  O5  UNL     1      16.327   9.090   9.172  1.00  0.00    -0.243 OA
ENDROOT
BRANCH   1   9
HETATM    9  N4  UNL     1      14.313   8.972  10.463  1.00  0.00     0.063 N 
HETATM   10  C2  UNL     1      14.306   9.736  11.551  1.00  0.00     0.715 A 
HETATM   11  N2  UNL     1      13.517   9.192  12.488  1.00  0.00    -0.115 N 
HETATM   12  N1  UNL     1      13.021   8.074  11.989  1.00  0.00    -0.113 N 
ATOM     13  H2  UNL     1      13.334   9.573  13.417  1.00  0.00     0.206 HD
HETATM   14  C1  UNL     1      12.115   7.160  12.661  1.00  0.00     0.198 C 
HETATM   15  C11 UNL     1      13.517   7.931  10.718  1.00  0.00     0.717 A 
BRANCH  10  16
HETATM   16  N3  UNL     1      14.962  10.850  11.695  1.00  0.00    -0.232 N 
ATOM     17  H32 UNL     1      15.393  11.384  10.941  1.00  0.00     0.174 HD
ATOM     18  H31 UNL     1      15.113  11.321  12.587  1.00  0.00     0.174 HD
ENDBRANCH  10  16
BRANCH  15  19
HETATM   19  N9  UNL     1      13.253   6.972   9.934  1.00  0.00    -0.232 N 
ATOM     20  H92 UNL     1      12.327   6.678   9.623  1.00  0.00     0.174 HD
ATOM     21  H91 UNL     1      13.943   6.356   9.504  1.00  0.00     0.174 HD
ENDBRANCH  15  19
ENDBRANCH   1   9
BRANCH   7  22
HETATM   22  N8  UNL     1      18.359   9.131   8.147  1.00  0.00    -0.363 N 
ATOM     23  H82 UNL     1      18.970   9.884   8.463  1.00  0.00     0.159 HD
ATOM     24  H81 UNL     1      18.769   8.242   7.861  1.00  0.00     0.159 HD
ENDBRANCH   7  22
BRANCH   6  25
HETATM   25  N7  UNL     1      17.134   9.914   5.782  1.00  0.00    -0.266 N 
ATOM     26  H7  UNL     1      17.473  10.866   5.642  1.00  0.00     0.190 HD
BRANCH  25  27
HETATM   27  C5  UNL     1      17.418   9.015   4.738  1.00  0.00     0.163 A 
HETATM   28  C6  UNL     1      16.770   9.031   3.490  1.00  0.00     0.078 A 
HETATM   29  C7  UNL     1      17.286   8.013   2.716  1.00  0.00     0.067 A 
HETATM   30  C9  UNL     1      18.234   7.408   3.508  1.00  0.00     0.162 A 
HETATM   31  O4  UNL     1      18.264   8.028   4.660  1.00  0.00    -0.303 OA
BRANCH  29  32
HETATM   32  C8  UNL     1      16.904   7.632   1.355  1.00  0.00     0.211 C 
HETATM   33  O2  UNL     1      17.040   6.450   0.951  1.00  0.00    -0.644 OA
HETATM   34  O3  UNL     1      16.383   8.601   0.493  1.00  0.00    -0.644 OA
ENDBRANCH  29  32
ENDBRANCH  25  27
ENDBRANCH   6  25
TORSDOF 7
ENDMDL
MODEL 3
REMARK VINA RESULT: -7.245365748      1.407      2.086
REMARK  7 active torsions:
REMARK  status: ('A' for Active; 'I' for Inactive)
REMARK    1  A    between atoms: C2_5  and  N3_6 
REMARK    2  A    between atoms: N4_9  and  C3_10 
REMARK    3  A    between atoms: N6_15  and  N7_16 
REMARK    4  A    between atoms: N7_16  and  C5_18 
REMARK    5  A    between atoms: C7_20  and  C8_21 
REMARK    6  A    between atoms: C10_26  and  N8_27 
REMARK    7  A    between atoms: C11_31  and  N9_32 
ROOT
HETATM    1  C3  UNL     1      14.874   8.990   8.955  1.00  0.00     0.275 A 
HETATM    2  N5  UNL     1      16.174   8.628   8.989  1.00  0.00    -0.271 N 
ATOM      3  H5  UNL     1      16.545   8.205   9.840  1.00  0.00     0.174 HD
HETATM    4  C4  UNL     1      16.990   8.803   7.947  1.00  0.00     0.352 A 
HETATM    5  O1  UNL     1      18.204   8.460   7.989  1.00  0.00    -0.244 OA
HETATM    6  N6  UNL     1      16.511   9.373   6.785  1.00  0.00    -0.165 N 
HETATM    7  C10 UNL     1      15.220   9.726   6.764  1.00  0.00     0.251 A 
HETATM    8  O5  UNL     1      14.484   9.522   7.821  1.00  0.00    -0.243 OA
ENDROOT
BRANCH   1   9
HETATM    9  N4  UNL     1      14.008   8.801  10.055  1.00  0.00     0.063 N 
HETATM   10  C2  UNL     1      12.936   8.017  10.092  1.00  0.00     0.715 A 
HETATM   11  N2  UNL     1      12.358   8.085  11.299  1.00  0.00    -0.115 N 
HETATM   12  N1  UNL     1      13.071   8.921  12.034  1.00  0.00    -0.113 N 
ATOM     13  H2  UNL     1      11.521   7.583  11.597  1.00  0.00     0.206 HD
HETATM   14  C1  UNL     1      12.807   9.295  13.411  1.00  0.00     0.198 C 
HETATM   15  C11 UNL     1      14.108   9.374  11.257  1.00  0.00     0.717 A 
BRANCH  10  16
HETATM   16  N3  UNL     1      12.504   7.283   9.108  1.00  0.00    -0.232 N 
ATOM     17  H32 UNL     1      13.060   6.605   8.588  1.00  0.00     0.174 HD
ATOM     18  H31 UNL     1      11.550   7.304   8.748  1.00  0.00     0.174 HD
ENDBRANCH  10  16
BRANCH  15  19
HETATM   19  N9  UNL     1      14.999  10.191  11.634  1.00  0.00    -0.232 N 
ATOM     20  H92 UNL     1      15.572  10.122  12.475  1.00  0.00     0.174 HD
ATOM     21  H91 UNL     1      15.264  11.043  11.138  1.00  0.00     0.174 HD
ENDBRANCH  15  19
ENDBRANCH   1   9
BRANCH   7  22
HETATM   22  N8  UNL     1      14.702  10.275   5.684  1.00  0.00    -0.363 N 
ATOM     23  H82 UNL     1      14.528  11.280   5.647  1.00  0.00     0.159 HD
ATOM     24  H81 UNL     1      14.471   9.698   4.876  1.00  0.00     0.159 HD
ENDBRANCH   7  22
BRANCH   6  25
HETATM   25  N7  UNL     1      17.388   9.574   5.727  1.00  0.00    -0.266 N 
ATOM     26  H7  UNL     1      17.974  10.406   5.797  1.00  0.00     0.190 HD
BRANCH  25  27
HETATM   27  C5  UNL     1      17.586   8.795   4.572  1.00  0.00     0.163 A 
HETATM   28  C6  UNL     1      16.840   8.942   3.390  1.00  0.00     0.078 A 
HETATM   29  C7  UNL     1      17.290   8.018   2.470  1.00  0.00     0.067 A 
HETATM   30  C9  UNL     1      18.297   7.337   3.114  1.00  0.00     0.162 A 
HETATM   31  O4  UNL     1      18.422   7.829   4.320  1.00  0.00    -0.303 OA
BRANCH  29  32
HETATM   32  C8  UNL     1      16.799   7.784   1.111  1.00  0.00     0.211 C 
HETATM   33  O2  UNL     1      16.832   6.637   0.599  1.00  0.00    -0.644 OA
HETATM   34  O3  UNL     1      16.288   8.855   0.373  1.00  0.00    -0.644 OA
ENDBRANCH  29  32
ENDBRANCH  25  27
ENDBRANCH   6  25
TORSDOF 7
ENDMDL
MODEL 4
REMARK VINA RESULT: -7.088985092      3.243      8.575
REMARK  7 active torsions:
REMARK  status: ('A' for Active; 'I' for Inactive)
REMARK    1  A    between atoms: C2_5  and  N3_6 
REMARK    2  A    between atoms: N4_9  and  C3_10 
REMARK    3  A    between atoms: N6_15  and  N7_16 
REMARK    4  A    between atoms: N7_16  and  C5_18 
REMARK    5  A    between atoms: C7_20  and  C8_21 
REMARK    6  A    between atoms: C10_26  and  N8_27 
REMARK    7  A    between atoms: C11_31  and  N9_32 
ROOT
HETATM    1  C3  UNL     1      17.817   7.380   4.002  1.00  0.00     0.275 A 
HETATM    2  N5  UNL     1      18.765   7.312   4.961  1.00  0.00    -0.271 N 
ATOM      3  H5  UNL     1      19.578   6.715   4.809  1.00  0.00     0.174 HD
HETATM    4  C4  UNL     1      18.675   8.001   6.102  1.00  0.00     0.352 A 
HETATM    5  O1  UNL     1      19.568   7.931   6.992  1.00  0.00    -0.244 OA
HETATM    6  N6  UNL     1      17.585   8.815   6.331  1.00  0.00    -0.165 N 
HETATM    7  C10 UNL     1      16.653   8.874   5.372  1.00  0.00     0.251 A 
HETATM    8  O5  UNL     1      16.810   8.173   4.284  1.00  0.00    -0.243 OA
ENDROOT
BRANCH   1   9
HETATM    9  N4  UNL     1      17.912   6.655   2.794  1.00  0.00     0.063 N 
HETATM   10  C2  UNL     1      17.552   7.080   1.587  1.00  0.00     0.715 A 
HETATM   11  N2  UNL     1      17.787   6.127   0.675  1.00  0.00    -0.115 N 
HETATM   12  N1  UNL     1      18.301   5.088   1.311  1.00  0.00    -0.113 N 
ATOM     13  H2  UNL     1      17.603   6.191  -0.327  1.00  0.00     0.206 HD
HETATM   14  C1  UNL     1      18.707   3.829   0.713  1.00  0.00     0.198 C 
HETATM   15  C11 UNL     1      18.381   5.414   2.641  1.00  0.00     0.717 A 
BRANCH  10  16
HETATM   16  N3  UNL     1      17.047   8.249   1.319  1.00  0.00    -0.232 N 
ATOM     17  H32 UNL     1      16.948   8.650   0.387  1.00  0.00     0.174 HD
ATOM     18  H31 UNL     1      16.688   8.898   2.019  1.00  0.00     0.174 HD
ENDBRANCH  10  16
BRANCH  15  19
HETATM   19  N9  UNL     1      18.830   4.658   3.553  1.00  0.00    -0.232 N 
ATOM     20  H92 UNL     1      19.449   3.858   3.430  1.00  0.00     0.174 HD
ATOM     21  H91 UNL     1      18.623   4.750   4.548  1.00  0.00     0.174 HD
ENDBRANCH  15  19
ENDBRANCH   1   9
BRANCH   7  22
HETATM   22  N8  UNL     1      15.588   9.633   5.530  1.00  0.00    -0.363 N 
ATOM     23  H82 UNL     1      15.561  10.339   6.266  1.00  0.00     0.159 HD
ATOM     24  H81 UNL     1      14.782   9.520   4.915  1.00  0.00     0.159 HD
ENDBRANCH   7  22
BRANCH   6  25
HETATM   25  N7  UNL     1      17.500   9.496   7.539  1.00  0.00    -0.266 N 
ATOM     26  H7  UNL     1      18.109  10.310   7.626  1.00  0.00     0.190 HD
BRANCH  25  27
HETATM   27  C5  UNL     1      16.695   9.225   8.660  1.00  0.00     0.163 A 
HETATM   28  C6  UNL     1      15.748  10.124   9.182  1.00  0.00     0.078 A 
HETATM   29  C7  UNL     1      15.150   9.541  10.279  1.00  0.00     0.067 A 
HETATM   30  C9  UNL     1      15.744   8.306  10.395  1.00  0.00     0.162 A 
HETATM   31  O4  UNL     1      16.625   8.181   9.435  1.00  0.00    -0.303 OA
BRANCH  29  32
HETATM   32  C8  UNL     1      14.122  10.108  11.154  1.00  0.00     0.211 C 
HETATM   33  O2  UNL     1      13.127   9.429  11.509  1.00  0.00    -0.644 OA
HETATM   34  O3  UNL     1      14.252  11.427  11.598  1.00  0.00    -0.644 OA
ENDBRANCH  29  32
ENDBRANCH  25  27
ENDBRANCH   6  25
TORSDOF 7
ENDMDL
MODEL 5
REMARK VINA RESULT: -7.015874408      1.394      2.490
REMARK  7 active torsions:
REMARK  status: ('A' for Active; 'I' for Inactive)
REMARK    1  A    between atoms: C2_5  and  N3_6 
REMARK    2  A    between atoms: N4_9  and  C3_10 
REMARK    3  A    between atoms: N6_15  and  N7_16 
REMARK    4  A    between atoms: N7_16  and  C5_18 
REMARK    5  A    between atoms: C7_20  and  C8_21 
REMARK    6  A    between atoms: C10_26  and  N8_27 
REMARK    7  A    between atoms: C11_31  and  N9_32 
ROOT
HETATM    1  C3  UNL     1      15.044   9.055   9.052  1.00  0.00     0.275 A 
HETATM    2  N5  UNL     1      16.375   8.832   9.065  1.00  0.00    -0.271 N 
ATOM      3  H5  UNL     1      16.811   8.500   9.925  1.00  0.00     0.174 HD
HETATM    4  C4  UNL     1      17.141   9.031   7.989  1.00  0.00     0.352 A 
HETATM    5  O1  UNL     1      18.385   8.819   8.011  1.00  0.00    -0.244 OA
HETATM    6  N6  UNL     1      16.575   9.480   6.814  1.00  0.00    -0.165 N 
HETATM    7  C10 UNL     1      15.254   9.696   6.814  1.00  0.00     0.251 A 
HETATM    8  O5  UNL     1      14.571   9.479   7.904  1.00  0.00    -0.243 OA
ENDROOT
BRANCH   1   9
HETATM    9  N4  UNL     1      14.232   8.842  10.188  1.00  0.00     0.063 N 
HETATM   10  C2  UNL     1      14.240   9.555  11.310  1.00  0.00     0.715 A 
HETATM   11  N2  UNL     1      13.336   9.068  12.171  1.00  0.00    -0.115 N 
HETATM   12  N1  UNL     1      12.750   8.036  11.589  1.00  0.00    -0.113 N 
ATOM     13  H2  UNL     1      13.136   9.428  13.104  1.00  0.00     0.206 HD
HETATM   14  C1  UNL     1      11.706   7.205  12.160  1.00  0.00     0.198 C 
HETATM   15  C11 UNL     1      13.309   7.889  10.344  1.00  0.00     0.717 A 
BRANCH  10  16
HETATM   16  N3  UNL     1      15.006  10.580  11.546  1.00  0.00    -0.232 N 
ATOM     17  H32 UNL     1      14.727  11.423  12.048  1.00  0.00     0.174 HD
ATOM     18  H31 UNL     1      15.981  10.652  11.256  1.00  0.00     0.174 HD
ENDBRANCH  10  16
BRANCH  15  19
HETATM   19  N9  UNL     1      12.990   7.001   9.500  1.00  0.00    -0.232 N 
ATOM     20  H92 UNL     1      13.341   6.914   8.546  1.00  0.00     0.174 HD
ATOM     21  H91 UNL     1      12.326   6.244   9.664  1.00  0.00     0.174 HD
ENDBRANCH  15  19
ENDBRANCH   1   9
BRANCH   7  22
HETATM   22  N8  UNL     1      14.653  10.126   5.723  1.00  0.00    -0.363 N 
ATOM     23  H82 UNL     1      15.147  10.136   4.830  1.00  0.00     0.159 HD
ATOM     24  H81 UNL     1      13.687  10.451   5.764  1.00  0.00     0.159 HD
ENDBRANCH   7  22
BRANCH   6  25
HETATM   25  N7  UNL     1      17.398   9.710   5.718  1.00  0.00    -0.266 N 
ATOM     26  H7  UNL     1      17.934  10.577   5.749  1.00  0.00     0.190 HD
BRANCH  25  27
HETATM   27  C5  UNL     1      17.600   8.919   4.573  1.00  0.00     0.163 A 
HETATM   28  C6  UNL     1      16.827   9.020   3.403  1.00  0.00     0.078 A 
HETATM   29  C7  UNL     1      17.291   8.096   2.490  1.00  0.00     0.067 A 
HETATM   30  C9  UNL     1      18.332   7.460   3.125  1.00  0.00     0.162 A 
HETATM   31  O4  UNL     1      18.463   7.976   4.321  1.00  0.00    -0.303 OA
BRANCH  29  32
HETATM   32  C8  UNL     1      16.783   7.823   1.145  1.00  0.00     0.211 C 
HETATM   33  O2  UNL     1      16.778   6.656   0.679  1.00  0.00    -0.644 OA
HETATM   34  O3  UNL     1      16.297   8.879   0.368  1.00  0.00    -0.644 OA
ENDBRANCH  29  32
ENDBRANCH  25  27
ENDBRANCH   6  25
TORSDOF 7
ENDMDL
