MODEL 1
REMARK VINA RESULT: -4.314657551      0.000      0.000
REMARK  1 active torsions:
REMARK  status: ('A' for Active; 'I' for Inactive)
REMARK    1  A    between atoms: S1_2  and  N1_3 
ROOT
HETATM    1  N1  UNL     1       6.265   9.760  15.019  1.00  0.00    -0.300 N 
ATOM      2  H1  UNL     1       5.756  10.218  15.775  1.00  0.00     0.177 HD
HETATM    3  C2  UNL     1       7.511   9.420  15.180  1.00  0.00     0.215 C 
HETATM    4  N2  UNL     1       8.257   9.644  16.369  1.00  0.00    -0.255 N 
ATOM      5  H2  UNL     1       8.069  10.328  17.102  1.00  0.00     0.187 HD
HETATM    6  N3  UNL     1       9.310   8.717  16.314  1.00  0.00    -0.006 NA
HETATM    7  N4  UNL     1       9.554   8.478  14.981  1.00  0.00    -0.006 NA
HETATM    8  N5  UNL     1       8.389   8.785  14.276  1.00  0.00    -0.255 N 
ATOM      9  H5  UNL     1       8.206   8.588  13.292  1.00  0.00     0.187 HD
ENDROOT
BRANCH   1  10
HETATM   10  S1  UNL     1       5.470   9.425  13.503  1.00  0.00    -0.058 SA
HETATM   11  C1  UNL     1       6.023  10.635  12.272  1.00  0.00     0.115 C 
ENDBRANCH   1  10
TORSDOF 1
ENDMDL
MODEL 2
REMARK VINA RESULT: -4.229321042      2.092      2.243
REMARK  1 active torsions:
REMARK  status: ('A' for Active; 'I' for Inactive)
REMARK    1  A    between atoms: S1_2  and  N1_3 
ROOT
HETATM    1  N1  UNL     1       7.288   9.571  15.072  1.00  0.00    -0.300 N 
ATOM      2  H1  UNL     1       7.890  10.386  15.186  1.00  0.00     0.177 HD
HETATM    3  C2  UNL     1       7.386   8.563  15.890  1.00  0.00     0.215 C 
HETATM    4  N2  UNL     1       8.301   8.497  16.976  1.00  0.00    -0.255 N 
ATOM      5  H2  UNL     1       9.168   9.022  17.091  1.00  0.00     0.187 HD
HETATM    6  N3  UNL     1       7.750   7.551  17.853  1.00  0.00    -0.006 NA
HETATM    7  N4  UNL     1       7.010   6.683  17.084  1.00  0.00    -0.006 NA
HETATM    8  N5  UNL     1       6.661   7.353  15.910  1.00  0.00    -0.255 N 
ATOM      9  H5  UNL     1       6.003   7.029  15.200  1.00  0.00     0.187 HD
ENDROOT
BRANCH   1  10
HETATM   10  S1  UNL     1       6.119   9.519  13.778  1.00  0.00    -0.058 SA
HETATM   11  C1  UNL     1       4.477   9.876  14.457  1.00  0.00     0.115 C 
ENDBRANCH   1  10
TORSDOF 1
ENDMDL
MODEL 3
REMARK VINA RESULT: -4.199889131      1.167      1.548
REMARK  1 active torsions:
REMARK  status: ('A' for Active; 'I' for Inactive)
REMARK    1  A    between atoms: S1_2  and  N1_3 
ROOT
HETATM    1  N1  UNL     1       6.994   9.547  13.811  1.00  0.00    -0.300 N 
ATOM      2  H1  UNL     1       7.556   9.899  13.036  1.00  0.00     0.177 HD
HETATM    3  C2  UNL     1       7.570   8.996  14.840  1.00  0.00     0.215 C 
HETATM    4  N2  UNL     1       8.975   8.835  14.983  1.00  0.00    -0.255 N 
ATOM      5  H2  UNL     1       9.678   8.822  14.244  1.00  0.00     0.187 HD
HETATM    6  N3  UNL     1       9.183   8.696  16.364  1.00  0.00    -0.006 NA
HETATM    7  N4  UNL     1       8.031   8.151  16.883  1.00  0.00    -0.006 NA
HETATM    8  N5  UNL     1       6.989   8.451  16.004  1.00  0.00    -0.255 N 
ATOM      9  H5  UNL     1       5.993   8.303  16.172  1.00  0.00     0.187 HD
ENDROOT
BRANCH   1  10
HETATM   10  S1  UNL     1       5.256   9.680  13.766  1.00  0.00    -0.058 SA
HETATM   11  C1  UNL     1       4.721   9.800  12.038  1.00  0.00     0.115 C 
ENDBRANCH   1  10
TORSDOF 1
ENDMDL
MODEL 4
REMARK VINA RESULT: -4.149785213      1.965      2.165
REMARK  1 active torsions:
REMARK  status: ('A' for Active; 'I' for Inactive)
REMARK    1  A    between atoms: S1_2  and  N1_3 
ROOT
HETATM    1  N1  UNL     1       7.194   9.481  14.029  1.00  0.00    -0.300 N 
ATOM      2  H1  UNL     1       7.996  10.098  14.155  1.00  0.00     0.177 HD
HETATM    3  C2  UNL     1       7.229   8.260  14.480  1.00  0.00     0.215 C 
HETATM    4  N2  UNL     1       8.337   7.689  15.163  1.00  0.00    -0.255 N 
ATOM      5  H2  UNL     1       9.311   7.990  15.130  1.00  0.00     0.187 HD
HETATM    6  N3  UNL     1       7.798   6.617  15.891  1.00  0.00    -0.006 NA
HETATM    7  N4  UNL     1       6.689   6.188  15.198  1.00  0.00    -0.006 NA
HETATM    8  N5  UNL     1       6.243   7.254  14.414  1.00  0.00    -0.255 N 
ATOM      9  H5  UNL     1       5.368   7.296  13.890  1.00  0.00     0.187 HD
ENDROOT
BRANCH   1  10
HETATM   10  S1  UNL     1       5.766  10.054  13.207  1.00  0.00    -0.058 SA
HETATM   11  C1  UNL     1       6.271  11.006  11.750  1.00  0.00     0.115 C 
ENDBRANCH   1  10
TORSDOF 1
ENDMDL
MODEL 5
REMARK VINA RESULT: -4.114184880      1.659      2.050
REMARK  1 active torsions:
REMARK  status: ('A' for Active; 'I' for Inactive)
REMARK    1  A    between atoms: S1_2  and  N1_3 
ROOT
HETATM    1  N1  UNL     1       6.467  10.190  13.953  1.00  0.00    -0.300 N 
ATOM      2  H1  UNL     1       7.113  10.959  13.779  1.00  0.00     0.177 HD
HETATM    3  C2  UNL     1       6.921   8.997  14.209  1.00  0.00     0.215 C 
HETATM    4  N2  UNL     1       8.300   8.659  14.269  1.00  0.00    -0.255 N 
ATOM      5  H2  UNL     1       9.082   9.158  13.844  1.00  0.00     0.187 HD
HETATM    6  N3  UNL     1       8.351   7.488  15.040  1.00  0.00    -0.006 NA
HETATM    7  N4  UNL     1       7.147   6.847  14.864  1.00  0.00    -0.006 NA
HETATM    8  N5  UNL     1       6.210   7.807  14.475  1.00  0.00    -0.255 N 
ATOM      9  H5  UNL     1       5.202   7.674  14.398  1.00  0.00     0.187 HD
ENDROOT
BRANCH   1  10
HETATM   10  S1  UNL     1       4.744  10.464  13.910  1.00  0.00    -0.058 SA
HETATM   11  C1  UNL     1       4.426  12.074  13.141  1.00  0.00     0.115 C 
ENDBRANCH   1  10
TORSDOF 1
ENDMDL
