MODEL 1
REMARK VINA RESULT: -5.082581282      0.000      0.000
REMARK  1 active torsions:
REMARK  status: ('A' for Active; 'I' for Inactive)
REMARK    1  A    between atoms: N3_10  and  N4_11 
ROOT
HETATM    1  N1  UNL     1       5.592   6.284  15.881  1.00  0.00    -0.080 NA
HETATM    2  C1  UNL     1       6.274   7.427  15.444  1.00  0.00     0.147 A 
HETATM    3  C2  UNL     1       5.776   8.157  14.380  1.00  0.00     0.121 A 
HETATM    4  C3  UNL     1       6.471   9.276  13.975  1.00  0.00     0.252 A 
HETATM    5  O1  UNL     1       6.065   9.973  13.016  1.00  0.00    -0.268 OA
HETATM    6  N2  UNL     1       7.604   9.617  14.628  1.00  0.00    -0.274 N 
ATOM      7  H2  UNL     1       8.125  10.443  14.335  1.00  0.00     0.173 HD
HETATM    8  C4  UNL     1       8.054   8.879  15.660  1.00  0.00     0.349 A 
HETATM    9  O2  UNL     1       9.105   9.205  16.258  1.00  0.00    -0.244 OA
HETATM   10  N3  UNL     1       7.407   7.770  16.096  1.00  0.00    -0.198 N 
ENDROOT
BRANCH  10  11
HETATM   11  N4  UNL     1       7.911   7.037  17.169  1.00  0.00    -0.333 N 
ATOM     12  H42 UNL     1       8.860   6.664  17.139  1.00  0.00     0.177 HD
ATOM     13  H41 UNL     1       7.367   6.846  18.010  1.00  0.00     0.177 HD
ENDBRANCH  10  11
TORSDOF 1
ENDMDL
MODEL 2
REMARK VINA RESULT: -4.838192913      2.142      3.307
REMARK  1 active torsions:
REMARK  status: ('A' for Active; 'I' for Inactive)
REMARK    1  A    between atoms: N3_10  and  N4_11 
ROOT
HETATM    1  N1  UNL     1       5.239   9.669  14.981  1.00  0.00    -0.080 NA
HETATM    2  C1  UNL     1       6.424   9.027  15.362  1.00  0.00     0.147 A 
HETATM    3  C2  UNL     1       6.514   8.443  16.614  1.00  0.00     0.121 A 
HETATM    4  C3  UNL     1       7.694   7.819  16.958  1.00  0.00     0.252 A 
HETATM    5  O1  UNL     1       7.830   7.275  18.078  1.00  0.00    -0.268 OA
HETATM    6  N2  UNL     1       8.711   7.800  16.068  1.00  0.00    -0.274 N 
ATOM      7  H2  UNL     1       9.587   7.341  16.314  1.00  0.00     0.173 HD
HETATM    8  C4  UNL     1       8.581   8.379  14.860  1.00  0.00     0.349 A 
HETATM    9  O2  UNL     1       9.530   8.355  14.043  1.00  0.00    -0.244 OA
HETATM   10  N3  UNL     1       7.442   9.006  14.473  1.00  0.00    -0.198 N 
ENDROOT
BRANCH  10  11
HETATM   11  N4  UNL     1       7.353   9.592  13.212  1.00  0.00    -0.333 N 
ATOM     12  H42 UNL     1       7.495  10.596  13.099  1.00  0.00     0.177 HD
ATOM     13  H41 UNL     1       7.148   9.057  12.369  1.00  0.00     0.177 HD
ENDBRANCH  10  11
TORSDOF 1
ENDMDL
MODEL 3
REMARK VINA RESULT: -4.822758698      6.119      6.883
REMARK  1 active torsions:
REMARK  status: ('A' for Active; 'I' for Inactive)
REMARK    1  A    between atoms: N3_10  and  N4_11 
ROOT
HETATM    1  N1  UNL     1       2.514  14.177  17.746  1.00  0.00    -0.080 NA
HETATM    2  C1  UNL     1       3.567  14.197  16.822  1.00  0.00     0.147 A 
HETATM    3  C2  UNL     1       3.578  13.290  15.777  1.00  0.00     0.121 A 
HETATM    4  C3  UNL     1       4.628  13.337  14.885  1.00  0.00     0.252 A 
HETATM    5  O1  UNL     1       4.688  12.539  13.921  1.00  0.00    -0.268 OA
HETATM    6  N2  UNL     1       5.600  14.259  15.063  1.00  0.00    -0.274 N 
ATOM      7  H2  UNL     1       6.381  14.301  14.408  1.00  0.00     0.173 HD
HETATM    8  C4  UNL     1       5.550  15.123  16.093  1.00  0.00     0.349 A 
HETATM    9  O2  UNL     1       6.456  15.975  16.247  1.00  0.00    -0.244 OA
HETATM   10  N3  UNL     1       4.540  15.119  16.997  1.00  0.00    -0.198 N 
ENDROOT
BRANCH  10  11
HETATM   11  N4  UNL     1       4.530  16.034  18.048  1.00  0.00    -0.333 N 
ATOM     12  H42 UNL     1       3.955  15.866  18.874  1.00  0.00     0.177 HD
ATOM     13  H41 UNL     1       5.084  16.890  18.039  1.00  0.00     0.177 HD
ENDBRANCH  10  11
TORSDOF 1
ENDMDL
MODEL 4
REMARK VINA RESULT: -4.820189510      1.920      2.899
REMARK  1 active torsions:
REMARK  status: ('A' for Active; 'I' for Inactive)
REMARK    1  A    between atoms: N3_10  and  N4_11 
ROOT
HETATM    1  N1  UNL     1       5.812   8.261  13.825  1.00  0.00    -0.080 NA
HETATM    2  C1  UNL     1       6.760   8.137  14.850  1.00  0.00     0.147 A 
HETATM    3  C2  UNL     1       7.900   8.920  14.825  1.00  0.00     0.121 A 
HETATM    4  C3  UNL     1       8.812   8.774  15.848  1.00  0.00     0.252 A 
HETATM    5  O1  UNL     1       9.862   9.457  15.875  1.00  0.00    -0.268 OA
HETATM    6  N2  UNL     1       8.561   7.879  16.829  1.00  0.00    -0.274 N 
ATOM      7  H2  UNL     1       9.231   7.764  17.590  1.00  0.00     0.173 HD
HETATM    8  C4  UNL     1       7.438   7.137  16.815  1.00  0.00     0.349 A 
HETATM    9  O2  UNL     1       7.215   6.311  17.730  1.00  0.00    -0.244 OA
HETATM   10  N3  UNL     1       6.510   7.243  15.832  1.00  0.00    -0.198 N 
ENDROOT
BRANCH  10  11
HETATM   11  N4  UNL     1       5.362   6.454  15.859  1.00  0.00    -0.333 N 
ATOM     12  H42 UNL     1       4.926   6.147  14.989  1.00  0.00     0.177 HD
ATOM     13  H41 UNL     1       4.918   6.156  16.727  1.00  0.00     0.177 HD
ENDBRANCH  10  11
TORSDOF 1
ENDMDL
MODEL 5
REMARK VINA RESULT: -4.681924680      1.171      2.873
REMARK  1 active torsions:
REMARK  status: ('A' for Active; 'I' for Inactive)
REMARK    1  A    between atoms: N3_10  and  N4_11 
ROOT
HETATM    1  N1  UNL     1       7.162   6.371  17.689  1.00  0.00    -0.080 NA
HETATM    2  C1  UNL     1       7.433   7.325  16.701  1.00  0.00     0.147 A 
HETATM    3  C2  UNL     1       8.590   8.080  16.777  1.00  0.00     0.121 A 
HETATM    4  C3  UNL     1       8.827   9.011  15.789  1.00  0.00     0.252 A 
HETATM    5  O1  UNL     1       9.859   9.722  15.810  1.00  0.00    -0.268 OA
HETATM    6  N2  UNL     1       7.928   9.152  14.789  1.00  0.00    -0.274 N 
ATOM      7  H2  UNL     1       8.095   9.838  14.054  1.00  0.00     0.173 HD
HETATM    8  C4  UNL     1       6.815   8.396  14.753  1.00  0.00     0.349 A 
HETATM    9  O2  UNL     1       5.989   8.534  13.821  1.00  0.00    -0.244 OA
HETATM   10  N3  UNL     1       6.536   7.467  15.700  1.00  0.00    -0.198 N 
ENDROOT
BRANCH  10  11
HETATM   11  N4  UNL     1       5.369   6.708  15.620  1.00  0.00    -0.333 N 
ATOM     12  H42 UNL     1       4.549   7.071  15.134  1.00  0.00     0.177 HD
ATOM     13  H41 UNL     1       5.286   5.780  16.035  1.00  0.00     0.177 HD
ENDBRANCH  10  11
TORSDOF 1
ENDMDL
