MODEL 1
REMARK VINA RESULT: -5.423707342      0.000      0.000
REMARK  2 active torsions:
REMARK  status: ('A' for Active; 'I' for Inactive)
REMARK    1  A    between atoms: N1_1  and  C1_4 
REMARK       I    between atoms: N4_10  and  C3_11 
REMARK       I    between atoms: C3_11  and  N5_13 
REMARK    2  A    between atoms: N5_13  and  N6_15 
ROOT
HETATM    1  C1  UNL     1       7.962   7.977  14.874  1.00  0.00     0.702 A 
HETATM    2  N2  UNL     1       7.981   6.947  15.725  1.00  0.00    -0.185 N 
ATOM      3  H2  UNL     1       8.825   6.500  16.084  1.00  0.00     0.185 HD
HETATM    4  C2  UNL     1       6.736   6.589  16.035  1.00  0.00     0.216 A 
HETATM    5  N3  UNL     1       5.941   7.424  15.357  1.00  0.00    -0.270 N 
ATOM      6  H3  UNL     1       4.922   7.410  15.382  1.00  0.00     0.189 HD
HETATM    7  N4  UNL     1       6.685   8.285  14.637  1.00  0.00    -0.030 N 
HETATM    8  C3  UNL     1       6.143   9.296  13.809  1.00  0.00     0.374 C 
HETATM    9  O1  UNL     1       4.867   9.377  13.759  1.00  0.00    -0.243 OA
HETATM   10  N5  UNL     1       6.893  10.205  13.049  1.00  0.00    -0.256 N 
ATOM     11  H5  UNL     1       7.912  10.159  13.074  1.00  0.00     0.191 HD
ENDROOT
BRANCH   1  12
HETATM   12  N1  UNL     1       9.025   8.508  14.421  1.00  0.00    -0.233 N 
ATOM     13  H12 UNL     1       9.704   8.142  13.754  1.00  0.00     0.174 HD
ATOM     14  H11 UNL     1       9.336   9.438  14.703  1.00  0.00     0.174 HD
ENDBRANCH   1  12
BRANCH  10  15
HETATM   15  N6  UNL     1       6.256  11.191  12.245  1.00  0.00    -0.341 N 
ATOM     16  H62 UNL     1       5.864  12.014  12.703  1.00  0.00     0.177 HD
ATOM     17  H61 UNL     1       6.191  11.083  11.233  1.00  0.00     0.177 HD
ENDBRANCH  10  15
TORSDOF 2
ENDMDL
MODEL 2
REMARK VINA RESULT: -4.657930178      1.819      3.713
REMARK  2 active torsions:
REMARK  status: ('A' for Active; 'I' for Inactive)
REMARK    1  A    between atoms: N1_1  and  C1_4 
REMARK       I    between atoms: N4_10  and  C3_11 
REMARK       I    between atoms: C3_11  and  N5_13 
REMARK    2  A    between atoms: N5_13  and  N6_15 
ROOT
HETATM    1  C1  UNL     1       5.812  10.252  13.018  1.00  0.00     0.702 A 
HETATM    2  N2  UNL     1       4.550  10.658  12.851  1.00  0.00    -0.185 N 
ATOM      3  H2  UNL     1       4.225  11.262  12.096  1.00  0.00     0.185 HD
HETATM    4  C2  UNL     1       3.780  10.159  13.816  1.00  0.00     0.216 A 
HETATM    5  N3  UNL     1       4.594   9.431  14.587  1.00  0.00    -0.270 N 
ATOM      6  H3  UNL     1       4.306   8.914  15.418  1.00  0.00     0.189 HD
HETATM    7  N4  UNL     1       5.850   9.480  14.106  1.00  0.00    -0.030 N 
HETATM    8  C3  UNL     1       6.950   8.813  14.697  1.00  0.00     0.374 C 
HETATM    9  O1  UNL     1       6.709   8.129  15.751  1.00  0.00    -0.243 OA
HETATM   10  N5  UNL     1       8.267   8.847  14.217  1.00  0.00    -0.256 N 
ATOM     11  H5  UNL     1       8.482   9.387  13.378  1.00  0.00     0.191 HD
ENDROOT
BRANCH   1  12
HETATM   12  N1  UNL     1       6.749  10.592  12.228  1.00  0.00    -0.233 N 
ATOM     13  H12 UNL     1       6.998  10.218  11.312  1.00  0.00     0.174 HD
ATOM     14  H11 UNL     1       7.406  11.341  12.447  1.00  0.00     0.174 HD
ENDBRANCH   1  12
BRANCH  10  15
HETATM   15  N6  UNL     1       9.309   8.141  14.881  1.00  0.00    -0.341 N 
ATOM     16  H62 UNL     1       9.536   7.199  14.564  1.00  0.00     0.177 HD
ATOM     17  H61 UNL     1       9.820   8.564  15.657  1.00  0.00     0.177 HD
ENDBRANCH  10  15
TORSDOF 2
ENDMDL
MODEL 3
REMARK VINA RESULT: -4.532855153      5.870      7.011
REMARK  2 active torsions:
REMARK  status: ('A' for Active; 'I' for Inactive)
REMARK    1  A    between atoms: N1_1  and  C1_4 
REMARK       I    between atoms: N4_10  and  C3_11 
REMARK       I    between atoms: C3_11  and  N5_13 
REMARK    2  A    between atoms: N5_13  and  N6_15 
ROOT
HETATM    1  C1  UNL     1       5.010  15.397  16.879  1.00  0.00     0.702 A 
HETATM    2  N2  UNL     1       4.538  15.997  17.975  1.00  0.00    -0.185 N 
ATOM      3  H2  UNL     1       4.958  16.811  18.424  1.00  0.00     0.185 HD
HETATM    4  C2  UNL     1       3.438  15.375  18.397  1.00  0.00     0.216 A 
HETATM    5  N3  UNL     1       3.237  14.374  17.534  1.00  0.00    -0.270 N 
ATOM      6  H3  UNL     1       2.467  13.706  17.582  1.00  0.00     0.189 HD
HETATM    7  N4  UNL     1       4.200  14.376  16.592  1.00  0.00    -0.030 N 
HETATM    8  C3  UNL     1       4.271  13.441  15.533  1.00  0.00     0.374 C 
HETATM    9  O1  UNL     1       3.354  12.550  15.488  1.00  0.00    -0.243 OA
HETATM   10  N5  UNL     1       5.262  13.420  14.541  1.00  0.00    -0.256 N 
ATOM     11  H5  UNL     1       6.003  14.121  14.556  1.00  0.00     0.191 HD
ENDROOT
BRANCH   1  12
HETATM   12  N1  UNL     1       6.057  15.798  16.278  1.00  0.00    -0.233 N 
ATOM     13  H12 UNL     1       6.831  15.261  15.886  1.00  0.00     0.174 HD
ATOM     14  H11 UNL     1       6.248  16.786  16.111  1.00  0.00     0.174 HD
ENDBRANCH   1  12
BRANCH  10  15
HETATM   15  N6  UNL     1       5.249  12.438  13.511  1.00  0.00    -0.341 N 
ATOM     16  H62 UNL     1       5.000  12.727  12.565  1.00  0.00     0.177 HD
ATOM     17  H61 UNL     1       5.484  11.465  13.709  1.00  0.00     0.177 HD
ENDBRANCH  10  15
TORSDOF 2
ENDMDL
MODEL 4
REMARK VINA RESULT: -4.501788780      1.675      3.807
REMARK  2 active torsions:
REMARK  status: ('A' for Active; 'I' for Inactive)
REMARK    1  A    between atoms: N1_1  and  C1_4 
REMARK       I    between atoms: N4_10  and  C3_11 
REMARK       I    between atoms: C3_11  and  N5_13 
REMARK    2  A    between atoms: N5_13  and  N6_15 
ROOT
HETATM    1  C1  UNL     1       7.291   9.153  14.673  1.00  0.00     0.702 A 
HETATM    2  N2  UNL     1       6.890   9.929  13.662  1.00  0.00    -0.185 N 
ATOM      3  H2  UNL     1       7.409  10.727  13.295  1.00  0.00     0.185 HD
HETATM    4  C2  UNL     1       5.713   9.507  13.203  1.00  0.00     0.216 A 
HETATM    5  N3  UNL     1       5.392   8.448  13.953  1.00  0.00    -0.270 N 
ATOM      6  H3  UNL     1       4.541   7.895  13.851  1.00  0.00     0.189 HD
HETATM    7  N4  UNL     1       6.357   8.219  14.864  1.00  0.00    -0.030 N 
HETATM    8  C3  UNL     1       6.317   7.168  15.811  1.00  0.00     0.374 C 
HETATM    9  O1  UNL     1       5.292   6.403  15.779  1.00  0.00    -0.243 OA
HETATM   10  N5  UNL     1       7.307   6.907  16.769  1.00  0.00    -0.256 N 
ATOM     11  H5  UNL     1       8.133   7.504  16.813  1.00  0.00     0.191 HD
ENDROOT
BRANCH   1  12
HETATM   12  N1  UNL     1       8.388   9.346  15.288  1.00  0.00    -0.233 N 
ATOM     13  H12 UNL     1       9.266   9.738  14.948  1.00  0.00     0.174 HD
ATOM     14  H11 UNL     1       8.513   9.107  16.272  1.00  0.00     0.174 HD
ENDBRANCH   1  12
BRANCH  10  15
HETATM   15  N6  UNL     1       7.178   5.823  17.682  1.00  0.00    -0.341 N 
ATOM     16  H62 UNL     1       7.972   5.195  17.806  1.00  0.00     0.177 HD
ATOM     17  H61 UNL     1       6.314   5.673  18.202  1.00  0.00     0.177 HD
ENDBRANCH  10  15
TORSDOF 2
ENDMDL
MODEL 5
REMARK VINA RESULT: -4.476450555      6.797      7.429
REMARK  2 active torsions:
REMARK  status: ('A' for Active; 'I' for Inactive)
REMARK    1  A    between atoms: N1_1  and  C1_4 
REMARK       I    between atoms: N4_10  and  C3_11 
REMARK       I    between atoms: C3_11  and  N5_13 
REMARK    2  A    between atoms: N5_13  and  N6_15 
ROOT
HETATM    1  C1  UNL     1       3.531  14.716  18.113  1.00  0.00     0.702 A 
HETATM    2  N2  UNL     1       2.470  14.011  18.513  1.00  0.00    -0.185 N 
ATOM      3  H2  UNL     1       1.969  14.153  19.390  1.00  0.00     0.185 HD
HETATM    4  C2  UNL     1       2.160  13.094  17.597  1.00  0.00     0.216 A 
HETATM    5  N3  UNL     1       3.056  13.247  16.616  1.00  0.00    -0.270 N 
ATOM      6  H3  UNL     1       3.089  12.691  15.762  1.00  0.00     0.189 HD
HETATM    7  N4  UNL     1       3.908  14.245  16.922  1.00  0.00    -0.030 N 
HETATM    8  C3  UNL     1       4.974  14.656  16.088  1.00  0.00     0.374 C 
HETATM    9  O1  UNL     1       5.117  14.028  14.983  1.00  0.00    -0.243 OA
HETATM   10  N5  UNL     1       5.875  15.690  16.382  1.00  0.00    -0.256 N 
ATOM     11  H5  UNL     1       5.780  16.205  17.257  1.00  0.00     0.191 HD
ENDROOT
BRANCH   1  12
HETATM   12  N1  UNL     1       4.029  15.655  18.811  1.00  0.00    -0.233 N 
ATOM     13  H12 UNL     1       3.766  16.640  18.863  1.00  0.00     0.174 HD
ATOM     14  H11 UNL     1       4.813  15.509  19.446  1.00  0.00     0.174 HD
ENDBRANCH   1  12
BRANCH  10  15
HETATM   15  N6  UNL     1       6.919  16.034  15.477  1.00  0.00    -0.341 N 
ATOM     16  H62 UNL     1       7.529  15.292  15.135  1.00  0.00     0.177 HD
ATOM     17  H61 UNL     1       7.056  16.998  15.174  1.00  0.00     0.177 HD
ENDBRANCH  10  15
TORSDOF 2
ENDMDL
