MODEL 1
REMARK VINA RESULT: -5.050587454      0.000      0.000
REMARK  5 active torsions:
REMARK  status: ('A' for Active; 'I' for Inactive)
REMARK    1  A    between atoms: N1_1  and  O1_4 
REMARK    2  A    between atoms: O1_4  and  C1_5 
REMARK    3  A    between atoms: C1_5  and  N2_6 
REMARK    4  A    between atoms: C1_5  and  N3_10 
REMARK    5  A    between atoms: N3_10  and  C2_12 
ROOT
HETATM    1  N3  UNL     1       7.688   9.221  14.311  1.00  0.00    -0.170 N 
ATOM      2  H3  UNL     1       8.495   9.454  13.732  1.00  0.00     0.182 HD
ENDROOT
BRANCH   1   3
HETATM    3  C1  UNL     1       6.382   9.510  13.787  1.00  0.00     0.463 C 
BRANCH   3   4
HETATM    4  O1  UNL     1       5.533  10.097  14.721  1.00  0.00    -0.232 OA
BRANCH   4   5
HETATM    5  N1  UNL     1       5.277  11.395  14.398  1.00  0.00    -0.307 N 
ATOM      6  H12 UNL     1       5.951  12.007  13.936  1.00  0.00     0.184 HD
ATOM      7  H11 UNL     1       4.334  11.662  14.679  1.00  0.00     0.184 HD
ENDBRANCH   4   5
ENDBRANCH   3   4
BRANCH   3   8
HETATM    8  N2  UNL     1       6.490  10.418  12.673  1.00  0.00    -0.032 N 
ATOM      9  H23 UNL     1       5.638  10.955  12.513  1.00  0.00     0.279 HD
ATOM     10  H22 UNL     1       7.110  11.206  12.859  1.00  0.00     0.279 HD
ATOM     11  H21 UNL     1       6.774   9.871  11.861  1.00  0.00     0.279 HD
ENDBRANCH   3   8
ENDBRANCH   1   3
BRANCH   1  12
HETATM   12  C2  UNL     1       7.909   8.693  15.452  1.00  0.00     0.710 A 
HETATM   13  N4  UNL     1       9.097   8.617  16.089  1.00  0.00    -0.118 N 
HETATM   14  N5  UNL     1       8.863   7.999  17.224  1.00  0.00    -0.212 N 
ATOM     15  H4  UNL     1       9.996   8.968  15.756  1.00  0.00     0.207 HD
HETATM   16  N6  UNL     1       7.575   7.690  17.310  1.00  0.00     0.009 NA
ATOM     17  H5  UNL     1       9.566   7.788  17.932  1.00  0.00     0.206 HD
HETATM   18  N7  UNL     1       6.959   8.115  16.211  1.00  0.00    -0.114 N 
ATOM     19  H7  UNL     1       5.968   8.022  15.988  1.00  0.00     0.203 HD
ENDBRANCH   1  12
TORSDOF 5
ENDMDL
MODEL 2
REMARK VINA RESULT: -4.950380875      1.858      4.153
REMARK  5 active torsions:
REMARK  status: ('A' for Active; 'I' for Inactive)
REMARK    1  A    between atoms: N1_1  and  O1_4 
REMARK    2  A    between atoms: O1_4  and  C1_5 
REMARK    3  A    between atoms: C1_5  and  N2_6 
REMARK    4  A    between atoms: C1_5  and  N3_10 
REMARK    5  A    between atoms: N3_10  and  C2_12 
ROOT
HETATM    1  N3  UNL     1       6.941   8.141  15.823  1.00  0.00    -0.170 N 
ATOM      2  H3  UNL     1       6.743   7.158  15.636  1.00  0.00     0.182 HD
ENDROOT
BRANCH   1   3
HETATM    3  C1  UNL     1       7.679   8.460  17.014  1.00  0.00     0.463 C 
BRANCH   3   4
HETATM    4  O1  UNL     1       7.616   7.463  17.983  1.00  0.00    -0.232 OA
BRANCH   4   5
HETATM    5  N1  UNL     1       7.204   6.283  17.443  1.00  0.00    -0.307 N 
ATOM      6  H12 UNL     1       7.163   6.104  16.439  1.00  0.00     0.184 HD
ATOM      7  H11 UNL     1       6.946   5.618  18.172  1.00  0.00     0.184 HD
ENDBRANCH   4   5
ENDBRANCH   3   4
BRANCH   3   8
HETATM    8  N2  UNL     1       9.070   8.659  16.692  1.00  0.00    -0.032 N 
ATOM      9  H23 UNL     1       9.683   7.968  17.125  1.00  0.00     0.279 HD
ATOM     10  H22 UNL     1       9.290   8.439  15.721  1.00  0.00     0.279 HD
ATOM     11  H21 UNL     1       9.307   9.617  16.947  1.00  0.00     0.279 HD
ENDBRANCH   3   8
ENDBRANCH   1   3
BRANCH   1  12
HETATM   12  C2  UNL     1       6.516   9.003  14.984  1.00  0.00     0.710 A 
HETATM   13  N4  UNL     1       7.172   9.460  13.895  1.00  0.00    -0.118 N 
HETATM   14  N5  UNL     1       6.369  10.327  13.323  1.00  0.00    -0.212 N 
ATOM     15  H4  UNL     1       8.104   9.187  13.580  1.00  0.00     0.207 HD
HETATM   16  N6  UNL     1       5.242  10.423  14.019  1.00  0.00     0.009 NA
ATOM     17  H5  UNL     1       6.579  10.849  12.472  1.00  0.00     0.206 HD
HETATM   18  N7  UNL     1       5.314   9.603  15.063  1.00  0.00    -0.114 N 
ATOM     19  H7  UNL     1       4.602   9.457  15.779  1.00  0.00     0.203 HD
ENDBRANCH   1  12
TORSDOF 5
ENDMDL
MODEL 3
REMARK VINA RESULT: -4.913934311      1.255      1.632
REMARK  5 active torsions:
REMARK  status: ('A' for Active; 'I' for Inactive)
REMARK    1  A    between atoms: N1_1  and  O1_4 
REMARK    2  A    between atoms: O1_4  and  C1_5 
REMARK    3  A    between atoms: C1_5  and  N2_6 
REMARK    4  A    between atoms: C1_5  and  N3_10 
REMARK    5  A    between atoms: N3_10  and  C2_12 
ROOT
HETATM    1  N3  UNL     1       6.570   8.592  14.244  1.00  0.00    -0.170 N 
ATOM      2  H3  UNL     1       6.297   7.612  14.169  1.00  0.00     0.182 HD
ENDROOT
BRANCH   1   3
HETATM    3  C1  UNL     1       5.694   9.577  13.673  1.00  0.00     0.463 C 
BRANCH   3   4
HETATM    4  O1  UNL     1       5.074  10.380  14.626  1.00  0.00    -0.232 OA
BRANCH   4   5
HETATM    5  N1  UNL     1       5.210  11.699  14.315  1.00  0.00    -0.307 N 
ATOM      6  H12 UNL     1       4.443  12.370  14.348  1.00  0.00     0.184 HD
ATOM      7  H11 UNL     1       6.171  11.913  14.049  1.00  0.00     0.184 HD
ENDBRANCH   4   5
ENDBRANCH   3   4
BRANCH   3   8
HETATM    8  N2  UNL     1       6.437  10.447  12.796  1.00  0.00    -0.032 N 
ATOM      9  H23 UNL     1       5.926  10.689  11.947  1.00  0.00     0.279 HD
ATOM     10  H22 UNL     1       6.538  11.392  13.164  1.00  0.00     0.279 HD
ATOM     11  H21 UNL     1       7.332   9.995  12.607  1.00  0.00     0.279 HD
ENDBRANCH   3   8
ENDBRANCH   1   3
BRANCH   1  12
HETATM   12  C2  UNL     1       7.667   8.859  14.840  1.00  0.00     0.710 A 
HETATM   13  N4  UNL     1       7.812   9.562  15.984  1.00  0.00    -0.118 N 
HETATM   14  N5  UNL     1       9.101   9.591  16.232  1.00  0.00    -0.212 N 
ATOM     15  H4  UNL     1       7.070   9.985  16.543  1.00  0.00     0.207 HD
HETATM   16  N6  UNL     1       9.757   8.934  15.283  1.00  0.00     0.009 NA
ATOM     17  H5  UNL     1       9.534  10.051  17.034  1.00  0.00     0.206 HD
HETATM   18  N7  UNL     1       8.878   8.468  14.401  1.00  0.00    -0.114 N 
ATOM     19  H7  UNL     1       9.080   7.923  13.562  1.00  0.00     0.203 HD
ENDBRANCH   1  12
TORSDOF 5
ENDMDL
MODEL 4
REMARK VINA RESULT: -4.880776815      1.767      2.093
REMARK  5 active torsions:
REMARK  status: ('A' for Active; 'I' for Inactive)
REMARK    1  A    between atoms: N1_1  and  O1_4 
REMARK    2  A    between atoms: O1_4  and  C1_5 
REMARK    3  A    between atoms: C1_5  and  N2_6 
REMARK    4  A    between atoms: C1_5  and  N3_10 
REMARK    5  A    between atoms: N3_10  and  C2_12 
ROOT
HETATM    1  N3  UNL     1       6.605   9.906  13.919  1.00  0.00    -0.170 N 
ATOM      2  H3  UNL     1       6.359  10.635  14.589  1.00  0.00     0.182 HD
ENDROOT
BRANCH   1   3
HETATM    3  C1  UNL     1       6.174  10.075  12.559  1.00  0.00     0.463 C 
BRANCH   3   4
HETATM    4  O1  UNL     1       4.813   9.840  12.380  1.00  0.00    -0.232 OA
BRANCH   4   5
HETATM    5  N1  UNL     1       4.548   9.463  11.099  1.00  0.00    -0.307 N 
ATOM      6  H12 UNL     1       3.606   9.391  10.713  1.00  0.00     0.184 HD
ATOM      7  H11 UNL     1       5.410   9.267  10.591  1.00  0.00     0.184 HD
ENDBRANCH   4   5
ENDBRANCH   3   4
BRANCH   3   8
HETATM    8  N2  UNL     1       6.438  11.423  12.123  1.00  0.00    -0.032 N 
ATOM      9  H23 UNL     1       6.729  11.477  11.147  1.00  0.00     0.279 HD
ATOM     10  H22 UNL     1       5.592  11.988  12.040  1.00  0.00     0.279 HD
ATOM     11  H21 UNL     1       7.122  11.822  12.766  1.00  0.00     0.279 HD
ENDBRANCH   3   8
ENDBRANCH   1   3
BRANCH   1  12
HETATM   12  C2  UNL     1       7.273   8.906  14.346  1.00  0.00     0.710 A 
HETATM   13  N4  UNL     1       8.612   8.844  14.512  1.00  0.00    -0.118 N 
HETATM   14  N5  UNL     1       8.866   7.639  14.969  1.00  0.00    -0.212 N 
ATOM     15  H4  UNL     1       9.290   9.583  14.321  1.00  0.00     0.207 HD
HETATM   16  N6  UNL     1       7.734   6.956  15.090  1.00  0.00     0.009 NA
ATOM     17  H5  UNL     1       9.795   7.282  15.197  1.00  0.00     0.206 HD
HETATM   18  N7  UNL     1       6.725   7.731  14.705  1.00  0.00    -0.114 N 
ATOM     19  H7  UNL     1       5.735   7.484  14.686  1.00  0.00     0.203 HD
ENDBRANCH   1  12
TORSDOF 5
ENDMDL
MODEL 5
REMARK VINA RESULT: -4.839232750      1.634      4.182
REMARK  5 active torsions:
REMARK  status: ('A' for Active; 'I' for Inactive)
REMARK    1  A    between atoms: N1_1  and  O1_4 
REMARK    2  A    between atoms: O1_4  and  C1_5 
REMARK    3  A    between atoms: C1_5  and  N2_6 
REMARK    4  A    between atoms: C1_5  and  N3_10 
REMARK    5  A    between atoms: N3_10  and  C2_12 
ROOT
HETATM    1  N3  UNL     1       7.106   8.966  15.821  1.00  0.00    -0.170 N 
ATOM      2  H3  UNL     1       6.539   8.972  16.670  1.00  0.00     0.182 HD
ENDROOT
BRANCH   1   3
HETATM    3  C1  UNL     1       8.365   8.277  15.861  1.00  0.00     0.463 C 
BRANCH   3   4
HETATM    4  O1  UNL     1       9.427   9.043  15.387  1.00  0.00    -0.232 OA
BRANCH   4   5
HETATM    5  N1  UNL     1      10.072   8.405  14.372  1.00  0.00    -0.307 N 
ATOM      6  H12 UNL     1      10.450   7.460  14.447  1.00  0.00     0.184 HD
ATOM      7  H11 UNL     1      10.123   8.997  13.543  1.00  0.00     0.184 HD
ENDBRANCH   4   5
ENDBRANCH   3   4
BRANCH   3   8
HETATM    8  N2  UNL     1       8.678   7.904  17.218  1.00  0.00    -0.032 N 
ATOM      9  H23 UNL     1       9.680   7.895  17.408  1.00  0.00     0.279 HD
ATOM     10  H22 UNL     1       8.421   8.619  17.898  1.00  0.00     0.279 HD
ATOM     11  H21 UNL     1       8.231   7.005  17.396  1.00  0.00     0.279 HD
ENDBRANCH   3   8
ENDBRANCH   1   3
BRANCH   1  12
HETATM   12  C2  UNL     1       6.646   9.573  14.796  1.00  0.00     0.710 A 
HETATM   13  N4  UNL     1       7.176   9.571  13.553  1.00  0.00    -0.118 N 
HETATM   14  N5  UNL     1       6.384  10.318  12.819  1.00  0.00    -0.212 N 
ATOM     15  H4  UNL     1       8.021   9.088  13.247  1.00  0.00     0.207 HD
HETATM   16  N6  UNL     1       5.386  10.781  13.563  1.00  0.00     0.009 NA
ATOM     17  H5  UNL     1       6.516  10.514  11.827  1.00  0.00     0.206 HD
HETATM   18  N7  UNL     1       5.531  10.327  14.804  1.00  0.00    -0.114 N 
ATOM     19  H7  UNL     1       4.921  10.512  15.600  1.00  0.00     0.203 HD
ENDBRANCH   1  12
TORSDOF 5
ENDMDL
