MODEL 1
REMARK VINA RESULT: -5.790794890      0.000      0.000
REMARK  2 active torsions:
REMARK  status: ('A' for Active; 'I' for Inactive)
REMARK       I    between atoms: C2_2  and  N1_4 
REMARK    1  A    between atoms: C4_11  and  N4_12 
REMARK    2  A    between atoms: N4_12  and  N5_14 
ROOT
HETATM    1  C1  UNL     1       5.799   6.129  16.120  1.00  0.00     0.119 C 
HETATM    2  C2  UNL     1       6.369   7.160  15.216  1.00  0.00     0.244 C 
HETATM    3  O1  UNL     1       5.916   7.273  14.064  1.00  0.00    -0.272 OA
HETATM    4  N1  UNL     1       7.418   7.988  15.701  1.00  0.00    -0.060 N 
HETATM    5  C3  UNL     1       7.986   7.965  16.908  1.00  0.00     0.363 A 
HETATM    6  O2  UNL     1       7.672   7.175  17.847  1.00  0.00    -0.244 OA
HETATM    7  N2  UNL     1       8.948   8.902  16.995  1.00  0.00    -0.236 N 
ATOM      8  H2  UNL     1       9.536   9.097  17.805  1.00  0.00     0.192 HD
HETATM    9  N3  UNL     1       8.984   9.520  15.826  1.00  0.00    -0.126 N 
ATOM     10  H3  UNL     1       9.612  10.284  15.576  1.00  0.00     0.206 HD
HETATM   11  C4  UNL     1       8.040   8.966  15.011  1.00  0.00     0.724 A 
ENDROOT
BRANCH  11  12
HETATM   12  N4  UNL     1       7.771   9.297  13.796  1.00  0.00    -0.137 N 
ATOM     13  H4  UNL     1       8.389   8.979  13.049  1.00  0.00     0.205 HD
BRANCH  12  14
HETATM   14  N5  UNL     1       6.669  10.072  13.473  1.00  0.00    -0.331 N 
ATOM     15  H52 UNL     1       6.250  10.638  14.210  1.00  0.00     0.177 HD
ATOM     16  H51 UNL     1       6.276  10.087  12.531  1.00  0.00     0.177 HD
ENDBRANCH  12  14
ENDBRANCH  11  12
TORSDOF 2
ENDMDL
MODEL 2
REMARK VINA RESULT: -5.361565757      1.085      1.357
REMARK  2 active torsions:
REMARK  status: ('A' for Active; 'I' for Inactive)
REMARK       I    between atoms: C2_2  and  N1_4 
REMARK    1  A    between atoms: C4_11  and  N4_12 
REMARK    2  A    between atoms: N4_12  and  N5_14 
ROOT
HETATM    1  C1  UNL     1       5.846   6.168  15.792  1.00  0.00     0.119 C 
HETATM    2  C2  UNL     1       6.832   7.000  15.058  1.00  0.00     0.244 C 
HETATM    3  O1  UNL     1       6.767   7.065  13.819  1.00  0.00    -0.272 OA
HETATM    4  N1  UNL     1       7.824   7.697  15.801  1.00  0.00    -0.060 N 
HETATM    5  C3  UNL     1       7.998   7.707  17.123  1.00  0.00     0.363 A 
HETATM    6  O2  UNL     1       7.284   7.076  17.958  1.00  0.00    -0.244 OA
HETATM    7  N2  UNL     1       9.045   8.485  17.456  1.00  0.00    -0.236 N 
ATOM      8  H2  UNL     1       9.393   8.666  18.397  1.00  0.00     0.192 HD
HETATM    9  N3  UNL     1       9.534   8.968  16.327  1.00  0.00    -0.126 N 
ATOM     10  H3  UNL     1      10.335   9.594  16.244  1.00  0.00     0.206 HD
HETATM   11  C4  UNL     1       8.788   8.489  15.289  1.00  0.00     0.724 A 
ENDROOT
BRANCH  11  12
HETATM   12  N4  UNL     1       8.953   8.734  14.035  1.00  0.00    -0.137 N 
ATOM     13  H4  UNL     1       8.166   9.091  13.494  1.00  0.00     0.205 HD
BRANCH  12  14
HETATM   14  N5  UNL     1      10.166   8.525  13.400  1.00  0.00    -0.331 N 
ATOM     15  H52 UNL     1      11.019   8.639  13.947  1.00  0.00     0.177 HD
ATOM     16  H51 UNL     1      10.223   8.265  12.414  1.00  0.00     0.177 HD
ENDBRANCH  12  14
ENDBRANCH  11  12
TORSDOF 2
ENDMDL
MODEL 3
REMARK VINA RESULT: -5.199850316      1.870      2.722
REMARK  2 active torsions:
REMARK  status: ('A' for Active; 'I' for Inactive)
REMARK       I    between atoms: C2_2  and  N1_4 
REMARK    1  A    between atoms: C4_11  and  N4_12 
REMARK    2  A    between atoms: N4_12  and  N5_14 
ROOT
HETATM    1  C1  UNL     1       4.934   8.569  14.335  1.00  0.00     0.119 C 
HETATM    2  C2  UNL     1       6.156   9.004  15.057  1.00  0.00     0.244 C 
HETATM    3  O1  UNL     1       6.605  10.146  14.856  1.00  0.00    -0.272 OA
HETATM    4  N1  UNL     1       6.776   8.095  15.959  1.00  0.00    -0.060 N 
HETATM    5  C3  UNL     1       6.394   6.854  16.259  1.00  0.00     0.363 A 
HETATM    6  O2  UNL     1       5.385   6.263  15.772  1.00  0.00    -0.244 OA
HETATM    7  N2  UNL     1       7.233   6.305  17.156  1.00  0.00    -0.236 N 
ATOM      8  H2  UNL     1       7.171   5.368  17.554  1.00  0.00     0.192 HD
HETATM    9  N3  UNL     1       8.155   7.216  17.422  1.00  0.00    -0.126 N 
ATOM     10  H3  UNL     1       8.936   7.102  18.068  1.00  0.00     0.206 HD
HETATM   11  C4  UNL     1       7.885   8.334  16.688  1.00  0.00     0.724 A 
ENDROOT
BRANCH  11  12
HETATM   12  N4  UNL     1       8.555   9.434  16.673  1.00  0.00    -0.137 N 
ATOM     13  H4  UNL     1       8.365  10.138  17.387  1.00  0.00     0.205 HD
BRANCH  12  14
HETATM   14  N5  UNL     1       9.525   9.691  15.717  1.00  0.00    -0.331 N 
ATOM     15  H52 UNL     1       9.408   9.275  14.794  1.00  0.00     0.177 HD
ATOM     16  H51 UNL     1      10.336  10.277  15.914  1.00  0.00     0.177 HD
ENDBRANCH  12  14
ENDBRANCH  11  12
TORSDOF 2
ENDMDL
MODEL 4
REMARK VINA RESULT: -5.043355044      1.668      2.786
REMARK  2 active torsions:
REMARK  status: ('A' for Active; 'I' for Inactive)
REMARK       I    between atoms: C2_2  and  N1_4 
REMARK    1  A    between atoms: C4_11  and  N4_12 
REMARK    2  A    between atoms: N4_12  and  N5_14 
ROOT
HETATM    1  C1  UNL     1       5.282   6.273  15.899  1.00  0.00     0.119 C 
HETATM    2  C2  UNL     1       6.681   6.598  15.522  1.00  0.00     0.244 C 
HETATM    3  O1  UNL     1       7.585   5.789  15.794  1.00  0.00    -0.272 OA
HETATM    4  N1  UNL     1       6.941   7.830  14.861  1.00  0.00    -0.060 N 
HETATM    5  C3  UNL     1       6.064   8.774  14.517  1.00  0.00     0.363 A 
HETATM    6  O2  UNL     1       4.817   8.724  14.733  1.00  0.00    -0.244 OA
HETATM    7  N2  UNL     1       6.688   9.798  13.906  1.00  0.00    -0.236 N 
ATOM      8  H2  UNL     1       6.252  10.646  13.544  1.00  0.00     0.192 HD
HETATM    9  N3  UNL     1       7.974   9.492  13.867  1.00  0.00    -0.126 N 
ATOM     10  H3  UNL     1       8.711  10.070  13.464  1.00  0.00     0.206 HD
HETATM   11  C4  UNL     1       8.148   8.273  14.455  1.00  0.00     0.724 A 
ENDROOT
BRANCH  11  12
HETATM   12  N4  UNL     1       9.257   7.636  14.609  1.00  0.00    -0.137 N 
ATOM     13  H4  UNL     1       9.317   6.914  15.327  1.00  0.00     0.205 HD
BRANCH  12  14
HETATM   14  N5  UNL     1      10.372   7.902  13.830  1.00  0.00    -0.331 N 
ATOM     15  H52 UNL     1      10.256   7.913  12.817  1.00  0.00     0.177 HD
ATOM     16  H51 UNL     1      11.288   8.084  14.241  1.00  0.00     0.177 HD
ENDBRANCH  12  14
ENDBRANCH  11  12
TORSDOF 2
ENDMDL
MODEL 5
REMARK VINA RESULT: -4.946376018      6.776      7.204
REMARK  2 active torsions:
REMARK  status: ('A' for Active; 'I' for Inactive)
REMARK       I    between atoms: C2_2  and  N1_4 
REMARK    1  A    between atoms: C4_11  and  N4_12 
REMARK    2  A    between atoms: N4_12  and  N5_14 
ROOT
HETATM    1  C1  UNL     1       2.405  12.408  16.078  1.00  0.00     0.119 C 
HETATM    2  C2  UNL     1       3.642  13.136  15.702  1.00  0.00     0.244 C 
HETATM    3  O1  UNL     1       4.291  12.758  14.710  1.00  0.00    -0.272 OA
HETATM    4  N1  UNL     1       4.047  14.247  16.492  1.00  0.00    -0.060 N 
HETATM    5  C3  UNL     1       3.443  14.747  17.570  1.00  0.00     0.363 A 
HETATM    6  O2  UNL     1       2.375  14.297  18.082  1.00  0.00    -0.244 OA
HETATM    7  N2  UNL     1       4.126  15.803  18.048  1.00  0.00    -0.236 N 
ATOM      8  H2  UNL     1       3.882  16.368  18.862  1.00  0.00     0.192 HD
HETATM    9  N3  UNL     1       5.173  15.968  17.258  1.00  0.00    -0.126 N 
ATOM     10  H3  UNL     1       5.887  16.690  17.358  1.00  0.00     0.206 HD
HETATM   11  C4  UNL     1       5.140  15.011  16.286  1.00  0.00     0.724 A 
ENDROOT
BRANCH  11  12
HETATM   12  N4  UNL     1       5.988  14.842  15.331  1.00  0.00    -0.137 N 
ATOM     13  H4  UNL     1       5.766  14.186  14.582  1.00  0.00     0.205 HD
BRANCH  12  14
HETATM   14  N5  UNL     1       7.193  15.526  15.290  1.00  0.00    -0.331 N 
ATOM     15  H52 UNL     1       7.593  15.736  14.376  1.00  0.00     0.177 HD
ATOM     16  H51 UNL     1       7.679  15.816  16.139  1.00  0.00     0.177 HD
ENDBRANCH  12  14
ENDBRANCH  11  12
TORSDOF 2
ENDMDL
