MODEL 1
REMARK VINA RESULT: -5.016350135      0.000      0.000
REMARK  3 active torsions:
REMARK  status: ('A' for Active; 'I' for Inactive)
REMARK    1  A    between atoms: O1_1  and  C1_3 
REMARK    2  A    between atoms: C4_7  and  C5_8 
REMARK    3  A    between atoms: C5_8  and  C6_9 
ROOT
HETATM    1  C1  UNL     1      37.661  -3.685  10.115  1.00  0.00     0.142 C 
HETATM    2  C2  UNL     1      36.600  -4.711  10.052  1.00  0.00     0.199 C 
HETATM    3  O2  UNL     1      35.919  -4.966  11.197  1.00  0.00    -0.388 OA
HETATM    4  C3  UNL     1      36.418  -4.400  12.341  1.00  0.00     0.172 C 
HETATM    5  C4  UNL     1      36.449  -2.917  12.179  1.00  0.00     0.013 C 
HETATM    6  C7  UNL     1      37.423  -2.573  11.089  1.00  0.00     0.040 C 
ENDROOT
BRANCH   5   7
HETATM    7  C5  UNL     1      36.886  -2.260  13.466  1.00  0.00     0.017 C 
BRANCH   7   8
HETATM    8  C6  UNL     1      38.248  -1.614  13.338  1.00  0.00     0.086 C 
HETATM    9  S1  UNL     1      38.318  -0.260  14.576  1.00  0.00    -0.098 SA
ENDBRANCH   7   8
ENDBRANCH   5   7
BRANCH   1  10
HETATM   10  O1  UNL     1      37.757  -3.080   8.843  1.00  0.00    -0.393 OA
ATOM     11  H1  UNL     1      37.082  -2.413   8.785  1.00  0.00     0.210 HD
ENDBRANCH   1  10
TORSDOF 3
ENDMDL
MODEL 2
REMARK VINA RESULT: -5.014263144      1.045      1.223
REMARK  3 active torsions:
REMARK  status: ('A' for Active; 'I' for Inactive)
REMARK    1  A    between atoms: O1_1  and  C1_3 
REMARK    2  A    between atoms: C4_7  and  C5_8 
REMARK    3  A    between atoms: C5_8  and  C6_9 
ROOT
HETATM    1  C1  UNL     1      36.974  -4.700  10.424  1.00  0.00     0.142 C 
HETATM    2  C2  UNL     1      35.577  -4.810  10.889  1.00  0.00     0.199 C 
HETATM    3  O2  UNL     1      35.227  -4.069  11.971  1.00  0.00    -0.388 OA
HETATM    4  C3  UNL     1      36.250  -3.458  12.647  1.00  0.00     0.172 C 
HETATM    5  C4  UNL     1      36.974  -2.544  11.715  1.00  0.00     0.013 C 
HETATM    6  C7  UNL     1      37.623  -3.368  10.641  1.00  0.00     0.040 C 
ENDROOT
BRANCH   5   7
HETATM    7  C5  UNL     1      38.034  -1.770  12.461  1.00  0.00     0.017 C 
BRANCH   7   8
HETATM    8  C6  UNL     1      37.856  -1.866  13.961  1.00  0.00     0.086 C 
HETATM    9  S1  UNL     1      38.368  -0.252  14.667  1.00  0.00    -0.098 SA
ENDBRANCH   7   8
ENDBRANCH   5   7
BRANCH   1  10
HETATM   10  O1  UNL     1      36.986  -4.921   9.029  1.00  0.00    -0.393 OA
ATOM     11  H1  UNL     1      37.712  -4.430   8.662  1.00  0.00     0.210 HD
ENDBRANCH   1  10
TORSDOF 3
ENDMDL
MODEL 3
REMARK VINA RESULT: -4.691151927      0.886      2.113
REMARK  3 active torsions:
REMARK  status: ('A' for Active; 'I' for Inactive)
REMARK    1  A    between atoms: O1_1  and  C1_3 
REMARK    2  A    between atoms: C4_7  and  C5_8 
REMARK    3  A    between atoms: C5_8  and  C6_9 
ROOT
HETATM    1  C1  UNL     1      35.471  -4.319  10.974  1.00  0.00     0.142 C 
HETATM    2  C2  UNL     1      36.599  -4.522  10.044  1.00  0.00     0.199 C 
HETATM    3  O2  UNL     1      37.666  -3.694  10.178  1.00  0.00    -0.388 OA
HETATM    4  C3  UNL     1      37.505  -2.625  11.020  1.00  0.00     0.172 C 
HETATM    5  C4  UNL     1      37.173  -3.125  12.387  1.00  0.00     0.013 C 
HETATM    6  C7  UNL     1      35.840  -3.815  12.336  1.00  0.00     0.040 C 
ENDROOT
BRANCH   5   7
HETATM    7  C5  UNL     1      37.103  -1.974  13.361  1.00  0.00     0.017 C 
BRANCH   7   8
HETATM    8  C6  UNL     1      38.302  -1.058  13.243  1.00  0.00     0.086 C 
HETATM    9  S1  UNL     1      38.421  -0.124  14.817  1.00  0.00    -0.098 SA
ENDBRANCH   7   8
ENDBRANCH   5   7
BRANCH   1  10
HETATM   10  O1  UNL     1      34.843  -5.569  11.175  1.00  0.00    -0.393 OA
ATOM     11  H1  UNL     1      34.443  -5.830  10.354  1.00  0.00     0.210 HD
ENDBRANCH   1  10
TORSDOF 3
ENDMDL
MODEL 4
REMARK VINA RESULT: -4.582471194      3.153      4.381
REMARK  3 active torsions:
REMARK  status: ('A' for Active; 'I' for Inactive)
REMARK    1  A    between atoms: O1_1  and  C1_3 
REMARK    2  A    between atoms: C4_7  and  C5_8 
REMARK    3  A    between atoms: C5_8  and  C6_9 
ROOT
HETATM    1  C1  UNL     1      38.557  -2.578  13.893  1.00  0.00     0.142 C 
HETATM    2  C2  UNL     1      38.421  -1.203  13.372  1.00  0.00     0.199 C 
HETATM    3  O2  UNL     1      37.578  -1.020  12.325  1.00  0.00    -0.388 OA
HETATM    4  C3  UNL     1      37.098  -2.155  11.725  1.00  0.00     0.172 C 
HETATM    5  C4  UNL     1      36.360  -2.967  12.735  1.00  0.00     0.013 C 
HETATM    6  C7  UNL     1      37.332  -3.433  13.781  1.00  0.00     0.040 C 
ENDROOT
BRANCH   5   7
HETATM    7  C5  UNL     1      35.722  -4.166  12.077  1.00  0.00     0.017 C 
BRANCH   7   8
HETATM    8  C6  UNL     1      35.727  -4.053  10.568  1.00  0.00     0.086 C 
HETATM    9  S1  UNL     1      37.156  -5.031   9.961  1.00  0.00    -0.098 SA
ENDBRANCH   7   8
ENDBRANCH   5   7
BRANCH   1  10
HETATM   10  O1  UNL     1      38.851  -2.493  15.272  1.00  0.00    -0.393 OA
ATOM     11  H1  UNL     1      38.672  -3.340  15.662  1.00  0.00     0.210 HD
ENDBRANCH   1  10
TORSDOF 3
ENDMDL
MODEL 5
REMARK VINA RESULT: -4.551385309      3.092      4.041
REMARK  3 active torsions:
REMARK  status: ('A' for Active; 'I' for Inactive)
REMARK    1  A    between atoms: O1_1  and  C1_3 
REMARK    2  A    between atoms: C4_7  and  C5_8 
REMARK    3  A    between atoms: C5_8  and  C6_9 
ROOT
HETATM    1  C1  UNL     1      37.683  -1.421  13.372  1.00  0.00     0.142 C 
HETATM    2  C2  UNL     1      38.406  -2.264  14.344  1.00  0.00     0.199 C 
HETATM    3  O2  UNL     1      37.928  -3.518  14.550  1.00  0.00    -0.388 OA
HETATM    4  C3  UNL     1      36.708  -3.802  13.994  1.00  0.00     0.172 C 
HETATM    5  C4  UNL     1      36.787  -3.608  12.516  1.00  0.00     0.013 C 
HETATM    6  C7  UNL     1      37.039  -2.154  12.235  1.00  0.00     0.040 C 
ENDROOT
BRANCH   5   7
HETATM    7  C5  UNL     1      35.491  -4.025  11.864  1.00  0.00     0.017 C 
BRANCH   7   8
HETATM    8  C6  UNL     1      35.605  -4.074  10.356  1.00  0.00     0.086 C 
HETATM    9  S1  UNL     1      37.166  -4.957   9.965  1.00  0.00    -0.098 SA
ENDBRANCH   7   8
ENDBRANCH   5   7
BRANCH   1  10
HETATM   10  O1  UNL     1      38.615  -0.533  12.789  1.00  0.00    -0.393 OA
ATOM     11  H1  UNL     1      38.131   0.191  12.410  1.00  0.00     0.210 HD
ENDBRANCH   1  10
TORSDOF 3
ENDMDL
