MODEL 1
REMARK VINA RESULT: -5.969557903      0.000      0.000
REMARK  3 active torsions:
REMARK  status: ('A' for Active; 'I' for Inactive)
REMARK    1  A    between atoms: C2_3  and  N2_4 
REMARK    2  A    between atoms: C2_3  and  C3_8 
REMARK    3  A    between atoms: C4_9  and  C5_11 
ROOT
HETATM    1  N1  UNL     1      37.976   0.440  14.766  1.00  0.00    -0.195 NA
HETATM    2  C1  UNL     1      37.986  -0.630  14.333  1.00  0.00     0.096 C 
HETATM    3  C2  UNL     1      37.978  -2.009  13.782  1.00  0.00     0.313 C 
ENDROOT
BRANCH   3   4
HETATM    4  N2  UNL     1      38.736  -2.878  14.639  1.00  0.00    -0.059 N 
ATOM      5  H23 UNL     1      39.055  -3.715  14.152  1.00  0.00     0.276 HD
ATOM      6  H22 UNL     1      39.648  -2.487  14.873  1.00  0.00     0.276 HD
ATOM      7  H21 UNL     1      38.190  -3.103  15.471  1.00  0.00     0.276 HD
ENDBRANCH   3   4
BRANCH   3   8
HETATM    8  C3  UNL     1      36.582  -2.504  13.663  1.00  0.00     0.043 C 
HETATM    9  C4  UNL     1      36.148  -3.293  12.717  1.00  0.00     0.027 C 
HETATM   10  N3  UNL     1      34.797  -3.703  12.703  1.00  0.00    -0.107 NA
BRANCH   9  11
HETATM   11  C5  UNL     1      37.068  -3.756  11.666  1.00  0.00     0.033 C 
HETATM   12  C6  UNL     1      36.882  -2.911  10.394  1.00  0.00     0.010 C 
HETATM   13  C7  UNL     1      37.703  -3.778   9.428  1.00  0.00     0.001 C 
HETATM   14  C8  UNL     1      37.059  -5.121   9.660  1.00  0.00     0.001 C 
HETATM   15  C9  UNL     1      36.655  -5.120  11.117  1.00  0.00     0.010 C 
ENDBRANCH   9  11
ENDBRANCH   3   8
TORSDOF 3
ENDMDL
MODEL 2
REMARK VINA RESULT: -5.597324207      2.054      4.862
REMARK  3 active torsions:
REMARK  status: ('A' for Active; 'I' for Inactive)
REMARK    1  A    between atoms: C2_3  and  N2_4 
REMARK    2  A    between atoms: C2_3  and  C3_8 
REMARK    3  A    between atoms: C4_9  and  C5_11 
ROOT
HETATM    1  N1  UNL     1      37.338  -5.561   8.913  1.00  0.00    -0.195 NA
HETATM    2  C1  UNL     1      37.305  -4.601   9.555  1.00  0.00     0.096 C 
HETATM    3  C2  UNL     1      37.244  -3.375  10.389  1.00  0.00     0.313 C 
ENDROOT
BRANCH   3   4
HETATM    4  N2  UNL     1      36.965  -2.237   9.557  1.00  0.00    -0.059 N 
ATOM      5  H23 UNL     1      37.705  -1.536   9.604  1.00  0.00     0.276 HD
ATOM      6  H22 UNL     1      37.035  -2.460   8.565  1.00  0.00     0.276 HD
ATOM      7  H21 UNL     1      36.053  -1.848   9.800  1.00  0.00     0.276 HD
ENDBRANCH   3   4
BRANCH   3   8
HETATM    8  C3  UNL     1      36.190  -3.515  11.428  1.00  0.00     0.043 C 
HETATM    9  C4  UNL     1      36.333  -3.189  12.684  1.00  0.00     0.027 C 
HETATM   10  N3  UNL     1      35.261  -3.365  13.586  1.00  0.00    -0.107 NA
BRANCH   9  11
HETATM   11  C5  UNL     1      37.611  -2.636  13.159  1.00  0.00     0.033 C 
HETATM   12  C6  UNL     1      37.921  -3.162  14.572  1.00  0.00     0.010 C 
HETATM   13  C7  UNL     1      39.087  -2.222  14.909  1.00  0.00     0.001 C 
HETATM   14  C8  UNL     1      38.450  -0.888  14.618  1.00  0.00     0.001 C 
HETATM   15  C9  UNL     1      37.498  -1.145  13.472  1.00  0.00     0.010 C 
ENDBRANCH   9  11
ENDBRANCH   3   8
TORSDOF 3
ENDMDL
MODEL 3
REMARK VINA RESULT: -4.945376457      2.181      4.255
REMARK  3 active torsions:
REMARK  status: ('A' for Active; 'I' for Inactive)
REMARK    1  A    between atoms: C2_3  and  N2_4 
REMARK    2  A    between atoms: C2_3  and  C3_8 
REMARK    3  A    between atoms: C4_9  and  C5_11 
ROOT
HETATM    1  N1  UNL     1      37.674  -2.883   9.214  1.00  0.00    -0.195 NA
HETATM    2  C1  UNL     1      37.101  -3.762   9.698  1.00  0.00     0.096 C 
HETATM    3  C2  UNL     1      36.355  -4.876  10.334  1.00  0.00     0.313 C 
ENDROOT
BRANCH   3   4
HETATM    4  N2  UNL     1      37.267  -5.718  11.059  1.00  0.00    -0.059 N 
ATOM      5  H23 UNL     1      38.179  -5.280  11.181  1.00  0.00     0.276 HD
ATOM      6  H22 UNL     1      37.012  -5.805  12.042  1.00  0.00     0.276 HD
ATOM      7  H21 UNL     1      37.336  -6.627  10.599  1.00  0.00     0.276 HD
ENDBRANCH   3   4
BRANCH   3   8
HETATM    8  C3  UNL     1      35.320  -4.339  11.255  1.00  0.00     0.043 C 
HETATM    9  C4  UNL     1      35.567  -3.614  12.314  1.00  0.00     0.027 C 
HETATM   10  N3  UNL     1      34.502  -3.155  13.119  1.00  0.00    -0.107 NA
BRANCH   9  11
HETATM   11  C5  UNL     1      36.955  -3.275  12.665  1.00  0.00     0.033 C 
HETATM   12  C6  UNL     1      37.179  -3.474  14.174  1.00  0.00     0.010 C 
HETATM   13  C7  UNL     1      38.545  -2.782  14.289  1.00  0.00     0.001 C 
HETATM   14  C8  UNL     1      38.231  -1.458  13.641  1.00  0.00     0.001 C 
HETATM   15  C9  UNL     1      37.206  -1.771  12.575  1.00  0.00     0.010 C 
ENDBRANCH   9  11
ENDBRANCH   3   8
TORSDOF 3
ENDMDL
MODEL 4
REMARK VINA RESULT: -4.630464526      1.041      1.470
REMARK  3 active torsions:
REMARK  status: ('A' for Active; 'I' for Inactive)
REMARK    1  A    between atoms: C2_3  and  N2_4 
REMARK    2  A    between atoms: C2_3  and  C3_8 
REMARK    3  A    between atoms: C4_9  and  C5_11 
ROOT
HETATM    1  N1  UNL     1      39.158  -2.887  14.959  1.00  0.00    -0.195 NA
HETATM    2  C1  UNL     1      38.376  -2.300  14.344  1.00  0.00     0.096 C 
HETATM    3  C2  UNL     1      37.359  -1.563  13.552  1.00  0.00     0.313 C 
ENDROOT
BRANCH   3   4
HETATM    4  N2  UNL     1      37.866  -1.305  12.232  1.00  0.00    -0.059 N 
ATOM      5  H23 UNL     1      38.317  -0.393  12.166  1.00  0.00     0.276 HD
ATOM      6  H22 UNL     1      38.674  -1.886  12.011  1.00  0.00     0.276 HD
ATOM      7  H21 UNL     1      37.116  -1.413  11.548  1.00  0.00     0.276 HD
ENDBRANCH   3   4
BRANCH   3   8
HETATM    8  C3  UNL     1      36.104  -2.355  13.469  1.00  0.00     0.043 C 
HETATM    9  C4  UNL     1      35.881  -3.310  12.606  1.00  0.00     0.027 C 
HETATM   10  N3  UNL     1      34.648  -3.998  12.618  1.00  0.00    -0.107 NA
BRANCH   9  11
HETATM   11  C5  UNL     1      36.914  -3.668  11.622  1.00  0.00     0.033 C 
HETATM   12  C6  UNL     1      36.571  -3.058  10.252  1.00  0.00     0.010 C 
HETATM   13  C7  UNL     1      37.601  -3.820   9.405  1.00  0.00     0.001 C 
HETATM   14  C8  UNL     1      37.286  -5.237   9.809  1.00  0.00     0.001 C 
HETATM   15  C9  UNL     1      36.851  -5.149  11.254  1.00  0.00     0.010 C 
ENDBRANCH   9  11
ENDBRANCH   3   8
TORSDOF 3
ENDMDL
MODEL 5
REMARK VINA RESULT: -3.810377342      1.913      4.807
REMARK  3 active torsions:
REMARK  status: ('A' for Active; 'I' for Inactive)
REMARK    1  A    between atoms: C2_3  and  N2_4 
REMARK    2  A    between atoms: C2_3  and  C3_8 
REMARK    3  A    between atoms: C4_9  and  C5_11 
ROOT
HETATM    1  N1  UNL     1      37.742  -5.502   9.253  1.00  0.00    -0.195 NA
HETATM    2  C1  UNL     1      37.215  -4.705   9.902  1.00  0.00     0.096 C 
HETATM    3  C2  UNL     1      36.538  -3.694  10.752  1.00  0.00     0.313 C 
ENDROOT
BRANCH   3   4
HETATM    4  N2  UNL     1      35.194  -3.489  10.284  1.00  0.00    -0.059 N 
ATOM      5  H23 UNL     1      34.500  -3.745  10.986  1.00  0.00     0.276 HD
ATOM      6  H22 UNL     1      34.963  -2.500  10.202  1.00  0.00     0.276 HD
ATOM      7  H21 UNL     1      35.055  -3.991   9.406  1.00  0.00     0.276 HD
ENDBRANCH   3   4
BRANCH   3   8
HETATM    8  C3  UNL     1      36.519  -4.146  12.167  1.00  0.00     0.043 C 
HETATM    9  C4  UNL     1      36.916  -3.428  13.185  1.00  0.00     0.027 C 
HETATM   10  N3  UNL     1      36.852  -3.961  14.491  1.00  0.00    -0.107 NA
BRANCH   9  11
HETATM   11  C5  UNL     1      37.427  -2.066  12.969  1.00  0.00     0.033 C 
HETATM   12  C6  UNL     1      38.961  -2.053  13.095  1.00  0.00     0.010 C 
HETATM   13  C7  UNL     1      39.168  -0.532  13.131  1.00  0.00     0.001 C 
HETATM   14  C8  UNL     1      38.219  -0.157  14.240  1.00  0.00     0.001 C 
HETATM   15  C9  UNL     1      37.077  -1.143  14.134  1.00  0.00     0.010 C 
ENDBRANCH   9  11
ENDBRANCH   3   8
TORSDOF 3
ENDMDL
