MODEL 1
REMARK VINA RESULT: -5.931807413      0.000      0.000
REMARK  2 active torsions:
REMARK  status: ('A' for Active; 'I' for Inactive)
REMARK    1  A    between atoms: N1_1  and  C1_5 
REMARK    2  A    between atoms: C1_5  and  C2_6 
ROOT
HETATM    1  C1  UNL     1      37.180  -2.445  13.218  1.00  0.00     0.180 C 
HETATM    2  C5  UNL     1      37.812  -3.262  14.282  1.00  0.00     0.047 C 
HETATM    3  C6  UNL     1      38.962  -2.652  14.987  1.00  0.00     0.003 C 
HETATM    4  C7  UNL     1      38.906  -1.188  15.200  1.00  0.00     0.000 C 
HETATM    5  C8  UNL     1      37.963  -0.446  14.317  1.00  0.00     0.003 C 
HETATM    6  C9  UNL     1      37.953  -1.173  12.968  1.00  0.00     0.047 C 
ENDROOT
BRANCH   1   7
HETATM    7  N1  UNL     1      35.837  -2.038  13.639  1.00  0.00    -0.063 N 
ATOM      8  H13 UNL     1      35.800  -1.059  13.922  1.00  0.00     0.275 HD
ATOM      9  H12 UNL     1      35.185  -1.986  12.856  1.00  0.00     0.275 HD
ATOM     10  H11 UNL     1      35.511  -2.666  14.374  1.00  0.00     0.275 HD
ENDBRANCH   1   7
BRANCH   1  11
HETATM   11  C2  UNL     1      37.089  -3.176  11.923  1.00  0.00     0.109 C 
HETATM   12  N2  UNL     1      37.651  -2.824  10.800  1.00  0.00    -0.376 N 
HETATM   13  C3  UNL     1      37.349  -3.761   9.756  1.00  0.00     0.140 C 
ATOM     14  H2  UNL     1      38.229  -1.993  10.679  1.00  0.00     0.160 HD
HETATM   15  C4  UNL     1      36.916  -4.999  10.518  1.00  0.00     0.140 C 
HETATM   16  N3  UNL     1      36.357  -4.382  11.731  1.00  0.00    -0.376 N 
ATOM     17  H3  UNL     1      35.601  -4.743  12.314  1.00  0.00     0.160 HD
ENDBRANCH   1  11
TORSDOF 2
ENDMDL
MODEL 2
REMARK VINA RESULT: -5.745087031      0.163      1.112
REMARK  2 active torsions:
REMARK  status: ('A' for Active; 'I' for Inactive)
REMARK    1  A    between atoms: N1_1  and  C1_5 
REMARK    2  A    between atoms: C1_5  and  C2_6 
ROOT
HETATM    1  C1  UNL     1      37.209  -2.470  13.260  1.00  0.00     0.180 C 
HETATM    2  C5  UNL     1      37.846  -3.240  14.355  1.00  0.00     0.047 C 
HETATM    3  C6  UNL     1      38.992  -2.593  15.035  1.00  0.00     0.003 C 
HETATM    4  C7  UNL     1      38.922  -1.122  15.191  1.00  0.00     0.000 C 
HETATM    5  C8  UNL     1      37.974  -0.423  14.280  1.00  0.00     0.003 C 
HETATM    6  C9  UNL     1      37.970  -1.202  12.960  1.00  0.00     0.047 C 
ENDROOT
BRANCH   1   7
HETATM    7  N1  UNL     1      35.861  -2.058  13.664  1.00  0.00    -0.063 N 
ATOM      8  H13 UNL     1      35.687  -1.071  13.479  1.00  0.00     0.275 HD
ATOM      9  H12 UNL     1      35.139  -2.448  13.058  1.00  0.00     0.275 HD
ATOM     10  H11 UNL     1      35.717  -2.300  14.645  1.00  0.00     0.275 HD
ENDBRANCH   1   7
BRANCH   1  11
HETATM   11  C2  UNL     1      37.124  -3.251  11.994  1.00  0.00     0.109 C 
HETATM   12  N2  UNL     1      36.468  -4.365  11.819  1.00  0.00    -0.376 N 
HETATM   13  C3  UNL     1      36.606  -4.839  10.473  1.00  0.00     0.140 C 
ATOM     14  H2  UNL     1      35.928  -4.836  12.545  1.00  0.00     0.160 HD
HETATM   15  C4  UNL     1      37.047  -3.602   9.714  1.00  0.00     0.140 C 
HETATM   16  N3  UNL     1      37.763  -2.880  10.776  1.00  0.00    -0.376 N 
ATOM     17  H3  UNL     1      38.553  -2.245  10.665  1.00  0.00     0.160 HD
ENDBRANCH   1  11
TORSDOF 2
ENDMDL
MODEL 3
REMARK VINA RESULT: -4.788654663      1.361      4.465
REMARK  2 active torsions:
REMARK  status: ('A' for Active; 'I' for Inactive)
REMARK    1  A    between atoms: N1_1  and  C1_5 
REMARK    2  A    between atoms: C1_5  and  C2_6 
ROOT
HETATM    1  C1  UNL     1      36.606  -3.086  12.351  1.00  0.00     0.180 C 
HETATM    2  C5  UNL     1      36.810  -2.477  11.015  1.00  0.00     0.047 C 
HETATM    3  C6  UNL     1      37.254  -3.389   9.936  1.00  0.00     0.003 C 
HETATM    4  C7  UNL     1      36.721  -4.770   9.978  1.00  0.00     0.000 C 
HETATM    5  C8  UNL     1      36.188  -5.214  11.295  1.00  0.00     0.003 C 
HETATM    6  C9  UNL     1      37.039  -4.532  12.371  1.00  0.00     0.047 C 
ENDROOT
BRANCH   1   7
HETATM    7  N1  UNL     1      35.179  -3.078  12.686  1.00  0.00    -0.063 N 
ATOM      8  H13 UNL     1      34.952  -3.735  13.432  1.00  0.00     0.275 HD
ATOM      9  H12 UNL     1      34.897  -2.219  13.161  1.00  0.00     0.275 HD
ATOM     10  H11 UNL     1      34.635  -3.249  11.840  1.00  0.00     0.275 HD
ENDBRANCH   1   7
BRANCH   1  11
HETATM   11  C2  UNL     1      37.364  -2.376  13.420  1.00  0.00     0.109 C 
HETATM   12  N2  UNL     1      38.372  -2.854  14.095  1.00  0.00    -0.376 N 
HETATM   13  C3  UNL     1      38.859  -1.895  15.045  1.00  0.00     0.140 C 
ATOM     14  H2  UNL     1      38.763  -3.788  13.966  1.00  0.00     0.160 HD
HETATM   15  C4  UNL     1      38.311  -0.582  14.519  1.00  0.00     0.140 C 
HETATM   16  N3  UNL     1      37.084  -1.051  13.858  1.00  0.00    -0.376 N 
ATOM     17  H3  UNL     1      36.213  -0.534  13.739  1.00  0.00     0.160 HD
ENDBRANCH   1  11
TORSDOF 2
ENDMDL
MODEL 4
REMARK VINA RESULT: -4.565195272      1.439      4.398
REMARK  2 active torsions:
REMARK  status: ('A' for Active; 'I' for Inactive)
REMARK    1  A    between atoms: N1_1  and  C1_5 
REMARK    2  A    between atoms: C1_5  and  C2_6 
ROOT
HETATM    1  C1  UNL     1      36.623  -2.854  12.592  1.00  0.00     0.180 C 
HETATM    2  C5  UNL     1      36.673  -2.316  11.211  1.00  0.00     0.047 C 
HETATM    3  C6  UNL     1      36.979  -3.286  10.136  1.00  0.00     0.003 C 
HETATM    4  C7  UNL     1      36.445  -4.657  10.311  1.00  0.00     0.000 C 
HETATM    5  C8  UNL     1      36.069  -5.026  11.703  1.00  0.00     0.003 C 
HETATM    6  C9  UNL     1      37.046  -4.302  12.635  1.00  0.00     0.047 C 
ENDROOT
BRANCH   1   7
HETATM    7  N1  UNL     1      35.246  -2.810  13.091  1.00  0.00    -0.063 N 
ATOM      8  H13 UNL     1      34.676  -3.570  12.720  1.00  0.00     0.275 HD
ATOM      9  H12 UNL     1      35.184  -3.053  14.080  1.00  0.00     0.275 HD
ATOM     10  H11 UNL     1      34.846  -1.893  12.892  1.00  0.00     0.275 HD
ENDBRANCH   1   7
BRANCH   1  11
HETATM   11  C2  UNL     1      37.508  -2.101  13.525  1.00  0.00     0.109 C 
HETATM   12  N2  UNL     1      37.360  -0.859  13.892  1.00  0.00    -0.376 N 
HETATM   13  C3  UNL     1      38.396  -0.461  14.800  1.00  0.00     0.140 C 
ATOM     14  H2  UNL     1      36.605  -0.250  13.575  1.00  0.00     0.160 HD
HETATM   15  C4  UNL     1      38.930  -1.785  15.315  1.00  0.00     0.140 C 
HETATM   16  N3  UNL     1      38.662  -2.648  14.156  1.00  0.00    -0.376 N 
ATOM     17  H3  UNL     1      39.192  -3.469  13.863  1.00  0.00     0.160 HD
ENDBRANCH   1  11
TORSDOF 2
ENDMDL
MODEL 5
REMARK VINA RESULT: -4.308798331      1.427      4.495
REMARK  2 active torsions:
REMARK  status: ('A' for Active; 'I' for Inactive)
REMARK    1  A    between atoms: N1_1  and  C1_5 
REMARK    2  A    between atoms: C1_5  and  C2_6 
ROOT
HETATM    1  C1  UNL     1      36.644  -3.073  11.788  1.00  0.00     0.180 C 
HETATM    2  C5  UNL     1      36.897  -2.813  10.351  1.00  0.00     0.047 C 
HETATM    3  C6  UNL     1      37.516  -3.916   9.581  1.00  0.00     0.003 C 
HETATM    4  C7  UNL     1      37.121  -5.291   9.962  1.00  0.00     0.000 C 
HETATM    5  C8  UNL     1      36.527  -5.436  11.320  1.00  0.00     0.003 C 
HETATM    6  C9  UNL     1      37.215  -4.403  12.218  1.00  0.00     0.047 C 
ENDROOT
BRANCH   1   7
HETATM    7  N1  UNL     1      35.200  -3.145  12.031  1.00  0.00    -0.063 N 
ATOM      8  H13 UNL     1      34.661  -3.122  11.166  1.00  0.00     0.275 HD
ATOM      9  H12 UNL     1      34.908  -4.066  12.359  1.00  0.00     0.275 HD
ATOM     10  H11 UNL     1      34.931  -2.401  12.676  1.00  0.00     0.275 HD
ENDBRANCH   1   7
BRANCH   1  11
HETATM   11  C2  UNL     1      37.238  -2.026  12.666  1.00  0.00     0.109 C 
HETATM   12  N2  UNL     1      37.060  -1.909  13.953  1.00  0.00    -0.376 N 
HETATM   13  C3  UNL     1      37.783  -0.785  14.474  1.00  0.00     0.140 C 
ATOM     14  H2  UNL     1      36.482  -2.534  14.515  1.00  0.00     0.160 HD
HETATM   15  C4  UNL     1      38.819  -0.513  13.400  1.00  0.00     0.140 C 
HETATM   16  N3  UNL     1      38.098  -0.987  12.209  1.00  0.00    -0.376 N 
ATOM     17  H3  UNL     1      38.193  -0.643  11.253  1.00  0.00     0.160 HD
ENDBRANCH   1  11
TORSDOF 2
ENDMDL
