MODEL 1
REMARK VINA RESULT: -4.666224918      0.000      0.000
REMARK  3 active torsions:
REMARK  status: ('A' for Active; 'I' for Inactive)
REMARK    1  A    between atoms: C4_4  and  C5_5 
REMARK    2  A    between atoms: C5_5  and  C6_6 
REMARK    3  A    between atoms: C7_8  and  N1_9 
ROOT
HETATM    1  C1  UNL     1      36.995  -4.592   9.215  1.00  0.00     0.039 C 
HETATM    2  C2  UNL     1      36.906  -4.509  10.700  1.00  0.00     0.120 C 
HETATM    3  C3  UNL     1      37.496  -3.233  11.269  1.00  0.00     0.040 C 
HETATM    4  C4  UNL     1      36.986  -3.347  12.690  1.00  0.00     0.045 C 
HETATM    5  C7  UNL     1      35.721  -4.125  12.515  1.00  0.00     0.323 C 
HETATM    6  O1  UNL     1      35.573  -4.379  11.150  1.00  0.00    -0.354 OA
ENDROOT
BRANCH   5   7
HETATM    7  N1  UNL     1      34.559  -3.454  13.045  1.00  0.00    -0.052 N 
ATOM      8  H13 UNL     1      33.934  -4.118  13.503  1.00  0.00     0.277 HD
ATOM      9  H12 UNL     1      34.809  -2.876  13.848  1.00  0.00     0.277 HD
ATOM     10  H11 UNL     1      34.057  -2.906  12.347  1.00  0.00     0.277 HD
ENDBRANCH   5   7
BRANCH   4  11
HETATM   11  C5  UNL     1      36.774  -2.003  13.332  1.00  0.00     0.020 C 
BRANCH  11  12
HETATM   12  C6  UNL     1      38.079  -1.224  13.179  1.00  0.00     0.086 C 
HETATM   13  S1  UNL     1      38.401  -0.212  14.645  1.00  0.00    -0.098 SA
ENDBRANCH  11  12
ENDBRANCH   4  11
TORSDOF 3
ENDMDL
MODEL 2
REMARK VINA RESULT: -4.292087287      2.995      4.331
REMARK  3 active torsions:
REMARK  status: ('A' for Active; 'I' for Inactive)
REMARK    1  A    between atoms: C4_4  and  C5_5 
REMARK    2  A    between atoms: C5_5  and  C6_6 
REMARK    3  A    between atoms: C7_8  and  N1_9 
ROOT
HETATM    1  C1  UNL     1      38.180  -0.596  14.498  1.00  0.00     0.039 C 
HETATM    2  C2  UNL     1      38.090  -1.622  13.421  1.00  0.00     0.120 C 
HETATM    3  C3  UNL     1      36.917  -2.568  13.586  1.00  0.00     0.040 C 
HETATM    4  C4  UNL     1      36.959  -3.240  12.231  1.00  0.00     0.045 C 
HETATM    5  C7  UNL     1      37.542  -2.173  11.361  1.00  0.00     0.323 C 
HETATM    6  O1  UNL     1      37.766  -1.055  12.168  1.00  0.00    -0.354 OA
ENDROOT
BRANCH   5   7
HETATM    7  N1  UNL     1      36.708  -1.837  10.233  1.00  0.00    -0.052 N 
ATOM      8  H13 UNL     1      36.616  -2.632   9.600  1.00  0.00     0.277 HD
ATOM      9  H12 UNL     1      35.734  -1.735  10.519  1.00  0.00     0.277 HD
ATOM     10  H11 UNL     1      37.025  -1.009   9.729  1.00  0.00     0.277 HD
ENDBRANCH   5   7
BRANCH   4  11
HETATM   11  C5  UNL     1      35.600  -3.702  11.777  1.00  0.00     0.020 C 
BRANCH  11  12
HETATM   12  C6  UNL     1      35.773  -5.110  11.210  1.00  0.00     0.086 C 
HETATM   13  S1  UNL     1      37.153  -5.168  10.041  1.00  0.00    -0.098 SA
ENDBRANCH  11  12
ENDBRANCH   4  11
TORSDOF 3
ENDMDL
MODEL 3
REMARK VINA RESULT: -4.174157285      2.479      3.889
REMARK  3 active torsions:
REMARK  status: ('A' for Active; 'I' for Inactive)
REMARK    1  A    between atoms: C4_4  and  C5_5 
REMARK    2  A    between atoms: C5_5  and  C6_6 
REMARK    3  A    between atoms: C7_8  and  N1_9 
ROOT
HETATM    1  C1  UNL     1      38.317  -0.784  14.327  1.00  0.00     0.039 C 
HETATM    2  C2  UNL     1      37.427  -1.423  13.318  1.00  0.00     0.120 C 
HETATM    3  C3  UNL     1      38.030  -2.658  12.678  1.00  0.00     0.040 C 
HETATM    4  C4  UNL     1      36.800  -3.186  11.972  1.00  0.00     0.045 C 
HETATM    5  C7  UNL     1      35.691  -2.691  12.845  1.00  0.00     0.323 C 
HETATM    6  O1  UNL     1      36.276  -1.993  13.904  1.00  0.00    -0.354 OA
ENDROOT
BRANCH   5   7
HETATM    7  N1  UNL     1      34.833  -3.744  13.331  1.00  0.00    -0.052 N 
ATOM      8  H13 UNL     1      34.251  -3.411  14.100  1.00  0.00     0.277 HD
ATOM      9  H12 UNL     1      34.105  -3.962  12.651  1.00  0.00     0.277 HD
ATOM     10  H11 UNL     1      35.340  -4.587  13.600  1.00  0.00     0.277 HD
ENDBRANCH   5   7
BRANCH   4  11
HETATM   11  C5  UNL     1      36.820  -4.684  11.828  1.00  0.00     0.020 C 
BRANCH  11  12
HETATM   12  C6  UNL     1      36.871  -4.988  10.331  1.00  0.00     0.086 C 
HETATM   13  S1  UNL     1      37.312  -3.508   9.388  1.00  0.00    -0.098 SA
ENDBRANCH  11  12
ENDBRANCH   4  11
TORSDOF 3
ENDMDL
MODEL 4
REMARK VINA RESULT: -3.825158124      2.914      4.277
REMARK  3 active torsions:
REMARK  status: ('A' for Active; 'I' for Inactive)
REMARK    1  A    between atoms: C4_4  and  C5_5 
REMARK    2  A    between atoms: C5_5  and  C6_6 
REMARK    3  A    between atoms: C7_8  and  N1_9 
ROOT
HETATM    1  C1  UNL     1      38.733  -0.483  14.857  1.00  0.00     0.039 C 
HETATM    2  C2  UNL     1      37.781  -0.953  13.812  1.00  0.00     0.120 C 
HETATM    3  C3  UNL     1      38.425  -1.841  12.765  1.00  0.00     0.040 C 
HETATM    4  C4  UNL     1      37.175  -2.347  12.079  1.00  0.00     0.045 C 
HETATM    5  C7  UNL     1      36.166  -2.309  13.181  1.00  0.00     0.323 C 
HETATM    6  O1  UNL     1      36.819  -1.849  14.327  1.00  0.00    -0.354 OA
ENDROOT
BRANCH   5   7
HETATM    7  N1  UNL     1      35.535  -3.584  13.424  1.00  0.00    -0.052 N 
ATOM      8  H13 UNL     1      34.767  -3.488  14.089  1.00  0.00     0.277 HD
ATOM      9  H12 UNL     1      35.011  -3.891  12.604  1.00  0.00     0.277 HD
ATOM     10  H11 UNL     1      36.188  -4.307  13.726  1.00  0.00     0.277 HD
ENDBRANCH   5   7
BRANCH   4  11
HETATM   11  C5  UNL     1      37.360  -3.719  11.488  1.00  0.00     0.020 C 
BRANCH  11  12
HETATM   12  C6  UNL     1      37.437  -3.546   9.972  1.00  0.00     0.086 C 
HETATM   13  S1  UNL     1      37.390  -5.152   9.139  1.00  0.00    -0.098 SA
ENDBRANCH  11  12
ENDBRANCH   4  11
TORSDOF 3
ENDMDL
MODEL 5
REMARK VINA RESULT: -3.641561289      2.016      2.215
REMARK  3 active torsions:
REMARK  status: ('A' for Active; 'I' for Inactive)
REMARK    1  A    between atoms: C4_4  and  C5_5 
REMARK    2  A    between atoms: C5_5  and  C6_6 
REMARK    3  A    between atoms: C7_8  and  N1_9 
ROOT
HETATM    1  C1  UNL     1      37.695  -5.560   9.693  1.00  0.00     0.039 C 
HETATM    2  C2  UNL     1      36.872  -4.444  10.239  1.00  0.00     0.120 C 
HETATM    3  C3  UNL     1      36.399  -4.682  11.659  1.00  0.00     0.040 C 
HETATM    4  C4  UNL     1      35.881  -3.296  11.974  1.00  0.00     0.045 C 
HETATM    5  C7  UNL     1      36.740  -2.428  11.113  1.00  0.00     0.323 C 
HETATM    6  O1  UNL     1      37.626  -3.266  10.431  1.00  0.00    -0.354 OA
ENDROOT
BRANCH   5   7
HETATM    7  N1  UNL     1      37.454  -1.415  11.852  1.00  0.00    -0.052 N 
ATOM      8  H13 UNL     1      37.130  -0.482  11.594  1.00  0.00     0.277 HD
ATOM      9  H12 UNL     1      37.179  -1.423  12.835  1.00  0.00     0.277 HD
ATOM     10  H11 UNL     1      38.467  -1.485  11.759  1.00  0.00     0.277 HD
ENDBRANCH   5   7
BRANCH   4  11
HETATM   11  C5  UNL     1      35.980  -2.966  13.439  1.00  0.00     0.020 C 
BRANCH  11  12
HETATM   12  C6  UNL     1      37.126  -3.800  14.009  1.00  0.00     0.086 C 
HETATM   13  S1  UNL     1      38.458  -2.735  14.617  1.00  0.00    -0.098 SA
ENDBRANCH  11  12
ENDBRANCH   4  11
TORSDOF 3
ENDMDL
