MODEL 1
REMARK VINA RESULT: -5.342986294      0.000      0.000
REMARK  4 active torsions:
REMARK  status: ('A' for Active; 'I' for Inactive)
REMARK    1  A    between atoms: C2_5  and  C3_6 
REMARK    2  A    between atoms: C2_5  and  N3_13 
REMARK    3  A    between atoms: C3_6  and  C4_7 
REMARK    4  A    between atoms: N3_13  and  N4_15 
ROOT
HETATM    1  N1  UNL     1      37.340  -5.534   8.901  1.00  0.00    -0.172 NA
HETATM    2  C1  UNL     1      37.426  -4.526   9.451  1.00  0.00     0.183 C 
HETATM    3  N2  UNL     1      37.532  -3.298  10.094  1.00  0.00    -0.282 N 
ATOM      4  H2  UNL     1      38.010  -2.528   9.627  1.00  0.00     0.179 HD
HETATM    5  C2  UNL     1      37.042  -3.118  11.259  1.00  0.00     0.104 C 
ENDROOT
BRANCH   5   6
HETATM    6  C3  UNL     1      37.180  -1.800  11.902  1.00  0.00     0.083 C 
BRANCH   6   7
HETATM    7  C4  UNL     1      38.264  -1.724  12.932  1.00  0.00    -0.007 C 
HETATM    8  C5  UNL     1      38.369  -0.295  13.448  1.00  0.00     0.005 C 
HETATM    9  C6  UNL     1      38.427  -0.287  14.959  1.00  0.00     0.000 C 
HETATM   10  C7  UNL     1      39.399  -1.325  15.465  1.00  0.00     0.000 C 
HETATM   11  C8  UNL     1      38.851  -2.680  15.173  1.00  0.00     0.000 C 
HETATM   12  C9  UNL     1      37.833  -2.634  14.084  1.00  0.00     0.005 C 
ENDBRANCH   6   7
ENDBRANCH   5   6
BRANCH   5  13
HETATM   13  N3  UNL     1      36.380  -4.147  11.932  1.00  0.00    -0.295 N 
ATOM     14  H3  UNL     1      36.886  -4.987  12.213  1.00  0.00     0.187 HD
BRANCH  13  15
HETATM   15  N4  UNL     1      35.030  -4.017  12.215  1.00  0.00    -0.344 N 
ATOM     16  H42 UNL     1      34.570  -4.720  12.795  1.00  0.00     0.176 HD
ATOM     17  H41 UNL     1      34.514  -3.221  11.839  1.00  0.00     0.176 HD
ENDBRANCH  13  15
ENDBRANCH   5  13
TORSDOF 4
ENDMDL
MODEL 2
REMARK VINA RESULT: -4.948495802      0.961      1.657
REMARK  4 active torsions:
REMARK  status: ('A' for Active; 'I' for Inactive)
REMARK    1  A    between atoms: C2_5  and  C3_6 
REMARK    2  A    between atoms: C2_5  and  N3_13 
REMARK    3  A    between atoms: C3_6  and  C4_7 
REMARK    4  A    between atoms: N3_13  and  N4_15 
ROOT
HETATM    1  N1  UNL     1      37.456  -5.886   8.937  1.00  0.00    -0.172 NA
HETATM    2  C1  UNL     1      37.298  -5.117   9.780  1.00  0.00     0.183 C 
HETATM    3  N2  UNL     1      37.114  -4.204  10.812  1.00  0.00    -0.282 N 
ATOM      4  H2  UNL     1      37.022  -4.543  11.770  1.00  0.00     0.179 HD
HETATM    5  C2  UNL     1      37.060  -2.950  10.584  1.00  0.00     0.104 C 
ENDROOT
BRANCH   5   6
HETATM    6  C3  UNL     1      36.864  -2.020  11.708  1.00  0.00     0.083 C 
BRANCH   6   7
HETATM    7  C4  UNL     1      37.984  -2.004  12.702  1.00  0.00    -0.007 C 
HETATM    8  C5  UNL     1      38.259  -0.568  13.128  1.00  0.00     0.005 C 
HETATM    9  C6  UNL     1      38.368  -0.481  14.634  1.00  0.00     0.000 C 
HETATM   10  C7  UNL     1      39.239  -1.589  15.175  1.00  0.00     0.000 C 
HETATM   11  C8  UNL     1      38.538  -2.890  14.980  1.00  0.00     0.000 C 
HETATM   12  C9  UNL     1      37.495  -2.795  13.918  1.00  0.00     0.005 C 
ENDBRANCH   6   7
ENDBRANCH   5   6
BRANCH   5  13
HETATM   13  N3  UNL     1      37.182  -2.445   9.287  1.00  0.00    -0.295 N 
ATOM     14  H3  UNL     1      37.601  -3.014   8.550  1.00  0.00     0.187 HD
BRANCH  13  15
HETATM   15  N4  UNL     1      36.729  -1.165   9.009  1.00  0.00    -0.344 N 
ATOM     16  H42 UNL     1      35.788  -0.894   9.297  1.00  0.00     0.176 HD
ATOM     17  H41 UNL     1      37.342  -0.513   8.521  1.00  0.00     0.176 HD
ENDBRANCH  13  15
ENDBRANCH   5  13
TORSDOF 4
ENDMDL
MODEL 3
REMARK VINA RESULT: -4.935033579      0.424      1.406
REMARK  4 active torsions:
REMARK  status: ('A' for Active; 'I' for Inactive)
REMARK    1  A    between atoms: C2_5  and  C3_6 
REMARK    2  A    between atoms: C2_5  and  N3_13 
REMARK    3  A    between atoms: C3_6  and  C4_7 
REMARK    4  A    between atoms: N3_13  and  N4_15 
ROOT
HETATM    1  N1  UNL     1      37.361  -5.547   9.140  1.00  0.00    -0.172 NA
HETATM    2  C1  UNL     1      37.456  -4.507   9.625  1.00  0.00     0.183 C 
HETATM    3  N2  UNL     1      37.574  -3.242  10.190  1.00  0.00    -0.282 N 
ATOM      4  H2  UNL     1      38.059  -2.508   9.676  1.00  0.00     0.179 HD
HETATM    5  C2  UNL     1      37.087  -2.984  11.341  1.00  0.00     0.104 C 
ENDROOT
BRANCH   5   6
HETATM    6  C3  UNL     1      37.236  -1.631  11.900  1.00  0.00     0.083 C 
BRANCH   6   7
HETATM    7  C4  UNL     1      37.441  -1.592  13.383  1.00  0.00    -0.007 C 
HETATM    8  C5  UNL     1      38.182  -2.848  13.823  1.00  0.00     0.005 C 
HETATM    9  C6  UNL     1      39.322  -2.486  14.749  1.00  0.00     0.000 C 
HETATM   10  C7  UNL     1      38.871  -1.494  15.794  1.00  0.00     0.000 C 
HETATM   11  C8  UNL     1      38.576  -0.194  15.126  1.00  0.00     0.000 C 
HETATM   12  C9  UNL     1      38.323  -0.374  13.668  1.00  0.00     0.005 C 
ENDBRANCH   6   7
ENDBRANCH   5   6
BRANCH   5  13
HETATM   13  N3  UNL     1      36.415  -3.963  12.077  1.00  0.00    -0.295 N 
ATOM     14  H3  UNL     1      36.938  -4.690  12.565  1.00  0.00     0.187 HD
BRANCH  13  15
HETATM   15  N4  UNL     1      35.030  -3.938  12.139  1.00  0.00    -0.344 N 
ATOM     16  H42 UNL     1      34.574  -3.459  12.917  1.00  0.00     0.176 HD
ATOM     17  H41 UNL     1      34.488  -4.397  11.408  1.00  0.00     0.176 HD
ENDBRANCH  13  15
ENDBRANCH   5  13
TORSDOF 4
ENDMDL
MODEL 4
REMARK VINA RESULT: -4.829950918      2.839      5.358
REMARK  4 active torsions:
REMARK  status: ('A' for Active; 'I' for Inactive)
REMARK    1  A    between atoms: C2_5  and  C3_6 
REMARK    2  A    between atoms: C2_5  and  N3_13 
REMARK    3  A    between atoms: C3_6  and  C4_7 
REMARK    4  A    between atoms: N3_13  and  N4_15 
ROOT
HETATM    1  N1  UNL     1      39.131   0.798  14.578  1.00  0.00    -0.172 NA
HETATM    2  C1  UNL     1      38.326   0.037  14.259  1.00  0.00     0.183 C 
HETATM    3  N2  UNL     1      37.344  -0.863  13.864  1.00  0.00    -0.282 N 
ATOM      4  H2  UNL     1      36.419  -0.516  13.612  1.00  0.00     0.179 HD
HETATM    5  C2  UNL     1      37.579  -2.116  13.811  1.00  0.00     0.104 C 
ENDROOT
BRANCH   5   6
HETATM    6  C3  UNL     1      36.507  -3.033  13.387  1.00  0.00     0.083 C 
BRANCH   6   7
HETATM    7  C4  UNL     1      36.859  -3.899  12.217  1.00  0.00    -0.007 C 
HETATM    8  C5  UNL     1      35.619  -4.652  11.756  1.00  0.00     0.005 C 
HETATM    9  C6  UNL     1      35.475  -4.553  10.254  1.00  0.00     0.000 C 
HETATM   10  C7  UNL     1      36.793  -4.818   9.569  1.00  0.00     0.000 C 
HETATM   11  C8  UNL     1      37.728  -3.698   9.875  1.00  0.00     0.000 C 
HETATM   12  C9  UNL     1      37.309  -2.956  11.099  1.00  0.00     0.005 C 
ENDBRANCH   6   7
ENDBRANCH   5   6
BRANCH   5  13
HETATM   13  N3  UNL     1      38.833  -2.632  14.148  1.00  0.00    -0.295 N 
ATOM     14  H3  UNL     1      39.537  -2.786  13.426  1.00  0.00     0.187 HD
BRANCH  13  15
HETATM   15  N4  UNL     1      39.111  -2.933  15.471  1.00  0.00    -0.344 N 
ATOM     16  H42 UNL     1      38.517  -2.548  16.207  1.00  0.00     0.176 HD
ATOM     17  H41 UNL     1      39.905  -3.533  15.691  1.00  0.00     0.176 HD
ENDBRANCH  13  15
ENDBRANCH   5  13
TORSDOF 4
ENDMDL
MODEL 5
REMARK VINA RESULT: -4.651469729      1.036      2.173
REMARK  4 active torsions:
REMARK  status: ('A' for Active; 'I' for Inactive)
REMARK    1  A    between atoms: C2_5  and  C3_6 
REMARK    2  A    between atoms: C2_5  and  N3_13 
REMARK    3  A    between atoms: C3_6  and  C4_7 
REMARK    4  A    between atoms: N3_13  and  N4_15 
ROOT
HETATM    1  N1  UNL     1      37.808  -5.654   9.207  1.00  0.00    -0.172 NA
HETATM    2  C1  UNL     1      37.206  -5.233  10.094  1.00  0.00     0.183 C 
HETATM    3  N2  UNL     1      36.477  -4.748  11.174  1.00  0.00    -0.282 N 
ATOM      4  H2  UNL     1      35.882  -5.384  11.703  1.00  0.00     0.179 HD
HETATM    5  C2  UNL     1      36.540  -3.519  11.514  1.00  0.00     0.104 C 
ENDROOT
BRANCH   5   6
HETATM    6  C3  UNL     1      35.750  -3.048  12.664  1.00  0.00     0.083 C 
BRANCH   6   7
HETATM    7  C4  UNL     1      36.556  -2.398  13.745  1.00  0.00    -0.007 C 
HETATM    8  C5  UNL     1      37.500  -3.424  14.357  1.00  0.00     0.005 C 
HETATM    9  C6  UNL     1      38.895  -2.849  14.470  1.00  0.00     0.000 C 
HETATM   10  C7  UNL     1      38.856  -1.452  15.041  1.00  0.00     0.000 C 
HETATM   11  C8  UNL     1      38.215  -0.544  14.047  1.00  0.00     0.000 C 
HETATM   12  C9  UNL     1      37.385  -1.304  13.069  1.00  0.00     0.005 C 
ENDBRANCH   6   7
ENDBRANCH   5   6
BRANCH   5  13
HETATM   13  N3  UNL     1      37.343  -2.615  10.815  1.00  0.00    -0.295 N 
ATOM     14  H3  UNL     1      38.133  -2.164  11.277  1.00  0.00     0.187 HD
BRANCH  13  15
HETATM   15  N4  UNL     1      37.057  -2.336   9.488  1.00  0.00    -0.344 N 
ATOM     16  H42 UNL     1      36.637  -1.438   9.245  1.00  0.00     0.176 HD
ATOM     17  H41 UNL     1      37.270  -3.032   8.773  1.00  0.00     0.176 HD
ENDBRANCH  13  15
ENDBRANCH   5  13
TORSDOF 4
ENDMDL
