MODEL 1
REMARK VINA RESULT: -5.257253191      0.000      0.000
REMARK  4 active torsions:
REMARK  status: ('A' for Active; 'I' for Inactive)
REMARK    1  A    between atoms: N2_3  and  C2_5 
REMARK    2  A    between atoms: C2_5  and  S1_9 
REMARK    3  A    between atoms: S1_9  and  C3_10 
REMARK    4  A    between atoms: C3_10  and  C4_11 
ROOT
HETATM    1  N1  UNL     1      38.095  -3.271   9.085  1.00  0.00    -0.172 NA
HETATM    2  C1  UNL     1      37.119  -3.490   9.629  1.00  0.00     0.183 C 
HETATM    3  N2  UNL     1      35.915  -3.750  10.272  1.00  0.00    -0.274 N 
ATOM      4  H2  UNL     1      35.056  -3.392   9.855  1.00  0.00     0.180 HD
ENDROOT
BRANCH   3   5
HETATM    5  C2  UNL     1      35.817  -4.496  11.489  1.00  0.00     0.146 C 
HETATM    6  N3  UNL     1      36.420  -5.634  11.571  1.00  0.00    -0.379 N 
ATOM      7  H32 UNL     1      36.957  -5.991  10.780  1.00  0.00     0.158 HD
ATOM      8  H31 UNL     1      36.350  -6.166  12.439  1.00  0.00     0.158 HD
BRANCH   5   9
HETATM    9  S1  UNL     1      34.879  -3.873  12.871  1.00  0.00    -0.093 SA
BRANCH   9  10
HETATM   10  C3  UNL     1      35.913  -2.597  13.705  1.00  0.00     0.087 C 
BRANCH  10  11
HETATM   11  C4  UNL     1      37.316  -2.647  13.242  1.00  0.00     0.003 C 
HETATM   12  C5  UNL     1      37.865  -1.398  12.675  1.00  0.00    -0.009 C 
HETATM   13  C6  UNL     1      39.223  -1.995  13.037  1.00  0.00     0.010 C 
HETATM   14  C8  UNL     1      37.907  -0.836  14.044  1.00  0.00     0.010 C 
HETATM   15  C7  UNL     1      38.334  -2.239  14.251  1.00  0.00    -0.009 C 
ENDBRANCH  10  11
ENDBRANCH   9  10
ENDBRANCH   5   9
ENDBRANCH   3   5
TORSDOF 4
ENDMDL
MODEL 2
REMARK VINA RESULT: -5.042087441      0.693      1.072
REMARK  4 active torsions:
REMARK  status: ('A' for Active; 'I' for Inactive)
REMARK    1  A    between atoms: N2_3  and  C2_5 
REMARK    2  A    between atoms: C2_5  and  S1_9 
REMARK    3  A    between atoms: S1_9  and  C3_10 
REMARK    4  A    between atoms: C3_10  and  C4_11 
ROOT
HETATM    1  N1  UNL     1      38.118  -3.401   9.325  1.00  0.00    -0.172 NA
HETATM    2  C1  UNL     1      37.071  -3.450   9.770  1.00  0.00     0.183 C 
HETATM    3  N2  UNL     1      35.785  -3.499  10.293  1.00  0.00    -0.274 N 
ATOM      4  H2  UNL     1      35.055  -2.954   9.835  1.00  0.00     0.180 HD
ENDROOT
BRANCH   3   5
HETATM    5  C2  UNL     1      35.431  -4.276  11.442  1.00  0.00     0.146 C 
HETATM    6  N3  UNL     1      35.370  -5.560  11.329  1.00  0.00    -0.379 N 
ATOM      7  H32 UNL     1      35.574  -6.009  10.436  1.00  0.00     0.158 HD
ATOM      8  H31 UNL     1      35.118  -6.114  12.148  1.00  0.00     0.158 HD
BRANCH   5   9
HETATM    9  S1  UNL     1      35.076  -3.491  13.002  1.00  0.00    -0.093 SA
BRANCH   9  10
HETATM   10  C3  UNL     1      36.688  -3.146  13.822  1.00  0.00     0.087 C 
BRANCH  10  11
HETATM   11  C4  UNL     1      37.271  -1.869  13.357  1.00  0.00     0.003 C 
HETATM   12  C5  UNL     1      37.924  -1.033  14.386  1.00  0.00    -0.009 C 
HETATM   13  C6  UNL     1      38.681  -0.423  13.208  1.00  0.00     0.010 C 
HETATM   14  C8  UNL     1      39.041  -2.004  14.416  1.00  0.00     0.010 C 
HETATM   15  C7  UNL     1      38.710  -1.929  12.974  1.00  0.00    -0.009 C 
ENDBRANCH  10  11
ENDBRANCH   9  10
ENDBRANCH   5   9
ENDBRANCH   3   5
TORSDOF 4
ENDMDL
MODEL 3
REMARK VINA RESULT: -4.868555210      1.210      1.780
REMARK  4 active torsions:
REMARK  status: ('A' for Active; 'I' for Inactive)
REMARK    1  A    between atoms: N2_3  and  C2_5 
REMARK    2  A    between atoms: C2_5  and  S1_9 
REMARK    3  A    between atoms: S1_9  and  C3_10 
REMARK    4  A    between atoms: C3_10  and  C4_11 
ROOT
HETATM    1  N1  UNL     1      36.657  -1.211   8.778  1.00  0.00    -0.172 NA
HETATM    2  C1  UNL     1      37.133  -2.175   9.152  1.00  0.00     0.183 C 
HETATM    3  N2  UNL     1      37.736  -3.342   9.604  1.00  0.00    -0.274 N 
ATOM      4  H2  UNL     1      38.713  -3.507   9.362  1.00  0.00     0.180 HD
ENDROOT
BRANCH   3   5
HETATM    5  C2  UNL     1      37.058  -4.326  10.391  1.00  0.00     0.146 C 
HETATM    6  N3  UNL     1      37.303  -5.574  10.173  1.00  0.00    -0.379 N 
ATOM      7  H32 UNL     1      37.970  -5.850   9.452  1.00  0.00     0.158 HD
ATOM      8  H31 UNL     1      36.819  -6.276  10.735  1.00  0.00     0.158 HD
BRANCH   5   9
HETATM    9  S1  UNL     1      35.893  -3.844  11.651  1.00  0.00    -0.093 SA
BRANCH   9  10
HETATM   10  C3  UNL     1      36.800  -3.810  13.253  1.00  0.00     0.087 C 
BRANCH  10  11
HETATM   11  C4  UNL     1      37.016  -2.426  13.726  1.00  0.00     0.003 C 
HETATM   12  C5  UNL     1      38.343  -2.130  14.305  1.00  0.00    -0.009 C 
HETATM   13  C6  UNL     1      38.019  -0.681  13.949  1.00  0.00     0.010 C 
HETATM   14  C8  UNL     1      38.912  -2.188  12.940  1.00  0.00     0.010 C 
HETATM   15  C7  UNL     1      37.618  -1.499  12.727  1.00  0.00    -0.009 C 
ENDBRANCH  10  11
ENDBRANCH   9  10
ENDBRANCH   5   9
ENDBRANCH   3   5
TORSDOF 4
ENDMDL
MODEL 4
REMARK VINA RESULT: -4.674428495      1.095      1.586
REMARK  4 active torsions:
REMARK  status: ('A' for Active; 'I' for Inactive)
REMARK    1  A    between atoms: N2_3  and  C2_5 
REMARK    2  A    between atoms: C2_5  and  S1_9 
REMARK    3  A    between atoms: S1_9  and  C3_10 
REMARK    4  A    between atoms: C3_10  and  C4_11 
ROOT
HETATM    1  N1  UNL     1      37.793  -2.906   8.889  1.00  0.00    -0.172 NA
HETATM    2  C1  UNL     1      37.514  -3.758   9.591  1.00  0.00     0.183 C 
HETATM    3  N2  UNL     1      37.195  -4.810  10.441  1.00  0.00    -0.274 N 
ATOM      4  H2  UNL     1      37.682  -5.697  10.318  1.00  0.00     0.180 HD
ENDROOT
BRANCH   3   5
HETATM    5  C2  UNL     1      36.217  -4.712  11.482  1.00  0.00     0.146 C 
HETATM    6  N3  UNL     1      35.057  -5.249  11.298  1.00  0.00    -0.379 N 
ATOM      7  H32 UNL     1      34.847  -5.733  10.425  1.00  0.00     0.158 HD
ATOM      8  H31 UNL     1      34.360  -5.180  12.039  1.00  0.00     0.158 HD
BRANCH   5   9
HETATM    9  S1  UNL     1      36.585  -3.866  13.007  1.00  0.00    -0.093 SA
BRANCH   9  10
HETATM   10  C3  UNL     1      36.847  -2.089  12.599  1.00  0.00     0.087 C 
BRANCH  10  11
HETATM   11  C4  UNL     1      37.344  -1.331  13.767  1.00  0.00     0.003 C 
HETATM   12  C5  UNL     1      38.462  -1.940  14.516  1.00  0.00    -0.009 C 
HETATM   13  C6  UNL     1      38.738  -0.514  14.986  1.00  0.00     0.010 C 
HETATM   14  C8  UNL     1      39.359  -1.590  13.392  1.00  0.00     0.010 C 
HETATM   15  C7  UNL     1      38.477  -0.405  13.489  1.00  0.00    -0.009 C 
ENDBRANCH  10  11
ENDBRANCH   9  10
ENDBRANCH   5   9
ENDBRANCH   3   5
TORSDOF 4
ENDMDL
MODEL 5
REMARK VINA RESULT: -4.383286318      0.901      1.274
REMARK  4 active torsions:
REMARK  status: ('A' for Active; 'I' for Inactive)
REMARK    1  A    between atoms: N2_3  and  C2_5 
REMARK    2  A    between atoms: C2_5  and  S1_9 
REMARK    3  A    between atoms: S1_9  and  C3_10 
REMARK    4  A    between atoms: C3_10  and  C4_11 
ROOT
HETATM    1  N1  UNL     1      37.777  -5.438   8.985  1.00  0.00    -0.172 NA
HETATM    2  C1  UNL     1      37.223  -5.285   9.968  1.00  0.00     0.183 C 
HETATM    3  N2  UNL     1      36.565  -5.111  11.178  1.00  0.00    -0.274 N 
ATOM      4  H2  UNL     1      36.818  -5.718  11.958  1.00  0.00     0.180 HD
ENDROOT
BRANCH   3   5
HETATM    5  C2  UNL     1      35.549  -4.125  11.389  1.00  0.00     0.146 C 
HETATM    6  N3  UNL     1      35.084  -3.484  10.369  1.00  0.00    -0.379 N 
ATOM      7  H32 UNL     1      35.436  -3.682   9.432  1.00  0.00     0.158 HD
ATOM      8  H31 UNL     1      34.360  -2.781  10.519  1.00  0.00     0.158 HD
BRANCH   5   9
HETATM    9  S1  UNL     1      34.934  -3.780  13.026  1.00  0.00    -0.093 SA
BRANCH   9  10
HETATM   10  C3  UNL     1      35.975  -2.434  13.730  1.00  0.00     0.087 C 
BRANCH  10  11
HETATM   11  C4  UNL     1      37.375  -2.529  13.265  1.00  0.00     0.003 C 
HETATM   12  C5  UNL     1      37.970  -1.292  12.718  1.00  0.00    -0.009 C 
HETATM   13  C6  UNL     1      39.304  -1.946  13.069  1.00  0.00     0.010 C 
HETATM   14  C8  UNL     1      38.034  -0.755  14.096  1.00  0.00     0.010 C 
HETATM   15  C7  UNL     1      38.408  -2.177  14.280  1.00  0.00    -0.009 C 
ENDBRANCH  10  11
ENDBRANCH   9  10
ENDBRANCH   5   9
ENDBRANCH   3   5
TORSDOF 4
ENDMDL
