MODEL 1
REMARK VINA RESULT: -10.232917275      0.000      0.000
REMARK  3 active torsions:
REMARK  status: ('A' for Active; 'I' for Inactive)
REMARK    1  A    between atoms: C2_2  and  C5_5 
REMARK    2  A    between atoms: C8_8  and  N1_9 
REMARK    3  A    between atoms: C12_16  and  N3_17 
ROOT
HETATM    1  C5  UNL     1     -10.998   3.301   2.569  1.00  0.00    -0.032 A 
HETATM    2  C6  UNL     1     -11.572   2.298   1.818  1.00  0.00     0.011 A 
HETATM    3  C7  UNL     1     -11.227   1.011   2.176  1.00  0.00     0.031 A 
HETATM    4  C8  UNL     1     -10.378   0.689   3.196  1.00  0.00     0.048 A 
HETATM    5  C13 UNL     1      -9.783   1.709   3.972  1.00  0.00     0.032 A 
HETATM    6  C14 UNL     1      -8.928   1.568   5.006  1.00  0.00     0.089 A 
HETATM    7  C15 UNL     1      -8.448   0.277   5.526  1.00  0.00     0.103 C 
HETATM    8  N4  UNL     1      -8.064  -0.755   5.932  1.00  0.00    -0.191 NA
HETATM    9  C16 UNL     1      -8.481   2.714   5.608  1.00  0.00     0.109 A 
HETATM   10  N5  UNL     1      -7.590   2.894   6.702  1.00  0.00    -0.093 NA
HETATM   11  S1  UNL     1      -9.256   3.945   4.724  1.00  0.00    -0.072 SA
HETATM   12  C17 UNL     1     -10.126   2.982   3.615  1.00  0.00     0.028 A 
ENDROOT
BRANCH   4  13
HETATM   13  N1  UNL     1     -10.133  -0.686   3.426  1.00  0.00    -0.321 N 
HETATM   14  C9  UNL     1      -9.728  -1.508   2.518  1.00  0.00     0.230 A 
HETATM   15  N2  UNL     1      -9.540  -2.785   2.888  1.00  0.00    -0.332 N 
HETATM   16  O1  UNL     1      -9.502  -1.154   1.279  1.00  0.00    -0.262 OA
HETATM   17  C10 UNL     1      -9.122  -3.704   2.009  1.00  0.00     0.096 A 
ATOM     18  H2  UNL     1      -9.719  -3.059   3.855  1.00  0.00     0.168 HD
HETATM   19  C11 UNL     1      -8.885  -3.336   0.713  1.00  0.00     0.073 A 
HETATM   20  C12 UNL     1      -9.093  -2.014   0.382  1.00  0.00     0.146 A 
ATOM     21  H1  UNL     1     -10.285  -1.049   4.367  1.00  0.00     0.169 HD
BRANCH  20  22
HETATM   22  N3  UNL     1      -8.865  -1.675  -0.851  1.00  0.00    -0.380 N 
ATOM     23  H32 UNL     1      -8.189  -2.167  -1.435  1.00  0.00     0.158 HD
ATOM     24  H31 UNL     1      -9.397  -0.886  -1.217  1.00  0.00     0.158 HD
ENDBRANCH  20  22
ENDBRANCH   4  13
BRANCH   1  25
HETATM   25  C2  UNL     1     -11.280   4.715   2.295  1.00  0.00    -0.023 C 
HETATM   26  C1  UNL     1     -11.951   4.852   0.944  1.00  0.00     0.019 C 
HETATM   27  C3  UNL     1     -10.002   5.543   2.223  1.00  0.00     0.019 C 
HETATM   28  C4  UNL     1     -12.213   5.233   3.357  1.00  0.00     0.019 C 
ENDBRANCH   1  25
TORSDOF 3
ENDMDL
MODEL 2
REMARK VINA RESULT: -9.908528197      0.960      1.093
REMARK  3 active torsions:
REMARK  status: ('A' for Active; 'I' for Inactive)
REMARK    1  A    between atoms: C2_2  and  C5_5 
REMARK    2  A    between atoms: C8_8  and  N1_9 
REMARK    3  A    between atoms: C12_16  and  N3_17 
ROOT
HETATM    1  C5  UNL     1     -10.247   3.993   3.107  1.00  0.00    -0.032 A 
HETATM    2  C6  UNL     1     -10.940   3.316   2.128  1.00  0.00     0.011 A 
HETATM    3  C7  UNL     1     -10.911   1.940   2.217  1.00  0.00     0.031 A 
HETATM    4  C8  UNL     1     -10.255   1.238   3.189  1.00  0.00     0.048 A 
HETATM    5  C13 UNL     1      -9.541   1.922   4.197  1.00  0.00     0.032 A 
HETATM    6  C14 UNL     1      -8.843   1.389   5.222  1.00  0.00     0.089 A 
HETATM    7  C15 UNL     1      -8.700  -0.054   5.476  1.00  0.00     0.103 C 
HETATM    8  N4  UNL     1      -8.584  -1.206   5.671  1.00  0.00    -0.191 NA
HETATM    9  C16 UNL     1      -8.228   2.260   6.080  1.00  0.00     0.109 A 
HETATM   10  N5  UNL     1      -7.434   2.014   7.234  1.00  0.00    -0.093 NA
HETATM   11  S1  UNL     1      -8.634   3.786   5.441  1.00  0.00    -0.072 SA
HETATM   12  C17 UNL     1      -9.571   3.284   4.105  1.00  0.00     0.028 A 
ENDROOT
BRANCH   4  13
HETATM   13  N1  UNL     1     -10.329  -0.175   3.130  1.00  0.00    -0.321 N 
HETATM   14  C9  UNL     1      -9.948  -0.875   2.116  1.00  0.00     0.230 A 
HETATM   15  N2  UNL     1     -10.081  -2.208   2.208  1.00  0.00    -0.332 N 
HETATM   16  O1  UNL     1      -9.451  -0.348   1.027  1.00  0.00    -0.262 OA
HETATM   17  C10 UNL     1      -9.711  -3.009   1.202  1.00  0.00     0.096 A 
ATOM     18  H2  UNL     1     -10.471  -2.616   3.058  1.00  0.00     0.168 HD
HETATM   19  C11 UNL     1      -9.191  -2.461   0.061  1.00  0.00     0.073 A 
HETATM   20  C12 UNL     1      -9.075  -1.088   0.015  1.00  0.00     0.146 A 
ATOM     21  H1  UNL     1     -10.706  -0.669   3.938  1.00  0.00     0.169 HD
BRANCH  20  22
HETATM   22  N3  UNL     1      -8.580  -0.578  -1.071  1.00  0.00    -0.380 N 
ATOM     23  H32 UNL     1      -7.810  -1.015  -1.578  1.00  0.00     0.158 HD
ATOM     24  H31 UNL     1      -8.998   0.291  -1.404  1.00  0.00     0.158 HD
ENDBRANCH  20  22
ENDBRANCH   4  13
BRANCH   1  25
HETATM   25  C2  UNL     1     -10.196   5.460   3.129  1.00  0.00    -0.023 C 
HETATM   26  C1  UNL     1     -10.216   5.996   1.712  1.00  0.00     0.019 C 
HETATM   27  C3  UNL     1      -8.907   5.972   3.762  1.00  0.00     0.019 C 
HETATM   28  C4  UNL     1     -11.409   5.971   3.860  1.00  0.00     0.019 C 
ENDBRANCH   1  25
TORSDOF 3
ENDMDL
MODEL 3
REMARK VINA RESULT: -9.115379009      2.534      4.739
REMARK  3 active torsions:
REMARK  status: ('A' for Active; 'I' for Inactive)
REMARK    1  A    between atoms: C2_2  and  C5_5 
REMARK    2  A    between atoms: C8_8  and  N1_9 
REMARK    3  A    between atoms: C12_16  and  N3_17 
ROOT
HETATM    1  C5  UNL     1      -8.820   0.955   5.061  1.00  0.00    -0.032 A 
HETATM    2  C6  UNL     1      -9.476  -0.051   4.387  1.00  0.00     0.011 A 
HETATM    3  C7  UNL     1     -10.267   0.354   3.331  1.00  0.00     0.031 A 
HETATM    4  C8  UNL     1     -10.429   1.651   2.934  1.00  0.00     0.048 A 
HETATM    5  C13 UNL     1      -9.762   2.691   3.618  1.00  0.00     0.032 A 
HETATM    6  C14 UNL     1      -9.811   4.014   3.361  1.00  0.00     0.089 A 
HETATM    7  C15 UNL     1     -10.598   4.628   2.279  1.00  0.00     0.103 C 
HETATM    8  N4  UNL     1     -11.234   5.113   1.419  1.00  0.00    -0.191 NA
HETATM    9  C16 UNL     1      -9.071   4.836   4.168  1.00  0.00     0.109 A 
HETATM   10  N5  UNL     1      -8.917   6.249   4.152  1.00  0.00    -0.093 NA
HETATM   11  S1  UNL     1      -8.335   3.752   5.256  1.00  0.00    -0.072 SA
HETATM   12  C17 UNL     1      -8.980   2.287   4.663  1.00  0.00     0.028 A 
ENDROOT
BRANCH   4  13
HETATM   13  N1  UNL     1     -11.281   1.889   1.827  1.00  0.00    -0.321 N 
HETATM   14  C9  UNL     1     -11.138   1.327   0.675  1.00  0.00     0.230 A 
HETATM   15  N2  UNL     1     -12.025   1.654  -0.278  1.00  0.00    -0.332 N 
HETATM   16  O1  UNL     1     -10.184   0.473   0.406  1.00  0.00    -0.262 OA
HETATM   17  C10 UNL     1     -11.950   1.118  -1.503  1.00  0.00     0.096 A 
ATOM     18  H2  UNL     1     -12.767   2.321  -0.067  1.00  0.00     0.168 HD
HETATM   19  C11 UNL     1     -10.953   0.225  -1.788  1.00  0.00     0.073 A 
HETATM   20  C12 UNL     1     -10.067  -0.078  -0.775  1.00  0.00     0.146 A 
ATOM     21  H1  UNL     1     -12.053   2.543   1.949  1.00  0.00     0.169 HD
BRANCH  20  22
HETATM   22  N3  UNL     1      -9.125  -0.926  -1.055  1.00  0.00    -0.380 N 
ATOM     23  H32 UNL     1      -8.791  -1.075  -2.007  1.00  0.00     0.158 HD
ATOM     24  H31 UNL     1      -8.727  -1.446  -0.273  1.00  0.00     0.158 HD
ENDBRANCH  20  22
ENDBRANCH   4  13
BRANCH   1  25
HETATM   25  C2  UNL     1      -7.947   0.664   6.204  1.00  0.00    -0.023 C 
HETATM   26  C1  UNL     1      -7.967  -0.822   6.500  1.00  0.00     0.019 C 
HETATM   27  C3  UNL     1      -8.425   1.359   7.474  1.00  0.00     0.019 C 
HETATM   28  C4  UNL     1      -6.540   1.070   5.850  1.00  0.00     0.019 C 
ENDBRANCH   1  25
TORSDOF 3
ENDMDL
MODEL 4
REMARK VINA RESULT: -9.020521994      1.077      1.490
REMARK  3 active torsions:
REMARK  status: ('A' for Active; 'I' for Inactive)
REMARK    1  A    between atoms: C2_2  and  C5_5 
REMARK    2  A    between atoms: C8_8  and  N1_9 
REMARK    3  A    between atoms: C12_16  and  N3_17 
ROOT
HETATM    1  C5  UNL     1     -10.272   4.458   2.918  1.00  0.00    -0.032 A 
HETATM    2  C6  UNL     1     -11.139   3.824   2.056  1.00  0.00     0.011 A 
HETATM    3  C7  UNL     1     -11.203   2.451   2.175  1.00  0.00     0.031 A 
HETATM    4  C8  UNL     1     -10.478   1.714   3.068  1.00  0.00     0.048 A 
HETATM    5  C13 UNL     1      -9.585   2.354   3.956  1.00  0.00     0.032 A 
HETATM    6  C14 UNL     1      -8.799   1.782   4.892  1.00  0.00     0.089 A 
HETATM    7  C15 UNL     1      -8.734   0.336   5.161  1.00  0.00     0.103 C 
HETATM    8  N4  UNL     1      -8.681  -0.819   5.367  1.00  0.00    -0.191 NA
HETATM    9  C16 UNL     1      -8.011   2.615   5.640  1.00  0.00     0.109 A 
HETATM   10  N5  UNL     1      -7.091   2.323   6.684  1.00  0.00    -0.093 NA
HETATM   11  S1  UNL     1      -8.382   4.158   5.023  1.00  0.00    -0.072 SA
HETATM   12  C17 UNL     1      -9.525   3.712   3.835  1.00  0.00     0.028 A 
ENDROOT
BRANCH   4  13
HETATM   13  N1  UNL     1     -10.667   0.310   3.054  1.00  0.00    -0.321 N 
HETATM   14  C9  UNL     1     -10.198  -0.471   2.141  1.00  0.00     0.230 A 
HETATM   15  N2  UNL     1     -10.460  -1.782   2.264  1.00  0.00    -0.332 N 
HETATM   16  O1  UNL     1      -9.494  -0.044   1.124  1.00  0.00    -0.262 OA
HETATM   17  C10 UNL     1     -10.011  -2.662   1.361  1.00  0.00     0.096 A 
ATOM     18  H2  UNL     1     -11.009  -2.112   3.057  1.00  0.00     0.168 HD
HETATM   19  C11 UNL     1      -9.276  -2.219   0.295  1.00  0.00     0.073 A 
HETATM   20  C12 UNL     1      -9.034  -0.864   0.214  1.00  0.00     0.146 A 
ATOM     21  H1  UNL     1     -11.205  -0.109   3.812  1.00  0.00     0.169 HD
BRANCH  20  22
HETATM   22  N3  UNL     1      -8.335  -0.454  -0.800  1.00  0.00    -0.380 N 
ATOM     23  H32 UNL     1      -7.799  -1.093  -1.387  1.00  0.00     0.158 HD
ATOM     24  H31 UNL     1      -8.344   0.548  -0.990  1.00  0.00     0.158 HD
ENDBRANCH  20  22
ENDBRANCH   4  13
BRANCH   1  25
HETATM   25  C2  UNL     1     -10.107   5.917   2.897  1.00  0.00    -0.023 C 
HETATM   26  C1  UNL     1     -11.245   6.573   3.652  1.00  0.00     0.019 C 
HETATM   27  C3  UNL     1     -10.158   6.472   1.479  1.00  0.00     0.019 C 
HETATM   28  C4  UNL     1      -8.809   6.262   3.578  1.00  0.00     0.019 C 
ENDBRANCH   1  25
TORSDOF 3
ENDMDL
MODEL 5
REMARK VINA RESULT: -8.310838846      3.499      6.634
REMARK  3 active torsions:
REMARK  status: ('A' for Active; 'I' for Inactive)
REMARK    1  A    between atoms: C2_2  and  C5_5 
REMARK    2  A    between atoms: C8_8  and  N1_9 
REMARK    3  A    between atoms: C12_16  and  N3_17 
ROOT
HETATM    1  C5  UNL     1     -10.845   2.559   1.656  1.00  0.00    -0.032 A 
HETATM    2  C6  UNL     1     -11.296   3.826   1.359  1.00  0.00     0.011 A 
HETATM    3  C7  UNL     1     -10.782   4.841   2.139  1.00  0.00     0.031 A 
HETATM    4  C8  UNL     1      -9.885   4.664   3.153  1.00  0.00     0.048 A 
HETATM    5  C13 UNL     1      -9.416   3.369   3.467  1.00  0.00     0.032 A 
HETATM    6  C14 UNL     1      -8.537   3.018   4.429  1.00  0.00     0.089 A 
HETATM    7  C15 UNL     1      -7.888   3.962   5.354  1.00  0.00     0.103 C 
HETATM    8  N4  UNL     1      -7.380   4.718   6.095  1.00  0.00    -0.191 NA
HETATM    9  C16 UNL     1      -8.233   1.688   4.544  1.00  0.00     0.109 A 
HETATM   10  N5  UNL     1      -7.359   1.016   5.442  1.00  0.00    -0.093 NA
HETATM   11  S1  UNL     1      -9.173   0.968   3.320  1.00  0.00    -0.072 SA
HETATM   12  C17 UNL     1      -9.926   2.366   2.693  1.00  0.00     0.028 A 
ENDROOT
BRANCH   4  13
HETATM   13  N1  UNL     1      -9.461   5.819   3.854  1.00  0.00    -0.321 N 
HETATM   14  C9  UNL     1      -9.412   6.999   3.335  1.00  0.00     0.230 A 
HETATM   15  N2  UNL     1      -8.988   7.998   4.126  1.00  0.00    -0.332 N 
HETATM   16  O1  UNL     1      -9.750   7.253   2.097  1.00  0.00    -0.262 OA
HETATM   17  C10 UNL     1      -8.906   9.253   3.668  1.00  0.00     0.096 A 
ATOM     18  H2  UNL     1      -8.723   7.797   5.091  1.00  0.00     0.168 HD
HETATM   19  C11 UNL     1      -9.258   9.522   2.373  1.00  0.00     0.073 A 
HETATM   20  C12 UNL     1      -9.687   8.462   1.602  1.00  0.00     0.146 A 
ATOM     21  H1  UNL     1      -9.178   5.713   4.828  1.00  0.00     0.169 HD
BRANCH  20  22
HETATM   22  N3  UNL     1     -10.020   8.727   0.375  1.00  0.00    -0.380 N 
ATOM     23  H32 UNL     1     -10.106   9.683   0.028  1.00  0.00     0.158 HD
ATOM     24  H31 UNL     1     -10.194   7.931  -0.237  1.00  0.00     0.158 HD
ENDBRANCH  20  22
ENDBRANCH   4  13
BRANCH   1  25
HETATM   25  C2  UNL     1     -11.311   1.387   0.903  1.00  0.00    -0.023 C 
HETATM   26  C1  UNL     1     -10.123   0.586   0.414  1.00  0.00     0.019 C 
HETATM   27  C3  UNL     1     -12.098   1.789  -0.339  1.00  0.00     0.019 C 
HETATM   28  C4  UNL     1     -12.135   0.524   1.822  1.00  0.00     0.019 C 
ENDBRANCH   1  25
TORSDOF 3
ENDMDL
