MODEL 1
REMARK VINA RESULT: -10.939161998      0.000      0.000
REMARK  1 active torsions:
REMARK  status: ('A' for Active; 'I' for Inactive)
REMARK    1  A    between atoms: N1_1  and  C1_4 
ROOT
HETATM    1  C1  UNL     1      -8.583   2.540   6.409  1.00  0.00     0.142 A 
HETATM    2  C2  UNL     1      -8.078   1.454   7.090  1.00  0.00     0.058 A 
HETATM    3  C3  UNL     1      -8.196   0.203   6.558  1.00  0.00     0.037 A 
HETATM    4  C4  UNL     1      -8.834   0.082   5.320  1.00  0.00     0.070 A 
HETATM    5  N2  UNL     1      -8.944  -1.153   4.804  1.00  0.00    -0.343 N 
ATOM      6  H2  UNL     1      -8.574  -1.965   5.299  1.00  0.00     0.167 HD
HETATM    7  C5  UNL     1      -9.554  -1.282   3.618  1.00  0.00     0.130 A 
HETATM    8  S1  UNL     1      -9.715  -2.750   2.949  1.00  0.00    -0.058 SA
HETATM    9  C6  UNL     1     -10.076  -0.198   2.901  1.00  0.00     0.102 A 
HETATM   10  N3  UNL     1     -10.678  -0.395   1.713  1.00  0.00    -0.336 N 
ATOM     11  H3  UNL     1     -10.768  -1.327   1.308  1.00  0.00     0.168 HD
HETATM   12  C7  UNL     1     -11.161   0.713   1.077  1.00  0.00     0.134 A 
HETATM   13  N4  UNL     1     -11.802   0.861  -0.099  1.00  0.00    -0.340 N 
ATOM     14  H4  UNL     1     -12.035   0.096  -0.731  1.00  0.00     0.167 HD
HETATM   15  C8  UNL     1     -12.092   2.154  -0.326  1.00  0.00     0.046 A 
HETATM   16  C9  UNL     1     -12.728   2.828  -1.360  1.00  0.00     0.030 A 
HETATM   17  C10 UNL     1     -12.901   4.188  -1.348  1.00  0.00     0.002 A 
HETATM   18  C11 UNL     1     -12.420   4.897  -0.260  1.00  0.00     0.001 A 
HETATM   19  C12 UNL     1     -11.784   4.269   0.785  1.00  0.00     0.016 A 
HETATM   20  C13 UNL     1     -11.627   2.901   0.740  1.00  0.00     0.021 A 
HETATM   21  C14 UNL     1     -11.049   1.982   1.604  1.00  0.00     0.090 A 
HETATM   22  N5  UNL     1     -10.435   2.128   2.802  1.00  0.00    -0.348 N 
ATOM     23  H5  UNL     1     -10.341   3.056   3.212  1.00  0.00     0.166 HD
HETATM   24  C15 UNL     1      -9.948   1.054   3.455  1.00  0.00     0.099 A 
HETATM   25  C16 UNL     1      -9.318   1.201   4.684  1.00  0.00     0.133 A 
HETATM   26  O1  UNL     1      -9.175   2.363   5.243  1.00  0.00    -0.290 OA
ENDROOT
BRANCH   1  27
HETATM   27  N1  UNL     1      -8.456   3.708   6.938  1.00  0.00    -0.380 N 
ATOM     28  H12 UNL     1      -9.261   4.240   7.272  1.00  0.00     0.158 HD
ATOM     29  H11 UNL     1      -7.519   4.104   7.021  1.00  0.00     0.158 HD
ENDBRANCH   1  27
TORSDOF 1
ENDMDL
MODEL 2
REMARK VINA RESULT: -9.473882348      2.820      4.943
REMARK  1 active torsions:
REMARK  status: ('A' for Active; 'I' for Inactive)
REMARK    1  A    between atoms: N1_1  and  C1_4 
ROOT
HETATM    1  C1  UNL     1      -9.821  -0.892   0.095  1.00  0.00     0.142 A 
HETATM    2  C2  UNL     1      -9.707  -2.152   0.640  1.00  0.00     0.058 A 
HETATM    3  C3  UNL     1      -9.520  -2.299   1.983  1.00  0.00     0.037 A 
HETATM    4  C4  UNL     1      -9.454  -1.137   2.759  1.00  0.00     0.070 A 
HETATM    5  N2  UNL     1      -9.271  -1.291   4.080  1.00  0.00    -0.343 N 
ATOM      6  H2  UNL     1      -9.185  -2.219   4.495  1.00  0.00     0.167 HD
HETATM    7  C5  UNL     1      -9.206  -0.185   4.835  1.00  0.00     0.130 A 
HETATM    8  S1  UNL     1      -8.985  -0.313   6.436  1.00  0.00    -0.058 SA
HETATM    9  C6  UNL     1      -9.320   1.109   4.311  1.00  0.00     0.102 A 
HETATM   10  N3  UNL     1      -9.246   2.180   5.124  1.00  0.00    -0.336 N 
ATOM     11  H3  UNL     1      -9.108   2.079   6.129  1.00  0.00     0.168 HD
HETATM   12  C7  UNL     1      -9.366   3.407   4.536  1.00  0.00     0.134 A 
HETATM   13  N4  UNL     1      -9.338   4.652   5.051  1.00  0.00    -0.340 N 
ATOM     14  H4  UNL     1      -9.212   4.866   6.040  1.00  0.00     0.167 HD
HETATM   15  C8  UNL     1      -9.499   5.573   4.085  1.00  0.00     0.046 A 
HETATM   16  C9  UNL     1      -9.545   6.961   4.080  1.00  0.00     0.030 A 
HETATM   17  C10 UNL     1      -9.725   7.682   2.927  1.00  0.00     0.002 A 
HETATM   18  C11 UNL     1      -9.862   6.985   1.738  1.00  0.00     0.001 A 
HETATM   19  C12 UNL     1      -9.821   5.611   1.698  1.00  0.00     0.016 A 
HETATM   20  C13 UNL     1      -9.640   4.919   2.876  1.00  0.00     0.021 A 
HETATM   21  C14 UNL     1      -9.554   3.568   3.180  1.00  0.00     0.090 A 
HETATM   22  N5  UNL     1      -9.622   2.460   2.405  1.00  0.00    -0.348 N 
ATOM     23  H5  UNL     1      -9.760   2.553   1.400  1.00  0.00     0.166 HD
HETATM   24  C15 UNL     1      -9.507   1.234   2.954  1.00  0.00     0.099 A 
HETATM   25  C16 UNL     1      -9.576   0.096   2.162  1.00  0.00     0.133 A 
HETATM   26  O1  UNL     1      -9.751   0.167   0.879  1.00  0.00    -0.290 OA
ENDROOT
BRANCH   1  27
HETATM   27  N1  UNL     1      -9.997  -0.788  -1.177  1.00  0.00    -0.380 N 
ATOM     28  H12 UNL     1      -9.257  -1.010  -1.845  1.00  0.00     0.158 HD
ATOM     29  H11 UNL     1     -10.906  -0.473  -1.518  1.00  0.00     0.158 HD
ENDBRANCH   1  27
TORSDOF 1
ENDMDL
MODEL 3
REMARK VINA RESULT: -9.281885402      2.279      3.569
REMARK  1 active torsions:
REMARK  status: ('A' for Active; 'I' for Inactive)
REMARK    1  A    between atoms: N1_1  and  C1_4 
ROOT
HETATM    1  C1  UNL     1      -9.176  -1.202   4.741  1.00  0.00     0.142 A 
HETATM    2  C2  UNL     1      -8.488  -0.987   5.915  1.00  0.00     0.058 A 
HETATM    3  C3  UNL     1      -8.264   0.286   6.350  1.00  0.00     0.037 A 
HETATM    4  C4  UNL     1      -8.757   1.334   5.567  1.00  0.00     0.070 A 
HETATM    5  N2  UNL     1      -8.532   2.584   6.003  1.00  0.00    -0.343 N 
ATOM      6  H2  UNL     1      -8.024   2.756   6.871  1.00  0.00     0.167 HD
HETATM    7  C5  UNL     1      -8.999   3.599   5.261  1.00  0.00     0.130 A 
HETATM    8  S1  UNL     1      -8.755   5.128   5.741  1.00  0.00    -0.058 SA
HETATM    9  C6  UNL     1      -9.702   3.413   4.064  1.00  0.00     0.102 A 
HETATM   10  N3  UNL     1     -10.145   4.475   3.365  1.00  0.00    -0.336 N 
ATOM     11  H3  UNL     1      -9.983   5.430   3.684  1.00  0.00     0.168 HD
HETATM   12  C7  UNL     1     -10.822   4.210   2.209  1.00  0.00     0.134 A 
HETATM   13  N4  UNL     1     -11.385   5.026   1.296  1.00  0.00    -0.340 N 
ATOM     14  H4  UNL     1     -11.381   6.044   1.348  1.00  0.00     0.167 HD
HETATM   15  C8  UNL     1     -11.953   4.315   0.305  1.00  0.00     0.046 A 
HETATM   16  C9  UNL     1     -12.644   4.660  -0.849  1.00  0.00     0.030 A 
HETATM   17  C10 UNL     1     -13.132   3.717  -1.717  1.00  0.00     0.002 A 
HETATM   18  C11 UNL     1     -12.918   2.381  -1.417  1.00  0.00     0.001 A 
HETATM   19  C12 UNL     1     -12.238   1.997  -0.285  1.00  0.00     0.016 A 
HETATM   20  C13 UNL     1     -11.762   2.971   0.565  1.00  0.00     0.021 A 
HETATM   21  C14 UNL     1     -11.054   2.928   1.759  1.00  0.00     0.090 A 
HETATM   22  N5  UNL     1     -10.589   1.894   2.497  1.00  0.00    -0.348 N 
ATOM     23  H5  UNL     1     -10.747   0.937   2.184  1.00  0.00     0.166 HD
HETATM   24  C15 UNL     1      -9.917   2.121   3.644  1.00  0.00     0.099 A 
HETATM   25  C16 UNL     1      -9.438   1.063   4.403  1.00  0.00     0.133 A 
HETATM   26  O1  UNL     1      -9.617  -0.171   4.045  1.00  0.00    -0.290 OA
ENDROOT
BRANCH   1  27
HETATM   27  N1  UNL     1      -9.371  -2.417   4.358  1.00  0.00    -0.380 N 
ATOM     28  H12 UNL     1      -9.397  -3.194   5.018  1.00  0.00     0.158 HD
ATOM     29  H11 UNL     1      -9.500  -2.596   3.362  1.00  0.00     0.158 HD
ENDBRANCH   1  27
TORSDOF 1
ENDMDL
MODEL 4
REMARK VINA RESULT: -9.125336250      3.130      5.160
REMARK  1 active torsions:
REMARK  status: ('A' for Active; 'I' for Inactive)
REMARK    1  A    between atoms: N1_1  and  C1_4 
ROOT
HETATM    1  C1  UNL     1     -10.220  -0.033   0.917  1.00  0.00     0.142 A 
HETATM    2  C2  UNL     1     -10.033  -1.226   1.581  1.00  0.00     0.058 A 
HETATM    3  C3  UNL     1      -9.621  -1.224   2.881  1.00  0.00     0.037 A 
HETATM    4  C4  UNL     1      -9.406   0.015   3.491  1.00  0.00     0.070 A 
HETATM    5  N2  UNL     1      -9.002   0.007   4.772  1.00  0.00    -0.343 N 
ATOM      6  H2  UNL     1      -8.860  -0.870   5.274  1.00  0.00     0.167 HD
HETATM    7  C5  UNL     1      -8.791   1.189   5.369  1.00  0.00     0.130 A 
HETATM    8  S1  UNL     1      -8.302   1.237   6.913  1.00  0.00    -0.058 SA
HETATM    9  C6  UNL     1      -8.973   2.418   4.721  1.00  0.00     0.102 A 
HETATM   10  N3  UNL     1      -8.745   3.571   5.378  1.00  0.00    -0.336 N 
ATOM     11  H3  UNL     1      -8.439   3.581   6.350  1.00  0.00     0.168 HD
HETATM   12  C7  UNL     1      -8.945   4.727   4.677  1.00  0.00     0.134 A 
HETATM   13  N4  UNL     1      -8.811   6.020   5.029  1.00  0.00    -0.340 N 
ATOM     14  H4  UNL     1      -8.514   6.342   5.950  1.00  0.00     0.167 HD
HETATM   15  C8  UNL     1      -9.121   6.830   4.001  1.00  0.00     0.046 A 
HETATM   16  C9  UNL     1      -9.146   8.209   3.840  1.00  0.00     0.030 A 
HETATM   17  C10 UNL     1      -9.509   8.800   2.657  1.00  0.00     0.002 A 
HETATM   18  C11 UNL     1      -9.859   7.977   1.598  1.00  0.00     0.001 A 
HETATM   19  C12 UNL     1      -9.846   6.607   1.716  1.00  0.00     0.016 A 
HETATM   20  C13 UNL     1      -9.477   6.048   2.919  1.00  0.00     0.021 A 
HETATM   21  C14 UNL     1      -9.361   4.738   3.363  1.00  0.00     0.090 A 
HETATM   22  N5  UNL     1      -9.576   3.552   2.747  1.00  0.00    -0.348 N 
ATOM     23  H5  UNL     1      -9.883   3.535   1.775  1.00  0.00     0.166 HD
HETATM   24  C15 UNL     1      -9.388   2.393   3.411  1.00  0.00     0.099 A 
HETATM   25  C16 UNL     1      -9.609   1.176   2.782  1.00  0.00     0.133 A 
HETATM   26  O1  UNL     1     -10.001   1.106   1.547  1.00  0.00    -0.290 OA
ENDROOT
BRANCH   1  27
HETATM   27  N1  UNL     1     -10.609  -0.069  -0.311  1.00  0.00    -0.380 N 
ATOM     28  H12 UNL     1     -11.456   0.407  -0.623  1.00  0.00     0.158 HD
ATOM     29  H11 UNL     1     -10.047  -0.592  -0.982  1.00  0.00     0.158 HD
ENDBRANCH   1  27
TORSDOF 1
ENDMDL
MODEL 5
REMARK VINA RESULT: -9.051674266      2.781      4.634
REMARK  1 active torsions:
REMARK  status: ('A' for Active; 'I' for Inactive)
REMARK    1  A    between atoms: N1_1  and  C1_4 
ROOT
HETATM    1  C1  UNL     1      -8.543   2.870   6.560  1.00  0.00     0.142 A 
HETATM    2  C2  UNL     1      -8.911   4.174   6.808  1.00  0.00     0.058 A 
HETATM    3  C3  UNL     1      -9.573   4.889   5.853  1.00  0.00     0.037 A 
HETATM    4  C4  UNL     1      -9.853   4.247   4.643  1.00  0.00     0.070 A 
HETATM    5  N2  UNL     1     -10.506   4.958   3.709  1.00  0.00    -0.343 N 
ATOM      6  H2  UNL     1     -10.784   5.925   3.882  1.00  0.00     0.167 HD
HETATM    7  C5  UNL     1     -10.781   4.356   2.543  1.00  0.00     0.130 A 
HETATM    8  S1  UNL     1     -11.567   5.168   1.381  1.00  0.00    -0.058 SA
HETATM    9  C6  UNL     1     -10.421   3.032   2.261  1.00  0.00     0.102 A 
HETATM   10  N3  UNL     1     -10.727   2.484   1.070  1.00  0.00    -0.336 N 
ATOM     11  H3  UNL     1     -11.223   3.011   0.351  1.00  0.00     0.168 HD
HETATM   12  C7  UNL     1     -10.342   1.189   0.872  1.00  0.00     0.134 A 
HETATM   13  N4  UNL     1     -10.489   0.363  -0.183  1.00  0.00    -0.340 N 
ATOM     14  H4  UNL     1     -10.951   0.617  -1.056  1.00  0.00     0.167 HD
HETATM   15  C8  UNL     1      -9.946  -0.840   0.072  1.00  0.00     0.046 A 
HETATM   16  C9  UNL     1      -9.829  -2.015  -0.660  1.00  0.00     0.030 A 
HETATM   17  C10 UNL     1      -9.212  -3.131  -0.156  1.00  0.00     0.002 A 
HETATM   18  C11 UNL     1      -8.693  -3.065   1.127  1.00  0.00     0.001 A 
HETATM   19  C12 UNL     1      -8.786  -1.921   1.885  1.00  0.00     0.016 A 
HETATM   20  C13 UNL     1      -9.414  -0.819   1.347  1.00  0.00     0.021 A 
HETATM   21  C14 UNL     1      -9.672   0.457   1.829  1.00  0.00     0.090 A 
HETATM   22  N5  UNL     1      -9.387   1.052   3.010  1.00  0.00    -0.348 N 
ATOM     23  H5  UNL     1      -8.892   0.532   3.733  1.00  0.00     0.166 HD
HETATM   24  C15 UNL     1      -9.754   2.330   3.237  1.00  0.00     0.099 A 
HETATM   25  C16 UNL     1      -9.463   2.943   4.448  1.00  0.00     0.133 A 
HETATM   26  O1  UNL     1      -8.836   2.319   5.397  1.00  0.00    -0.290 OA
ENDROOT
BRANCH   1  27
HETATM   27  N1  UNL     1      -7.919   2.222   7.482  1.00  0.00    -0.380 N 
ATOM     28  H12 UNL     1      -7.430   2.699   8.241  1.00  0.00     0.158 HD
ATOM     29  H11 UNL     1      -7.917   1.203   7.443  1.00  0.00     0.158 HD
ENDBRANCH   1  27
TORSDOF 1
ENDMDL
