MODEL 1
REMARK VINA RESULT: -10.628806846      0.000      0.000
REMARK  0 active torsions:
REMARK  status: ('A' for Active; 'I' for Inactive)
ROOT
HETATM    1  C1  UNL     1      -7.131   1.672   6.640  1.00  0.00     0.076 C 
HETATM    2  C2  UNL     1      -8.171   1.427   5.573  1.00  0.00     0.049 A 
HETATM    3  N1  UNL     1      -8.933   2.332   4.982  1.00  0.00    -0.339 N 
ATOM      4  H1  UNL     1      -8.852   3.316   5.237  1.00  0.00     0.168 HD
HETATM    5  C3  UNL     1      -9.785   1.965   4.076  1.00  0.00     0.123 A 
HETATM    6  C4  UNL     1      -9.852   0.626   3.773  1.00  0.00     0.056 A 
HETATM    7  S1  UNL     1      -8.670  -0.023   4.822  1.00  0.00    -0.075 SA
HETATM    8  C5  UNL     1     -10.692  -0.151   2.813  1.00  0.00     0.170 A 
HETATM    9  C6  UNL     1     -10.049  -1.241   2.091  1.00  0.00    -0.003 A 
HETATM   10  C7  UNL     1      -9.509  -2.526   2.198  1.00  0.00     0.012 A 
HETATM   11  C8  UNL     1      -9.025  -3.100   1.057  1.00  0.00     0.001 A 
HETATM   12  C9  UNL     1      -9.058  -2.459  -0.155  1.00  0.00     0.002 A 
HETATM   13  C10 UNL     1      -9.594  -1.191  -0.249  1.00  0.00     0.030 A 
HETATM   14  C11 UNL     1     -10.090  -0.582   0.881  1.00  0.00     0.044 A 
HETATM   15  N2  UNL     1     -10.687   0.512   1.528  1.00  0.00    -0.327 N 
HETATM   16  C12 UNL     1     -11.166   1.825   1.227  1.00  0.00     0.107 A 
HETATM   17  C13 UNL     1     -11.730   2.236   0.058  1.00  0.00     0.099 A 
HETATM   18  N3  UNL     1     -11.927   1.389  -1.061  1.00  0.00    -0.098 NA
HETATM   19  C14 UNL     1     -12.043   3.574   0.205  1.00  0.00     0.035 A 
HETATM   20  C15 UNL     1     -12.678   4.442  -0.817  1.00  0.00     0.070 C 
HETATM   21  N4  UNL     1     -11.684   3.990   1.435  1.00  0.00    -0.338 N 
HETATM   22  C16 UNL     1     -11.818   5.309   2.032  1.00  0.00     0.158 C 
HETATM   23  C17 UNL     1     -11.143   2.932   2.077  1.00  0.00     0.138 A 
HETATM   24  N5  UNL     1     -10.625   2.957   3.420  1.00  0.00    -0.326 N 
ATOM     25  H5  UNL     1     -10.877   3.770   3.981  1.00  0.00     0.169 HD
ENDROOT
TORSDOF 0
ENDMDL
MODEL 2
REMARK VINA RESULT: -9.411399974      2.005      4.798
REMARK  0 active torsions:
REMARK  status: ('A' for Active; 'I' for Inactive)
ROOT
HETATM    1  C1  UNL     1     -13.539   2.267  -1.830  1.00  0.00     0.076 C 
HETATM    2  C2  UNL     1     -12.414   2.048  -0.847  1.00  0.00     0.049 A 
HETATM    3  N1  UNL     1     -11.997   2.890   0.086  1.00  0.00    -0.339 N 
ATOM      4  H1  UNL     1     -12.450   3.797   0.196  1.00  0.00     0.168 HD
HETATM    5  C3  UNL     1     -11.012   2.557   0.860  1.00  0.00     0.123 A 
HETATM    6  C4  UNL     1     -10.440   1.323   0.665  1.00  0.00     0.056 A 
HETATM    7  S1  UNL     1     -11.370   0.715  -0.634  1.00  0.00    -0.075 SA
HETATM    8  C5  UNL     1      -9.313   0.614   1.341  1.00  0.00     0.170 A 
HETATM    9  C6  UNL     1      -9.463  -0.817   1.572  1.00  0.00    -0.003 A 
HETATM   10  C7  UNL     1      -9.502  -2.078   0.969  1.00  0.00     0.012 A 
HETATM   11  C8  UNL     1      -9.665  -3.159   1.787  1.00  0.00     0.001 A 
HETATM   12  C9  UNL     1      -9.788  -3.035   3.148  1.00  0.00     0.002 A 
HETATM   13  C10 UNL     1      -9.748  -1.786   3.732  1.00  0.00     0.030 A 
HETATM   14  C11 UNL     1      -9.585  -0.674   2.937  1.00  0.00     0.044 A 
HETATM   15  N2  UNL     1      -9.474   0.717   2.774  1.00  0.00    -0.327 N 
HETATM   16  C12 UNL     1      -9.490   1.909   3.563  1.00  0.00     0.107 A 
HETATM   17  C13 UNL     1      -9.039   2.044   4.840  1.00  0.00     0.099 A 
HETATM   18  N3  UNL     1      -8.472   0.985   5.591  1.00  0.00    -0.098 NA
HETATM   19  C14 UNL     1      -9.247   3.360   5.209  1.00  0.00     0.035 A 
HETATM   20  C15 UNL     1      -8.907   3.966   6.519  1.00  0.00     0.070 C 
HETATM   21  N4  UNL     1      -9.815   4.031   4.188  1.00  0.00    -0.338 N 
HETATM   22  C16 UNL     1     -10.212   5.427   4.117  1.00  0.00     0.158 C 
HETATM   23  C17 UNL     1      -9.972   3.158   3.169  1.00  0.00     0.138 A 
HETATM   24  N5  UNL     1     -10.552   3.477   1.890  1.00  0.00    -0.326 N 
ATOM     25  H5  UNL     1     -10.652   4.470   1.680  1.00  0.00     0.169 HD
ENDROOT
TORSDOF 0
ENDMDL
MODEL 3
REMARK VINA RESULT: -9.139351716      2.483      6.924
REMARK  0 active torsions:
REMARK  status: ('A' for Active; 'I' for Inactive)
ROOT
HETATM    1  C1  UNL     1     -12.448   2.507  -1.492  1.00  0.00     0.076 C 
HETATM    2  C2  UNL     1     -12.004   2.633  -0.054  1.00  0.00     0.049 A 
HETATM    3  N1  UNL     1     -11.588   1.657   0.738  1.00  0.00    -0.339 N 
ATOM      4  H1  UNL     1     -11.543   0.700   0.390  1.00  0.00     0.168 HD
HETATM    5  C3  UNL     1     -11.237   1.923   1.957  1.00  0.00     0.123 A 
HETATM    6  C4  UNL     1     -11.319   3.231   2.371  1.00  0.00     0.056 A 
HETATM    7  S1  UNL     1     -11.901   4.001   0.961  1.00  0.00    -0.075 SA
HETATM    8  C5  UNL     1     -11.013   3.899   3.671  1.00  0.00     0.170 A 
HETATM    9  C6  UNL     1     -10.372   5.207   3.617  1.00  0.00    -0.003 A 
HETATM   10  C7  UNL     1     -10.548   6.558   3.304  1.00  0.00     0.012 A 
HETATM   11  C8  UNL     1      -9.483   7.391   3.498  1.00  0.00     0.001 A 
HETATM   12  C9  UNL     1      -8.280   6.940   3.981  1.00  0.00     0.002 A 
HETATM   13  C10 UNL     1      -8.118   5.604   4.287  1.00  0.00     0.030 A 
HETATM   14  C11 UNL     1      -9.171   4.737   4.103  1.00  0.00     0.044 A 
HETATM   15  N2  UNL     1      -9.726   3.448   4.150  1.00  0.00    -0.327 N 
HETATM   16  C12 UNL     1      -9.348   2.112   4.495  1.00  0.00     0.107 A 
HETATM   17  C13 UNL     1      -8.460   1.743   5.458  1.00  0.00     0.099 A 
HETATM   18  N3  UNL     1      -7.764   2.662   6.281  1.00  0.00    -0.098 NA
HETATM   19  C14 UNL     1      -8.399   0.362   5.448  1.00  0.00     0.035 A 
HETATM   20  C15 UNL     1      -7.560  -0.484   6.332  1.00  0.00     0.070 C 
HETATM   21  N4  UNL     1      -9.229  -0.120   4.502  1.00  0.00    -0.338 N 
HETATM   22  C16 UNL     1      -9.493  -1.501   4.132  1.00  0.00     0.158 C 
HETATM   23  C17 UNL     1      -9.820   0.938   3.906  1.00  0.00     0.138 A 
HETATM   24  N5  UNL     1     -10.775   0.855   2.832  1.00  0.00    -0.326 N 
ATOM     25  H5  UNL     1     -11.177  -0.067   2.663  1.00  0.00     0.169 HD
ENDROOT
TORSDOF 0
ENDMDL
MODEL 4
REMARK VINA RESULT: -8.780848194      2.079      6.355
REMARK  0 active torsions:
REMARK  status: ('A' for Active; 'I' for Inactive)
ROOT
HETATM    1  C1  UNL     1      -9.520  -1.422  -1.080  1.00  0.00     0.076 C 
HETATM    2  C2  UNL     1      -9.818  -0.547   0.114  1.00  0.00     0.049 A 
HETATM    3  N1  UNL     1      -9.436  -0.751   1.365  1.00  0.00    -0.339 N 
ATOM      4  H1  UNL     1      -8.879  -1.572   1.602  1.00  0.00     0.168 HD
HETATM    5  C3  UNL     1      -9.771   0.096   2.287  1.00  0.00     0.123 A 
HETATM    6  C4  UNL     1     -10.522   1.183   1.909  1.00  0.00     0.056 A 
HETATM    7  S1  UNL     1     -10.697   0.911   0.230  1.00  0.00    -0.075 SA
HETATM    8  C5  UNL     1     -11.086   2.336   2.672  1.00  0.00     0.170 A 
HETATM    9  C6  UNL     1     -11.047   3.646   2.033  1.00  0.00    -0.003 A 
HETATM   10  C7  UNL     1     -11.581   4.441   1.016  1.00  0.00     0.012 A 
HETATM   11  C8  UNL     1     -11.117   5.721   0.911  1.00  0.00     0.001 A 
HETATM   12  C9  UNL     1     -10.165   6.225   1.760  1.00  0.00     0.002 A 
HETATM   13  C10 UNL     1      -9.644   5.431   2.761  1.00  0.00     0.030 A 
HETATM   14  C11 UNL     1     -10.089   4.135   2.895  1.00  0.00     0.044 A 
HETATM   15  N2  UNL     1     -10.063   2.885   3.533  1.00  0.00    -0.327 N 
HETATM   16  C12 UNL     1      -9.381   2.224   4.603  1.00  0.00     0.107 A 
HETATM   17  C13 UNL     1      -8.923   2.796   5.750  1.00  0.00     0.099 A 
HETATM   18  N3  UNL     1      -9.061   4.173   6.053  1.00  0.00    -0.098 NA
HETATM   19  C14 UNL     1      -8.332   1.794   6.497  1.00  0.00     0.035 A 
HETATM   20  C15 UNL     1      -7.694   1.953   7.827  1.00  0.00     0.070 C 
HETATM   21  N4  UNL     1      -8.420   0.624   5.833  1.00  0.00    -0.338 N 
HETATM   22  C16 UNL     1      -7.942  -0.691   6.227  1.00  0.00     0.158 C 
HETATM   23  C17 UNL     1      -9.060   0.867   4.669  1.00  0.00     0.138 A 
HETATM   24  N5  UNL     1      -9.351  -0.121   3.664  1.00  0.00    -0.326 N 
ATOM     25  H5  UNL     1      -9.251  -1.094   3.952  1.00  0.00     0.169 HD
ENDROOT
TORSDOF 0
ENDMDL
MODEL 5
REMARK VINA RESULT: -8.517834745      1.846      5.019
REMARK  0 active torsions:
REMARK  status: ('A' for Active; 'I' for Inactive)
ROOT
HETATM    1  C1  UNL     1     -12.651   4.369  -0.256  1.00  0.00     0.076 C 
HETATM    2  C2  UNL     1     -11.629   3.575   0.522  1.00  0.00     0.049 A 
HETATM    3  N1  UNL     1     -11.102   3.889   1.694  1.00  0.00    -0.339 N 
ATOM      4  H1  UNL     1     -11.380   4.749   2.166  1.00  0.00     0.168 HD
HETATM    5  C3  UNL     1     -10.230   3.100   2.240  1.00  0.00     0.123 A 
HETATM    6  C4  UNL     1      -9.893   1.956   1.557  1.00  0.00     0.056 A 
HETATM    7  S1  UNL     1     -10.866   2.092   0.159  1.00  0.00    -0.075 SA
HETATM    8  C5  UNL     1      -8.949   0.840   1.861  1.00  0.00     0.170 A 
HETATM    9  C6  UNL     1      -9.375  -0.511   1.518  1.00  0.00    -0.003 A 
HETATM   10  C7  UNL     1      -9.626  -1.404   0.473  1.00  0.00     0.012 A 
HETATM   11  C8  UNL     1     -10.024  -2.666   0.807  1.00  0.00     0.001 A 
HETATM   12  C9  UNL     1     -10.178  -3.063   2.111  1.00  0.00     0.002 A 
HETATM   13  C10 UNL     1      -9.928  -2.174   3.136  1.00  0.00     0.030 A 
HETATM   14  C11 UNL     1      -9.525  -0.892   2.834  1.00  0.00     0.044 A 
HETATM   15  N2  UNL     1      -9.148   0.403   3.225  1.00  0.00    -0.327 N 
HETATM   16  C12 UNL     1      -8.972   1.172   4.418  1.00  0.00     0.107 A 
HETATM   17  C13 UNL     1      -8.557   0.709   5.629  1.00  0.00     0.099 A 
HETATM   18  N3  UNL     1      -8.232  -0.647   5.884  1.00  0.00    -0.098 NA
HETATM   19  C14 UNL     1      -8.530   1.789   6.490  1.00  0.00     0.035 A 
HETATM   20  C15 UNL     1      -8.137   1.759   7.921  1.00  0.00     0.070 C 
HETATM   21  N4  UNL     1      -8.917   2.900   5.834  1.00  0.00    -0.338 N 
HETATM   22  C16 UNL     1      -9.042   4.261   6.330  1.00  0.00     0.158 C 
HETATM   23  C17 UNL     1      -9.193   2.542   4.561  1.00  0.00     0.138 A 
HETATM   24  N5  UNL     1      -9.648   3.439   3.531  1.00  0.00    -0.326 N 
ATOM     25  H5  UNL     1      -9.551   4.434   3.730  1.00  0.00     0.169 HD
ENDROOT
TORSDOF 0
ENDMDL
