MODEL 1
REMARK VINA RESULT: -7.736357278      0.000      0.000
REMARK  8 active torsions:
REMARK  status: ('A' for Active; 'I' for Inactive)
REMARK    1  A    between atoms: N2_5  and  C3_6 
REMARK    2  A    between atoms: C3_6  and  C4_7 
REMARK    3  A    between atoms: C4_7  and  O2_8 
REMARK    4  A    between atoms: O2_8  and  C5_9 
REMARK    5  A    between atoms: C5_9  and  C6_10 
REMARK    6  A    between atoms: C6_10  and  O3_11 
REMARK    7  A    between atoms: C8_16  and  N4_17 
REMARK    8  A    between atoms: C9_22  and  N6_23 
REMARK       I    between atoms: N6_23  and  C10_25 
ROOT
HETATM    1  C1  UNL     1       8.108  35.681   0.257  1.00  0.00     0.161 C 
HETATM    2  N1  UNL     1       7.807  36.839  -0.591  1.00  0.00    -0.297 N 
HETATM    3  C2  UNL     1       8.039  38.130  -0.332  1.00  0.00     0.330 A 
HETATM    4  O1  UNL     1       8.576  38.523   0.739  1.00  0.00    -0.246 OA
HETATM    5  N2  UNL     1       7.625  38.902  -1.351  1.00  0.00    -0.281 N 
HETATM    6  C7  UNL     1       7.124  38.084  -2.271  1.00  0.00     0.158 A 
HETATM    7  N3  UNL     1       6.575  38.301  -3.477  1.00  0.00    -0.174 N 
ATOM      8  H3  UNL     1       6.490  39.255  -3.829  1.00  0.00     0.186 HD
HETATM    9  C8  UNL     1       6.136  37.275  -4.224  1.00  0.00     0.679 A 
HETATM   10  N5  UNL     1       6.243  35.993  -3.767  1.00  0.00    -0.174 N 
ATOM     11  H5  UNL     1       5.904  35.228  -4.352  1.00  0.00     0.186 HD
HETATM   12  C9  UNL     1       6.783  35.709  -2.566  1.00  0.00     0.154 A 
HETATM   13  C11 UNL     1       7.231  36.768  -1.804  1.00  0.00     0.128 A 
ENDROOT
BRANCH   5  14
HETATM   14  C3  UNL     1       7.726  40.349  -1.400  1.00  0.00     0.162 C 
BRANCH  14  15
HETATM   15  C4  UNL     1       6.492  41.000  -0.885  1.00  0.00     0.188 C 
BRANCH  15  16
HETATM   16  O2  UNL     1       6.495  41.041   0.499  1.00  0.00    -0.387 OA
BRANCH  16  17
HETATM   17  C5  UNL     1       5.519  40.306   1.116  1.00  0.00     0.193 C 
BRANCH  17  18
HETATM   18  C6  UNL     1       5.980  40.112   2.570  1.00  0.00     0.190 C 
BRANCH  18  19
HETATM   19  O3  UNL     1       7.353  40.041   2.616  1.00  0.00    -0.399 OA
ATOM     20  H3  UNL     1       7.664  40.387   3.444  1.00  0.00     0.209 HD
ENDBRANCH  18  19
ENDBRANCH  17  18
ENDBRANCH  16  17
ENDBRANCH  15  16
ENDBRANCH  14  15
ENDBRANCH   5  14
BRANCH   9  21
HETATM   21  N4  UNL     1       5.602  37.437  -5.389  1.00  0.00    -0.234 N 
ATOM     22  H42 UNL     1       4.673  37.041  -5.529  1.00  0.00     0.174 HD
ATOM     23  H41 UNL     1       6.072  37.934  -6.147  1.00  0.00     0.174 HD
ENDBRANCH   9  21
BRANCH  12  24
HETATM   24  N6  UNL     1       6.880  34.475  -2.137  1.00  0.00    -0.315 N 
HETATM   25  C10 UNL     1       5.771  33.626  -2.062  1.00  0.00     0.187 C 
HETATM   26  N7  UNL     1       5.478  32.877  -3.068  1.00  0.00    -0.373 N 
HETATM   27  N8  UNL     1       4.981  33.588  -0.893  1.00  0.00    -0.064 NA
ATOM     28  H72 UNL     1       6.049  32.904  -3.913  1.00  0.00     0.158 HD
ATOM     29  H71 UNL     1       4.669  32.257  -3.013  1.00  0.00     0.158 HD
ATOM     30  H6  UNL     1       7.793  34.124  -1.848  1.00  0.00     0.170 HD
ENDBRANCH  12  24
TORSDOF 8
ENDMDL
MODEL 2
REMARK VINA RESULT: -7.622965239      1.661      3.361
REMARK  8 active torsions:
REMARK  status: ('A' for Active; 'I' for Inactive)
REMARK    1  A    between atoms: N2_5  and  C3_6 
REMARK    2  A    between atoms: C3_6  and  C4_7 
REMARK    3  A    between atoms: C4_7  and  O2_8 
REMARK    4  A    between atoms: O2_8  and  C5_9 
REMARK    5  A    between atoms: C5_9  and  C6_10 
REMARK    6  A    between atoms: C6_10  and  O3_11 
REMARK    7  A    between atoms: C8_16  and  N4_17 
REMARK    8  A    between atoms: C9_22  and  N6_23 
REMARK       I    between atoms: N6_23  and  C10_25 
ROOT
HETATM    1  C1  UNL     1       5.542  34.687  -1.886  1.00  0.00     0.161 C 
HETATM    2  N1  UNL     1       6.300  35.757  -1.229  1.00  0.00    -0.297 N 
HETATM    3  C2  UNL     1       6.622  35.861   0.065  1.00  0.00     0.330 A 
HETATM    4  O1  UNL     1       6.287  34.996   0.920  1.00  0.00    -0.246 OA
HETATM    5  N2  UNL     1       7.325  36.983   0.292  1.00  0.00    -0.281 N 
HETATM    6  C7  UNL     1       7.451  37.598  -0.879  1.00  0.00     0.158 A 
HETATM    7  N3  UNL     1       8.049  38.744  -1.243  1.00  0.00    -0.174 N 
ATOM      8  H3  UNL     1       8.523  39.312  -0.540  1.00  0.00     0.186 HD
HETATM    9  C8  UNL     1       8.029  39.150  -2.523  1.00  0.00     0.679 A 
HETATM   10  N5  UNL     1       7.399  38.401  -3.476  1.00  0.00    -0.174 N 
ATOM     11  H5  UNL     1       7.398  38.728  -4.442  1.00  0.00     0.186 HD
HETATM   12  C9  UNL     1       6.781  37.243  -3.174  1.00  0.00     0.154 A 
HETATM   13  C11 UNL     1       6.805  36.832  -1.857  1.00  0.00     0.128 A 
ENDROOT
BRANCH   5  14
HETATM   14  C3  UNL     1       7.834  37.406   1.584  1.00  0.00     0.162 C 
BRANCH  14  15
HETATM   15  C4  UNL     1       8.351  38.799   1.538  1.00  0.00     0.188 C 
BRANCH  15  16
HETATM   16  O2  UNL     1       7.560  39.646   2.293  1.00  0.00    -0.387 OA
BRANCH  16  17
HETATM   17  C5  UNL     1       6.465  40.163   1.654  1.00  0.00     0.193 C 
BRANCH  17  18
HETATM   18  C6  UNL     1       5.271  39.943   2.598  1.00  0.00     0.190 C 
BRANCH  18  19
HETATM   19  O3  UNL     1       4.564  38.832   2.200  1.00  0.00    -0.399 OA
ATOM     20  H3  UNL     1       5.161  38.110   2.046  1.00  0.00     0.209 HD
ENDBRANCH  18  19
ENDBRANCH  17  18
ENDBRANCH  16  17
ENDBRANCH  15  16
ENDBRANCH  14  15
ENDBRANCH   5  14
BRANCH   9  21
HETATM   21  N4  UNL     1       8.592  40.244  -2.918  1.00  0.00    -0.234 N 
ATOM     22  H42 UNL     1       8.009  40.899  -3.439  1.00  0.00     0.174 HD
ATOM     23  H41 UNL     1       9.571  40.460  -2.728  1.00  0.00     0.174 HD
ENDBRANCH   9  21
BRANCH  12  24
HETATM   24  N6  UNL     1       6.179  36.533  -4.095  1.00  0.00    -0.315 N 
HETATM   25  C10 UNL     1       5.919  37.040  -5.373  1.00  0.00     0.187 C 
HETATM   26  N7  UNL     1       6.786  36.869  -6.310  1.00  0.00    -0.373 N 
HETATM   27  N8  UNL     1       4.716  37.732  -5.633  1.00  0.00    -0.064 NA
ATOM     28  H72 UNL     1       7.655  36.368  -6.122  1.00  0.00     0.158 HD
ATOM     29  H71 UNL     1       6.596  37.238  -7.242  1.00  0.00     0.158 HD
ATOM     30  H6  UNL     1       5.891  35.580  -3.874  1.00  0.00     0.170 HD
ENDBRANCH  12  24
TORSDOF 8
ENDMDL
MODEL 3
REMARK VINA RESULT: -7.616668446      2.030      2.800
REMARK  8 active torsions:
REMARK  status: ('A' for Active; 'I' for Inactive)
REMARK    1  A    between atoms: N2_5  and  C3_6 
REMARK    2  A    between atoms: C3_6  and  C4_7 
REMARK    3  A    between atoms: C4_7  and  O2_8 
REMARK    4  A    between atoms: O2_8  and  C5_9 
REMARK    5  A    between atoms: C5_9  and  C6_10 
REMARK    6  A    between atoms: C6_10  and  O3_11 
REMARK    7  A    between atoms: C8_16  and  N4_17 
REMARK    8  A    between atoms: C9_22  and  N6_23 
REMARK       I    between atoms: N6_23  and  C10_25 
ROOT
HETATM    1  C1  UNL     1       7.788  36.093   0.488  1.00  0.00     0.161 C 
HETATM    2  N1  UNL     1       7.464  37.196  -0.422  1.00  0.00    -0.297 N 
HETATM    3  C2  UNL     1       7.536  38.509  -0.179  1.00  0.00     0.330 A 
HETATM    4  O1  UNL     1       7.914  38.976   0.930  1.00  0.00    -0.246 OA
HETATM    5  N2  UNL     1       7.157  39.215  -1.258  1.00  0.00    -0.281 N 
HETATM    6  C7  UNL     1       6.841  38.332  -2.200  1.00  0.00     0.158 A 
HETATM    7  N3  UNL     1       6.404  38.468  -3.462  1.00  0.00    -0.174 N 
ATOM      8  H3  UNL     1       6.261  39.401  -3.849  1.00  0.00     0.186 HD
HETATM    9  C8  UNL     1       6.152  37.388  -4.219  1.00  0.00     0.679 A 
HETATM   10  N5  UNL     1       6.338  36.133  -3.716  1.00  0.00    -0.174 N 
ATOM     11  H5  UNL     1       6.141  35.326  -4.309  1.00  0.00     0.186 HD
HETATM   12  C9  UNL     1       6.773  35.929  -2.458  1.00  0.00     0.154 A 
HETATM   13  C11 UNL     1       7.030  37.044  -1.685  1.00  0.00     0.128 A 
ENDROOT
BRANCH   5  14
HETATM   14  C3  UNL     1       7.117  40.664  -1.340  1.00  0.00     0.162 C 
BRANCH  14  15
HETATM   15  C4  UNL     1       7.944  41.170  -2.467  1.00  0.00     0.188 C 
BRANCH  15  16
HETATM   16  O2  UNL     1       8.757  42.212  -2.055  1.00  0.00    -0.387 OA
BRANCH  16  17
HETATM   17  C5  UNL     1       9.748  42.572  -2.929  1.00  0.00     0.193 C 
BRANCH  17  18
HETATM   18  C6  UNL     1      10.367  43.864  -2.369  1.00  0.00     0.190 C 
BRANCH  18  19
HETATM   19  O3  UNL     1      11.706  43.666  -2.119  1.00  0.00    -0.399 OA
ATOM     20  H3  UNL     1      12.078  44.447  -1.728  1.00  0.00     0.209 HD
ENDBRANCH  18  19
ENDBRANCH  17  18
ENDBRANCH  16  17
ENDBRANCH  15  16
ENDBRANCH  14  15
ENDBRANCH   5  14
BRANCH   9  21
HETATM   21  N4  UNL     1       5.731  37.472  -5.438  1.00  0.00    -0.234 N 
ATOM     22  H42 UNL     1       6.441  37.486  -6.170  1.00  0.00     0.174 HD
ATOM     23  H41 UNL     1       4.741  37.524  -5.677  1.00  0.00     0.174 HD
ENDBRANCH   9  21
BRANCH  12  24
HETATM   24  N6  UNL     1       6.948  34.721  -1.983  1.00  0.00    -0.315 N 
HETATM   25  C10 UNL     1       5.920  33.772  -1.972  1.00  0.00     0.187 C 
HETATM   26  N7  UNL     1       5.782  32.976  -2.976  1.00  0.00    -0.373 N 
HETATM   27  N8  UNL     1       5.041  33.687  -0.871  1.00  0.00    -0.064 NA
ATOM     28  H72 UNL     1       6.418  33.038  -3.772  1.00  0.00     0.158 HD
ATOM     29  H71 UNL     1       5.033  32.284  -2.967  1.00  0.00     0.158 HD
ATOM     30  H6  UNL     1       7.862  34.464  -1.611  1.00  0.00     0.170 HD
ENDBRANCH  12  24
TORSDOF 8
ENDMDL
MODEL 4
REMARK VINA RESULT: -7.539145250      3.760      6.368
REMARK  8 active torsions:
REMARK  status: ('A' for Active; 'I' for Inactive)
REMARK    1  A    between atoms: N2_5  and  C3_6 
REMARK    2  A    between atoms: C3_6  and  C4_7 
REMARK    3  A    between atoms: C4_7  and  O2_8 
REMARK    4  A    between atoms: O2_8  and  C5_9 
REMARK    5  A    between atoms: C5_9  and  C6_10 
REMARK    6  A    between atoms: C6_10  and  O3_11 
REMARK    7  A    between atoms: C8_16  and  N4_17 
REMARK    8  A    between atoms: C9_22  and  N6_23 
REMARK       I    between atoms: N6_23  and  C10_25 
ROOT
HETATM    1  C1  UNL     1       6.148  35.819  -0.230  1.00  0.00     0.161 C 
HETATM    2  N1  UNL     1       6.509  36.575  -1.434  1.00  0.00    -0.297 N 
HETATM    3  C2  UNL     1       6.460  36.165  -2.706  1.00  0.00     0.330 A 
HETATM    4  O1  UNL     1       6.075  35.010  -3.034  1.00  0.00    -0.246 OA
HETATM    5  N2  UNL     1       6.870  37.140  -3.535  1.00  0.00    -0.281 N 
HETATM    6  C7  UNL     1       7.182  38.184  -2.774  1.00  0.00     0.158 A 
HETATM    7  N3  UNL     1       7.641  39.412  -3.061  1.00  0.00    -0.174 N 
ATOM      8  H3  UNL     1       7.809  39.674  -4.033  1.00  0.00     0.186 HD
HETATM    9  C8  UNL     1       7.882  40.299  -2.082  1.00  0.00     0.679 A 
HETATM   10  N5  UNL     1       7.663  39.964  -0.777  1.00  0.00    -0.174 N 
ATOM     11  H5  UNL     1       7.851  40.654  -0.049  1.00  0.00     0.186 HD
HETATM   12  C9  UNL     1       7.204  38.748  -0.423  1.00  0.00     0.154 A 
HETATM   13  C11 UNL     1       6.959  37.841  -1.435  1.00  0.00     0.128 A 
ENDROOT
BRANCH   5  14
HETATM   14  C3  UNL     1       6.942  37.034  -4.982  1.00  0.00     0.162 C 
BRANCH  14  15
HETATM   15  C4  UNL     1       5.690  37.510  -5.626  1.00  0.00     0.188 C 
BRANCH  15  16
HETATM   16  O2  UNL     1       5.494  36.888  -6.847  1.00  0.00    -0.387 OA
BRANCH  16  17
HETATM   17  C5  UNL     1       6.630  36.587  -7.549  1.00  0.00     0.193 C 
BRANCH  17  18
HETATM   18  C6  UNL     1       6.328  35.293  -8.324  1.00  0.00     0.190 C 
BRANCH  18  19
HETATM   19  O3  UNL     1       7.450  34.891  -9.011  1.00  0.00    -0.399 OA
ATOM     20  H3  UNL     1       7.257  34.106  -9.510  1.00  0.00     0.209 HD
ENDBRANCH  18  19
ENDBRANCH  17  18
ENDBRANCH  16  17
ENDBRANCH  15  16
ENDBRANCH  14  15
ENDBRANCH   5  14
BRANCH   9  21
HETATM   21  N4  UNL     1       8.323  41.492  -2.313  1.00  0.00    -0.234 N 
ATOM     22  H42 UNL     1       8.136  41.881  -3.237  1.00  0.00     0.174 HD
ATOM     23  H41 UNL     1       8.837  42.033  -1.617  1.00  0.00     0.174 HD
ENDBRANCH   9  21
BRANCH  12  24
HETATM   24  N6  UNL     1       6.997  38.436   0.832  1.00  0.00    -0.315 N 
HETATM   25  C10 UNL     1       6.925  39.407   1.836  1.00  0.00     0.187 C 
HETATM   26  N7  UNL     1       5.782  39.916   2.143  1.00  0.00    -0.373 N 
HETATM   27  N8  UNL     1       8.094  39.824   2.509  1.00  0.00    -0.064 NA
ATOM     28  H72 UNL     1       4.937  39.614   1.657  1.00  0.00     0.158 HD
ATOM     29  H71 UNL     1       5.729  40.624   2.876  1.00  0.00     0.158 HD
ATOM     30  H6  UNL     1       6.886  37.454   1.084  1.00  0.00     0.170 HD
ENDBRANCH  12  24
TORSDOF 8
ENDMDL
MODEL 5
REMARK VINA RESULT: -7.492546109      2.710      3.705
REMARK  8 active torsions:
REMARK  status: ('A' for Active; 'I' for Inactive)
REMARK    1  A    between atoms: N2_5  and  C3_6 
REMARK    2  A    between atoms: C3_6  and  C4_7 
REMARK    3  A    between atoms: C4_7  and  O2_8 
REMARK    4  A    between atoms: O2_8  and  C5_9 
REMARK    5  A    between atoms: C5_9  and  C6_10 
REMARK    6  A    between atoms: C6_10  and  O3_11 
REMARK    7  A    between atoms: C8_16  and  N4_17 
REMARK    8  A    between atoms: C9_22  and  N6_23 
REMARK       I    between atoms: N6_23  and  C10_25 
ROOT
HETATM    1  C1  UNL     1       6.158  38.183   1.112  1.00  0.00     0.161 C 
HETATM    2  N1  UNL     1       6.453  38.713  -0.223  1.00  0.00    -0.297 N 
HETATM    3  C2  UNL     1       6.804  39.961  -0.553  1.00  0.00     0.330 A 
HETATM    4  O1  UNL     1       6.928  40.881   0.301  1.00  0.00    -0.246 OA
HETATM    5  N2  UNL     1       6.993  40.067  -1.879  1.00  0.00    -0.281 N 
HETATM    6  C7  UNL     1       6.758  38.866  -2.397  1.00  0.00     0.158 A 
HETATM    7  N3  UNL     1       6.794  38.395  -3.653  1.00  0.00    -0.174 N 
ATOM      8  H3  UNL     1       7.044  39.020  -4.420  1.00  0.00     0.186 HD
HETATM    9  C8  UNL     1       6.506  37.109  -3.911  1.00  0.00     0.679 A 
HETATM   10  N5  UNL     1       6.171  36.259  -2.897  1.00  0.00    -0.174 N 
ATOM     11  H5  UNL     1       5.956  35.286  -3.116  1.00  0.00     0.186 HD
HETATM   12  C9  UNL     1       6.116  36.670  -1.615  1.00  0.00     0.154 A 
HETATM   13  C11 UNL     1       6.413  37.993  -1.357  1.00  0.00     0.128 A 
ENDROOT
BRANCH   5  14
HETATM   14  C3  UNL     1       7.381  41.281  -2.576  1.00  0.00     0.162 C 
BRANCH  14  15
HETATM   15  C4  UNL     1       8.851  41.496  -2.519  1.00  0.00     0.188 C 
BRANCH  15  16
HETATM   16  O2  UNL     1       9.154  42.846  -2.515  1.00  0.00    -0.387 OA
BRANCH  16  17
HETATM   17  C5  UNL     1      10.481  43.157  -2.640  1.00  0.00     0.193 C 
BRANCH  17  18
HETATM   18  C6  UNL     1      10.545  44.662  -2.949  1.00  0.00     0.190 C 
BRANCH  18  19
HETATM   19  O3  UNL     1      10.857  44.852  -4.275  1.00  0.00    -0.399 OA
ATOM     20  H3  UNL     1      10.148  44.531  -4.820  1.00  0.00     0.209 HD
ENDBRANCH  18  19
ENDBRANCH  17  18
ENDBRANCH  16  17
ENDBRANCH  15  16
ENDBRANCH  14  15
ENDBRANCH   5  14
BRANCH   9  21
HETATM   21  N4  UNL     1       6.529  36.614  -5.105  1.00  0.00    -0.234 N 
ATOM     22  H42 UNL     1       5.627  36.420  -5.541  1.00  0.00     0.174 HD
ATOM     23  H41 UNL     1       7.397  36.417  -5.603  1.00  0.00     0.174 HD
ENDBRANCH   9  21
BRANCH  12  24
HETATM   24  N6  UNL     1       5.792  35.847  -0.649  1.00  0.00    -0.315 N 
HETATM   25  C10 UNL     1       6.492  34.657  -0.421  1.00  0.00     0.187 C 
HETATM   26  N7  UNL     1       7.492  34.657   0.391  1.00  0.00    -0.373 N 
HETATM   27  N8  UNL     1       6.106  33.467  -1.075  1.00  0.00    -0.064 NA
ATOM     28  H72 UNL     1       7.771  35.517   0.864  1.00  0.00     0.158 HD
ATOM     29  H71 UNL     1       8.003  33.789   0.557  1.00  0.00     0.158 HD
ATOM     30  H6  UNL     1       5.006  36.081  -0.044  1.00  0.00     0.170 HD
ENDBRANCH  12  24
TORSDOF 8
ENDMDL
