MODEL 1
REMARK VINA RESULT: -8.411538341      0.000      0.000
REMARK  6 active torsions:
REMARK  status: ('A' for Active; 'I' for Inactive)
REMARK    1  A    between atoms: N1_1  and  C1_4 
REMARK    2  A    between atoms: C2_9  and  C3_10 
REMARK    3  A    between atoms: N4_11  and  N5_13 
REMARK       I    between atoms: N5_13  and  C4_15 
REMARK    4  A    between atoms: C4_15  and  C5_17 
REMARK    5  A    between atoms: C5_17  and  C6_18 
REMARK    6  A    between atoms: C6_18  and  N6_19 
ROOT
HETATM    1  C3  UNL     1       8.255  38.517  -3.309  1.00  0.00     0.143 C 
HETATM    2  N4  UNL     1       8.316  37.311  -3.206  1.00  0.00    -0.307 N 
ATOM      3  H4  UNL     1       8.913  37.009  -3.976  1.00  0.00     0.186 HD
ENDROOT
BRANCH   2   4
HETATM    4  N5  UNL     1       7.979  36.194  -2.572  1.00  0.00    -0.270 N 
HETATM    5  C4  UNL     1       6.607  35.799  -2.475  1.00  0.00     0.240 C 
HETATM    6  O1  UNL     1       5.715  36.503  -2.987  1.00  0.00    -0.271 OA
ATOM      7  H5  UNL     1       8.703  35.612  -2.150  1.00  0.00     0.190 HD
BRANCH   5   8
HETATM    8  C5  UNL     1       6.228  34.546  -1.763  1.00  0.00     0.149 C 
BRANCH   8   9
HETATM    9  C6  UNL     1       6.517  34.727  -0.304  1.00  0.00     0.073 C 
BRANCH   9  10
HETATM   10  N6  UNL     1       6.044  35.905   0.245  1.00  0.00    -0.341 N 
HETATM   11  C7  UNL     1       6.530  36.872   0.857  1.00  0.00     0.192 C 
HETATM   12  N7  UNL     1       7.864  37.139   1.245  1.00  0.00    -0.346 N 
HETATM   13  N9  UNL     1       5.778  38.017   1.325  1.00  0.00    -0.274 N 
HETATM   14  C8  UNL     1       7.980  38.595   1.255  1.00  0.00     0.259 C 
ATOM     15  H7  UNL     1       8.590  36.460   1.471  1.00  0.00     0.163 HD
HETATM   16  N8  UNL     1       6.641  39.059   1.554  1.00  0.00    -0.119 NA
ATOM     17  H9  UNL     1       4.768  38.044   1.463  1.00  0.00     0.185 HD
ATOM     18  H6  UNL     1       5.038  36.006   0.115  1.00  0.00     0.168 HD
ENDBRANCH   9  10
ENDBRANCH   8   9
ENDBRANCH   5   8
ENDBRANCH   2   4
BRANCH   1  19
HETATM   19  C2  UNL     1       7.583  39.554  -2.552  1.00  0.00     0.134 A 
HETATM   20  N3  UNL     1       6.409  39.302  -1.893  1.00  0.00    -0.280 N 
HETATM   21  N2  UNL     1       5.766  40.216  -1.197  1.00  0.00    -0.132 N 
ATOM     22  H3  UNL     1       6.014  38.364  -1.944  1.00  0.00     0.188 HD
HETATM   23  C1  UNL     1       6.262  41.462  -1.108  1.00  0.00     0.693 A 
ATOM     24  H2  UNL     1       4.894  39.978  -0.725  1.00  0.00     0.205 HD
HETATM   25  N10 UNL     1       7.406  41.800  -1.721  1.00  0.00    -0.153 N 
HETATM   26  C9  UNL     1       8.051  40.825  -2.439  1.00  0.00     0.289 A 
ATOM     27  H10 UNL     1       7.782  42.746  -1.655  1.00  0.00     0.187 HD
HETATM   28  O2  UNL     1       9.105  41.196  -2.984  1.00  0.00    -0.265 OA
BRANCH  23  29
HETATM   29  N1  UNL     1       5.635  42.357  -0.427  1.00  0.00    -0.233 N 
ATOM     30  H12 UNL     1       4.756  42.725  -0.792  1.00  0.00     0.174 HD
ATOM     31  H11 UNL     1       6.019  42.684   0.460  1.00  0.00     0.174 HD
ENDBRANCH  23  29
ENDBRANCH   1  19
TORSDOF 6
ENDMDL
MODEL 2
REMARK VINA RESULT: -8.289952862      2.145      6.235
REMARK  6 active torsions:
REMARK  status: ('A' for Active; 'I' for Inactive)
REMARK    1  A    between atoms: N1_1  and  C1_4 
REMARK    2  A    between atoms: C2_9  and  C3_10 
REMARK    3  A    between atoms: N4_11  and  N5_13 
REMARK       I    between atoms: N5_13  and  C4_15 
REMARK    4  A    between atoms: C4_15  and  C5_17 
REMARK    5  A    between atoms: C5_17  and  C6_18 
REMARK    6  A    between atoms: C6_18  and  N6_19 
ROOT
HETATM    1  C3  UNL     1       6.431  36.062   0.662  1.00  0.00     0.143 C 
HETATM    2  N4  UNL     1       6.378  37.270   0.580  1.00  0.00    -0.307 N 
ATOM      3  H4  UNL     1       6.689  37.612   1.489  1.00  0.00     0.186 HD
ENDROOT
BRANCH   2   4
HETATM    4  N5  UNL     1       6.110  38.363  -0.127  1.00  0.00    -0.270 N 
HETATM    5  C4  UNL     1       6.968  39.504  -0.055  1.00  0.00     0.240 C 
HETATM    6  O1  UNL     1       7.978  39.483   0.675  1.00  0.00    -0.271 OA
ATOM      7  H5  UNL     1       5.284  38.388  -0.726  1.00  0.00     0.190 HD
BRANCH   5   8
HETATM    8  C5  UNL     1       6.666  40.730  -0.847  1.00  0.00     0.149 C 
BRANCH   8   9
HETATM    9  C6  UNL     1       7.711  40.873  -1.911  1.00  0.00     0.073 C 
BRANCH   9  10
HETATM   10  N6  UNL     1       8.323  39.693  -2.293  1.00  0.00    -0.341 N 
HETATM   11  C7  UNL     1       8.026  38.711  -2.996  1.00  0.00     0.192 C 
HETATM   12  N7  UNL     1       6.848  38.423  -3.725  1.00  0.00    -0.346 N 
HETATM   13  N9  UNL     1       8.892  37.578  -3.242  1.00  0.00    -0.274 N 
HETATM   14  C8  UNL     1       7.281  37.602  -4.852  1.00  0.00     0.259 C 
ATOM     15  H7  UNL     1       5.898  38.725  -3.510  1.00  0.00     0.163 HD
HETATM   16  N8  UNL     1       8.459  36.914  -4.363  1.00  0.00    -0.119 NA
ATOM     17  H9  UNL     1       9.697  37.314  -2.673  1.00  0.00     0.185 HD
ATOM     18  H6  UNL     1       9.258  39.605  -1.896  1.00  0.00     0.168 HD
ENDBRANCH   9  10
ENDBRANCH   8   9
ENDBRANCH   5   8
ENDBRANCH   2   4
BRANCH   1  19
HETATM   19  C2  UNL     1       6.130  34.982  -0.255  1.00  0.00     0.134 A 
HETATM   20  N3  UNL     1       6.019  33.689   0.184  1.00  0.00    -0.280 N 
HETATM   21  N2  UNL     1       5.748  32.680  -0.616  1.00  0.00    -0.132 N 
ATOM     22  H3  UNL     1       6.152  33.500   1.177  1.00  0.00     0.188 HD
HETATM   23  C1  UNL     1       5.565  32.896  -1.930  1.00  0.00     0.693 A 
ATOM     24  H2  UNL     1       5.677  31.734  -0.239  1.00  0.00     0.205 HD
HETATM   25  N10 UNL     1       5.654  34.129  -2.450  1.00  0.00    -0.153 N 
HETATM   26  C9  UNL     1       5.938  35.160  -1.589  1.00  0.00     0.289 A 
ATOM     27  H10 UNL     1       5.516  34.294  -3.447  1.00  0.00     0.187 HD
HETATM   28  O2  UNL     1       6.008  36.278  -2.127  1.00  0.00    -0.265 OA
BRANCH  23  29
HETATM   29  N1  UNL     1       5.299  31.910  -2.713  1.00  0.00    -0.233 N 
ATOM     30  H12 UNL     1       6.062  31.303  -3.014  1.00  0.00     0.174 HD
ATOM     31  H11 UNL     1       4.340  31.747  -3.021  1.00  0.00     0.174 HD
ENDBRANCH  23  29
ENDBRANCH   1  19
TORSDOF 6
ENDMDL
MODEL 3
REMARK VINA RESULT: -8.234933062      2.347      6.318
REMARK  6 active torsions:
REMARK  status: ('A' for Active; 'I' for Inactive)
REMARK    1  A    between atoms: N1_1  and  C1_4 
REMARK    2  A    between atoms: C2_9  and  C3_10 
REMARK    3  A    between atoms: N4_11  and  N5_13 
REMARK       I    between atoms: N5_13  and  C4_15 
REMARK    4  A    between atoms: C4_15  and  C5_17 
REMARK    5  A    between atoms: C5_17  and  C6_18 
REMARK    6  A    between atoms: C6_18  and  N6_19 
ROOT
HETATM    1  C3  UNL     1       6.888  35.514   0.907  1.00  0.00     0.143 C 
HETATM    2  N4  UNL     1       6.703  36.676   1.198  1.00  0.00    -0.307 N 
ATOM      3  H4  UNL     1       7.191  36.808   2.084  1.00  0.00     0.186 HD
ENDROOT
BRANCH   2   4
HETATM    4  N5  UNL     1       6.170  37.860   0.918  1.00  0.00    -0.270 N 
HETATM    5  C4  UNL     1       6.974  38.907   0.367  1.00  0.00     0.240 C 
HETATM    6  O1  UNL     1       8.186  38.716   0.145  1.00  0.00    -0.271 OA
ATOM      7  H5  UNL     1       5.180  38.024   1.097  1.00  0.00     0.190 HD
BRANCH   5   8
HETATM    8  C5  UNL     1       6.376  40.235   0.053  1.00  0.00     0.149 C 
BRANCH   8   9
HETATM    9  C6  UNL     1       6.691  40.569  -1.373  1.00  0.00     0.073 C 
BRANCH   9  10
HETATM   10  N6  UNL     1       6.424  39.562  -2.283  1.00  0.00    -0.341 N 
HETATM   11  C7  UNL     1       7.091  38.784  -2.986  1.00  0.00     0.192 C 
HETATM   12  N7  UNL     1       8.493  38.635  -3.120  1.00  0.00    -0.346 N 
HETATM   13  N9  UNL     1       6.534  37.786  -3.874  1.00  0.00    -0.274 N 
HETATM   14  C8  UNL     1       8.702  37.229  -3.456  1.00  0.00     0.259 C 
ATOM     15  H7  UNL     1       9.205  39.355  -3.005  1.00  0.00     0.163 HD
HETATM   16  N8  UNL     1       7.491  36.842  -4.151  1.00  0.00    -0.119 NA
ATOM     17  H9  UNL     1       5.580  37.784  -4.237  1.00  0.00     0.185 HD
ATOM     18  H6  UNL     1       5.422  39.421  -2.410  1.00  0.00     0.168 HD
ENDBRANCH   9  10
ENDBRANCH   8   9
ENDBRANCH   5   8
ENDBRANCH   2   4
BRANCH   1  19
HETATM   19  C2  UNL     1       6.476  34.684  -0.207  1.00  0.00     0.134 A 
HETATM   20  N3  UNL     1       6.510  35.154  -1.493  1.00  0.00    -0.280 N 
HETATM   21  N2  UNL     1       6.144  34.433  -2.531  1.00  0.00    -0.132 N 
ATOM     22  H3  UNL     1       6.834  36.107  -1.653  1.00  0.00     0.188 HD
HETATM   23  C1  UNL     1       5.714  33.172  -2.353  1.00  0.00     0.693 A 
ATOM     24  H2  UNL     1       6.187  34.830  -3.470  1.00  0.00     0.205 HD
HETATM   25  N10 UNL     1       5.647  32.627  -1.130  1.00  0.00    -0.153 N 
HETATM   26  C9  UNL     1       6.035  33.405  -0.068  1.00  0.00     0.289 A 
ATOM     27  H10 UNL     1       5.320  31.670  -0.994  1.00  0.00     0.187 HD
HETATM   28  O2  UNL     1       5.952  32.848   1.040  1.00  0.00    -0.265 OA
BRANCH  23  29
HETATM   29  N1  UNL     1       5.356  32.465  -3.368  1.00  0.00    -0.233 N 
ATOM     30  H12 UNL     1       4.479  32.689  -3.837  1.00  0.00     0.174 HD
ATOM     31  H11 UNL     1       5.948  31.698  -3.689  1.00  0.00     0.174 HD
ENDBRANCH  23  29
ENDBRANCH   1  19
TORSDOF 6
ENDMDL
MODEL 4
REMARK VINA RESULT: -8.132990937      3.387      6.873
REMARK  6 active torsions:
REMARK  status: ('A' for Active; 'I' for Inactive)
REMARK    1  A    between atoms: N1_1  and  C1_4 
REMARK    2  A    between atoms: C2_9  and  C3_10 
REMARK    3  A    between atoms: N4_11  and  N5_13 
REMARK       I    between atoms: N5_13  and  C4_15 
REMARK    4  A    between atoms: C4_15  and  C5_17 
REMARK    5  A    between atoms: C5_17  and  C6_18 
REMARK    6  A    between atoms: C6_18  and  N6_19 
ROOT
HETATM    1  C3  UNL     1       6.070  33.292  -0.158  1.00  0.00     0.143 C 
HETATM    2  N4  UNL     1       6.050  34.494  -0.311  1.00  0.00    -0.307 N 
ATOM      3  H4  UNL     1       6.591  34.870   0.467  1.00  0.00     0.186 HD
ENDROOT
BRANCH   2   4
HETATM    4  N5  UNL     1       5.660  35.557  -1.007  1.00  0.00    -0.270 N 
HETATM    5  C4  UNL     1       6.555  36.195  -1.921  1.00  0.00     0.240 C 
HETATM    6  O1  UNL     1       7.713  35.758  -2.073  1.00  0.00    -0.271 OA
ATOM      7  H5  UNL     1       4.715  35.921  -0.887  1.00  0.00     0.190 HD
BRANCH   5   8
HETATM    8  C5  UNL     1       6.119  37.387  -2.701  1.00  0.00     0.149 C 
BRANCH   8   9
HETATM    9  C6  UNL     1       7.039  38.524  -2.379  1.00  0.00     0.073 C 
BRANCH   9  10
HETATM   10  N6  UNL     1       7.514  38.544  -1.079  1.00  0.00    -0.341 N 
HETATM   11  C7  UNL     1       7.312  39.222  -0.057  1.00  0.00     0.192 C 
HETATM   12  N7  UNL     1       6.443  40.317   0.164  1.00  0.00    -0.346 N 
HETATM   13  N9  UNL     1       7.963  39.011   1.218  1.00  0.00    -0.274 N 
HETATM   14  C8  UNL     1       6.084  40.247   1.578  1.00  0.00     0.259 C 
ATOM     15  H7  UNL     1       6.134  41.008  -0.518  1.00  0.00     0.163 HD
HETATM   16  N8  UNL     1       7.225  39.612   2.207  1.00  0.00    -0.119 NA
ATOM     17  H9  UNL     1       8.833  38.496   1.359  1.00  0.00     0.185 HD
ATOM     18  H6  UNL     1       8.208  37.814  -0.918  1.00  0.00     0.168 HD
ENDBRANCH   9  10
ENDBRANCH   8   9
ENDBRANCH   5   8
ENDBRANCH   2   4
BRANCH   1  19
HETATM   19  C2  UNL     1       5.504  32.179  -0.892  1.00  0.00     0.134 A 
HETATM   20  N3  UNL     1       4.991  31.088  -0.242  1.00  0.00    -0.280 N 
HETATM   21  N2  UNL     1       4.469  30.056  -0.872  1.00  0.00    -0.132 N 
ATOM     22  H3  UNL     1       5.014  31.074   0.777  1.00  0.00     0.188 HD
HETATM   23  C1  UNL     1       4.422  30.045  -2.215  1.00  0.00     0.693 A 
ATOM     24  H2  UNL     1       4.101  29.266  -0.341  1.00  0.00     0.205 HD
HETATM   25  N10 UNL     1       4.901  31.070  -2.936  1.00  0.00    -0.153 N 
HETATM   26  C9  UNL     1       5.439  32.130  -2.249  1.00  0.00     0.289 A 
ATOM     27  H10 UNL     1       4.866  31.062  -3.956  1.00  0.00     0.187 HD
HETATM   28  O2  UNL     1       5.865  33.049  -2.969  1.00  0.00    -0.265 OA
BRANCH  23  29
HETATM   29  N1  UNL     1       3.912  29.037  -2.833  1.00  0.00    -0.233 N 
ATOM     30  H12 UNL     1       2.996  28.696  -2.543  1.00  0.00     0.174 HD
ATOM     31  H11 UNL     1       4.423  28.596  -3.598  1.00  0.00     0.174 HD
ENDBRANCH  23  29
ENDBRANCH   1  19
TORSDOF 6
ENDMDL
MODEL 5
REMARK VINA RESULT: -8.090677097      3.956      7.308
REMARK  6 active torsions:
REMARK  status: ('A' for Active; 'I' for Inactive)
REMARK    1  A    between atoms: N1_1  and  C1_4 
REMARK    2  A    between atoms: C2_9  and  C3_10 
REMARK    3  A    between atoms: N4_11  and  N5_13 
REMARK       I    between atoms: N5_13  and  C4_15 
REMARK    4  A    between atoms: C4_15  and  C5_17 
REMARK    5  A    between atoms: C5_17  and  C6_18 
REMARK    6  A    between atoms: C6_18  and  N6_19 
ROOT
HETATM    1  C3  UNL     1       5.505  32.234  -3.023  1.00  0.00     0.143 C 
HETATM    2  N4  UNL     1       5.766  33.408  -2.879  1.00  0.00    -0.307 N 
ATOM      3  H4  UNL     1       5.923  33.764  -3.822  1.00  0.00     0.186 HD
ENDROOT
BRANCH   2   4
HETATM    4  N5  UNL     1       5.945  34.456  -2.081  1.00  0.00    -0.270 N 
HETATM    5  C4  UNL     1       6.188  35.754  -2.630  1.00  0.00     0.240 C 
HETATM    6  O1  UNL     1       6.235  35.914  -3.865  1.00  0.00    -0.271 OA
ATOM      7  H5  UNL     1       5.909  34.333  -1.070  1.00  0.00     0.190 HD
BRANCH   5   8
HETATM    8  C5  UNL     1       6.390  36.929  -1.735  1.00  0.00     0.149 C 
BRANCH   8   9
HETATM    9  C6  UNL     1       6.589  36.428  -0.337  1.00  0.00     0.073 C 
BRANCH   9  10
HETATM   10  N6  UNL     1       7.270  37.291   0.502  1.00  0.00    -0.341 N 
HETATM   11  C7  UNL     1       7.057  38.402   1.016  1.00  0.00     0.192 C 
HETATM   12  N7  UNL     1       5.937  39.262   0.919  1.00  0.00    -0.346 N 
HETATM   13  N9  UNL     1       7.973  39.096   1.896  1.00  0.00    -0.274 N 
HETATM   14  C8  UNL     1       5.899  39.992   2.183  1.00  0.00     0.259 C 
ATOM     15  H7  UNL     1       5.294  39.352   0.134  1.00  0.00     0.163 HD
HETATM   16  N8  UNL     1       7.283  40.044   2.610  1.00  0.00    -0.119 NA
ATOM     17  H9  UNL     1       8.973  38.910   1.973  1.00  0.00     0.185 HD
ATOM     18  H6  UNL     1       8.182  36.920   0.767  1.00  0.00     0.168 HD
ENDBRANCH   9  10
ENDBRANCH   8   9
ENDBRANCH   5   8
ENDBRANCH   2   4
BRANCH   1  19
HETATM   19  C2  UNL     1       5.186  31.159  -2.106  1.00  0.00     0.134 A 
HETATM   20  N3  UNL     1       5.052  29.868  -2.546  1.00  0.00    -0.280 N 
HETATM   21  N2  UNL     1       4.761  28.864  -1.746  1.00  0.00    -0.132 N 
ATOM     22  H3  UNL     1       5.183  29.677  -3.538  1.00  0.00     0.188 HD
HETATM   23  C1  UNL     1       4.584  29.083  -0.432  1.00  0.00     0.693 A 
ATOM     24  H2  UNL     1       4.671  27.920  -2.123  1.00  0.00     0.205 HD
HETATM   25  N10 UNL     1       4.696  30.314   0.089  1.00  0.00    -0.153 N 
HETATM   26  C9  UNL     1       4.999  31.340  -0.772  1.00  0.00     0.289 A 
ATOM     27  H10 UNL     1       4.561  30.481   1.086  1.00  0.00     0.187 HD
HETATM   28  O2  UNL     1       5.090  32.457  -0.234  1.00  0.00    -0.265 OA
BRANCH  23  29
HETATM   29  N1  UNL     1       4.301  28.102   0.352  1.00  0.00    -0.233 N 
ATOM     30  H12 UNL     1       4.020  27.211  -0.059  1.00  0.00     0.174 HD
ATOM     31  H11 UNL     1       4.361  28.223   1.363  1.00  0.00     0.174 HD
ENDBRANCH  23  29
ENDBRANCH   1  19
TORSDOF 6
ENDMDL
