MODEL 1
REMARK VINA RESULT: -7.658861026      0.000      0.000
REMARK  10 active torsions:
REMARK  status: ('A' for Active; 'I' for Inactive)
REMARK    1  A    between atoms: C2_2  and  N1_3 
REMARK    2  A    between atoms: N1_3  and  C3_5 
REMARK    3  A    between atoms: N3_9  and  N4_11 
REMARK    4  A    between atoms: N5_14  and  C5_15 
REMARK    5  A    between atoms: C5_15  and  C6_16 
REMARK    6  A    between atoms: C7_19  and  N7_20 
REMARK    7  A    between atoms: C8_27  and  N10_28 
REMARK    8  A    between atoms: N10_28  and  C9_30 
REMARK    9  A    between atoms: C9_30  and  C10_31 
REMARK   10  A    between atoms: C10_31  and  O1_32 
ROOT
HETATM    1  C3  UNL     1       6.435  37.206  -3.991  1.00  0.00     0.707 A 
HETATM    2  N2  UNL     1       6.368  36.144  -3.170  1.00  0.00    -0.020 N 
ATOM      3  H2  UNL     1       5.907  35.287  -3.476  1.00  0.00     0.203 HD
HETATM    4  C4  UNL     1       6.909  36.218  -1.950  1.00  0.00     0.728 A 
HETATM    5  N3  UNL     1       6.854  35.197  -1.151  1.00  0.00    -0.137 N 
ATOM      6  H3  UNL     1       7.273  35.272  -0.224  1.00  0.00     0.205 HD
HETATM    7  N5  UNL     1       7.532  37.371  -1.531  1.00  0.00    -0.005 N 
HETATM    8  C8  UNL     1       7.623  38.454  -2.320  1.00  0.00     0.710 A 
HETATM    9  N11 UNL     1       7.039  38.312  -3.580  1.00  0.00    -0.021 N 
ATOM     10  H11 UNL     1       7.078  39.105  -4.220  1.00  0.00     0.203 HD
ENDROOT
BRANCH   7  11
HETATM   11  C5  UNL     1       8.077  37.342  -0.180  1.00  0.00     0.245 C 
BRANCH  11  12
HETATM   12  C6  UNL     1       7.315  38.201   0.758  1.00  0.00     0.132 A 
HETATM   13  N6  UNL     1       5.992  38.014   1.070  1.00  0.00    -0.177 N 
HETATM   14  C7  UNL     1       5.588  38.950   1.929  1.00  0.00     0.691 A 
ATOM     15  H6  UNL     1       5.404  37.268   0.698  1.00  0.00     0.185 HD
HETATM   16  N8  UNL     1       6.636  39.732   2.171  1.00  0.00    -0.131 N 
HETATM   17  N9  UNL     1       7.681  39.272   1.456  1.00  0.00    -0.273 N 
ATOM     18  H8  UNL     1       6.647  40.542   2.791  1.00  0.00     0.205 HD
ATOM     19  H9  UNL     1       8.614  39.685   1.452  1.00  0.00     0.189 HD
BRANCH  14  20
HETATM   20  N7  UNL     1       4.408  39.087   2.442  1.00  0.00    -0.233 N 
ATOM     21  H72 UNL     1       3.727  38.340   2.579  1.00  0.00     0.174 HD
ATOM     22  H71 UNL     1       3.978  39.946   2.784  1.00  0.00     0.174 HD
ENDBRANCH  14  20
ENDBRANCH  11  12
ENDBRANCH   7  11
BRANCH   8  23
HETATM   23  N10 UNL     1       8.209  39.511  -2.103  1.00  0.00    -0.223 N 
ATOM     24  H10 UNL     1       9.166  39.258  -1.855  1.00  0.00     0.177 HD
BRANCH  23  25
HETATM   25  C9  UNL     1       8.151  40.865  -2.045  1.00  0.00     0.164 C 
BRANCH  25  26
HETATM   26  C10 UNL     1       6.756  41.398  -1.665  1.00  0.00     0.184 C 
BRANCH  26  27
HETATM   27  O1  UNL     1       6.689  41.494  -0.280  1.00  0.00    -0.399 OA
ATOM     28  H1  UNL     1       6.515  42.399  -0.052  1.00  0.00     0.209 HD
ENDBRANCH  26  27
ENDBRANCH  25  26
ENDBRANCH  23  25
ENDBRANCH   8  23
BRANCH   5  29
HETATM   29  N4  UNL     1       6.240  33.999  -1.519  1.00  0.00    -0.331 N 
ATOM     30  H42 UNL     1       5.341  34.051  -1.999  1.00  0.00     0.177 HD
ATOM     31  H41 UNL     1       6.661  33.092  -1.322  1.00  0.00     0.177 HD
ENDBRANCH   5  29
BRANCH   1  32
HETATM   32  N1  UNL     1       5.924  37.183  -5.184  1.00  0.00    -0.225 N 
ATOM     33  H1  UNL     1       4.956  37.461  -5.344  1.00  0.00     0.177 HD
BRANCH  32  34
HETATM   34  C2  UNL     1       6.764  36.754  -6.278  1.00  0.00     0.133 C 
HETATM   35  C1  UNL     1       5.934  36.780  -7.545  1.00  0.00     0.027 C 
ENDBRANCH  32  34
ENDBRANCH   1  32
TORSDOF 10
ENDMDL
MODEL 2
REMARK VINA RESULT: -7.498470679      2.247      4.021
REMARK  10 active torsions:
REMARK  status: ('A' for Active; 'I' for Inactive)
REMARK    1  A    between atoms: C2_2  and  N1_3 
REMARK    2  A    between atoms: N1_3  and  C3_5 
REMARK    3  A    between atoms: N3_9  and  N4_11 
REMARK    4  A    between atoms: N5_14  and  C5_15 
REMARK    5  A    between atoms: C5_15  and  C6_16 
REMARK    6  A    between atoms: C7_19  and  N7_20 
REMARK    7  A    between atoms: C8_27  and  N10_28 
REMARK    8  A    between atoms: N10_28  and  C9_30 
REMARK    9  A    between atoms: C9_30  and  C10_31 
REMARK   10  A    between atoms: C10_31  and  O1_32 
ROOT
HETATM    1  C3  UNL     1       5.904  35.544  -1.834  1.00  0.00     0.707 A 
HETATM    2  N2  UNL     1       5.749  36.103  -3.046  1.00  0.00    -0.020 N 
ATOM      3  H2  UNL     1       5.008  35.782  -3.669  1.00  0.00     0.203 HD
HETATM    4  C4  UNL     1       6.573  37.083  -3.430  1.00  0.00     0.728 A 
HETATM    5  N3  UNL     1       6.429  37.634  -4.597  1.00  0.00    -0.137 N 
ATOM      6  H3  UNL     1       7.067  38.381  -4.872  1.00  0.00     0.205 HD
HETATM    7  N5  UNL     1       7.574  37.522  -2.595  1.00  0.00    -0.005 N 
HETATM    8  C8  UNL     1       7.762  36.992  -1.376  1.00  0.00     0.710 A 
HETATM    9  N11 UNL     1       6.870  35.974  -1.036  1.00  0.00    -0.021 N 
ATOM     10  H11 UNL     1       6.969  35.535  -0.120  1.00  0.00     0.203 HD
ENDROOT
BRANCH   7  11
HETATM   11  C5  UNL     1       8.416  38.587  -3.121  1.00  0.00     0.245 C 
BRANCH  11  12
HETATM   12  C6  UNL     1       8.055  39.918  -2.577  1.00  0.00     0.132 A 
HETATM   13  N6  UNL     1       6.935  40.162  -1.823  1.00  0.00    -0.177 N 
HETATM   14  C7  UNL     1       6.879  41.452  -1.491  1.00  0.00     0.691 A 
ATOM     15  H6  UNL     1       6.246  39.458  -1.556  1.00  0.00     0.185 HD
HETATM   16  N8  UNL     1       7.949  42.036  -2.022  1.00  0.00    -0.131 N 
HETATM   17  N9  UNL     1       8.658  41.099  -2.680  1.00  0.00    -0.273 N 
ATOM     18  H8  UNL     1       8.191  43.023  -1.944  1.00  0.00     0.205 HD
ATOM     19  H9  UNL     1       9.529  41.271  -3.183  1.00  0.00     0.189 HD
BRANCH  14  20
HETATM   20  N7  UNL     1       5.967  42.041  -0.786  1.00  0.00    -0.233 N 
ATOM     21  H72 UNL     1       6.132  42.636   0.026  1.00  0.00     0.174 HD
ATOM     22  H71 UNL     1       4.957  42.003  -0.927  1.00  0.00     0.174 HD
ENDBRANCH  14  20
ENDBRANCH  11  12
ENDBRANCH   7  11
BRANCH   8  23
HETATM   23  N10 UNL     1       8.561  37.334  -0.509  1.00  0.00    -0.223 N 
ATOM     24  H10 UNL     1       9.484  37.289  -0.941  1.00  0.00     0.177 HD
BRANCH  23  25
HETATM   25  C9  UNL     1       8.764  37.746   0.769  1.00  0.00     0.164 C 
BRANCH  25  26
HETATM   26  C10 UNL     1       7.627  38.635   1.308  1.00  0.00     0.184 C 
BRANCH  26  27
HETATM   27  O1  UNL     1       8.170  39.529   2.224  1.00  0.00    -0.399 OA
ATOM     28  H1  UNL     1       7.699  39.438   3.043  1.00  0.00     0.209 HD
ENDBRANCH  26  27
ENDBRANCH  25  26
ENDBRANCH  23  25
ENDBRANCH   8  23
BRANCH   5  29
HETATM   29  N4  UNL     1       5.430  37.236  -5.487  1.00  0.00    -0.331 N 
ATOM     30  H42 UNL     1       4.522  36.977  -5.101  1.00  0.00     0.177 HD
ATOM     31  H41 UNL     1       5.586  37.199  -6.494  1.00  0.00     0.177 HD
ENDBRANCH   5  29
BRANCH   1  32
HETATM   32  N1  UNL     1       5.131  34.588  -1.417  1.00  0.00    -0.225 N 
ATOM     33  H1  UNL     1       4.151  34.766  -1.195  1.00  0.00     0.177 HD
BRANCH  32  34
HETATM   34  C2  UNL     1       5.697  33.266  -1.276  1.00  0.00     0.133 C 
HETATM   35  C1  UNL     1       5.525  32.539  -2.594  1.00  0.00     0.027 C 
ENDBRANCH  32  34
ENDBRANCH   1  32
TORSDOF 10
ENDMDL
MODEL 3
REMARK VINA RESULT: -7.466385246      2.239      6.588
REMARK  10 active torsions:
REMARK  status: ('A' for Active; 'I' for Inactive)
REMARK    1  A    between atoms: C2_2  and  N1_3 
REMARK    2  A    between atoms: N1_3  and  C3_5 
REMARK    3  A    between atoms: N3_9  and  N4_11 
REMARK    4  A    between atoms: N5_14  and  C5_15 
REMARK    5  A    between atoms: C5_15  and  C6_16 
REMARK    6  A    between atoms: C7_19  and  N7_20 
REMARK    7  A    between atoms: C8_27  and  N10_28 
REMARK    8  A    between atoms: N10_28  and  C9_30 
REMARK    9  A    between atoms: C9_30  and  C10_31 
REMARK   10  A    between atoms: C10_31  and  O1_32 
ROOT
HETATM    1  C3  UNL     1       6.562  39.803  -0.082  1.00  0.00     0.707 A 
HETATM    2  N2  UNL     1       7.386  40.322  -1.008  1.00  0.00    -0.020 N 
ATOM      3  H2  UNL     1       7.674  41.298  -0.950  1.00  0.00     0.203 HD
HETATM    4  C4  UNL     1       7.826  39.549  -2.007  1.00  0.00     0.728 A 
HETATM    5  N3  UNL     1       8.626  40.038  -2.904  1.00  0.00    -0.137 N 
ATOM      6  H3  UNL     1       8.951  39.433  -3.658  1.00  0.00     0.205 HD
HETATM    7  N5  UNL     1       7.441  38.231  -2.091  1.00  0.00    -0.005 N 
HETATM    8  C8  UNL     1       6.621  37.673  -1.186  1.00  0.00     0.710 A 
HETATM    9  N11 UNL     1       6.197  38.532  -0.171  1.00  0.00    -0.021 N 
ATOM     10  H11 UNL     1       5.571  38.159   0.544  1.00  0.00     0.203 HD
ENDROOT
BRANCH   7  11
HETATM   11  C5  UNL     1       7.974  37.487  -3.225  1.00  0.00     0.245 C 
BRANCH  11  12
HETATM   12  C6  UNL     1       6.991  37.352  -4.327  1.00  0.00     0.132 A 
HETATM   13  N6  UNL     1       7.307  36.918  -5.589  1.00  0.00    -0.177 N 
HETATM   14  C7  UNL     1       6.216  36.914  -6.358  1.00  0.00     0.691 A 
ATOM     15  H6  UNL     1       8.239  36.640  -5.895  1.00  0.00     0.185 HD
HETATM   16  N8  UNL     1       5.208  37.338  -5.602  1.00  0.00    -0.131 N 
HETATM   17  N9  UNL     1       5.685  37.602  -4.371  1.00  0.00    -0.273 N 
ATOM     18  H8  UNL     1       4.240  37.445  -5.903  1.00  0.00     0.205 HD
ATOM     19  H9  UNL     1       5.128  37.945  -3.588  1.00  0.00     0.189 HD
BRANCH  14  20
HETATM   20  N7  UNL     1       6.135  36.565  -7.601  1.00  0.00    -0.233 N 
ATOM     21  H72 UNL     1       6.613  35.772  -8.031  1.00  0.00     0.174 HD
ATOM     22  H71 UNL     1       5.593  37.019  -8.336  1.00  0.00     0.174 HD
ENDBRANCH  14  20
ENDBRANCH  11  12
ENDBRANCH   7  11
BRANCH   8  23
HETATM   23  N10 UNL     1       6.260  36.502  -1.101  1.00  0.00    -0.223 N 
ATOM     24  H10 UNL     1       5.369  36.445  -1.595  1.00  0.00     0.177 HD
BRANCH  23  25
HETATM   25  C9  UNL     1       6.518  35.251  -0.643  1.00  0.00     0.164 C 
BRANCH  25  26
HETATM   26  C10 UNL     1       5.911  34.144  -1.527  1.00  0.00     0.184 C 
BRANCH  26  27
HETATM   27  O1  UNL     1       5.848  34.614  -2.833  1.00  0.00    -0.399 OA
ATOM     28  H1  UNL     1       5.570  33.900  -3.394  1.00  0.00     0.209 HD
ENDBRANCH  26  27
ENDBRANCH  25  26
ENDBRANCH  23  25
ENDBRANCH   8  23
BRANCH   5  29
HETATM   29  N4  UNL     1       9.055  41.365  -2.870  1.00  0.00    -0.331 N 
ATOM     30  H42 UNL     1       8.492  42.062  -3.357  1.00  0.00     0.177 HD
ATOM     31  H41 UNL     1       9.903  41.648  -2.379  1.00  0.00     0.177 HD
ENDBRANCH   5  29
BRANCH   1  32
HETATM   32  N1  UNL     1       6.106  40.513   0.904  1.00  0.00    -0.225 N 
ATOM     33  H1  UNL     1       5.555  41.354   0.734  1.00  0.00     0.177 HD
BRANCH  32  34
HETATM   34  C2  UNL     1       6.401  40.078   2.251  1.00  0.00     0.133 C 
HETATM   35  C1  UNL     1       5.093  39.967   3.005  1.00  0.00     0.027 C 
ENDBRANCH  32  34
ENDBRANCH   1  32
TORSDOF 10
ENDMDL
MODEL 4
REMARK VINA RESULT: -7.404911558      2.274      6.578
REMARK  10 active torsions:
REMARK  status: ('A' for Active; 'I' for Inactive)
REMARK    1  A    between atoms: C2_2  and  N1_3 
REMARK    2  A    between atoms: N1_3  and  C3_5 
REMARK    3  A    between atoms: N3_9  and  N4_11 
REMARK    4  A    between atoms: N5_14  and  C5_15 
REMARK    5  A    between atoms: C5_15  and  C6_16 
REMARK    6  A    between atoms: C7_19  and  N7_20 
REMARK    7  A    between atoms: C8_27  and  N10_28 
REMARK    8  A    between atoms: N10_28  and  C9_30 
REMARK    9  A    between atoms: C9_30  and  C10_31 
REMARK   10  A    between atoms: C10_31  and  O1_32 
ROOT
HETATM    1  C3  UNL     1       6.561  39.728  -0.071  1.00  0.00     0.707 A 
HETATM    2  N2  UNL     1       7.370  40.221  -1.024  1.00  0.00    -0.020 N 
ATOM      3  H2  UNL     1       7.662  41.198  -0.994  1.00  0.00     0.203 HD
HETATM    4  C4  UNL     1       7.789  39.423  -2.011  1.00  0.00     0.728 A 
HETATM    5  N3  UNL     1       8.575  39.888  -2.934  1.00  0.00    -0.137 N 
ATOM      6  H3  UNL     1       8.884  39.264  -3.679  1.00  0.00     0.205 HD
HETATM    7  N5  UNL     1       7.398  38.105  -2.058  1.00  0.00    -0.005 N 
HETATM    8  C8  UNL     1       6.593  37.572  -1.125  1.00  0.00     0.710 A 
HETATM    9  N11 UNL     1       6.191  38.456  -0.123  1.00  0.00    -0.021 N 
ATOM     10  H11 UNL     1       5.576  38.103   0.611  1.00  0.00     0.203 HD
ENDROOT
BRANCH   7  11
HETATM   11  C5  UNL     1       7.908  37.333  -3.183  1.00  0.00     0.245 C 
BRANCH  11  12
HETATM   12  C6  UNL     1       6.949  37.275  -4.312  1.00  0.00     0.132 A 
HETATM   13  N6  UNL     1       7.265  36.817  -5.566  1.00  0.00    -0.177 N 
HETATM   14  C7  UNL     1       6.199  36.899  -6.365  1.00  0.00     0.691 A 
ATOM     15  H6  UNL     1       8.180  36.466  -5.846  1.00  0.00     0.185 HD
HETATM   16  N8  UNL     1       5.207  37.402  -5.636  1.00  0.00    -0.131 N 
HETATM   17  N9  UNL     1       5.669  37.629  -4.392  1.00  0.00    -0.273 N 
ATOM     18  H8  UNL     1       4.259  37.585  -5.964  1.00  0.00     0.205 HD
ATOM     19  H9  UNL     1       5.118  38.014  -3.625  1.00  0.00     0.189 HD
BRANCH  14  20
HETATM   20  N7  UNL     1       6.126  36.557  -7.610  1.00  0.00    -0.233 N 
ATOM     21  H72 UNL     1       6.294  35.622  -7.984  1.00  0.00     0.174 HD
ATOM     22  H71 UNL     1       5.895  37.156  -8.403  1.00  0.00     0.174 HD
ENDBRANCH  14  20
ENDBRANCH  11  12
ENDBRANCH   7  11
BRANCH   8  23
HETATM   23  N10 UNL     1       6.229  36.405  -1.005  1.00  0.00    -0.223 N 
ATOM     24  H10 UNL     1       5.257  36.379  -1.312  1.00  0.00     0.177 HD
BRANCH  23  25
HETATM   25  C9  UNL     1       6.545  35.135  -0.647  1.00  0.00     0.164 C 
BRANCH  25  26
HETATM   26  C10 UNL     1       7.008  35.014   0.818  1.00  0.00     0.184 C 
BRANCH  26  27
HETATM   27  O1  UNL     1       6.282  33.994   1.421  1.00  0.00    -0.399 OA
ATOM     28  H1  UNL     1       6.108  33.326   0.769  1.00  0.00     0.209 HD
ENDBRANCH  26  27
ENDBRANCH  25  26
ENDBRANCH  23  25
ENDBRANCH   8  23
BRANCH   5  29
HETATM   29  N4  UNL     1       9.008  41.214  -2.940  1.00  0.00    -0.331 N 
ATOM     30  H42 UNL     1       9.357  41.606  -2.065  1.00  0.00     0.177 HD
ATOM     31  H41 UNL     1       8.984  41.788  -3.782  1.00  0.00     0.177 HD
ENDBRANCH   5  29
BRANCH   1  32
HETATM   32  N1  UNL     1       6.126  40.462   0.906  1.00  0.00    -0.225 N 
ATOM     33  H1  UNL     1       5.579  41.305   0.726  1.00  0.00     0.177 HD
BRANCH  32  34
HETATM   34  C2  UNL     1       6.437  40.054   2.257  1.00  0.00     0.133 C 
HETATM   35  C1  UNL     1       5.155  40.088   3.065  1.00  0.00     0.027 C 
ENDBRANCH  32  34
ENDBRANCH   1  32
TORSDOF 10
ENDMDL
MODEL 5
REMARK VINA RESULT: -7.282669269      2.250      3.885
REMARK  10 active torsions:
REMARK  status: ('A' for Active; 'I' for Inactive)
REMARK    1  A    between atoms: C2_2  and  N1_3 
REMARK    2  A    between atoms: N1_3  and  C3_5 
REMARK    3  A    between atoms: N3_9  and  N4_11 
REMARK    4  A    between atoms: N5_14  and  C5_15 
REMARK    5  A    between atoms: C5_15  and  C6_16 
REMARK    6  A    between atoms: C7_19  and  N7_20 
REMARK    7  A    between atoms: C8_27  and  N10_28 
REMARK    8  A    between atoms: N10_28  and  C9_30 
REMARK    9  A    between atoms: C9_30  and  C10_31 
REMARK   10  A    between atoms: C10_31  and  O1_32 
ROOT
HETATM    1  C3  UNL     1       7.457  37.211  -3.882  1.00  0.00     0.707 A 
HETATM    2  N2  UNL     1       7.811  38.443  -3.479  1.00  0.00    -0.020 N 
ATOM      3  H2  UNL     1       7.908  39.198  -4.158  1.00  0.00     0.203 HD
HETATM    4  C4  UNL     1       8.034  38.674  -2.181  1.00  0.00     0.728 A 
HETATM    5  N3  UNL     1       8.372  39.862  -1.780  1.00  0.00    -0.137 N 
ATOM      6  H3  UNL     1       8.537  40.018  -0.786  1.00  0.00     0.205 HD
HETATM    7  N5  UNL     1       7.905  37.661  -1.259  1.00  0.00    -0.005 N 
HETATM    8  C8  UNL     1       7.551  36.417  -1.619  1.00  0.00     0.710 A 
HETATM    9  N11 UNL     1       7.333  36.242  -2.987  1.00  0.00    -0.021 N 
ATOM     10  H11 UNL     1       7.063  35.315  -3.315  1.00  0.00     0.203 HD
ENDROOT
BRANCH   7  11
HETATM   11  C5  UNL     1       8.181  38.024   0.124  1.00  0.00     0.245 C 
BRANCH  11  12
HETATM   12  C6  UNL     1       6.968  38.474   0.847  1.00  0.00     0.132 A 
HETATM   13  N6  UNL     1       6.817  39.723   1.393  1.00  0.00    -0.177 N 
HETATM   14  C7  UNL     1       5.625  39.824   1.984  1.00  0.00     0.691 A 
ATOM     15  H6  UNL     1       7.514  40.467   1.352  1.00  0.00     0.185 HD
HETATM   16  N8  UNL     1       5.013  38.654   1.822  1.00  0.00    -0.131 N 
HETATM   17  N9  UNL     1       5.833  37.840   1.131  1.00  0.00    -0.273 N 
ATOM     18  H8  UNL     1       4.082  38.416   2.162  1.00  0.00     0.205 HD
ATOM     19  H9  UNL     1       5.616  36.879   0.866  1.00  0.00     0.189 HD
BRANCH  14  20
HETATM   20  N7  UNL     1       5.140  40.853   2.600  1.00  0.00    -0.233 N 
ATOM     21  H72 UNL     1       5.683  41.573   3.078  1.00  0.00     0.174 HD
ATOM     22  H71 UNL     1       4.157  41.103   2.707  1.00  0.00     0.174 HD
ENDBRANCH  14  20
ENDBRANCH  11  12
ENDBRANCH   7  11
BRANCH   8  23
HETATM   23  N10 UNL     1       7.330  35.447  -0.899  1.00  0.00    -0.223 N 
ATOM     24  H10 UNL     1       8.104  35.403  -0.237  1.00  0.00     0.177 HD
BRANCH  23  25
HETATM   25  C9  UNL     1       6.514  34.407  -0.592  1.00  0.00     0.164 C 
BRANCH  25  26
HETATM   26  C10 UNL     1       6.882  33.718   0.736  1.00  0.00     0.184 C 
BRANCH  26  27
HETATM   27  O1  UNL     1       5.795  32.955   1.147  1.00  0.00    -0.399 OA
ATOM     28  H1  UNL     1       6.107  32.083   1.358  1.00  0.00     0.209 HD
ENDBRANCH  26  27
ENDBRANCH  25  26
ENDBRANCH  23  25
ENDBRANCH   8  23
BRANCH   5  29
HETATM   29  N4  UNL     1       8.515  40.930  -2.665  1.00  0.00    -0.331 N 
ATOM     30  H42 UNL     1       9.418  41.403  -2.702  1.00  0.00     0.177 HD
ATOM     31  H41 UNL     1       7.752  41.243  -3.265  1.00  0.00     0.177 HD
ENDBRANCH   5  29
BRANCH   1  32
HETATM   32  N1  UNL     1       7.231  36.937  -5.130  1.00  0.00    -0.225 N 
ATOM     33  H1  UNL     1       7.930  36.455  -5.696  1.00  0.00     0.177 HD
BRANCH  32  34
HETATM   34  C2  UNL     1       5.962  37.333  -5.697  1.00  0.00     0.133 C 
HETATM   35  C1  UNL     1       5.969  36.965  -7.166  1.00  0.00     0.027 C 
ENDBRANCH  32  34
ENDBRANCH   1  32
TORSDOF 10
ENDMDL
