MODEL 1
REMARK VINA RESULT: -8.334777938      0.000      0.000
REMARK  8 active torsions:
REMARK  status: ('A' for Active; 'I' for Inactive)
REMARK    1  A    between atoms: C6_13  and  N5_14 
REMARK    2  A    between atoms: N5_14  and  C7_16 
REMARK    3  A    between atoms: C7_16  and  C8_17 
REMARK    4  A    between atoms: C8_17  and  C9_18 
REMARK    5  A    between atoms: C9_18  and  N6_19 
REMARK    6  A    between atoms: N6_19  and  C10_21 
REMARK    7  A    between atoms: C11_24  and  N8_25 
REMARK    8  A    between atoms: C12_30  and  N10_31 
ROOT
HETATM    1  C9  UNL     1       6.181  36.936  -3.721  1.00  0.00     0.139 C 
ENDROOT
BRANCH   1   2
HETATM    2  C8  UNL     1       6.646  38.392  -3.790  1.00  0.00     0.040 C 
BRANCH   2   3
HETATM    3  C7  UNL     1       8.139  38.455  -3.538  1.00  0.00     0.123 C 
BRANCH   3   4
HETATM    4  N5  UNL     1       8.445  39.303  -2.410  1.00  0.00    -0.376 N 
ATOM      5  H5  UNL     1       8.951  40.173  -2.575  1.00  0.00     0.161 HD
BRANCH   4   6
HETATM    6  C6  UNL     1       8.064  38.970  -1.060  1.00  0.00     0.113 A 
HETATM    7  C3  UNL     1       7.216  39.732  -0.391  1.00  0.00     0.069 A 
HETATM    8  C2  UNL     1       6.536  40.871  -0.677  1.00  0.00     0.126 A 
HETATM    9  C4  UNL     1       6.914  39.310   0.908  1.00  0.00     0.134 A 
HETATM   10  N2  UNL     1       5.825  41.164   0.413  1.00  0.00    -0.307 N 
HETATM   11  N1  UNL     1       6.036  40.256   1.353  1.00  0.00    -0.281 N 
ATOM     12  H2  UNL     1       5.207  41.970   0.508  1.00  0.00     0.186 HD
HETATM   13  C1  UNL     1       5.434  40.248   2.670  1.00  0.00     0.179 C 
HETATM   14  N3  UNL     1       7.420  38.260   1.434  1.00  0.00    -0.358 N 
HETATM   15  C5  UNL     1       8.346  37.367   0.806  1.00  0.00     0.246 A 
ATOM     16  H3  UNL     1       7.138  38.038   2.389  1.00  0.00     0.162 HD
HETATM   17  N4  UNL     1       8.648  37.800  -0.523  1.00  0.00    -0.360 N 
ATOM     18  H4  UNL     1       9.296  37.257  -1.093  1.00  0.00     0.162 HD
ENDBRANCH   4   6
ENDBRANCH   3   4
ENDBRANCH   2   3
ENDBRANCH   1   2
BRANCH   1  19
HETATM   19  N6  UNL     1       5.888  36.570  -2.371  1.00  0.00    -0.225 N 
ATOM     20  H6  UNL     1       5.676  37.328  -1.722  1.00  0.00     0.177 HD
BRANCH  19  21
HETATM   21  C10 UNL     1       5.867  35.373  -1.898  1.00  0.00     0.707 A 
HETATM   22  N7  UNL     1       6.055  35.113  -0.578  1.00  0.00    -0.022 N 
HETATM   23  C11 UNL     1       6.016  33.865  -0.095  1.00  0.00     0.705 A 
ATOM     24  H7  UNL     1       6.230  35.888   0.061  1.00  0.00     0.203 HD
HETATM   25  N9  UNL     1       5.789  32.842  -0.917  1.00  0.00    -0.022 N 
HETATM   26  C12 UNL     1       5.597  33.054  -2.229  1.00  0.00     0.705 A 
ATOM     27  H9  UNL     1       5.760  31.891  -0.548  1.00  0.00     0.203 HD
HETATM   28  N11 UNL     1       5.638  34.319  -2.711  1.00  0.00    -0.022 N 
ATOM     29  H11 UNL     1       5.493  34.478  -3.708  1.00  0.00     0.203 HD
BRANCH  23  30
HETATM   30  N8  UNL     1       6.199  33.620   1.176  1.00  0.00    -0.234 N 
ATOM     31  H82 UNL     1       5.729  32.817   1.591  1.00  0.00     0.174 HD
ATOM     32  H81 UNL     1       6.799  34.211   1.751  1.00  0.00     0.174 HD
ENDBRANCH  23  30
BRANCH  26  33
HETATM   33  N10 UNL     1       5.354  32.064  -3.041  1.00  0.00    -0.234 N 
ATOM     34 2H10 UNL     1       6.120  31.461  -3.342  1.00  0.00     0.174 HD
ATOM     35 1H10 UNL     1       4.413  31.892  -3.394  1.00  0.00     0.174 HD
ENDBRANCH  26  33
ENDBRANCH  19  21
ENDBRANCH   1  19
TORSDOF 8
ENDMDL
MODEL 2
REMARK VINA RESULT: -8.171031955      0.771      2.522
REMARK  8 active torsions:
REMARK  status: ('A' for Active; 'I' for Inactive)
REMARK    1  A    between atoms: C6_13  and  N5_14 
REMARK    2  A    between atoms: N5_14  and  C7_16 
REMARK    3  A    between atoms: C7_16  and  C8_17 
REMARK    4  A    between atoms: C8_17  and  C9_18 
REMARK    5  A    between atoms: C9_18  and  N6_19 
REMARK    6  A    between atoms: N6_19  and  C10_21 
REMARK    7  A    between atoms: C11_24  and  N8_25 
REMARK    8  A    between atoms: C12_30  and  N10_31 
ROOT
HETATM    1  C9  UNL     1       6.225  37.066  -3.578  1.00  0.00     0.139 C 
ENDROOT
BRANCH   1   2
HETATM    2  C8  UNL     1       7.745  37.175  -3.708  1.00  0.00     0.040 C 
BRANCH   2   3
HETATM    3  C7  UNL     1       8.149  38.635  -3.686  1.00  0.00     0.123 C 
BRANCH   3   4
HETATM    4  N5  UNL     1       8.533  39.053  -2.359  1.00  0.00    -0.376 N 
ATOM      5  H5  UNL     1       9.456  38.793  -2.012  1.00  0.00     0.161 HD
BRANCH   4   6
HETATM    6  C6  UNL     1       7.665  39.823  -1.504  1.00  0.00     0.113 A 
HETATM    7  C3  UNL     1       7.356  39.393  -0.293  1.00  0.00     0.069 A 
HETATM    8  C2  UNL     1       7.679  38.293   0.434  1.00  0.00     0.126 A 
HETATM    9  C4  UNL     1       6.510  40.223   0.450  1.00  0.00     0.134 A 
HETATM   10  N2  UNL     1       7.054  38.423   1.605  1.00  0.00    -0.307 N 
HETATM   11  N1  UNL     1       6.363  39.552   1.630  1.00  0.00    -0.281 N 
ATOM     12  H2  UNL     1       7.102  37.751   2.371  1.00  0.00     0.186 HD
HETATM   13  C1  UNL     1       5.559  40.026   2.738  1.00  0.00     0.179 C 
HETATM   14  N3  UNL     1       6.051  41.330   0.002  1.00  0.00    -0.358 N 
HETATM   15  C5  UNL     1       6.317  41.889  -1.289  1.00  0.00     0.246 A 
ATOM     16  H3  UNL     1       5.440  41.862   0.621  1.00  0.00     0.162 HD
HETATM   17  N4  UNL     1       7.185  41.038  -2.043  1.00  0.00    -0.360 N 
ATOM     18  H4  UNL     1       7.462  41.313  -2.985  1.00  0.00     0.162 HD
ENDBRANCH   4   6
ENDBRANCH   3   4
ENDBRANCH   2   3
ENDBRANCH   1   2
BRANCH   1  19
HETATM   19  N6  UNL     1       5.867  36.637  -2.264  1.00  0.00    -0.225 N 
ATOM     20  H6  UNL     1       5.604  37.362  -1.596  1.00  0.00     0.177 HD
BRANCH  19  21
HETATM   21  C10 UNL     1       5.844  35.420  -1.844  1.00  0.00     0.707 A 
HETATM   22  N7  UNL     1       5.605  34.372  -2.675  1.00  0.00    -0.022 N 
HETATM   23  C11 UNL     1       5.598  33.110  -2.231  1.00  0.00     0.705 A 
ATOM     24  H7  UNL     1       5.425  34.552  -3.663  1.00  0.00     0.203 HD
HETATM   25  N9  UNL     1       5.830  32.858  -0.943  1.00  0.00    -0.022 N 
HETATM   26  C12 UNL     1       6.071  33.864  -0.087  1.00  0.00     0.705 A 
ATOM     27  H9  UNL     1       5.824  31.896  -0.605  1.00  0.00     0.203 HD
HETATM   28  N11 UNL     1       6.076  35.139  -0.544  1.00  0.00    -0.022 N 
ATOM     29  H11 UNL     1       6.259  35.902   0.108  1.00  0.00     0.203 HD
BRANCH  23  30
HETATM   30  N8  UNL     1       5.366  32.106  -3.034  1.00  0.00    -0.234 N 
ATOM     31  H82 UNL     1       5.949  31.998  -3.863  1.00  0.00     0.174 HD
ATOM     32  H81 UNL     1       4.620  31.436  -2.847  1.00  0.00     0.174 HD
ENDBRANCH  23  30
BRANCH  26  33
HETATM   33  N10 UNL     1       6.319  33.631   1.171  1.00  0.00    -0.234 N 
ATOM     34 2H10 UNL     1       5.691  33.030   1.704  1.00  0.00     0.174 HD
ATOM     35 1H10 UNL     1       7.123  34.052   1.635  1.00  0.00     0.174 HD
ENDBRANCH  26  33
ENDBRANCH  19  21
ENDBRANCH   1  19
TORSDOF 8
ENDMDL
MODEL 3
REMARK VINA RESULT: -8.169770369      0.778      1.904
REMARK  8 active torsions:
REMARK  status: ('A' for Active; 'I' for Inactive)
REMARK    1  A    between atoms: C6_13  and  N5_14 
REMARK    2  A    between atoms: N5_14  and  C7_16 
REMARK    3  A    between atoms: C7_16  and  C8_17 
REMARK    4  A    between atoms: C8_17  and  C9_18 
REMARK    5  A    between atoms: C9_18  and  N6_19 
REMARK    6  A    between atoms: N6_19  and  C10_21 
REMARK    7  A    between atoms: C11_24  and  N8_25 
REMARK    8  A    between atoms: C12_30  and  N10_31 
ROOT
HETATM    1  C9  UNL     1       6.212  37.106  -3.580  1.00  0.00     0.139 C 
ENDROOT
BRANCH   1   2
HETATM    2  C8  UNL     1       7.734  37.194  -3.706  1.00  0.00     0.040 C 
BRANCH   2   3
HETATM    3  C7  UNL     1       8.155  38.650  -3.705  1.00  0.00     0.123 C 
BRANCH   3   4
HETATM    4  N5  UNL     1       8.544  39.083  -2.383  1.00  0.00    -0.376 N 
ATOM      5  H5  UNL     1       9.474  38.840  -2.043  1.00  0.00     0.161 HD
BRANCH   4   6
HETATM    6  C6  UNL     1       7.671  39.845  -1.526  1.00  0.00     0.113 A 
HETATM    7  C3  UNL     1       7.370  39.413  -0.314  1.00  0.00     0.069 A 
HETATM    8  C2  UNL     1       7.707  38.317   0.413  1.00  0.00     0.126 A 
HETATM    9  C4  UNL     1       6.519  40.235   0.431  1.00  0.00     0.134 A 
HETATM   10  N2  UNL     1       7.085  38.442   1.586  1.00  0.00    -0.307 N 
HETATM   11  N1  UNL     1       6.383  39.563   1.613  1.00  0.00    -0.281 N 
ATOM     12  H2  UNL     1       7.142  37.770   2.352  1.00  0.00     0.186 HD
HETATM   13  C1  UNL     1       5.578  40.030   2.723  1.00  0.00     0.179 C 
HETATM   14  N3  UNL     1       6.047  41.336  -0.016  1.00  0.00    -0.358 N 
HETATM   15  C5  UNL     1       6.302  41.897  -1.308  1.00  0.00     0.246 A 
ATOM     16  H3  UNL     1       5.433  41.863   0.604  1.00  0.00     0.162 HD
HETATM   17  N4  UNL     1       7.176  41.055  -2.064  1.00  0.00    -0.360 N 
ATOM     18  H4  UNL     1       7.447  41.331  -3.008  1.00  0.00     0.162 HD
ENDBRANCH   4   6
ENDBRANCH   3   4
ENDBRANCH   2   3
ENDBRANCH   1   2
BRANCH   1  19
HETATM   19  N6  UNL     1       5.845  36.682  -2.266  1.00  0.00    -0.225 N 
ATOM     20  H6  UNL     1       5.549  37.406  -1.612  1.00  0.00     0.177 HD
BRANCH  19  21
HETATM   21  C10 UNL     1       5.853  35.471  -1.831  1.00  0.00     0.707 A 
HETATM   22  N7  UNL     1       6.080  35.172  -0.525  1.00  0.00    -0.022 N 
HETATM   23  C11 UNL     1       6.072  33.910  -0.080  1.00  0.00     0.705 A 
ATOM     24  H7  UNL     1       6.261  35.929   0.134  1.00  0.00     0.203 HD
HETATM   25  N9  UNL     1       5.837  32.909  -0.928  1.00  0.00    -0.022 N 
HETATM   26  C12 UNL     1       5.608  33.159  -2.227  1.00  0.00     0.705 A 
ATOM     27  H9  UNL     1       5.832  31.947  -0.589  1.00  0.00     0.203 HD
HETATM   28  N11 UNL     1       5.618  34.438  -2.670  1.00  0.00    -0.022 N 
ATOM     29  H11 UNL     1       5.445  34.626  -3.658  1.00  0.00     0.203 HD
BRANCH  23  30
HETATM   30  N8  UNL     1       6.291  33.628   1.177  1.00  0.00    -0.234 N 
ATOM     31  H82 UNL     1       6.738  34.332   1.765  1.00  0.00     0.174 HD
ATOM     32  H81 UNL     1       6.026  32.728   1.575  1.00  0.00     0.174 HD
ENDBRANCH  23  30
BRANCH  26  33
HETATM   33  N10 UNL     1       5.359  32.191  -3.064  1.00  0.00    -0.234 N 
ATOM     34 2H10 UNL     1       6.001  31.401  -3.125  1.00  0.00     0.174 HD
ATOM     35 1H10 UNL     1       4.539  32.219  -3.670  1.00  0.00     0.174 HD
ENDBRANCH  26  33
ENDBRANCH  19  21
ENDBRANCH   1  19
TORSDOF 8
ENDMDL
MODEL 4
REMARK VINA RESULT: -8.005808743      1.250      6.511
REMARK  8 active torsions:
REMARK  status: ('A' for Active; 'I' for Inactive)
REMARK    1  A    between atoms: C6_13  and  N5_14 
REMARK    2  A    between atoms: N5_14  and  C7_16 
REMARK    3  A    between atoms: C7_16  and  C8_17 
REMARK    4  A    between atoms: C8_17  and  C9_18 
REMARK    5  A    between atoms: C9_18  and  N6_19 
REMARK    6  A    between atoms: N6_19  and  C10_21 
REMARK    7  A    between atoms: C11_24  and  N8_25 
REMARK    8  A    between atoms: C12_30  and  N10_31 
ROOT
HETATM    1  C9  UNL     1       8.317  37.902  -3.492  1.00  0.00     0.139 C 
ENDROOT
BRANCH   1   2
HETATM    2  C8  UNL     1       6.902  37.624  -4.003  1.00  0.00     0.040 C 
BRANCH   2   3
HETATM    3  C7  UNL     1       6.129  36.855  -2.950  1.00  0.00     0.123 C 
BRANCH   3   4
HETATM    4  N5  UNL     1       6.507  35.461  -2.937  1.00  0.00    -0.376 N 
ATOM      5  H5  UNL     1       6.919  35.058  -3.777  1.00  0.00     0.161 HD
BRANCH   4   6
HETATM    6  C6  UNL     1       6.323  34.617  -1.783  1.00  0.00     0.113 A 
HETATM    7  C3  UNL     1       5.842  33.393  -1.912  1.00  0.00     0.069 A 
HETATM    8  C2  UNL     1       5.431  32.642  -2.966  1.00  0.00     0.126 A 
HETATM    9  C4  UNL     1       5.711  32.662  -0.727  1.00  0.00     0.134 A 
HETATM   10  N2  UNL     1       5.050  31.468  -2.461  1.00  0.00    -0.307 N 
HETATM   11  N1  UNL     1       5.208  31.464  -1.147  1.00  0.00    -0.281 N 
ATOM     12  H2  UNL     1       4.688  30.687  -3.008  1.00  0.00     0.186 HD
HETATM   13  C1  UNL     1       4.897  30.360  -0.261  1.00  0.00     0.179 C 
HETATM   14  N3  UNL     1       6.027  33.133   0.420  1.00  0.00    -0.358 N 
HETATM   15  C5  UNL     1       6.552  34.440   0.676  1.00  0.00     0.246 A 
ATOM     16  H3  UNL     1       5.893  32.522   1.225  1.00  0.00     0.162 HD
HETATM   17  N4  UNL     1       6.687  35.181  -0.539  1.00  0.00    -0.360 N 
ATOM     18  H4  UNL     1       7.052  36.133  -0.508  1.00  0.00     0.162 HD
ENDBRANCH   4   6
ENDBRANCH   3   4
ENDBRANCH   2   3
ENDBRANCH   1   2
BRANCH   1  19
HETATM   19  N6  UNL     1       8.397  39.215  -2.936  1.00  0.00    -0.225 N 
ATOM     20  H6  UNL     1       8.957  39.900  -3.444  1.00  0.00     0.177 HD
BRANCH  19  21
HETATM   21  C10 UNL     1       7.829  39.614  -1.852  1.00  0.00     0.707 A 
HETATM   22  N7  UNL     1       7.079  40.746  -1.803  1.00  0.00    -0.022 N 
HETATM   23  C11 UNL     1       6.481  41.145  -0.674  1.00  0.00     0.705 A 
ATOM     24  H7  UNL     1       6.969  41.307  -2.648  1.00  0.00     0.203 HD
HETATM   25  N9  UNL     1       6.615  40.424   0.439  1.00  0.00    -0.022 N 
HETATM   26  C12 UNL     1       7.346  39.299   0.434  1.00  0.00     0.705 A 
ATOM     27  H9  UNL     1       6.159  40.728   1.299  1.00  0.00     0.203 HD
HETATM   28  N11 UNL     1       7.949  38.902  -0.711  1.00  0.00    -0.022 N 
ATOM     29  H11 UNL     1       8.506  38.047  -0.712  1.00  0.00     0.203 HD
BRANCH  23  30
HETATM   30  N8  UNL     1       5.761  42.235  -0.632  1.00  0.00    -0.234 N 
ATOM     31  H82 UNL     1       5.366  42.594  -1.501  1.00  0.00     0.174 HD
ATOM     32  H81 UNL     1       5.590  42.726   0.245  1.00  0.00     0.174 HD
ENDBRANCH  23  30
BRANCH  26  33
HETATM   33  N10 UNL     1       7.470  38.573   1.510  1.00  0.00    -0.234 N 
ATOM     34 2H10 UNL     1       7.149  38.942   2.405  1.00  0.00     0.174 HD
ATOM     35 1H10 UNL     1       7.897  37.648   1.474  1.00  0.00     0.174 HD
ENDBRANCH  26  33
ENDBRANCH  19  21
ENDBRANCH   1  19
TORSDOF 8
ENDMDL
MODEL 5
REMARK VINA RESULT: -7.980511557      1.235      6.430
REMARK  8 active torsions:
REMARK  status: ('A' for Active; 'I' for Inactive)
REMARK    1  A    between atoms: C6_13  and  N5_14 
REMARK    2  A    between atoms: N5_14  and  C7_16 
REMARK    3  A    between atoms: C7_16  and  C8_17 
REMARK    4  A    between atoms: C8_17  and  C9_18 
REMARK    5  A    between atoms: C9_18  and  N6_19 
REMARK    6  A    between atoms: N6_19  and  C10_21 
REMARK    7  A    between atoms: C11_24  and  N8_25 
REMARK    8  A    between atoms: C12_30  and  N10_31 
ROOT
HETATM    1  C9  UNL     1       8.323  37.854  -3.547  1.00  0.00     0.139 C 
ENDROOT
BRANCH   1   2
HETATM    2  C8  UNL     1       6.902  37.594  -4.050  1.00  0.00     0.040 C 
BRANCH   2   3
HETATM    3  C7  UNL     1       6.124  36.837  -2.992  1.00  0.00     0.123 C 
BRANCH   3   4
HETATM    4  N5  UNL     1       6.515  35.448  -2.946  1.00  0.00    -0.376 N 
ATOM      5  H5  UNL     1       6.954  35.036  -3.769  1.00  0.00     0.161 HD
BRANCH   4   6
HETATM    6  C6  UNL     1       6.309  34.620  -1.784  1.00  0.00     0.113 A 
HETATM    7  C3  UNL     1       5.832  33.393  -1.906  1.00  0.00     0.069 A 
HETATM    8  C2  UNL     1       5.442  32.627  -2.957  1.00  0.00     0.126 A 
HETATM    9  C4  UNL     1       5.678  32.680  -0.714  1.00  0.00     0.134 A 
HETATM   10  N2  UNL     1       5.051  31.461  -2.443  1.00  0.00    -0.307 N 
HETATM   11  N1  UNL     1       5.184  31.475  -1.126  1.00  0.00    -0.281 N 
ATOM     12  H2  UNL     1       4.701  30.671  -2.986  1.00  0.00     0.186 HD
HETATM   13  C1  UNL     1       4.857  30.383  -0.232  1.00  0.00     0.179 C 
HETATM   14  N3  UNL     1       5.971  33.167   0.432  1.00  0.00    -0.358 N 
HETATM   15  C5  UNL     1       6.489  34.477   0.681  1.00  0.00     0.246 A 
ATOM     16  H3  UNL     1       5.821  32.566   1.243  1.00  0.00     0.162 HD
HETATM   17  N4  UNL     1       6.648  35.202  -0.542  1.00  0.00    -0.360 N 
ATOM     18  H4  UNL     1       7.012  36.154  -0.517  1.00  0.00     0.162 HD
ENDBRANCH   4   6
ENDBRANCH   3   4
ENDBRANCH   2   3
ENDBRANCH   1   2
BRANCH   1  19
HETATM   19  N6  UNL     1       8.410  39.148  -2.947  1.00  0.00    -0.225 N 
ATOM     20  H6  UNL     1       8.971  39.847  -3.433  1.00  0.00     0.177 HD
BRANCH  19  21
HETATM   21  C10 UNL     1       7.845  39.513  -1.849  1.00  0.00     0.707 A 
HETATM   22  N7  UNL     1       7.968  38.800  -0.699  1.00  0.00    -0.022 N 
HETATM   23  C11 UNL     1       7.389  39.196   0.440  1.00  0.00     0.705 A 
ATOM     24  H7  UNL     1       8.517  37.940  -0.704  1.00  0.00     0.203 HD
HETATM   25  N9  UNL     1       6.668  40.317   0.463  1.00  0.00    -0.022 N 
HETATM   26  C12 UNL     1       6.520  41.052  -0.650  1.00  0.00     0.705 A 
ATOM     27  H9  UNL     1       6.226  40.618   1.331  1.00  0.00     0.203 HD
HETATM   28  N11 UNL     1       7.109  40.644  -1.800  1.00  0.00    -0.022 N 
ATOM     29  H11 UNL     1       6.995  41.204  -2.645  1.00  0.00     0.203 HD
BRANCH  23  30
HETATM   30  N8  UNL     1       7.510  38.506   1.543  1.00  0.00    -0.234 N 
ATOM     31  H82 UNL     1       7.794  37.528   1.479  1.00  0.00     0.174 HD
ATOM     32  H81 UNL     1       7.328  38.924   2.455  1.00  0.00     0.174 HD
ENDBRANCH  23  30
BRANCH  26  33
HETATM   33  N10 UNL     1       5.834  42.160  -0.638  1.00  0.00    -0.234 N 
ATOM     34 2H10 UNL     1       5.722  42.672   0.237  1.00  0.00     0.174 HD
ATOM     35 1H10 UNL     1       5.395  42.516  -1.487  1.00  0.00     0.174 HD
ENDBRANCH  26  33
ENDBRANCH  19  21
ENDBRANCH   1  19
TORSDOF 8
ENDMDL
