MODEL 1
REMARK VINA RESULT: -9.169238313      0.000      0.000
REMARK  5 active torsions:
REMARK  status: ('A' for Active; 'I' for Inactive)
REMARK    1  A    between atoms: C1_4  and  N2_5 
REMARK    2  A    between atoms: C1_4  and  C4_16 
REMARK       I    between atoms: N2_5  and  C2_7 
REMARK    3  A    between atoms: N4_9  and  N5_11 
REMARK    4  A    between atoms: C6_22  and  C7_23 
REMARK    5  A    between atoms: N10_24  and  N11_26 
ROOT
HETATM    1  C4  UNL     1       7.240  38.871  -0.721  1.00  0.00     0.152 A 
HETATM    2  N8  UNL     1       7.531  40.171  -0.933  1.00  0.00    -0.335 N 
ATOM      3  H8  UNL     1       7.278  40.852  -0.217  1.00  0.00     0.168 HD
HETATM    4  C5  UNL     1       8.143  40.604  -2.049  1.00  0.00     0.183 A 
HETATM    5  N9  UNL     1       8.465  39.683  -2.976  1.00  0.00    -0.337 N 
ATOM      6  H9  UNL     1       8.929  39.993  -3.829  1.00  0.00     0.168 HD
HETATM    7  C6  UNL     1       8.204  38.372  -2.828  1.00  0.00     0.124 A 
HETATM    8  N14 UNL     1       7.590  38.006  -1.687  1.00  0.00    -0.324 N 
ATOM      9  H14 UNL     1       7.379  37.018  -1.549  1.00  0.00     0.169 HD
ENDROOT
BRANCH   1  10
HETATM   10  C1  UNL     1       6.577  38.451   0.507  1.00  0.00     0.146 C 
HETATM   11  N1  UNL     1       5.632  39.170   0.993  1.00  0.00    -0.382 N 
ATOM     12  H12 UNL     1       5.168  38.877   1.853  1.00  0.00     0.157 HD
ATOM     13  H11 UNL     1       5.361  40.026   0.508  1.00  0.00     0.157 HD
BRANCH  10  14
HETATM   14  N2  UNL     1       6.949  37.276   1.174  1.00  0.00    -0.313 N 
HETATM   15  C2  UNL     1       6.998  36.045   0.483  1.00  0.00     0.208 C 
HETATM   16  N3  UNL     1       8.239  35.428   0.244  1.00  0.00    -0.062 NA
HETATM   17  N4  UNL     1       5.919  35.501   0.078  1.00  0.00    -0.271 N 
ATOM     18  H4  UNL     1       5.042  35.984   0.272  1.00  0.00     0.189 HD
ATOM     19  H2  UNL     1       7.185  37.309   2.166  1.00  0.00     0.170 HD
BRANCH  17  20
HETATM   20  N5  UNL     1       5.857  34.295  -0.610  1.00  0.00    -0.274 N 
HETATM   21  C3  UNL     1       5.818  34.244  -1.912  1.00  0.00     0.215 C 
HETATM   22  N6  UNL     1       5.838  35.422  -2.694  1.00  0.00    -0.065 NA
HETATM   23  N7  UNL     1       5.754  32.950  -2.507  1.00  0.00    -0.065 NA
ATOM     24  H5  UNL     1       5.840  33.424  -0.080  1.00  0.00     0.189 HD
ENDBRANCH  17  20
ENDBRANCH  10  14
ENDBRANCH   1  10
BRANCH   7  25
HETATM   25  C7  UNL     1       8.556  37.380  -3.837  1.00  0.00     0.155 C 
HETATM   26  N10 UNL     1       7.726  36.947  -4.690  1.00  0.00    -0.306 N 
ATOM     27  H10 UNL     1       8.077  36.254  -5.351  1.00  0.00     0.186 HD
BRANCH  26  28
HETATM   28  N11 UNL     1       6.405  37.305  -4.826  1.00  0.00    -0.276 N 
HETATM   29  C8  UNL     1       5.762  37.273  -5.957  1.00  0.00     0.215 C 
HETATM   30  N12 UNL     1       4.396  37.662  -5.998  1.00  0.00    -0.065 NA
HETATM   31  N13 UNL     1       6.362  36.863  -7.176  1.00  0.00    -0.065 NA
ATOM     32  H11 UNL     1       5.901  37.612  -3.993  1.00  0.00     0.189 HD
ENDBRANCH  26  28
ENDBRANCH   7  25
TORSDOF 5
ENDMDL
MODEL 2
REMARK VINA RESULT: -8.709266177      1.524      4.528
REMARK  5 active torsions:
REMARK  status: ('A' for Active; 'I' for Inactive)
REMARK    1  A    between atoms: C1_4  and  N2_5 
REMARK    2  A    between atoms: C1_4  and  C4_16 
REMARK       I    between atoms: N2_5  and  C2_7 
REMARK    3  A    between atoms: N4_9  and  N5_11 
REMARK    4  A    between atoms: C6_22  and  C7_23 
REMARK    5  A    between atoms: N10_24  and  N11_26 
ROOT
HETATM    1  C4  UNL     1       7.218  36.706   0.822  1.00  0.00     0.152 A 
HETATM    2  N8  UNL     1       8.464  36.863   1.314  1.00  0.00    -0.335 N 
ATOM      3  H8  UNL     1       9.086  36.055   1.339  1.00  0.00     0.168 HD
HETATM    4  C5  UNL     1       8.918  38.043   1.771  1.00  0.00     0.183 A 
HETATM    5  N9  UNL     1       8.075  39.091   1.727  1.00  0.00    -0.337 N 
ATOM      6  H9  UNL     1       8.403  39.993   2.070  1.00  0.00     0.168 HD
HETATM    7  C6  UNL     1       6.821  39.003   1.249  1.00  0.00     0.124 A 
HETATM    8  N14 UNL     1       6.430  37.794   0.807  1.00  0.00    -0.324 N 
ATOM      9  H14 UNL     1       5.483  37.697   0.441  1.00  0.00     0.169 HD
ENDROOT
BRANCH   1  10
HETATM   10  C1  UNL     1       6.772  35.405   0.336  1.00  0.00     0.146 C 
HETATM   11  N1  UNL     1       7.450  34.355   0.628  1.00  0.00    -0.382 N 
ATOM     12  H12 UNL     1       7.138  33.446   0.288  1.00  0.00     0.157 HD
ATOM     13  H11 UNL     1       8.291  34.450   1.197  1.00  0.00     0.157 HD
BRANCH  10  14
HETATM   14  N2  UNL     1       5.617  35.274  -0.446  1.00  0.00    -0.313 N 
HETATM   15  C2  UNL     1       5.691  35.363  -1.853  1.00  0.00     0.208 C 
HETATM   16  N3  UNL     1       5.463  34.219  -2.638  1.00  0.00    -0.062 NA
HETATM   17  N4  UNL     1       5.964  36.478  -2.405  1.00  0.00    -0.271 N 
ATOM     18  H4  UNL     1       6.122  37.283  -1.798  1.00  0.00     0.189 HD
ATOM     19  H2  UNL     1       4.716  35.113   0.005  1.00  0.00     0.170 HD
BRANCH  17  20
HETATM   20  N5  UNL     1       6.061  36.674  -3.777  1.00  0.00    -0.274 N 
HETATM   21  C3  UNL     1       7.201  36.918  -4.362  1.00  0.00     0.215 C 
HETATM   22  N6  UNL     1       8.404  36.995  -3.621  1.00  0.00    -0.065 NA
HETATM   23  N7  UNL     1       7.177  37.102  -5.776  1.00  0.00    -0.065 NA
ATOM     24  H5  UNL     1       5.214  36.627  -4.345  1.00  0.00     0.189 HD
ENDBRANCH  17  20
ENDBRANCH  10  14
ENDBRANCH   1  10
BRANCH   7  25
HETATM   25  C7  UNL     1       5.914  40.143   1.205  1.00  0.00     0.155 C 
HETATM   26  N10 UNL     1       5.992  41.045   0.318  1.00  0.00    -0.306 N 
ATOM     27  H10 UNL     1       5.307  41.799   0.379  1.00  0.00     0.186 HD
BRANCH  26  28
HETATM   28  N11 UNL     1       6.895  41.124  -0.716  1.00  0.00    -0.276 N 
HETATM   29  C8  UNL     1       6.859  40.352  -1.764  1.00  0.00     0.215 C 
HETATM   30  N12 UNL     1       7.838  40.510  -2.783  1.00  0.00    -0.065 NA
HETATM   31  N13 UNL     1       5.878  39.345  -1.949  1.00  0.00    -0.065 NA
ATOM     32  H11 UNL     1       7.633  41.826  -0.659  1.00  0.00     0.189 HD
ENDBRANCH  26  28
ENDBRANCH   7  25
TORSDOF 5
ENDMDL
MODEL 3
REMARK VINA RESULT: -8.625901236      1.339      2.062
REMARK  5 active torsions:
REMARK  status: ('A' for Active; 'I' for Inactive)
REMARK    1  A    between atoms: C1_4  and  N2_5 
REMARK    2  A    between atoms: C1_4  and  C4_16 
REMARK       I    between atoms: N2_5  and  C2_7 
REMARK    3  A    between atoms: N4_9  and  N5_11 
REMARK    4  A    between atoms: C6_22  and  C7_23 
REMARK    5  A    between atoms: N10_24  and  N11_26 
ROOT
HETATM    1  C4  UNL     1       6.533  39.677   0.172  1.00  0.00     0.152 A 
HETATM    2  N8  UNL     1       5.983  40.907   0.216  1.00  0.00    -0.335 N 
ATOM      3  H8  UNL     1       5.365  41.140   0.993  1.00  0.00     0.168 HD
HETATM    4  C5  UNL     1       6.217  41.839  -0.725  1.00  0.00     0.183 A 
HETATM    5  N9  UNL     1       7.036  41.503  -1.739  1.00  0.00    -0.337 N 
ATOM      6  H9  UNL     1       7.224  42.197  -2.463  1.00  0.00     0.168 HD
HETATM    7  C6  UNL     1       7.617  40.295  -1.843  1.00  0.00     0.124 A 
HETATM    8  N14 UNL     1       7.341  39.409  -0.868  1.00  0.00    -0.324 N 
ATOM      9  H14 UNL     1       7.767  38.484  -0.921  1.00  0.00     0.169 HD
ENDROOT
BRANCH   1  10
HETATM   10  C1  UNL     1       6.249  38.701   1.218  1.00  0.00     0.146 C 
HETATM   11  N1  UNL     1       5.277  38.909   2.030  1.00  0.00    -0.382 N 
ATOM     12  H12 UNL     1       5.078  38.227   2.761  1.00  0.00     0.157 HD
ATOM     13  H11 UNL     1       4.719  39.757   1.927  1.00  0.00     0.157 HD
BRANCH  10  14
HETATM   14  N2  UNL     1       7.016  37.537   1.360  1.00  0.00    -0.313 N 
HETATM   15  C2  UNL     1       6.991  36.537   0.363  1.00  0.00     0.208 C 
HETATM   16  N3  UNL     1       8.131  36.310  -0.427  1.00  0.00    -0.062 NA
HETATM   17  N4  UNL     1       5.935  35.847   0.183  1.00  0.00    -0.271 N 
ATOM     18  H4  UNL     1       5.130  36.046   0.778  1.00  0.00     0.189 HD
ATOM     19  H2  UNL     1       7.596  37.410   2.189  1.00  0.00     0.170 HD
BRANCH  17  20
HETATM   20  N5  UNL     1       5.804  34.842  -0.768  1.00  0.00    -0.274 N 
HETATM   21  C3  UNL     1       5.891  33.579  -0.455  1.00  0.00     0.215 C 
HETATM   22  N6  UNL     1       6.124  33.167   0.878  1.00  0.00    -0.065 NA
HETATM   23  N7  UNL     1       5.741  32.638  -1.516  1.00  0.00    -0.065 NA
ATOM     24  H5  UNL     1       5.635  35.100  -1.741  1.00  0.00     0.189 HD
ENDBRANCH  17  20
ENDBRANCH  10  14
ENDBRANCH   1  10
BRANCH   7  25
HETATM   25  C7  UNL     1       8.502  39.938  -2.945  1.00  0.00     0.155 C 
HETATM   26  N10 UNL     1       8.510  38.786  -3.472  1.00  0.00    -0.306 N 
ATOM     27  H10 UNL     1       9.169  38.643  -4.238  1.00  0.00     0.186 HD
BRANCH  26  28
HETATM   28  N11 UNL     1       7.731  37.707  -3.129  1.00  0.00    -0.276 N 
HETATM   29  C8  UNL     1       7.095  36.972  -3.996  1.00  0.00     0.215 C 
HETATM   30  N12 UNL     1       6.313  35.874  -3.544  1.00  0.00    -0.065 NA
HETATM   31  N13 UNL     1       7.143  37.210  -5.394  1.00  0.00    -0.065 NA
ATOM     32  H11 UNL     1       7.645  37.468  -2.141  1.00  0.00     0.189 HD
ENDBRANCH  26  28
ENDBRANCH   7  25
TORSDOF 5
ENDMDL
MODEL 4
REMARK VINA RESULT: -8.557791732      2.351      5.187
REMARK  5 active torsions:
REMARK  status: ('A' for Active; 'I' for Inactive)
REMARK    1  A    between atoms: C1_4  and  N2_5 
REMARK    2  A    between atoms: C1_4  and  C4_16 
REMARK       I    between atoms: N2_5  and  C2_7 
REMARK    3  A    between atoms: N4_9  and  N5_11 
REMARK    4  A    between atoms: C6_22  and  C7_23 
REMARK    5  A    between atoms: N10_24  and  N11_26 
ROOT
HETATM    1  C4  UNL     1       6.160  36.046  -2.536  1.00  0.00     0.152 A 
HETATM    2  N8  UNL     1       6.607  36.232  -3.794  1.00  0.00    -0.335 N 
ATOM      3  H8  UNL     1       6.733  35.417  -4.395  1.00  0.00     0.168 HD
HETATM    4  C5  UNL     1       6.894  37.449  -4.288  1.00  0.00     0.183 A 
HETATM    5  N9  UNL     1       6.719  38.506  -3.473  1.00  0.00    -0.337 N 
ATOM      6  H9  UNL     1       6.932  39.437  -3.831  1.00  0.00     0.168 HD
HETATM    7  C6  UNL     1       6.276  38.391  -2.209  1.00  0.00     0.124 A 
HETATM    8  N14 UNL     1       6.008  37.144  -1.777  1.00  0.00    -0.324 N 
ATOM      9  H14 UNL     1       5.672  37.027  -0.821  1.00  0.00     0.169 HD
ENDROOT
BRANCH   1  10
HETATM   10  C1  UNL     1       5.862  34.706  -2.046  1.00  0.00     0.146 C 
HETATM   11  N1  UNL     1       5.840  33.722  -2.871  1.00  0.00    -0.382 N 
ATOM     12  H12 UNL     1       5.631  32.784  -2.528  1.00  0.00     0.157 HD
ATOM     13  H11 UNL     1       6.032  33.898  -3.857  1.00  0.00     0.157 HD
BRANCH  10  14
HETATM   14  N2  UNL     1       5.598  34.463  -0.691  1.00  0.00    -0.313 N 
HETATM   15  C2  UNL     1       5.667  33.153  -0.171  1.00  0.00     0.208 C 
HETATM   16  N3  UNL     1       6.694  32.811   0.726  1.00  0.00    -0.062 NA
HETATM   17  N4  UNL     1       4.800  32.286  -0.519  1.00  0.00    -0.271 N 
ATOM     18  H4  UNL     1       4.073  32.576  -1.172  1.00  0.00     0.189 HD
ATOM     19  H2  UNL     1       5.353  35.240  -0.077  1.00  0.00     0.170 HD
BRANCH  17  20
HETATM   20  N5  UNL     1       4.777  30.972  -0.067  1.00  0.00    -0.274 N 
HETATM   21  C3  UNL     1       4.693  29.961  -0.887  1.00  0.00     0.215 C 
HETATM   22  N6  UNL     1       4.621  30.154  -2.286  1.00  0.00    -0.065 NA
HETATM   23  N7  UNL     1       4.678  28.657  -0.308  1.00  0.00    -0.065 NA
ATOM     24  H5  UNL     1       4.827  30.792   0.936  1.00  0.00     0.189 HD
ENDBRANCH  17  20
ENDBRANCH  10  14
ENDBRANCH   1  10
BRANCH   7  25
HETATM   25  C7  UNL     1       6.090  39.540  -1.332  1.00  0.00     0.155 C 
HETATM   26  N10 UNL     1       6.713  39.674  -0.237  1.00  0.00    -0.306 N 
ATOM     27  H10 UNL     1       6.508  40.517   0.300  1.00  0.00     0.186 HD
BRANCH  26  28
HETATM   28  N11 UNL     1       7.634  38.812   0.310  1.00  0.00    -0.276 N 
HETATM   29  C8  UNL     1       8.059  38.895   1.538  1.00  0.00     0.215 C 
HETATM   30  N12 UNL     1       9.014  37.956   2.013  1.00  0.00    -0.065 NA
HETATM   31  N13 UNL     1       7.610  39.889   2.445  1.00  0.00    -0.065 NA
ATOM     32  H11 UNL     1       8.006  38.067  -0.279  1.00  0.00     0.189 HD
ENDBRANCH  26  28
ENDBRANCH   7  25
TORSDOF 5
ENDMDL
MODEL 5
REMARK VINA RESULT: -8.330428202      2.460      4.673
REMARK  5 active torsions:
REMARK  status: ('A' for Active; 'I' for Inactive)
REMARK    1  A    between atoms: C1_4  and  N2_5 
REMARK    2  A    between atoms: C1_4  and  C4_16 
REMARK       I    between atoms: N2_5  and  C2_7 
REMARK    3  A    between atoms: N4_9  and  N5_11 
REMARK    4  A    between atoms: C6_22  and  C7_23 
REMARK    5  A    between atoms: N10_24  and  N11_26 
ROOT
HETATM    1  C4  UNL     1       8.612  36.916  -0.577  1.00  0.00     0.152 A 
HETATM    2  N8  UNL     1       9.684  37.007   0.236  1.00  0.00    -0.335 N 
ATOM      3  H8  UNL     1      10.582  36.654  -0.096  1.00  0.00     0.168 HD
HETATM    4  C5  UNL     1       9.616  37.544   1.467  1.00  0.00     0.183 A 
HETATM    5  N9  UNL     1       8.418  38.000   1.878  1.00  0.00    -0.337 N 
ATOM      6  H9  UNL     1       8.348  38.411   2.809  1.00  0.00     0.168 HD
HETATM    7  C6  UNL     1       7.311  37.941   1.118  1.00  0.00     0.124 A 
HETATM    8  N14 UNL     1       7.449  37.391  -0.103  1.00  0.00    -0.324 N 
ATOM      9  H14 UNL     1       6.624  37.332  -0.701  1.00  0.00     0.169 HD
ENDROOT
BRANCH   1  10
HETATM   10  C1  UNL     1       8.738  36.326  -1.904  1.00  0.00     0.146 C 
HETATM   11  N1  UNL     1       9.905  36.104  -2.390  1.00  0.00    -0.382 N 
ATOM     12  H12 UNL     1       9.992  35.691  -3.319  1.00  0.00     0.157 HD
ATOM     13  H11 UNL     1      10.726  36.347  -1.836  1.00  0.00     0.157 HD
BRANCH  10  14
HETATM   14  N2  UNL     1       7.609  35.992  -2.666  1.00  0.00    -0.313 N 
HETATM   15  C2  UNL     1       6.554  35.249  -2.095  1.00  0.00     0.208 C 
HETATM   16  N3  UNL     1       5.309  35.863  -1.869  1.00  0.00    -0.062 NA
HETATM   17  N4  UNL     1       6.734  34.026  -1.786  1.00  0.00    -0.271 N 
ATOM     18  H4  UNL     1       7.652  33.620  -1.967  1.00  0.00     0.189 HD
ATOM     19  H2  UNL     1       7.550  36.289  -3.641  1.00  0.00     0.170 HD
BRANCH  17  20
HETATM   20  N5  UNL     1       5.765  33.206  -1.220  1.00  0.00    -0.274 N 
HETATM   21  C3  UNL     1       5.841  32.798   0.016  1.00  0.00     0.215 C 
HETATM   22  N6  UNL     1       6.922  33.173   0.848  1.00  0.00    -0.065 NA
HETATM   23  N7  UNL     1       4.787  31.960   0.487  1.00  0.00    -0.065 NA
ATOM     24  H5  UNL     1       4.970  32.914  -1.789  1.00  0.00     0.189 HD
ENDBRANCH  17  20
ENDBRANCH  10  14
ENDBRANCH   1  10
BRANCH   7  25
HETATM   25  C7  UNL     1       6.017  38.437   1.571  1.00  0.00     0.155 C 
HETATM   26  N10 UNL     1       5.620  39.619   1.345  1.00  0.00    -0.306 N 
ATOM     27  H10 UNL     1       4.697  39.862   1.706  1.00  0.00     0.186 HD
BRANCH  26  28
HETATM   28  N11 UNL     1       6.291  40.610   0.668  1.00  0.00    -0.276 N 
HETATM   29  C8  UNL     1       6.347  40.685  -0.630  1.00  0.00     0.215 C 
HETATM   30  N12 UNL     1       7.067  41.748  -1.240  1.00  0.00    -0.065 NA
HETATM   31  N13 UNL     1       5.716  39.746  -1.487  1.00  0.00    -0.065 NA
ATOM     32  H11 UNL     1       6.772  41.326   1.213  1.00  0.00     0.189 HD
ENDBRANCH  26  28
ENDBRANCH   7  25
TORSDOF 5
ENDMDL
