MODEL 1
REMARK VINA RESULT: -8.228880998      0.000      0.000
REMARK  9 active torsions:
REMARK  status: ('A' for Active; 'I' for Inactive)
REMARK    1  A    between atoms: N1_1  and  C1_4 
REMARK    2  A    between atoms: N4_14  and  C5_15 
REMARK    3  A    between atoms: C5_15  and  O3_16 
REMARK    4  A    between atoms: O3_16  and  C6_17 
REMARK    5  A    between atoms: C6_17  and  C7_18 
REMARK    6  A    between atoms: C6_17  and  C8_21 
REMARK    7  A    between atoms: C8_21  and  N6_22 
REMARK    8  A    between atoms: C8_21  and  C9_26 
REMARK    9  A    between atoms: C9_26  and  N7_27 
ROOT
HETATM    1  C1  UNL     1       6.404  41.221  -1.015  1.00  0.00     0.680 A 
HETATM    2  N2  UNL     1       7.425  41.860  -1.609  1.00  0.00    -0.154 N 
ATOM      3  H2  UNL     1       7.558  42.857  -1.441  1.00  0.00     0.187 HD
HETATM    4  C2  UNL     1       8.273  41.205  -2.421  1.00  0.00     0.290 A 
HETATM    5  O1  UNL     1       9.241  41.786  -2.991  1.00  0.00    -0.265 OA
HETATM    6  C3  UNL     1       8.116  39.848  -2.666  1.00  0.00     0.151 A 
HETATM    7  N3  UNL     1       8.784  38.948  -3.410  1.00  0.00    -0.300 N 
ATOM      8  H3  UNL     1       9.609  39.133  -3.980  1.00  0.00     0.171 HD
HETATM    9  C4  UNL     1       8.168  37.763  -3.266  1.00  0.00     0.330 A 
HETATM   10  O2  UNL     1       8.551  36.682  -3.842  1.00  0.00    -0.246 OA
HETATM   11  N4  UNL     1       7.125  37.914  -2.442  1.00  0.00    -0.260 N 
HETATM   12  C10 UNL     1       7.066  39.188  -2.056  1.00  0.00     0.161 A 
HETATM   13  N8  UNL     1       6.230  39.898  -1.239  1.00  0.00    -0.174 N 
ATOM     14  H8  UNL     1       5.453  39.417  -0.785  1.00  0.00     0.186 HD
ENDROOT
BRANCH  11  15
HETATM   15  C5  UNL     1       6.238  36.835  -2.067  1.00  0.00     0.306 C 
BRANCH  15  16
HETATM   16  O3  UNL     1       6.291  36.537  -0.731  1.00  0.00    -0.355 OA
BRANCH  16  17
HETATM   17  C6  UNL     1       7.297  35.554  -0.546  1.00  0.00     0.244 C 
BRANCH  17  18
HETATM   18  C7  UNL     1       6.698  34.306  -0.054  1.00  0.00     0.262 C 
HETATM   19  N5  UNL     1       5.585  33.671  -0.635  1.00  0.00    -0.060 NA
HETATM   20  O4  UNL     1       7.204  33.740   0.966  1.00  0.00    -0.274 OA
ENDBRANCH  17  18
BRANCH  17  21
HETATM   21  C8  UNL     1       8.368  36.135   0.337  1.00  0.00     0.246 C 
BRANCH  21  22
HETATM   22  N6  UNL     1       9.591  36.449  -0.375  1.00  0.00    -0.070 N 
ATOM     23  H63 UNL     1       9.851  35.687  -1.002  1.00  0.00     0.274 HD
ATOM     24  H62 UNL     1       9.432  37.185  -1.063  1.00  0.00     0.274 HD
ATOM     25  H61 UNL     1      10.367  36.691   0.242  1.00  0.00     0.274 HD
ENDBRANCH  21  22
BRANCH  21  26
HETATM   26  C9  UNL     1       7.951  37.293   1.169  1.00  0.00     0.265 C 
BRANCH  26  27
HETATM   27  N7  UNL     1       9.120  37.917   1.826  1.00  0.00    -0.077 N 
ATOM     28  H73 UNL     1       9.998  37.571   1.441  1.00  0.00     0.274 HD
ATOM     29  H72 UNL     1       9.216  38.900   1.571  1.00  0.00     0.274 HD
ATOM     30  H71 UNL     1       9.076  37.792   2.837  1.00  0.00     0.274 HD
ENDBRANCH  26  27
ENDBRANCH  21  26
ENDBRANCH  17  21
ENDBRANCH  16  17
ENDBRANCH  15  16
ENDBRANCH  11  15
BRANCH   1  31
HETATM   31  N1  UNL     1       5.622  41.891  -0.247  1.00  0.00    -0.234 N 
ATOM     32  H12 UNL     1       5.735  42.895  -0.102  1.00  0.00     0.174 HD
ATOM     33  H11 UNL     1       4.865  41.400   0.228  1.00  0.00     0.174 HD
ENDBRANCH   1  31
TORSDOF 9
ENDMDL
MODEL 2
REMARK VINA RESULT: -8.052530844      2.139      4.109
REMARK  9 active torsions:
REMARK  status: ('A' for Active; 'I' for Inactive)
REMARK    1  A    between atoms: N1_1  and  C1_4 
REMARK    2  A    between atoms: N4_14  and  C5_15 
REMARK    3  A    between atoms: C5_15  and  O3_16 
REMARK    4  A    between atoms: O3_16  and  C6_17 
REMARK    5  A    between atoms: C6_17  and  C7_18 
REMARK    6  A    between atoms: C6_17  and  C8_21 
REMARK    7  A    between atoms: C8_21  and  N6_22 
REMARK    8  A    between atoms: C8_21  and  C9_26 
REMARK    9  A    between atoms: C9_26  and  N7_27 
ROOT
HETATM    1  C1  UNL     1       6.140  40.549  -0.575  1.00  0.00     0.680 A 
HETATM    2  N2  UNL     1       6.744  40.644   0.620  1.00  0.00    -0.154 N 
ATOM      3  H2  UNL     1       6.841  41.559   1.062  1.00  0.00     0.187 HD
HETATM    4  C2  UNL     1       7.222  39.553   1.243  1.00  0.00     0.290 A 
HETATM    5  O1  UNL     1       7.795  39.619   2.369  1.00  0.00    -0.265 OA
HETATM    6  C3  UNL     1       7.102  38.296   0.666  1.00  0.00     0.151 A 
HETATM    7  N3  UNL     1       7.472  37.058   1.038  1.00  0.00    -0.300 N 
ATOM      8  H3  UNL     1       7.954  36.807   1.901  1.00  0.00     0.171 HD
HETATM    9  C4  UNL     1       7.091  36.211   0.067  1.00  0.00     0.330 A 
HETATM   10  O2  UNL     1       7.290  34.944   0.102  1.00  0.00    -0.246 OA
HETATM   11  N4  UNL     1       6.489  36.908  -0.905  1.00  0.00    -0.260 N 
HETATM   12  C10 UNL     1       6.481  38.196  -0.564  1.00  0.00     0.161 A 
HETATM   13  N8  UNL     1       6.012  39.335  -1.158  1.00  0.00    -0.174 N 
ATOM     14  H8  UNL     1       5.551  39.268  -2.066  1.00  0.00     0.186 HD
ENDROOT
BRANCH  11  15
HETATM   15  C5  UNL     1       5.954  36.308  -2.106  1.00  0.00     0.306 C 
BRANCH  15  16
HETATM   16  O3  UNL     1       6.902  36.117  -3.077  1.00  0.00    -0.355 OA
BRANCH  16  17
HETATM   17  C6  UNL     1       7.035  37.332  -3.798  1.00  0.00     0.244 C 
BRANCH  17  18
HETATM   18  C7  UNL     1       6.381  37.215  -5.108  1.00  0.00     0.262 C 
HETATM   19  N5  UNL     1       5.031  37.522  -5.359  1.00  0.00    -0.060 NA
HETATM   20  O4  UNL     1       7.063  36.809  -6.102  1.00  0.00    -0.274 OA
ENDBRANCH  17  18
BRANCH  17  21
HETATM   21  C8  UNL     1       8.494  37.694  -3.846  1.00  0.00     0.246 C 
BRANCH  21  22
HETATM   22  N6  UNL     1       8.831  38.829  -3.010  1.00  0.00    -0.070 N 
ATOM     23  H63 UNL     1       8.962  39.669  -3.573  1.00  0.00     0.274 HD
ATOM     24  H62 UNL     1       8.027  39.122  -2.454  1.00  0.00     0.274 HD
ATOM     25  H61 UNL     1       9.643  38.664  -2.413  1.00  0.00     0.274 HD
ENDBRANCH  21  22
BRANCH  21  26
HETATM   26  C9  UNL     1       9.438  36.575  -3.593  1.00  0.00     0.265 C 
BRANCH  26  27
HETATM   27  N7  UNL     1       9.778  36.489  -2.157  1.00  0.00    -0.077 N 
ATOM     28  H73 UNL     1      10.345  37.281  -1.855  1.00  0.00     0.274 HD
ATOM     29  H72 UNL     1       8.963  36.649  -1.566  1.00  0.00     0.274 HD
ATOM     30  H71 UNL     1      10.230  35.599  -1.944  1.00  0.00     0.274 HD
ENDBRANCH  26  27
ENDBRANCH  21  26
ENDBRANCH  17  21
ENDBRANCH  16  17
ENDBRANCH  15  16
ENDBRANCH  11  15
BRANCH   1  31
HETATM   31  N1  UNL     1       5.700  41.622  -1.129  1.00  0.00    -0.234 N 
ATOM     32  H12 UNL     1       5.919  42.549  -0.765  1.00  0.00     0.174 HD
ATOM     33  H11 UNL     1       5.113  41.537  -1.960  1.00  0.00     0.174 HD
ENDBRANCH   1  31
TORSDOF 9
ENDMDL
MODEL 3
REMARK VINA RESULT: -7.903724105      1.364      2.685
REMARK  9 active torsions:
REMARK  status: ('A' for Active; 'I' for Inactive)
REMARK    1  A    between atoms: N1_1  and  C1_4 
REMARK    2  A    between atoms: N4_14  and  C5_15 
REMARK    3  A    between atoms: C5_15  and  O3_16 
REMARK    4  A    between atoms: O3_16  and  C6_17 
REMARK    5  A    between atoms: C6_17  and  C7_18 
REMARK    6  A    between atoms: C6_17  and  C8_21 
REMARK    7  A    between atoms: C8_21  and  N6_22 
REMARK    8  A    between atoms: C8_21  and  C9_26 
REMARK    9  A    between atoms: C9_26  and  N7_27 
ROOT
HETATM    1  C1  UNL     1       6.441  40.588  -0.642  1.00  0.00     0.680 A 
HETATM    2  N2  UNL     1       7.395  41.370  -1.172  1.00  0.00    -0.154 N 
ATOM      3  H2  UNL     1       7.547  42.304  -0.792  1.00  0.00     0.187 HD
HETATM    4  C2  UNL     1       8.154  40.939  -2.194  1.00  0.00     0.290 A 
HETATM    5  O1  UNL     1       9.058  41.658  -2.710  1.00  0.00    -0.265 OA
HETATM    6  C3  UNL     1       7.970  39.672  -2.730  1.00  0.00     0.151 A 
HETATM    7  N3  UNL     1       8.557  38.983  -3.726  1.00  0.00    -0.300 N 
ATOM      8  H3  UNL     1       9.319  39.313  -4.318  1.00  0.00     0.171 HD
HETATM    9  C4  UNL     1       7.958  37.783  -3.799  1.00  0.00     0.330 A 
HETATM   10  O2  UNL     1       8.277  36.873  -4.646  1.00  0.00    -0.246 OA
HETATM   11  N4  UNL     1       7.005  37.716  -2.861  1.00  0.00    -0.260 N 
HETATM   12  C10 UNL     1       6.988  38.865  -2.186  1.00  0.00     0.161 A 
HETATM   13  N8  UNL     1       6.243  39.349  -1.147  1.00  0.00    -0.174 N 
ATOM     14  H8  UNL     1       5.517  38.758  -0.740  1.00  0.00     0.186 HD
ENDROOT
BRANCH  11  15
HETATM   15  C5  UNL     1       6.161  36.560  -2.659  1.00  0.00     0.306 C 
BRANCH  15  16
HETATM   16  O3  UNL     1       6.844  35.476  -2.175  1.00  0.00    -0.355 OA
BRANCH  16  17
HETATM   17  C6  UNL     1       6.330  35.178  -0.886  1.00  0.00     0.244 C 
BRANCH  17  18
HETATM   18  C7  UNL     1       7.110  35.879   0.142  1.00  0.00     0.262 C 
HETATM   19  N5  UNL     1       6.623  36.933   0.937  1.00  0.00    -0.060 NA
HETATM   20  O4  UNL     1       8.315  35.526   0.348  1.00  0.00    -0.274 OA
ENDBRANCH  17  18
BRANCH  17  21
HETATM   21  C8  UNL     1       6.275  33.683  -0.734  1.00  0.00     0.246 C 
BRANCH  21  22
HETATM   22  N6  UNL     1       6.113  33.252   0.641  1.00  0.00    -0.070 N 
ATOM     23  H63 UNL     1       6.993  33.330   1.151  1.00  0.00     0.274 HD
ATOM     24  H62 UNL     1       5.553  33.922   1.168  1.00  0.00     0.274 HD
ATOM     25  H61 UNL     1       5.727  32.311   0.726  1.00  0.00     0.274 HD
ENDBRANCH  21  22
BRANCH  21  26
HETATM   26  C9  UNL     1       5.293  32.988  -1.605  1.00  0.00     0.265 C 
BRANCH  26  27
HETATM   27  N7  UNL     1       5.780  32.926  -3.001  1.00  0.00    -0.077 N 
ATOM     28  H73 UNL     1       5.040  32.649  -3.646  1.00  0.00     0.274 HD
ATOM     29  H72 UNL     1       5.971  33.855  -3.375  1.00  0.00     0.274 HD
ATOM     30  H71 UNL     1       6.592  32.314  -3.074  1.00  0.00     0.274 HD
ENDBRANCH  26  27
ENDBRANCH  21  26
ENDBRANCH  17  21
ENDBRANCH  16  17
ENDBRANCH  15  16
ENDBRANCH  11  15
BRANCH   1  31
HETATM   31  N1  UNL     1       5.743  41.045   0.336  1.00  0.00    -0.234 N 
ATOM     32  H12 UNL     1       4.749  40.838   0.436  1.00  0.00     0.174 HD
ATOM     33  H11 UNL     1       6.203  41.633   1.031  1.00  0.00     0.174 HD
ENDBRANCH   1  31
TORSDOF 9
ENDMDL
MODEL 4
REMARK VINA RESULT: -7.830682342      2.558      4.899
REMARK  9 active torsions:
REMARK  status: ('A' for Active; 'I' for Inactive)
REMARK    1  A    between atoms: N1_1  and  C1_4 
REMARK    2  A    between atoms: N4_14  and  C5_15 
REMARK    3  A    between atoms: C5_15  and  O3_16 
REMARK    4  A    between atoms: O3_16  and  C6_17 
REMARK    5  A    between atoms: C6_17  and  C7_18 
REMARK    6  A    between atoms: C6_17  and  C8_21 
REMARK    7  A    between atoms: C8_21  and  N6_22 
REMARK    8  A    between atoms: C8_21  and  C9_26 
REMARK    9  A    between atoms: C9_26  and  N7_27 
ROOT
HETATM    1  C1  UNL     1       8.833  37.827   0.733  1.00  0.00     0.680 A 
HETATM    2  N2  UNL     1       8.418  38.393   1.877  1.00  0.00    -0.154 N 
ATOM      3  H2  UNL     1       8.756  38.031   2.769  1.00  0.00     0.187 HD
HETATM    4  C2  UNL     1       7.563  39.431   1.865  1.00  0.00     0.290 A 
HETATM    5  O1  UNL     1       7.158  39.980   2.930  1.00  0.00    -0.265 OA
HETATM    6  C3  UNL     1       7.087  39.945   0.667  1.00  0.00     0.151 A 
HETATM    7  N3  UNL     1       6.248  40.946   0.346  1.00  0.00    -0.300 N 
ATOM      8  H3  UNL     1       5.768  41.563   1.002  1.00  0.00     0.171 HD
HETATM    9  C4  UNL     1       6.155  40.987  -0.993  1.00  0.00     0.330 A 
HETATM   10  O2  UNL     1       5.432  41.830  -1.637  1.00  0.00    -0.246 OA
HETATM   11  N4  UNL     1       6.926  40.023  -1.510  1.00  0.00    -0.260 N 
HETATM   12  C10 UNL     1       7.513  39.363  -0.512  1.00  0.00     0.161 A 
HETATM   13  N8  UNL     1       8.383  38.310  -0.448  1.00  0.00    -0.174 N 
ATOM     14  H8  UNL     1       8.702  37.876  -1.314  1.00  0.00     0.186 HD
ENDROOT
BRANCH  11  15
HETATM   15  C5  UNL     1       7.061  39.781  -2.929  1.00  0.00     0.306 C 
BRANCH  15  16
HETATM   16  O3  UNL     1       6.151  38.875  -3.407  1.00  0.00    -0.355 OA
BRANCH  16  17
HETATM   17  C6  UNL     1       6.873  37.804  -3.994  1.00  0.00     0.244 C 
BRANCH  17  18
HETATM   18  C7  UNL     1       6.252  37.415  -5.267  1.00  0.00     0.262 C 
HETATM   19  N5  UNL     1       4.895  37.609  -5.588  1.00  0.00    -0.060 NA
HETATM   20  O4  UNL     1       6.970  36.861  -6.159  1.00  0.00    -0.274 OA
ENDBRANCH  17  18
BRANCH  17  21
HETATM   21  C8  UNL     1       6.985  36.699  -2.979  1.00  0.00     0.246 C 
BRANCH  21  22
HETATM   22  N6  UNL     1       6.159  35.549  -3.289  1.00  0.00    -0.070 N 
ATOM     23  H63 UNL     1       5.516  35.759  -4.053  1.00  0.00     0.274 HD
ATOM     24  H62 UNL     1       6.711  34.814  -3.730  1.00  0.00     0.274 HD
ATOM     25  H61 UNL     1       5.653  35.186  -2.480  1.00  0.00     0.274 HD
ENDBRANCH  21  22
BRANCH  21  26
HETATM   26  C9  UNL     1       8.369  36.262  -2.661  1.00  0.00     0.265 C 
BRANCH  26  27
HETATM   27  N7  UNL     1       9.283  36.547  -3.789  1.00  0.00    -0.077 N 
ATOM     28  H73 UNL     1       9.693  37.477  -3.717  1.00  0.00     0.274 HD
ATOM     29  H72 UNL     1      10.138  35.996  -3.730  1.00  0.00     0.274 HD
ATOM     30  H71 UNL     1       8.809  36.412  -4.682  1.00  0.00     0.274 HD
ENDBRANCH  26  27
ENDBRANCH  21  26
ENDBRANCH  17  21
ENDBRANCH  16  17
ENDBRANCH  15  16
ENDBRANCH  11  15
BRANCH   1  31
HETATM   31  N1  UNL     1       9.651  36.838   0.798  1.00  0.00    -0.234 N 
ATOM     32  H12 UNL     1      10.656  36.956   0.666  1.00  0.00     0.174 HD
ATOM     33  H11 UNL     1       9.278  35.907   0.988  1.00  0.00     0.174 HD
ENDBRANCH   1  31
TORSDOF 9
ENDMDL
MODEL 5
REMARK VINA RESULT: -7.771002458      2.213      5.277
REMARK  9 active torsions:
REMARK  status: ('A' for Active; 'I' for Inactive)
REMARK    1  A    between atoms: N1_1  and  C1_4 
REMARK    2  A    between atoms: N4_14  and  C5_15 
REMARK    3  A    between atoms: C5_15  and  O3_16 
REMARK    4  A    between atoms: O3_16  and  C6_17 
REMARK    5  A    between atoms: C6_17  and  C7_18 
REMARK    6  A    between atoms: C6_17  and  C8_21 
REMARK    7  A    between atoms: C8_21  and  N6_22 
REMARK    8  A    between atoms: C8_21  and  C9_26 
REMARK    9  A    between atoms: C9_26  and  N7_27 
ROOT
HETATM    1  C1  UNL     1       6.358  34.797   0.278  1.00  0.00     0.680 A 
HETATM    2  N2  UNL     1       5.986  33.843  -0.590  1.00  0.00    -0.154 N 
ATOM      3  H2  UNL     1       5.772  32.907  -0.246  1.00  0.00     0.187 HD
HETATM    4  C2  UNL     1       5.891  34.103  -1.906  1.00  0.00     0.290 A 
HETATM    5  O1  UNL     1       5.543  33.220  -2.742  1.00  0.00    -0.265 OA
HETATM    6  C3  UNL     1       6.176  35.368  -2.402  1.00  0.00     0.151 A 
HETATM    7  N3  UNL     1       6.171  35.913  -3.632  1.00  0.00    -0.300 N 
ATOM      8  H3  UNL     1       5.931  35.436  -4.501  1.00  0.00     0.171 HD
HETATM    9  C4  UNL     1       6.540  37.199  -3.509  1.00  0.00     0.330 A 
HETATM   10  O2  UNL     1       6.639  38.014  -4.495  1.00  0.00    -0.246 OA
HETATM   11  N4  UNL     1       6.774  37.461  -2.217  1.00  0.00    -0.260 N 
HETATM   12  C10 UNL     1       6.559  36.352  -1.510  1.00  0.00     0.161 A 
HETATM   13  N8  UNL     1       6.640  36.038  -0.182  1.00  0.00    -0.174 N 
ATOM     14  H8  UNL     1       6.922  36.760   0.482  1.00  0.00     0.186 HD
ENDROOT
BRANCH  11  15
HETATM   15  C5  UNL     1       7.193  38.754  -1.726  1.00  0.00     0.306 C 
BRANCH  15  16
HETATM   16  O3  UNL     1       8.109  38.671  -0.711  1.00  0.00    -0.355 OA
BRANCH  16  17
HETATM   17  C6  UNL     1       7.697  39.555   0.319  1.00  0.00     0.244 C 
BRANCH  17  18
HETATM   18  C7  UNL     1       8.105  39.028   1.629  1.00  0.00     0.262 C 
HETATM   19  N5  UNL     1       8.435  37.684   1.882  1.00  0.00    -0.060 NA
HETATM   20  O4  UNL     1       8.172  39.824   2.619  1.00  0.00    -0.274 OA
ENDBRANCH  17  18
BRANCH  17  21
HETATM   21  C8  UNL     1       6.221  39.802   0.166  1.00  0.00     0.246 C 
BRANCH  21  22
HETATM   22  N6  UNL     1       5.415  39.079   1.130  1.00  0.00    -0.070 N 
ATOM     23  H63 UNL     1       4.432  39.084   0.857  1.00  0.00     0.274 HD
ATOM     24  H62 UNL     1       5.599  38.076   1.077  1.00  0.00     0.274 HD
ATOM     25  H61 UNL     1       5.527  39.418   2.086  1.00  0.00     0.274 HD
ENDBRANCH  21  22
BRANCH  21  26
HETATM   26  C9  UNL     1       5.813  41.230   0.129  1.00  0.00     0.265 C 
BRANCH  26  27
HETATM   27  N7  UNL     1       6.230  41.863  -1.141  1.00  0.00    -0.077 N 
ATOM     28  H73 UNL     1       6.268  42.879  -1.061  1.00  0.00     0.274 HD
ATOM     29  H72 UNL     1       7.213  41.688  -1.345  1.00  0.00     0.274 HD
ATOM     30  H71 UNL     1       5.627  41.568  -1.908  1.00  0.00     0.274 HD
ENDBRANCH  26  27
ENDBRANCH  21  26
ENDBRANCH  17  21
ENDBRANCH  16  17
ENDBRANCH  15  16
ENDBRANCH  11  15
BRANCH   1  31
HETATM   31  N1  UNL     1       6.433  34.499   1.525  1.00  0.00    -0.234 N 
ATOM     32  H12 UNL     1       5.618  34.195   2.060  1.00  0.00     0.174 HD
ATOM     33  H11 UNL     1       7.338  34.568   1.991  1.00  0.00     0.174 HD
ENDBRANCH   1  31
TORSDOF 9
ENDMDL
