MODEL 1
REMARK VINA RESULT: -7.713449908      0.000      0.000
REMARK  8 active torsions:
REMARK  status: ('A' for Active; 'I' for Inactive)
REMARK       I    between atoms: C2_5  and  N4_7 
REMARK    1  A    between atoms: N4_7  and  C3_9 
REMARK    2  A    between atoms: C3_9  and  C4_10 
REMARK    3  A    between atoms: C4_10  and  N5_11 
REMARK    4  A    between atoms: N5_11  and  C5_13 
REMARK    5  A    between atoms: C6_16  and  C7_17 
REMARK       I    between atoms: C7_17  and  N7_19 
REMARK    6  A    between atoms: N7_19  and  N8_21 
REMARK    7  A    between atoms: C8_24  and  N9_25 
REMARK    8  A    between atoms: C9_28  and  N10_29 
ROOT
HETATM    1  N1  UNL     1       5.110  39.100   2.244  1.00  0.00    -0.172 NA
HETATM    2  C1  UNL     1       5.649  39.854   1.543  1.00  0.00     0.184 C 
HETATM    3  N2  UNL     1       6.310  40.744   0.688  1.00  0.00    -0.268 N 
ATOM      4  H2  UNL     1       6.860  41.511   1.074  1.00  0.00     0.180 HD
HETATM    5  C2  UNL     1       6.221  40.590  -0.587  1.00  0.00     0.197 C 
HETATM    6  N3  UNL     1       5.458  39.527  -1.133  1.00  0.00    -0.063 NA
HETATM    7  N4  UNL     1       6.911  41.515  -1.445  1.00  0.00    -0.362 N 
ATOM      8  H4  UNL     1       7.083  42.484  -1.176  1.00  0.00     0.162 HD
ENDROOT
BRANCH   7   9
HETATM    9  C3  UNL     1       7.342  40.980  -2.707  1.00  0.00     0.142 C 
BRANCH   9  10
HETATM   10  C4  UNL     1       8.587  40.127  -2.621  1.00  0.00     0.157 C 
BRANCH  10  11
HETATM   11  N5  UNL     1       8.187  38.780  -2.937  1.00  0.00    -0.224 N 
ATOM     12  H5  UNL     1       8.143  38.515  -3.921  1.00  0.00     0.177 HD
BRANCH  11  13
HETATM   13  C5  UNL     1       7.885  37.897  -2.071  1.00  0.00     0.680 A 
HETATM   14  N6  UNL     1       7.062  36.898  -2.370  1.00  0.00    -0.184 N 
HETATM   15  C6  UNL     1       6.754  35.963  -1.422  1.00  0.00     0.155 A 
ATOM     16  H6  UNL     1       6.661  36.829  -3.305  1.00  0.00     0.184 HD
HETATM   17  C8  UNL     1       7.295  36.059  -0.164  1.00  0.00     0.179 A 
HETATM   18  C9  UNL     1       8.148  37.112   0.111  1.00  0.00     0.150 A 
HETATM   19  N11 UNL     1       8.423  38.007  -0.851  1.00  0.00    -0.175 N 
ATOM     20  H11 UNL     1       9.052  38.783  -0.648  1.00  0.00     0.186 HD
BRANCH  15  21
HETATM   21  C7  UNL     1       5.865  34.880  -1.797  1.00  0.00     0.289 C 
HETATM   22  O1  UNL     1       4.723  34.827  -1.296  1.00  0.00    -0.264 OA
HETATM   23  N7  UNL     1       6.252  33.883  -2.710  1.00  0.00    -0.271 N 
ATOM     24  H7  UNL     1       7.176  33.893  -3.141  1.00  0.00     0.189 HD
BRANCH  23  25
HETATM   25  N8  UNL     1       5.309  32.859  -3.014  1.00  0.00    -0.342 N 
ATOM     26  H82 UNL     1       4.320  33.086  -3.114  1.00  0.00     0.176 HD
ATOM     27  H81 UNL     1       5.660  31.907  -3.125  1.00  0.00     0.176 HD
ENDBRANCH  23  25
ENDBRANCH  15  21
BRANCH  17  28
HETATM   28  N9  UNL     1       6.999  35.120   0.832  1.00  0.00    -0.109 N 
HETATM   29  O2  UNL     1       6.139  35.368   1.729  1.00  0.00    -0.532 OA
HETATM   30  O3  UNL     1       7.629  33.905   0.924  1.00  0.00    -0.532 OA
ENDBRANCH  17  28
BRANCH  18  31
HETATM   31  N10 UNL     1       8.641  37.178   1.297  1.00  0.00    -0.383 N 
ATOM     32 2H10 UNL     1       8.323  36.590   2.068  1.00  0.00     0.157 HD
ATOM     33 1H10 UNL     1       9.386  37.855   1.457  1.00  0.00     0.157 HD
ENDBRANCH  18  31
ENDBRANCH  11  13
ENDBRANCH  10  11
ENDBRANCH   9  10
ENDBRANCH   7   9
TORSDOF 8
ENDMDL
MODEL 2
REMARK VINA RESULT: -7.580670452      2.059      3.416
REMARK  8 active torsions:
REMARK  status: ('A' for Active; 'I' for Inactive)
REMARK       I    between atoms: C2_5  and  N4_7 
REMARK    1  A    between atoms: N4_7  and  C3_9 
REMARK    2  A    between atoms: C3_9  and  C4_10 
REMARK    3  A    between atoms: C4_10  and  N5_11 
REMARK    4  A    between atoms: N5_11  and  C5_13 
REMARK    5  A    between atoms: C6_16  and  C7_17 
REMARK       I    between atoms: C7_17  and  N7_19 
REMARK    6  A    between atoms: N7_19  and  N8_21 
REMARK    7  A    between atoms: C8_24  and  N9_25 
REMARK    8  A    between atoms: C9_28  and  N10_29 
ROOT
HETATM    1  N1  UNL     1       5.523  41.967  -1.380  1.00  0.00    -0.172 NA
HETATM    2  C1  UNL     1       5.857  41.455  -0.393  1.00  0.00     0.184 C 
HETATM    3  N2  UNL     1       6.256  40.816   0.788  1.00  0.00    -0.268 N 
ATOM      4  H2  UNL     1       5.822  41.066   1.676  1.00  0.00     0.180 HD
HETATM    5  C2  UNL     1       7.171  39.912   0.748  1.00  0.00     0.197 C 
HETATM    6  N3  UNL     1       7.781  39.558  -0.482  1.00  0.00    -0.063 NA
HETATM    7  N4  UNL     1       7.561  39.267   1.972  1.00  0.00    -0.362 N 
ATOM      8  H4  UNL     1       7.512  39.739   2.876  1.00  0.00     0.162 HD
ENDROOT
BRANCH   7   9
HETATM    9  C3  UNL     1       8.025  37.914   1.836  1.00  0.00     0.142 C 
BRANCH   9  10
HETATM   10  C4  UNL     1       9.503  37.797   1.547  1.00  0.00     0.157 C 
BRANCH  10  11
HETATM   11  N5  UNL     1       9.637  36.872   0.450  1.00  0.00    -0.224 N 
ATOM     12  H5  UNL     1      10.578  36.658   0.121  1.00  0.00     0.177 HD
BRANCH  11  13
HETATM   13  C5  UNL     1       8.660  36.305  -0.137  1.00  0.00     0.680 A 
HETATM   14  N6  UNL     1       8.122  36.827  -1.233  1.00  0.00    -0.184 N 
HETATM   15  C6  UNL     1       7.074  36.199  -1.843  1.00  0.00     0.155 A 
ATOM     16  H6  UNL     1       8.490  37.697  -1.618  1.00  0.00     0.184 HD
HETATM   17  C8  UNL     1       6.579  35.028  -1.321  1.00  0.00     0.179 A 
HETATM   18  C9  UNL     1       7.165  34.513  -0.180  1.00  0.00     0.150 A 
HETATM   19  N11 UNL     1       8.193  35.164   0.386  1.00  0.00    -0.175 N 
ATOM     20  H11 UNL     1       8.625  34.784   1.227  1.00  0.00     0.186 HD
BRANCH  15  21
HETATM   21  C7  UNL     1       6.528  36.795  -3.046  1.00  0.00     0.289 C 
HETATM   22  O1  UNL     1       5.840  37.833  -2.956  1.00  0.00    -0.264 OA
HETATM   23  N7  UNL     1       6.749  36.238  -4.319  1.00  0.00    -0.271 N 
ATOM     24  H7  UNL     1       7.306  35.391  -4.434  1.00  0.00     0.189 HD
BRANCH  23  25
HETATM   25  N8  UNL     1       6.169  36.896  -5.442  1.00  0.00    -0.342 N 
ATOM     26  H82 UNL     1       5.222  36.662  -5.740  1.00  0.00     0.176 HD
ATOM     27  H81 UNL     1       6.731  37.597  -5.925  1.00  0.00     0.176 HD
ENDBRANCH  23  25
ENDBRANCH  15  21
BRANCH  17  28
HETATM   28  N9  UNL     1       5.506  34.358  -1.920  1.00  0.00    -0.109 N 
HETATM   29  O2  UNL     1       4.324  34.492  -1.480  1.00  0.00    -0.532 OA
HETATM   30  O3  UNL     1       5.656  33.503  -2.981  1.00  0.00    -0.532 OA
ENDBRANCH  17  28
BRANCH  18  31
HETATM   31  N10 UNL     1       6.684  33.415   0.287  1.00  0.00    -0.383 N 
ATOM     32 2H10 UNL     1       7.233  32.754   0.835  1.00  0.00     0.157 HD
ATOM     33 1H10 UNL     1       5.704  33.213   0.090  1.00  0.00     0.157 HD
ENDBRANCH  18  31
ENDBRANCH  11  13
ENDBRANCH  10  11
ENDBRANCH   9  10
ENDBRANCH   7   9
TORSDOF 8
ENDMDL
MODEL 3
REMARK VINA RESULT: -7.558033611      2.002      4.557
REMARK  8 active torsions:
REMARK  status: ('A' for Active; 'I' for Inactive)
REMARK       I    between atoms: C2_5  and  N4_7 
REMARK    1  A    between atoms: N4_7  and  C3_9 
REMARK    2  A    between atoms: C3_9  and  C4_10 
REMARK    3  A    between atoms: C4_10  and  N5_11 
REMARK    4  A    between atoms: N5_11  and  C5_13 
REMARK    5  A    between atoms: C6_16  and  C7_17 
REMARK       I    between atoms: C7_17  and  N7_19 
REMARK    6  A    between atoms: N7_19  and  N8_21 
REMARK    7  A    between atoms: C8_24  and  N9_25 
REMARK    8  A    between atoms: C9_28  and  N10_29 
ROOT
HETATM    1  N1  UNL     1       5.159  34.120  -0.959  1.00  0.00    -0.172 NA
HETATM    2  C1  UNL     1       5.525  34.729  -1.878  1.00  0.00     0.184 C 
HETATM    3  N2  UNL     1       5.972  35.480  -2.971  1.00  0.00    -0.268 N 
ATOM      4  H2  UNL     1       5.348  35.662  -3.757  1.00  0.00     0.180 HD
HETATM    5  C2  UNL     1       7.174  35.941  -2.982  1.00  0.00     0.197 C 
HETATM    6  N3  UNL     1       8.050  35.693  -1.895  1.00  0.00    -0.063 NA
HETATM    7  N4  UNL     1       7.609  36.713  -4.114  1.00  0.00    -0.362 N 
ATOM      8  H4  UNL     1       7.237  36.562  -5.052  1.00  0.00     0.162 HD
ENDROOT
BRANCH   7   9
HETATM    9  C3  UNL     1       8.604  37.711  -3.834  1.00  0.00     0.142 C 
BRANCH   9  10
HETATM   10  C4  UNL     1       8.085  39.129  -3.885  1.00  0.00     0.157 C 
BRANCH  10  11
HETATM   11  N5  UNL     1       8.477  39.757  -2.649  1.00  0.00    -0.224 N 
ATOM     12  H5  UNL     1       9.337  40.305  -2.646  1.00  0.00     0.177 HD
BRANCH  11  13
HETATM   13  C5  UNL     1       7.822  39.675  -1.561  1.00  0.00     0.680 A 
HETATM   14  N6  UNL     1       7.868  38.577  -0.815  1.00  0.00    -0.184 N 
HETATM   15  C6  UNL     1       7.155  38.514   0.349  1.00  0.00     0.155 A 
ATOM     16  H6  UNL     1       8.435  37.782  -1.110  1.00  0.00     0.184 HD
HETATM   17  C8  UNL     1       6.393  39.586   0.744  1.00  0.00     0.179 A 
HETATM   18  C9  UNL     1       6.369  40.712  -0.057  1.00  0.00     0.150 A 
HETATM   19  N11 UNL     1       7.085  40.730  -1.192  1.00  0.00    -0.175 N 
ATOM     20  H11 UNL     1       7.068  41.561  -1.783  1.00  0.00     0.186 HD
BRANCH  15  21
HETATM   21  C7  UNL     1       7.248  37.303   1.141  1.00  0.00     0.289 C 
HETATM   22  O1  UNL     1       8.151  37.201   1.997  1.00  0.00    -0.264 OA
HETATM   23  N7  UNL     1       6.348  36.235   0.973  1.00  0.00    -0.271 N 
ATOM     24  H7  UNL     1       5.597  36.281   0.285  1.00  0.00     0.189 HD
BRANCH  23  25
HETATM   25  N8  UNL     1       6.521  35.085   1.797  1.00  0.00    -0.342 N 
ATOM     26  H82 UNL     1       5.783  34.800   2.441  1.00  0.00     0.176 HD
ATOM     27  H81 UNL     1       7.398  34.570   1.717  1.00  0.00     0.176 HD
ENDBRANCH  23  25
ENDBRANCH  15  21
BRANCH  17  28
HETATM   28  N9  UNL     1       5.649  39.555   1.930  1.00  0.00    -0.109 N 
HETATM   29  O2  UNL     1       6.000  40.239   2.939  1.00  0.00    -0.532 OA
HETATM   30  O3  UNL     1       4.533  38.777   2.093  1.00  0.00    -0.532 OA
ENDBRANCH  17  28
BRANCH  18  31
HETATM   31  N10 UNL     1       5.648  41.702   0.337  1.00  0.00    -0.383 N 
ATOM     32 2H10 UNL     1       4.843  42.048  -0.185  1.00  0.00     0.157 HD
ATOM     33 1H10 UNL     1       5.908  42.150   1.215  1.00  0.00     0.157 HD
ENDBRANCH  18  31
ENDBRANCH  11  13
ENDBRANCH  10  11
ENDBRANCH   9  10
ENDBRANCH   7   9
TORSDOF 8
ENDMDL
MODEL 4
REMARK VINA RESULT: -7.556386583      2.990      6.927
REMARK  8 active torsions:
REMARK  status: ('A' for Active; 'I' for Inactive)
REMARK       I    between atoms: C2_5  and  N4_7 
REMARK    1  A    between atoms: N4_7  and  C3_9 
REMARK    2  A    between atoms: C3_9  and  C4_10 
REMARK    3  A    between atoms: C4_10  and  N5_11 
REMARK    4  A    between atoms: N5_11  and  C5_13 
REMARK    5  A    between atoms: C6_16  and  C7_17 
REMARK       I    between atoms: C7_17  and  N7_19 
REMARK    6  A    between atoms: N7_19  and  N8_21 
REMARK    7  A    between atoms: C8_24  and  N9_25 
REMARK    8  A    between atoms: C9_28  and  N10_29 
ROOT
HETATM    1  N1  UNL     1       4.177  29.038  -2.618  1.00  0.00    -0.172 NA
HETATM    2  C1  UNL     1       4.379  29.848  -1.810  1.00  0.00     0.184 C 
HETATM    3  N2  UNL     1       4.644  30.827  -0.845  1.00  0.00    -0.268 N 
ATOM      4  H2  UNL     1       4.456  30.638   0.140  1.00  0.00     0.180 HD
HETATM    5  C2  UNL     1       5.126  31.965  -1.203  1.00  0.00     0.197 C 
HETATM    6  N3  UNL     1       5.390  32.238  -2.569  1.00  0.00    -0.063 NA
HETATM    7  N4  UNL     1       5.393  32.952  -0.193  1.00  0.00    -0.362 N 
ATOM      8  H4  UNL     1       4.855  33.007   0.672  1.00  0.00     0.162 HD
ENDROOT
BRANCH   7   9
HETATM    9  C3  UNL     1       6.472  33.856  -0.484  1.00  0.00     0.142 C 
BRANCH   9  10
HETATM   10  C4  UNL     1       7.267  34.276   0.730  1.00  0.00     0.157 C 
BRANCH  10  11
HETATM   11  N5  UNL     1       8.255  35.219   0.271  1.00  0.00    -0.224 N 
ATOM     12  H5  UNL     1       9.219  34.897   0.191  1.00  0.00     0.177 HD
BRANCH  11  13
HETATM   13  C5  UNL     1       8.006  36.427  -0.042  1.00  0.00     0.680 A 
HETATM   14  N6  UNL     1       7.543  37.287   0.858  1.00  0.00    -0.184 N 
HETATM   15  C6  UNL     1       7.283  38.579   0.496  1.00  0.00     0.155 A 
ATOM     16  H6  UNL     1       7.383  36.983   1.819  1.00  0.00     0.184 HD
HETATM   17  C8  UNL     1       7.500  38.984  -0.798  1.00  0.00     0.179 A 
HETATM   18  C9  UNL     1       7.983  38.062  -1.708  1.00  0.00     0.150 A 
HETATM   19  N11 UNL     1       8.225  36.804  -1.308  1.00  0.00    -0.175 N 
ATOM     20  H11 UNL     1       8.581  36.124  -1.979  1.00  0.00     0.186 HD
BRANCH  15  21
HETATM   21  C7  UNL     1       6.796  39.487   1.515  1.00  0.00     0.289 C 
HETATM   22  O1  UNL     1       7.600  39.972   2.337  1.00  0.00    -0.264 OA
HETATM   23  N7  UNL     1       5.437  39.841   1.607  1.00  0.00    -0.271 N 
ATOM     24  H7  UNL     1       4.750  39.467   0.953  1.00  0.00     0.189 HD
BRANCH  23  25
HETATM   25  N8  UNL     1       5.054  40.740   2.644  1.00  0.00    -0.342 N 
ATOM     26  H82 UNL     1       5.124  41.748   2.500  1.00  0.00     0.176 HD
ATOM     27  H81 UNL     1       4.713  40.341   3.518  1.00  0.00     0.176 HD
ENDBRANCH  23  25
ENDBRANCH  15  21
BRANCH  17  28
HETATM   28  N9  UNL     1       7.244  40.299  -1.204  1.00  0.00    -0.109 N 
HETATM   29  O2  UNL     1       8.189  41.078  -1.533  1.00  0.00    -0.532 OA
HETATM   30  O3  UNL     1       5.984  40.837  -1.242  1.00  0.00    -0.532 OA
ENDBRANCH  17  28
BRANCH  18  31
HETATM   31  N10 UNL     1       8.179  38.468  -2.912  1.00  0.00    -0.383 N 
ATOM     32 2H10 UNL     1       7.421  38.642  -3.573  1.00  0.00     0.157 HD
ATOM     33 1H10 UNL     1       9.144  38.619  -3.205  1.00  0.00     0.157 HD
ENDBRANCH  18  31
ENDBRANCH  11  13
ENDBRANCH  10  11
ENDBRANCH   9  10
ENDBRANCH   7   9
TORSDOF 8
ENDMDL
MODEL 5
REMARK VINA RESULT: -7.480795505      3.618      7.946
REMARK  8 active torsions:
REMARK  status: ('A' for Active; 'I' for Inactive)
REMARK       I    between atoms: C2_5  and  N4_7 
REMARK    1  A    between atoms: N4_7  and  C3_9 
REMARK    2  A    between atoms: C3_9  and  C4_10 
REMARK    3  A    between atoms: C4_10  and  N5_11 
REMARK    4  A    between atoms: N5_11  and  C5_13 
REMARK    5  A    between atoms: C6_16  and  C7_17 
REMARK       I    between atoms: C7_17  and  N7_19 
REMARK    6  A    between atoms: N7_19  and  N8_21 
REMARK    7  A    between atoms: C8_24  and  N9_25 
REMARK    8  A    between atoms: C9_28  and  N10_29 
ROOT
HETATM    1  N1  UNL     1       0.965  27.828  -3.730  1.00  0.00    -0.172 NA
HETATM    2  C1  UNL     1       2.046  28.236  -3.610  1.00  0.00     0.184 C 
HETATM    3  N2  UNL     1       3.340  28.749  -3.460  1.00  0.00    -0.268 N 
ATOM      4  H2  UNL     1       4.014  28.669  -4.221  1.00  0.00     0.180 HD
HETATM    5  C2  UNL     1       3.676  29.322  -2.358  1.00  0.00     0.197 C 
HETATM    6  N3  UNL     1       2.748  29.438  -1.293  1.00  0.00    -0.063 NA
HETATM    7  N4  UNL     1       5.010  29.844  -2.228  1.00  0.00    -0.362 N 
ATOM      8  H4  UNL     1       5.805  29.435  -2.718  1.00  0.00     0.162 HD
ENDROOT
BRANCH   7   9
HETATM    9  C3  UNL     1       5.145  30.983  -1.362  1.00  0.00     0.142 C 
BRANCH   9  10
HETATM   10  C4  UNL     1       5.495  32.265  -2.081  1.00  0.00     0.157 C 
BRANCH  10  11
HETATM   11  N5  UNL     1       5.468  33.313  -1.093  1.00  0.00    -0.224 N 
ATOM     12  H5  UNL     1       5.156  33.073  -0.153  1.00  0.00     0.177 HD
BRANCH  11  13
HETATM   13  C5  UNL     1       5.807  34.520  -1.315  1.00  0.00     0.680 A 
HETATM   14  N6  UNL     1       6.085  35.348  -0.314  1.00  0.00    -0.184 N 
HETATM   15  C6  UNL     1       6.447  36.639  -0.579  1.00  0.00     0.155 A 
ATOM     16  H6  UNL     1       6.029  35.021   0.650  1.00  0.00     0.184 HD
HETATM   17  C8  UNL     1       6.521  37.076  -1.879  1.00  0.00     0.179 A 
HETATM   18  C9  UNL     1       6.226  36.186  -2.894  1.00  0.00     0.150 A 
HETATM   19  N11 UNL     1       5.876  34.928  -2.588  1.00  0.00    -0.175 N 
ATOM     20  H11 UNL     1       5.658  34.271  -3.337  1.00  0.00     0.186 HD
BRANCH  15  21
HETATM   21  C7  UNL     1       6.758  37.503   0.542  1.00  0.00     0.289 C 
HETATM   22  O1  UNL     1       7.788  37.287   1.213  1.00  0.00    -0.264 OA
HETATM   23  N7  UNL     1       5.930  38.583   0.900  1.00  0.00    -0.271 N 
ATOM     24  H7  UNL     1       5.080  38.793   0.376  1.00  0.00     0.189 HD
BRANCH  23  25
HETATM   25  N8  UNL     1       6.318  39.375   2.019  1.00  0.00    -0.342 N 
ATOM     26  H82 UNL     1       7.234  39.241   2.450  1.00  0.00     0.176 HD
ATOM     27  H81 UNL     1       5.655  40.069   2.365  1.00  0.00     0.176 HD
ENDBRANCH  23  25
ENDBRANCH  15  21
BRANCH  17  28
HETATM   28  N9  UNL     1       6.887  38.392  -2.186  1.00  0.00    -0.109 N 
HETATM   29  O2  UNL     1       6.036  39.332  -2.152  1.00  0.00    -0.532 OA
HETATM   30  O3  UNL     1       8.155  38.746  -2.569  1.00  0.00    -0.532 OA
ENDBRANCH  17  28
BRANCH  18  31
HETATM   31  N10 UNL     1       6.305  36.622  -4.102  1.00  0.00    -0.383 N 
ATOM     32 2H10 UNL     1       6.839  37.451  -4.363  1.00  0.00     0.157 HD
ATOM     33 1H10 UNL     1       5.803  36.100  -4.821  1.00  0.00     0.157 HD
ENDBRANCH  18  31
ENDBRANCH  11  13
ENDBRANCH  10  11
ENDBRANCH   9  10
ENDBRANCH   7   9
TORSDOF 8
ENDMDL
