MODEL 1
REMARK VINA RESULT: -6.428388698      0.000      0.000
REMARK  6 active torsions:
REMARK  status: ('A' for Active; 'I' for Inactive)
REMARK    1  A    between atoms: O1_1  and  C1_3 
REMARK    2  A    between atoms: C1_3  and  C2_4 
REMARK    3  A    between atoms: C3_6  and  N1_7 
REMARK    4  A    between atoms: C9_14  and  O3_15 
REMARK    5  A    between atoms: C10_17  and  O4_18 
REMARK    6  A    between atoms: C11_20  and  O5_21 
ROOT
HETATM    1  C2  UNL     1     -25.452 -14.175  -4.630  1.00  0.00     0.179 C 
HETATM    2  O2  UNL     1     -26.243 -15.291  -4.535  1.00  0.00    -0.354 OA
HETATM    3  C3  UNL     1     -27.285 -15.070  -3.666  1.00  0.00     0.259 C 
HETATM    4  C9  UNL     1     -27.894 -13.720  -4.025  1.00  0.00     0.198 C 
HETATM    5  C10 UNL     1     -26.997 -12.702  -3.321  1.00  0.00     0.182 C 
HETATM    6  C11 UNL     1     -25.582 -13.222  -3.479  1.00  0.00     0.180 C 
ENDROOT
BRANCH   3   7
HETATM    7  N1  UNL     1     -28.248 -16.127  -3.658  1.00  0.00    -0.337 N 
HETATM    8  C4  UNL     1     -28.622 -16.664  -2.493  1.00  0.00     0.094 A 
HETATM    9  C5  UNL     1     -29.546 -17.679  -2.469  1.00  0.00     0.036 A 
HETATM   10  C6  UNL     1     -30.081 -18.138  -3.653  1.00  0.00     0.013 A 
HETATM   11 BR1  UNL     1     -31.372 -19.563  -3.576  1.00  0.00    -0.051 Br
HETATM   12  C7  UNL     1     -29.697 -17.586  -4.859  1.00  0.00     0.036 A 
HETATM   13  C8  UNL     1     -28.755 -16.556  -4.818  1.00  0.00     0.094 A 
ENDBRANCH   3   7
BRANCH   4  14
HETATM   14  O3  UNL     1     -29.206 -13.611  -3.660  1.00  0.00    -0.388 OA
ATOM     15  H3  UNL     1     -29.420 -12.761  -3.293  1.00  0.00     0.210 HD
ENDBRANCH   4  14
BRANCH   1  16
HETATM   16  C1  UNL     1     -24.003 -14.642  -4.664  1.00  0.00     0.198 C 
BRANCH  16  17
HETATM   17  O1  UNL     1     -23.843 -15.379  -5.858  1.00  0.00    -0.398 OA
ATOM     18  H1  UNL     1     -22.908 -15.499  -5.981  1.00  0.00     0.209 HD
ENDBRANCH  16  17
ENDBRANCH   1  16
BRANCH   5  19
HETATM   19  O4  UNL     1     -27.171 -11.430  -3.797  1.00  0.00    -0.390 OA
ATOM     20  H4  UNL     1     -26.366 -11.052  -4.130  1.00  0.00     0.210 HD
ENDBRANCH   5  19
BRANCH   6  21
HETATM   21  O5  UNL     1     -24.782 -12.100  -3.790  1.00  0.00    -0.390 OA
ATOM     22  H5  UNL     1     -24.066 -12.417  -4.329  1.00  0.00     0.210 HD
ENDBRANCH   6  21
TORSDOF 6
ENDMDL
MODEL 2
REMARK VINA RESULT: -6.311776123      3.649      5.908
REMARK  6 active torsions:
REMARK  status: ('A' for Active; 'I' for Inactive)
REMARK    1  A    between atoms: O1_1  and  C1_3 
REMARK    2  A    between atoms: C1_3  and  C2_4 
REMARK    3  A    between atoms: C3_6  and  N1_7 
REMARK    4  A    between atoms: C9_14  and  O3_15 
REMARK    5  A    between atoms: C10_17  and  O4_18 
REMARK    6  A    between atoms: C11_20  and  O5_21 
ROOT
HETATM    1  C2  UNL     1     -28.707 -17.399  -3.973  1.00  0.00     0.179 C 
HETATM    2  O2  UNL     1     -27.823 -16.417  -4.339  1.00  0.00    -0.354 OA
HETATM    3  C3  UNL     1     -27.643 -15.523  -3.310  1.00  0.00     0.259 C 
HETATM    4  C9  UNL     1     -27.413 -16.334  -2.041  1.00  0.00     0.198 C 
HETATM    5  C10 UNL     1     -28.820 -16.703  -1.570  1.00  0.00     0.182 C 
HETATM    6  C11 UNL     1     -29.602 -17.033  -2.826  1.00  0.00     0.180 C 
ENDROOT
BRANCH   3   7
HETATM    7  N1  UNL     1     -26.599 -14.578  -3.560  1.00  0.00    -0.337 N 
HETATM    8  C4  UNL     1     -26.790 -13.293  -3.248  1.00  0.00     0.094 A 
HETATM    9  C5  UNL     1     -25.797 -12.373  -3.481  1.00  0.00     0.036 A 
HETATM   10  C6  UNL     1     -24.607 -12.788  -4.038  1.00  0.00     0.013 A 
HETATM   11 BR1  UNL     1     -23.241 -11.468  -4.349  1.00  0.00    -0.051 Br
HETATM   12  C7  UNL     1     -24.406 -14.115  -4.362  1.00  0.00     0.036 A 
HETATM   13  C8  UNL     1     -25.452 -15.001  -4.100  1.00  0.00     0.094 A 
ENDBRANCH   3   7
BRANCH   4  14
HETATM   14  O3  UNL     1     -26.699 -15.656  -1.095  1.00  0.00    -0.388 OA
ATOM     15  H3  UNL     1     -27.121 -15.650  -0.243  1.00  0.00     0.210 HD
ENDBRANCH   4  14
BRANCH   1  16
HETATM   16  C1  UNL     1     -29.605 -17.678  -5.171  1.00  0.00     0.198 C 
BRANCH  16  17
HETATM   17  O1  UNL     1     -29.794 -19.077  -5.218  1.00  0.00    -0.398 OA
ATOM     18  H1  UNL     1     -30.729 -19.228  -5.145  1.00  0.00     0.209 HD
ENDBRANCH  16  17
ENDBRANCH   1  16
BRANCH   5  19
HETATM   19  O4  UNL     1     -28.816 -17.712  -0.645  1.00  0.00    -0.390 OA
ATOM     20  H4  UNL     1     -28.882 -18.572  -1.044  1.00  0.00     0.210 HD
ENDBRANCH   5  19
BRANCH   6  21
HETATM   21  O5  UNL     1     -30.366 -18.181  -2.525  1.00  0.00    -0.390 OA
ATOM     22  H5  UNL     1     -31.156 -18.129  -3.052  1.00  0.00     0.210 HD
ENDBRANCH   6  21
TORSDOF 6
ENDMDL
MODEL 3
REMARK VINA RESULT: -6.296770631      3.648      5.937
REMARK  6 active torsions:
REMARK  status: ('A' for Active; 'I' for Inactive)
REMARK    1  A    between atoms: O1_1  and  C1_3 
REMARK    2  A    between atoms: C1_3  and  C2_4 
REMARK    3  A    between atoms: C3_6  and  N1_7 
REMARK    4  A    between atoms: C9_14  and  O3_15 
REMARK    5  A    between atoms: C10_17  and  O4_18 
REMARK    6  A    between atoms: C11_20  and  O5_21 
ROOT
HETATM    1  C2  UNL     1     -28.680 -17.363  -3.991  1.00  0.00     0.179 C 
HETATM    2  O2  UNL     1     -27.797 -16.375  -4.344  1.00  0.00    -0.354 OA
HETATM    3  C3  UNL     1     -27.625 -15.490  -3.306  1.00  0.00     0.259 C 
HETATM    4  C9  UNL     1     -27.397 -16.313  -2.044  1.00  0.00     0.198 C 
HETATM    5  C10 UNL     1     -28.805 -16.690  -1.582  1.00  0.00     0.182 C 
HETATM    6  C11 UNL     1     -29.581 -17.010  -2.844  1.00  0.00     0.180 C 
ENDROOT
BRANCH   3   7
HETATM    7  N1  UNL     1     -26.582 -14.540  -3.543  1.00  0.00    -0.337 N 
HETATM    8  C4  UNL     1     -25.428 -14.953  -4.075  1.00  0.00     0.094 A 
HETATM    9  C5  UNL     1     -24.417 -14.053  -4.309  1.00  0.00     0.036 A 
HETATM   10  C6  UNL     1     -24.604 -12.726  -3.989  1.00  0.00     0.013 A 
HETATM   11 BR1  UNL     1     -23.163 -11.498  -4.332  1.00  0.00    -0.051 Br
HETATM   12  C7  UNL     1     -25.795 -12.295  -3.439  1.00  0.00     0.036 A 
HETATM   13  C8  UNL     1     -26.784 -13.257  -3.226  1.00  0.00     0.094 A 
ENDBRANCH   3   7
BRANCH   4  14
HETATM   14  O3  UNL     1     -26.689 -15.641  -1.088  1.00  0.00    -0.388 OA
ATOM     15  H3  UNL     1     -27.244 -15.186  -0.465  1.00  0.00     0.210 HD
ENDBRANCH   4  14
BRANCH   1  16
HETATM   16  C1  UNL     1     -29.573 -17.633  -5.195  1.00  0.00     0.198 C 
BRANCH  16  17
HETATM   17  O1  UNL     1     -29.733 -19.034  -5.274  1.00  0.00    -0.398 OA
ATOM     18  H1  UNL     1     -29.491 -19.385  -4.425  1.00  0.00     0.209 HD
ENDBRANCH  16  17
ENDBRANCH   1  16
BRANCH   5  19
HETATM   19  O4  UNL     1     -28.802 -17.708  -0.666  1.00  0.00    -0.390 OA
ATOM     20  H4  UNL     1     -28.771 -17.392   0.230  1.00  0.00     0.210 HD
ENDBRANCH   5  19
BRANCH   6  21
HETATM   21  O5  UNL     1     -30.343 -18.163  -2.557  1.00  0.00    -0.390 OA
ATOM     22  H5  UNL     1     -30.858 -17.964  -1.784  1.00  0.00     0.210 HD
ENDBRANCH   6  21
TORSDOF 6
ENDMDL
MODEL 4
REMARK VINA RESULT: -6.187399505      3.590      5.240
REMARK  6 active torsions:
REMARK  status: ('A' for Active; 'I' for Inactive)
REMARK    1  A    between atoms: O1_1  and  C1_3 
REMARK    2  A    between atoms: C1_3  and  C2_4 
REMARK    3  A    between atoms: C3_6  and  N1_7 
REMARK    4  A    between atoms: C9_14  and  O3_15 
REMARK    5  A    between atoms: C10_17  and  O4_18 
REMARK    6  A    between atoms: C11_20  and  O5_21 
ROOT
HETATM    1  C2  UNL     1     -29.664 -17.464  -3.834  1.00  0.00     0.179 C 
HETATM    2  O2  UNL     1     -29.336 -17.736  -2.531  1.00  0.00    -0.354 OA
HETATM    3  C3  UNL     1     -28.225 -17.018  -2.155  1.00  0.00     0.259 C 
HETATM    4  C9  UNL     1     -28.440 -15.581  -2.613  1.00  0.00     0.198 C 
HETATM    5  C10 UNL     1     -28.023 -15.589  -4.084  1.00  0.00     0.182 C 
HETATM    6  C11 UNL     1     -28.542 -16.895  -4.652  1.00  0.00     0.180 C 
ENDROOT
BRANCH   3   7
HETATM    7  N1  UNL     1     -27.937 -17.116  -0.757  1.00  0.00    -0.337 N 
HETATM    8  C4  UNL     1     -28.802 -16.610   0.127  1.00  0.00     0.094 A 
HETATM    9  C5  UNL     1     -28.540 -16.696   1.472  1.00  0.00     0.036 A 
HETATM   10  C6  UNL     1     -27.382 -17.307   1.899  1.00  0.00     0.013 A 
HETATM   11 BR1  UNL     1     -27.053 -17.408   3.793  1.00  0.00    -0.051 Br
HETATM   12  C7  UNL     1     -26.486 -17.832   0.989  1.00  0.00     0.036 A 
HETATM   13  C8  UNL     1     -26.808 -17.714  -0.364  1.00  0.00     0.094 A 
ENDBRANCH   3   7
BRANCH   4  14
HETATM   14  O3  UNL     1     -27.739 -14.673  -1.870  1.00  0.00    -0.388 OA
ATOM     15  H3  UNL     1     -26.870 -14.502  -2.214  1.00  0.00     0.210 HD
ENDBRANCH   4  14
BRANCH   1  16
HETATM   16  C1  UNL     1     -30.073 -18.777  -4.488  1.00  0.00     0.198 C 
BRANCH  16  17
HETATM   17  O1  UNL     1     -31.179 -18.490  -5.318  1.00  0.00    -0.398 OA
ATOM     18  H1  UNL     1     -31.367 -19.282  -5.807  1.00  0.00     0.209 HD
ENDBRANCH  16  17
ENDBRANCH   1  16
BRANCH   5  19
HETATM   19  O4  UNL     1     -28.463 -14.483  -4.760  1.00  0.00    -0.390 OA
ATOM     20  H4  UNL     1     -27.975 -13.699  -4.535  1.00  0.00     0.210 HD
ENDBRANCH   5  19
BRANCH   6  21
HETATM   21  O5  UNL     1     -29.079 -16.588  -5.921  1.00  0.00    -0.390 OA
ATOM     22  H5  UNL     1     -29.801 -17.189  -6.064  1.00  0.00     0.210 HD
ENDBRANCH   6  21
TORSDOF 6
ENDMDL
MODEL 5
REMARK VINA RESULT: -6.179828759      4.051      6.153
REMARK  6 active torsions:
REMARK  status: ('A' for Active; 'I' for Inactive)
REMARK    1  A    between atoms: O1_1  and  C1_3 
REMARK    2  A    between atoms: C1_3  and  C2_4 
REMARK    3  A    between atoms: C3_6  and  N1_7 
REMARK    4  A    between atoms: C9_14  and  O3_15 
REMARK    5  A    between atoms: C10_17  and  O4_18 
REMARK    6  A    between atoms: C11_20  and  O5_21 
ROOT
HETATM    1  C2  UNL     1     -28.820 -15.875  -1.788  1.00  0.00     0.179 C 
HETATM    2  O2  UNL     1     -28.838 -14.622  -1.232  1.00  0.00    -0.354 OA
HETATM    3  C3  UNL     1     -28.295 -13.703  -2.099  1.00  0.00     0.259 C 
HETATM    4  C9  UNL     1     -28.920 -13.949  -3.467  1.00  0.00     0.198 C 
HETATM    5  C10 UNL     1     -28.097 -15.096  -4.056  1.00  0.00     0.182 C 
HETATM    6  C11 UNL     1     -27.832 -16.046  -2.904  1.00  0.00     0.180 C 
ENDROOT
BRANCH   3   7
HETATM    7  N1  UNL     1     -28.448 -12.351  -1.656  1.00  0.00    -0.337 N 
HETATM    8  C4  UNL     1     -27.416 -11.508  -1.760  1.00  0.00     0.094 A 
HETATM    9  C5  UNL     1     -27.547 -10.207  -1.340  1.00  0.00     0.036 A 
HETATM   10  C6  UNL     1     -28.746  -9.782  -0.812  1.00  0.00     0.013 A 
HETATM   11 BR1  UNL     1     -28.887  -7.952  -0.235  1.00  0.00    -0.051 Br
HETATM   12  C7  UNL     1     -29.814 -10.651  -0.703  1.00  0.00     0.036 A 
HETATM   13  C8  UNL     1     -29.620 -11.960  -1.148  1.00  0.00     0.094 A 
ENDBRANCH   3   7
BRANCH   4  14
HETATM   14  O3  UNL     1     -28.922 -12.838  -4.262  1.00  0.00    -0.388 OA
ATOM     15  H3  UNL     1     -28.097 -12.701  -4.712  1.00  0.00     0.210 HD
ENDBRANCH   4  14
BRANCH   1  16
HETATM   16  C1  UNL     1     -28.432 -16.858  -0.692  1.00  0.00     0.198 C 
BRANCH  16  17
HETATM   17  O1  UNL     1     -29.610 -17.144   0.033  1.00  0.00    -0.398 OA
ATOM     18  H1  UNL     1     -29.641 -16.529   0.757  1.00  0.00     0.209 HD
ENDBRANCH  16  17
ENDBRANCH   1  16
BRANCH   5  19
HETATM   19  O4  UNL     1     -28.712 -15.688  -5.126  1.00  0.00    -0.390 OA
ATOM     20  H4  UNL     1     -28.484 -16.606  -5.215  1.00  0.00     0.210 HD
ENDBRANCH   5  19
BRANCH   6  21
HETATM   21  O5  UNL     1     -28.020 -17.348  -3.416  1.00  0.00    -0.390 OA
ATOM     22  H5  UNL     1     -28.055 -17.267  -4.362  1.00  0.00     0.210 HD
ENDBRANCH   6  21
TORSDOF 6
ENDMDL
