MODEL 1
REMARK VINA RESULT: -5.589800858      0.000      0.000
REMARK  6 active torsions:
REMARK  status: ('A' for Active; 'I' for Inactive)
REMARK    1  A    between atoms: C3_3  and  O1_4 
REMARK    2  A    between atoms: C4_6  and  O2_7 
REMARK    3  A    between atoms: C5_9  and  O3_10 
REMARK    4  A    between atoms: C7_14  and  O4_15 
REMARK    5  A    between atoms: O4_15  and  S1_16 
REMARK    6  A    between atoms: S1_16  and  N1_17 
ROOT
HETATM    1  C1  UNL     1     -28.125 -15.389  -4.588  1.00  0.00     0.015 C 
HETATM    2  C2  UNL     1     -27.477 -14.958  -3.274  1.00  0.00     0.044 C 
HETATM    3  C3  UNL     1     -26.690 -13.712  -3.491  1.00  0.00     0.155 C 
HETATM    4  C4  UNL     1     -27.530 -12.462  -3.499  1.00  0.00     0.177 C 
HETATM    5  C5  UNL     1     -28.204 -12.391  -2.151  1.00  0.00     0.166 C 
HETATM    6  C6  UNL     1     -29.123 -13.562  -1.985  1.00  0.00     0.120 C 
HETATM    7 BR1  UNL     1     -29.844 -13.445  -0.170  1.00  0.00    -0.086 Br
HETATM    8  C7  UNL     1     -28.498 -14.887  -2.200  1.00  0.00     0.167 C 
ENDROOT
BRANCH   8   9
HETATM    9  O4  UNL     1     -29.528 -15.786  -2.573  1.00  0.00    -0.253 OA
BRANCH   9  10
HETATM   10  S1  UNL     1     -29.325 -17.290  -1.930  1.00  0.00     0.356 S 
HETATM   11  O5  UNL     1     -28.046 -17.955  -2.306  1.00  0.00    -0.176 OA
HETATM   12  O6  UNL     1     -30.455 -18.168  -2.432  1.00  0.00    -0.176 OA
BRANCH  10  13
HETATM   13  N1  UNL     1     -29.513 -17.181  -0.212  1.00  0.00    -0.306 N 
ATOM     14  H12 UNL     1     -30.059 -16.469   0.273  1.00  0.00     0.171 HD
ATOM     15  H11 UNL     1     -28.988 -17.942   0.218  1.00  0.00     0.171 HD
ENDBRANCH  10  13
ENDBRANCH   9  10
ENDBRANCH   8   9
BRANCH   3  16
HETATM   16  O1  UNL     1     -26.063 -13.798  -4.749  1.00  0.00    -0.392 OA
ATOM     17  H1  UNL     1     -26.716 -14.046  -5.393  1.00  0.00     0.210 HD
ENDBRANCH   3  16
BRANCH   5  18
HETATM   18  O3  UNL     1     -28.877 -11.216  -1.950  1.00  0.00    -0.392 OA
ATOM     19  H3  UNL     1     -28.421 -10.620  -1.368  1.00  0.00     0.210 HD
ENDBRANCH   5  18
BRANCH   4  20
HETATM   20  O2  UNL     1     -26.725 -11.365  -3.713  1.00  0.00    -0.390 OA
ATOM     21  H2  UNL     1     -27.074 -10.848  -4.430  1.00  0.00     0.210 HD
ENDBRANCH   4  20
TORSDOF 6
ENDMDL
MODEL 2
REMARK VINA RESULT: -5.529984638      2.643      4.512
REMARK  6 active torsions:
REMARK  status: ('A' for Active; 'I' for Inactive)
REMARK    1  A    between atoms: C3_3  and  O1_4 
REMARK    2  A    between atoms: C4_6  and  O2_7 
REMARK    3  A    between atoms: C5_9  and  O3_10 
REMARK    4  A    between atoms: C7_14  and  O4_15 
REMARK    5  A    between atoms: O4_15  and  S1_16 
REMARK    6  A    between atoms: S1_16  and  N1_17 
ROOT
HETATM    1  C1  UNL     1     -27.943 -13.094  -3.571  1.00  0.00     0.015 C 
HETATM    2  C2  UNL     1     -29.025 -14.078  -3.132  1.00  0.00     0.044 C 
HETATM    3  C3  UNL     1     -28.900 -15.338  -3.919  1.00  0.00     0.155 C 
HETATM    4  C4  UNL     1     -27.832 -16.266  -3.404  1.00  0.00     0.177 C 
HETATM    5  C5  UNL     1     -28.208 -16.607  -1.983  1.00  0.00     0.166 C 
HETATM    6  C6  UNL     1     -28.183 -15.367  -1.144  1.00  0.00     0.120 C 
HETATM    7 BR1  UNL     1     -28.805 -15.890   0.636  1.00  0.00    -0.086 Br
HETATM    8  C7  UNL     1     -28.999 -14.243  -1.658  1.00  0.00     0.167 C 
ENDROOT
BRANCH   8   9
HETATM    9  O4  UNL     1     -28.449 -13.046  -1.136  1.00  0.00    -0.253 OA
BRANCH   9  10
HETATM   10  S1  UNL     1     -29.603 -11.954  -0.696  1.00  0.00     0.356 S 
HETATM   11  O5  UNL     1     -29.565 -10.674  -1.458  1.00  0.00    -0.176 OA
HETATM   12  O6  UNL     1     -29.391 -11.614   0.767  1.00  0.00    -0.176 OA
BRANCH  10  13
HETATM   13  N1  UNL     1     -31.152 -12.720  -0.804  1.00  0.00    -0.306 N 
ATOM     14  H12 UNL     1     -31.348 -13.684  -0.533  1.00  0.00     0.171 HD
ATOM     15  H11 UNL     1     -31.819 -12.047  -1.180  1.00  0.00     0.171 HD
ENDBRANCH  10  13
ENDBRANCH   9  10
ENDBRANCH   8   9
BRANCH   3  16
HETATM   16  O1  UNL     1     -28.555 -15.002  -5.242  1.00  0.00    -0.392 OA
ATOM     17  H1  UNL     1     -27.684 -15.338  -5.418  1.00  0.00     0.210 HD
ENDBRANCH   3  16
BRANCH   5  18
HETATM   18  O3  UNL     1     -27.413 -17.577  -1.435  1.00  0.00    -0.392 OA
ATOM     19  H3  UNL     1     -27.865 -18.111  -0.793  1.00  0.00     0.210 HD
ENDBRANCH   5  18
BRANCH   4  20
HETATM   20  O2  UNL     1     -27.782 -17.396  -4.190  1.00  0.00    -0.390 OA
ATOM     21  H2  UNL     1     -26.970 -17.405  -4.685  1.00  0.00     0.210 HD
ENDBRANCH   4  20
TORSDOF 6
ENDMDL
MODEL 3
REMARK VINA RESULT: -5.490774280      3.235      5.090
REMARK  6 active torsions:
REMARK  status: ('A' for Active; 'I' for Inactive)
REMARK    1  A    between atoms: C3_3  and  O1_4 
REMARK    2  A    between atoms: C4_6  and  O2_7 
REMARK    3  A    between atoms: C5_9  and  O3_10 
REMARK    4  A    between atoms: C7_14  and  O4_15 
REMARK    5  A    between atoms: O4_15  and  S1_16 
REMARK    6  A    between atoms: S1_16  and  N1_17 
ROOT
HETATM    1  C1  UNL     1     -27.687 -16.559  -3.878  1.00  0.00     0.015 C 
HETATM    2  C2  UNL     1     -28.054 -15.434  -2.913  1.00  0.00     0.044 C 
HETATM    3  C3  UNL     1     -29.080 -15.921  -1.948  1.00  0.00     0.155 C 
HETATM    4  C4  UNL     1     -28.505 -16.724  -0.811  1.00  0.00     0.177 C 
HETATM    5  C5  UNL     1     -27.541 -15.815  -0.089  1.00  0.00     0.166 C 
HETATM    6  C6  UNL     1     -26.417 -15.444  -1.005  1.00  0.00     0.120 C 
HETATM    7 BR1  UNL     1     -25.299 -14.172  -0.024  1.00  0.00    -0.086 Br
HETATM    8  C7  UNL     1     -26.828 -14.864  -2.304  1.00  0.00     0.167 C 
ENDROOT
BRANCH   8   9
HETATM    9  O4  UNL     1     -25.780 -15.102  -3.227  1.00  0.00    -0.253 OA
BRANCH   9  10
HETATM   10  S1  UNL     1     -25.214 -13.718  -3.920  1.00  0.00     0.356 S 
HETATM   11  O5  UNL     1     -26.154 -12.564  -3.853  1.00  0.00    -0.176 OA
HETATM   12  O6  UNL     1     -24.955 -14.003  -5.387  1.00  0.00    -0.176 OA
BRANCH  10  13
HETATM   13  N1  UNL     1     -23.679 -13.339  -3.214  1.00  0.00    -0.306 N 
ATOM     14  H12 UNL     1     -22.831 -13.894  -3.325  1.00  0.00     0.171 HD
ATOM     15  H11 UNL     1     -23.775 -12.477  -2.677  1.00  0.00     0.171 HD
ENDBRANCH  10  13
ENDBRANCH   9  10
ENDBRANCH   8   9
BRANCH   3  16
HETATM   16  O1  UNL     1     -29.974 -16.762  -2.638  1.00  0.00    -0.392 OA
ATOM     17  H1  UNL     1     -30.691 -16.979  -2.055  1.00  0.00     0.210 HD
ENDBRANCH   3  16
BRANCH   5  18
HETATM   18  O3  UNL     1     -27.060 -16.357   1.073  1.00  0.00    -0.392 OA
ATOM     19  H3  UNL     1     -27.509 -16.038   1.846  1.00  0.00     0.210 HD
ENDBRANCH   5  18
BRANCH   4  20
HETATM   20  O2  UNL     1     -29.520 -17.137   0.024  1.00  0.00    -0.390 OA
ATOM     21  H2  UNL     1     -30.033 -17.812  -0.407  1.00  0.00     0.210 HD
ENDBRANCH   4  20
TORSDOF 6
ENDMDL
MODEL 4
REMARK VINA RESULT: -5.426539045      2.709      4.883
REMARK  6 active torsions:
REMARK  status: ('A' for Active; 'I' for Inactive)
REMARK    1  A    between atoms: C3_3  and  O1_4 
REMARK    2  A    between atoms: C4_6  and  O2_7 
REMARK    3  A    between atoms: C5_9  and  O3_10 
REMARK    4  A    between atoms: C7_14  and  O4_15 
REMARK    5  A    between atoms: O4_15  and  S1_16 
REMARK    6  A    between atoms: S1_16  and  N1_17 
ROOT
HETATM    1  C1  UNL     1     -27.036 -16.378  -4.475  1.00  0.00     0.015 C 
HETATM    2  C2  UNL     1     -28.381 -15.842  -3.990  1.00  0.00     0.044 C 
HETATM    3  C3  UNL     1     -29.341 -16.972  -3.838  1.00  0.00     0.155 C 
HETATM    4  C4  UNL     1     -29.170 -17.738  -2.553  1.00  0.00     0.177 C 
HETATM    5  C5  UNL     1     -29.388 -16.750  -1.433  1.00  0.00     0.166 C 
HETATM    6  C6  UNL     1     -28.330 -15.692  -1.481  1.00  0.00     0.120 C 
HETATM    7 BR1  UNL     1     -28.774 -14.402  -0.079  1.00  0.00    -0.086 Br
HETATM    8  C7  UNL     1     -28.191 -15.001  -2.783  1.00  0.00     0.167 C 
ENDROOT
BRANCH   8   9
HETATM    9  O4  UNL     1     -26.869 -14.497  -2.856  1.00  0.00    -0.253 OA
BRANCH   9  10
HETATM   10  S1  UNL     1     -26.816 -12.907  -3.290  1.00  0.00     0.356 S 
HETATM   11  O5  UNL     1     -27.957 -12.459  -4.136  1.00  0.00    -0.176 OA
HETATM   12  O6  UNL     1     -25.547 -12.683  -4.089  1.00  0.00    -0.176 OA
BRANCH  10  13
HETATM   13  N1  UNL     1     -26.668 -11.952  -1.853  1.00  0.00    -0.306 N 
ATOM     14  H12 UNL     1     -25.787 -11.626  -1.456  1.00  0.00     0.171 HD
ATOM     15  H11 UNL     1     -27.602 -11.779  -1.483  1.00  0.00     0.171 HD
ENDBRANCH  10  13
ENDBRANCH   9  10
ENDBRANCH   8   9
BRANCH   3  16
HETATM   16  O1  UNL     1     -29.128 -17.880  -4.893  1.00  0.00    -0.392 OA
ATOM     17  H1  UNL     1     -28.195 -18.047  -4.960  1.00  0.00     0.210 HD
ENDBRANCH   3  16
BRANCH   5  18
HETATM   18  O3  UNL     1     -29.426 -17.340  -0.197  1.00  0.00    -0.392 OA
ATOM     19  H3  UNL     1     -28.660 -17.149   0.331  1.00  0.00     0.210 HD
ENDBRANCH   5  18
BRANCH   4  20
HETATM   20  O2  UNL     1     -30.089 -18.763  -2.499  1.00  0.00    -0.390 OA
ATOM     21  H2  UNL     1     -30.180 -19.063  -1.602  1.00  0.00     0.210 HD
ENDBRANCH   4  20
TORSDOF 6
ENDMDL
MODEL 5
REMARK VINA RESULT: -5.422425905      2.518      2.875
REMARK  6 active torsions:
REMARK  status: ('A' for Active; 'I' for Inactive)
REMARK    1  A    between atoms: C3_3  and  O1_4 
REMARK    2  A    between atoms: C4_6  and  O2_7 
REMARK    3  A    between atoms: C5_9  and  O3_10 
REMARK    4  A    between atoms: C7_14  and  O4_15 
REMARK    5  A    between atoms: O4_15  and  S1_16 
REMARK    6  A    between atoms: S1_16  and  N1_17 
ROOT
HETATM    1  C1  UNL     1     -28.685 -17.675  -2.433  1.00  0.00     0.015 C 
HETATM    2  C2  UNL     1     -27.649 -16.564  -2.279  1.00  0.00     0.044 C 
HETATM    3  C3  UNL     1     -27.431 -15.900  -3.595  1.00  0.00     0.155 C 
HETATM    4  C4  UNL     1     -28.487 -14.882  -3.938  1.00  0.00     0.177 C 
HETATM    5  C5  UNL     1     -28.448 -13.841  -2.847  1.00  0.00     0.166 C 
HETATM    6  C6  UNL     1     -28.820 -14.467  -1.539  1.00  0.00     0.120 C 
HETATM    7 BR1  UNL     1     -28.616 -13.074  -0.180  1.00  0.00    -0.086 Br
HETATM    8  C7  UNL     1     -28.029 -15.662  -1.166  1.00  0.00     0.167 C 
ENDROOT
BRANCH   8   9
HETATM    9  O4  UNL     1     -28.820 -16.435  -0.281  1.00  0.00    -0.253 OA
BRANCH   9  10
HETATM   10  S1  UNL     1     -28.035 -16.803   1.121  1.00  0.00     0.356 S 
HETATM   11  O5  UNL     1     -27.706 -18.246   1.285  1.00  0.00    -0.176 OA
HETATM   12  O6  UNL     1     -28.936 -16.411   2.277  1.00  0.00    -0.176 OA
BRANCH  10  13
HETATM   13  N1  UNL     1     -26.625 -15.805   1.236  1.00  0.00    -0.306 N 
ATOM     14  H12 UNL     1     -26.051 -15.511   0.446  1.00  0.00     0.171 HD
ATOM     15  H11 UNL     1     -26.475 -15.571   2.217  1.00  0.00     0.171 HD
ENDBRANCH  10  13
ENDBRANCH   9  10
ENDBRANCH   8   9
BRANCH   3  16
HETATM   16  O1  UNL     1     -27.465 -16.886  -4.600  1.00  0.00    -0.392 OA
ATOM     17  H1  UNL     1     -28.157 -16.665  -5.213  1.00  0.00     0.210 HD
ENDBRANCH   3  16
BRANCH   5  18
HETATM   18  O3  UNL     1     -29.245 -12.759  -3.109  1.00  0.00    -0.392 OA
ATOM     19  H3  UNL     1     -30.118 -12.841  -2.743  1.00  0.00     0.210 HD
ENDBRANCH   5  18
BRANCH   4  20
HETATM   20  O2  UNL     1     -28.212 -14.326  -5.168  1.00  0.00    -0.390 OA
ATOM     21  H2  UNL     1     -27.417 -13.809  -5.114  1.00  0.00     0.210 HD
ENDBRANCH   4  20
TORSDOF 6
ENDMDL
