MODEL 1
REMARK VINA RESULT: -7.002380857      0.000      0.000
REMARK  5 active torsions:
REMARK  status: ('A' for Active; 'I' for Inactive)
REMARK    1  A    between atoms: C5_8  and  C6_9 
REMARK    2  A    between atoms: C12_16  and  O2_17 
REMARK    3  A    between atoms: C13_19  and  O3_20 
REMARK    4  A    between atoms: C14_23  and  C15_24 
REMARK    5  A    between atoms: C15_24  and  O4_25 
ROOT
HETATM    1  C1  UNL     1     -26.288 -12.650  -3.578  1.00  0.00     0.037 C 
HETATM    2  C2  UNL     1     -25.088 -13.517  -3.399  1.00  0.00     0.066 C 
HETATM    3  C3  UNL     1     -24.029 -13.174  -4.421  1.00  0.00     0.037 C 
HETATM    4  N1  UNL     1     -25.541 -14.909  -3.571  1.00  0.00    -0.108 NA
HETATM    5  N2  UNL     1     -26.135 -15.181  -2.310  1.00  0.00    -0.181 N 
HETATM    6  C4  UNL     1     -27.071 -16.064  -2.148  1.00  0.00     0.182 C 
HETATM    7  O1  UNL     1     -27.655 -16.882  -3.106  1.00  0.00    -0.322 OA
HETATM    8  C5  UNL     1     -28.585 -17.764  -2.470  1.00  0.00     0.195 C 
HETATM    9  C12 UNL     1     -29.064 -16.909  -1.341  1.00  0.00     0.189 C 
HETATM   10  C13 UNL     1     -27.713 -16.371  -0.841  1.00  0.00     0.227 C 
HETATM   11  N3  UNL     1     -25.559 -14.366  -1.331  1.00  0.00    -0.110 NA
HETATM   12  C14 UNL     1     -24.557 -13.578  -2.009  1.00  0.00     0.150 C 
ENDROOT
BRANCH  10  13
HETATM   13  O3  UNL     1     -26.973 -17.404  -0.265  1.00  0.00    -0.385 OA
ATOM     14  H3  UNL     1     -27.369 -17.585   0.579  1.00  0.00     0.210 HD
ENDBRANCH  10  13
BRANCH   8  15
HETATM   15  C6  UNL     1     -29.644 -18.208  -3.384  1.00  0.00    -0.023 A 
HETATM   16  C7  UNL     1     -29.629 -17.737  -4.682  1.00  0.00     0.010 A 
HETATM   17  C8  UNL     1     -30.580 -18.095  -5.619  1.00  0.00     0.004 A 
HETATM   18  C9  UNL     1     -31.571 -18.965  -5.191  1.00  0.00     0.042 A 
HETATM   19  C10 UNL     1     -31.589 -19.435  -3.902  1.00  0.00     0.117 A 
HETATM   20  F1  UNL     1     -32.563 -20.289  -3.486  1.00  0.00    -0.206 F 
HETATM   21  C11 UNL     1     -30.635 -19.069  -2.982  1.00  0.00     0.052 A 
ENDBRANCH   8  15
BRANCH   9  22
HETATM   22  O2  UNL     1     -29.758 -15.781  -1.773  1.00  0.00    -0.390 OA
ATOM     23  H2  UNL     1     -29.198 -15.022  -1.883  1.00  0.00     0.210 HD
ENDBRANCH   9  22
BRANCH  12  24
HETATM   24  C15 UNL     1     -24.298 -12.254  -1.374  1.00  0.00     0.189 C 
BRANCH  24  25
HETATM   25  O4  UNL     1     -23.215 -12.419  -0.497  1.00  0.00    -0.399 OA
ATOM     26  H4  UNL     1     -22.631 -13.058  -0.888  1.00  0.00     0.209 HD
ENDBRANCH  24  25
ENDBRANCH  12  24
TORSDOF 5
ENDMDL
MODEL 2
REMARK VINA RESULT: -6.693778077      4.171      5.576
REMARK  5 active torsions:
REMARK  status: ('A' for Active; 'I' for Inactive)
REMARK    1  A    between atoms: C5_8  and  C6_9 
REMARK    2  A    between atoms: C12_16  and  O2_17 
REMARK    3  A    between atoms: C13_19  and  O3_20 
REMARK    4  A    between atoms: C14_23  and  C15_24 
REMARK    5  A    between atoms: C15_24  and  O4_25 
ROOT
HETATM    1  C1  UNL     1     -22.485 -12.828  -3.337  1.00  0.00     0.037 C 
HETATM    2  C2  UNL     1     -22.905 -12.850  -4.768  1.00  0.00     0.066 C 
HETATM    3  C3  UNL     1     -22.199 -11.763  -5.544  1.00  0.00     0.037 C 
HETATM    4  N1  UNL     1     -24.363 -12.634  -4.786  1.00  0.00    -0.108 NA
HETATM    5  N2  UNL     1     -24.854 -13.922  -4.445  1.00  0.00    -0.181 N 
HETATM    6  C4  UNL     1     -26.003 -14.111  -3.876  1.00  0.00     0.182 C 
HETATM    7  O1  UNL     1     -26.942 -13.160  -3.501  1.00  0.00    -0.322 OA
HETATM    8  C5  UNL     1     -28.102 -13.819  -2.984  1.00  0.00     0.195 C 
HETATM    9  C12 UNL     1     -27.489 -15.035  -2.367  1.00  0.00     0.189 C 
HETATM   10  C13 UNL     1     -26.544 -15.448  -3.508  1.00  0.00     0.227 C 
HETATM   11  N3  UNL     1     -23.921 -14.896  -4.816  1.00  0.00    -0.110 NA
HETATM   12  C14 UNL     1     -22.824 -14.182  -5.427  1.00  0.00     0.150 C 
ENDROOT
BRANCH  10  13
HETATM   13  O3  UNL     1     -27.285 -15.894  -4.602  1.00  0.00    -0.385 OA
ATOM     14  H3  UNL     1     -27.106 -16.823  -4.691  1.00  0.00     0.210 HD
ENDBRANCH  10  13
BRANCH   8  15
HETATM   15  C6  UNL     1     -28.850 -12.974  -2.044  1.00  0.00    -0.023 A 
HETATM   16  C7  UNL     1     -30.060 -13.437  -1.569  1.00  0.00     0.010 A 
HETATM   17  C8  UNL     1     -30.840 -12.718  -0.683  1.00  0.00     0.004 A 
HETATM   18  C9  UNL     1     -30.344 -11.486  -0.283  1.00  0.00     0.042 A 
HETATM   19  C10 UNL     1     -29.141 -11.023  -0.755  1.00  0.00     0.117 A 
HETATM   20  F1  UNL     1     -28.658  -9.814  -0.360  1.00  0.00    -0.206 F 
HETATM   21  C11 UNL     1     -28.378 -11.751  -1.636  1.00  0.00     0.052 A 
ENDBRANCH   8  15
BRANCH   9  22
HETATM   22  O2  UNL     1     -26.647 -14.733  -1.298  1.00  0.00    -0.390 OA
ATOM     23  H2  UNL     1     -25.743 -14.974  -1.462  1.00  0.00     0.210 HD
ENDBRANCH   9  22
BRANCH  12  24
HETATM   24  C15 UNL     1     -21.508 -14.872  -5.297  1.00  0.00     0.189 C 
BRANCH  24  25
HETATM   25  O4  UNL     1     -21.409 -15.782  -6.362  1.00  0.00    -0.399 OA
ATOM     26  H4  UNL     1     -21.461 -15.279  -7.166  1.00  0.00     0.209 HD
ENDBRANCH  24  25
ENDBRANCH  12  24
TORSDOF 5
ENDMDL
MODEL 3
REMARK VINA RESULT: -6.650519639      2.969      3.779
REMARK  5 active torsions:
REMARK  status: ('A' for Active; 'I' for Inactive)
REMARK    1  A    between atoms: C5_8  and  C6_9 
REMARK    2  A    between atoms: C12_16  and  O2_17 
REMARK    3  A    between atoms: C13_19  and  O3_20 
REMARK    4  A    between atoms: C14_23  and  C15_24 
REMARK    5  A    between atoms: C15_24  and  O4_25 
ROOT
HETATM    1  C1  UNL     1     -28.800 -12.150   0.235  1.00  0.00     0.037 C 
HETATM    2  C2  UNL     1     -28.881 -11.218  -0.926  1.00  0.00     0.066 C 
HETATM    3  C3  UNL     1     -29.938 -10.164  -0.688  1.00  0.00     0.037 C 
HETATM    4  N1  UNL     1     -29.224 -12.036  -2.104  1.00  0.00    -0.108 NA
HETATM    5  N2  UNL     1     -27.969 -12.611  -2.436  1.00  0.00    -0.181 N 
HETATM    6  C4  UNL     1     -27.854 -13.738  -3.066  1.00  0.00     0.182 C 
HETATM    7  O1  UNL     1     -28.865 -14.572  -3.524  1.00  0.00    -0.322 OA
HETATM    8  C5  UNL     1     -28.286 -15.668  -4.238  1.00  0.00     0.195 C 
HETATM    9  C12 UNL     1     -26.994 -15.837  -3.506  1.00  0.00     0.189 C 
HETATM   10  C13 UNL     1     -26.554 -14.365  -3.427  1.00  0.00     0.227 C 
HETATM   11  N3  UNL     1     -26.936 -11.784  -1.983  1.00  0.00    -0.110 NA
HETATM   12  C14 UNL     1     -27.579 -10.647  -1.367  1.00  0.00     0.150 C 
ENDROOT
BRANCH  10  13
HETATM   13  O3  UNL     1     -26.225 -13.898  -4.700  1.00  0.00    -0.385 OA
ATOM     14  H3  UNL     1     -25.416 -14.330  -4.948  1.00  0.00     0.210 HD
ENDBRANCH  10  13
BRANCH   8  15
HETATM   15  C6  UNL     1     -29.148 -16.856  -4.229  1.00  0.00    -0.023 A 
HETATM   16  C7  UNL     1     -29.214 -17.607  -3.072  1.00  0.00     0.010 A 
HETATM   17  C8  UNL     1     -29.995 -18.743  -2.961  1.00  0.00     0.004 A 
HETATM   18  C9  UNL     1     -30.724 -19.103  -4.085  1.00  0.00     0.042 A 
HETATM   19  C10 UNL     1     -30.660 -18.358  -5.235  1.00  0.00     0.117 A 
HETATM   20  F1  UNL     1     -31.377 -18.715  -6.335  1.00  0.00    -0.206 F 
HETATM   21  C11 UNL     1     -29.878 -17.231  -5.329  1.00  0.00     0.052 A 
ENDBRANCH   8  15
BRANCH   9  22
HETATM   22  O2  UNL     1     -27.171 -16.226  -2.179  1.00  0.00    -0.390 OA
ATOM     23  H2  UNL     1     -26.421 -16.026  -1.633  1.00  0.00     0.210 HD
ENDBRANCH   9  22
BRANCH  12  24
HETATM   24  C15 UNL     1     -26.773 -10.007  -0.288  1.00  0.00     0.189 C 
BRANCH  24  25
HETATM   25  O4  UNL     1     -26.685  -8.639  -0.590  1.00  0.00    -0.399 OA
ATOM     26  H4  UNL     1     -25.811  -8.482  -0.928  1.00  0.00     0.209 HD
ENDBRANCH  24  25
ENDBRANCH  12  24
TORSDOF 5
ENDMDL
MODEL 4
REMARK VINA RESULT: -6.643828846      2.114      2.793
REMARK  5 active torsions:
REMARK  status: ('A' for Active; 'I' for Inactive)
REMARK    1  A    between atoms: C5_8  and  C6_9 
REMARK    2  A    between atoms: C12_16  and  O2_17 
REMARK    3  A    between atoms: C13_19  and  O3_20 
REMARK    4  A    between atoms: C14_23  and  C15_24 
REMARK    5  A    between atoms: C15_24  and  O4_25 
ROOT
HETATM    1  C1  UNL     1     -23.657 -13.870  -6.422  1.00  0.00     0.037 C 
HETATM    2  C2  UNL     1     -22.957 -14.116  -5.128  1.00  0.00     0.066 C 
HETATM    3  C3  UNL     1     -21.600 -14.736  -5.370  1.00  0.00     0.037 C 
HETATM    4  N1  UNL     1     -23.812 -15.032  -4.351  1.00  0.00    -0.108 NA
HETATM    5  N2  UNL     1     -24.800 -14.148  -3.843  1.00  0.00    -0.181 N 
HETATM    6  C4  UNL     1     -25.995 -14.536  -3.523  1.00  0.00     0.182 C 
HETATM    7  O1  UNL     1     -26.533 -15.813  -3.602  1.00  0.00    -0.322 OA
HETATM    8  C5  UNL     1     -27.860 -15.801  -3.066  1.00  0.00     0.195 C 
HETATM    9  C12 UNL     1     -28.300 -14.418  -3.424  1.00  0.00     0.189 C 
HETATM   10  C13 UNL     1     -27.051 -13.634  -2.988  1.00  0.00     0.227 C 
HETATM   11  N3  UNL     1     -24.276 -12.855  -3.755  1.00  0.00    -0.110 NA
HETATM   12  C14 UNL     1     -22.908 -12.949  -4.206  1.00  0.00     0.150 C 
ENDROOT
BRANCH  10  13
HETATM   13  O3  UNL     1     -26.933 -13.661  -1.598  1.00  0.00    -0.385 OA
ATOM     14  H3  UNL     1     -27.603 -14.254  -1.279  1.00  0.00     0.210 HD
ENDBRANCH  10  13
BRANCH   8  15
HETATM   15  C6  UNL     1     -28.696 -16.869  -3.628  1.00  0.00    -0.023 A 
HETATM   16  C7  UNL     1     -28.527 -17.203  -4.957  1.00  0.00     0.010 A 
HETATM   17  C8  UNL     1     -29.265 -18.191  -5.580  1.00  0.00     0.004 A 
HETATM   18  C9  UNL     1     -30.203 -18.848  -4.796  1.00  0.00     0.042 A 
HETATM   19  C10 UNL     1     -30.373 -18.518  -3.475  1.00  0.00     0.117 A 
HETATM   20  F1  UNL     1     -31.294 -19.165  -2.710  1.00  0.00    -0.206 F 
HETATM   21  C11 UNL     1     -29.630 -17.531  -2.871  1.00  0.00     0.052 A 
ENDBRANCH   8  15
BRANCH   9  22
HETATM   22  O2  UNL     1     -28.385 -14.217  -4.800  1.00  0.00    -0.390 OA
ATOM     23  H2  UNL     1     -27.750 -13.588  -5.121  1.00  0.00     0.210 HD
ENDBRANCH   9  22
BRANCH  12  24
HETATM   24  C15 UNL     1     -22.383 -11.690  -4.809  1.00  0.00     0.189 C 
BRANCH  24  25
HETATM   25  O4  UNL     1     -23.377 -10.711  -4.659  1.00  0.00    -0.399 OA
ATOM     26  H4  UNL     1     -24.207 -11.117  -4.880  1.00  0.00     0.209 HD
ENDBRANCH  24  25
ENDBRANCH  12  24
TORSDOF 5
ENDMDL
MODEL 5
REMARK VINA RESULT: -6.621110091      3.113      3.635
REMARK  5 active torsions:
REMARK  status: ('A' for Active; 'I' for Inactive)
REMARK    1  A    between atoms: C5_8  and  C6_9 
REMARK    2  A    between atoms: C12_16  and  O2_17 
REMARK    3  A    between atoms: C13_19  and  O3_20 
REMARK    4  A    between atoms: C14_23  and  C15_24 
REMARK    5  A    between atoms: C15_24  and  O4_25 
ROOT
HETATM    1  C1  UNL     1     -30.422 -12.455   0.845  1.00  0.00     0.037 C 
HETATM    2  C2  UNL     1     -29.074 -11.927   0.488  1.00  0.00     0.066 C 
HETATM    3  C3  UNL     1     -29.165 -10.476   0.075  1.00  0.00     0.037 C 
HETATM    4  N1  UNL     1     -28.577 -12.752  -0.628  1.00  0.00    -0.108 NA
HETATM    5  N2  UNL     1     -28.129 -13.918   0.047  1.00  0.00    -0.181 N 
HETATM    6  C4  UNL     1     -28.067 -15.082  -0.521  1.00  0.00     0.182 C 
HETATM    7  O1  UNL     1     -28.402 -15.419  -1.825  1.00  0.00    -0.322 OA
HETATM    8  C5  UNL     1     -28.098 -16.799  -2.049  1.00  0.00     0.195 C 
HETATM    9  C12 UNL     1     -28.339 -17.370  -0.689  1.00  0.00     0.189 C 
HETATM   10  C13 UNL     1     -27.602 -16.320   0.160  1.00  0.00     0.227 C 
HETATM   11  N3  UNL     1     -27.786 -13.598   1.364  1.00  0.00    -0.110 NA
HETATM   12  C14 UNL     1     -28.011 -12.178   1.499  1.00  0.00     0.150 C 
ENDROOT
BRANCH  10  13
HETATM   13  O3  UNL     1     -26.227 -16.407  -0.064  1.00  0.00    -0.385 OA
ATOM     14  H3  UNL     1     -26.080 -17.216  -0.540  1.00  0.00     0.210 HD
ENDBRANCH  10  13
BRANCH   8  15
HETATM   15  C6  UNL     1     -28.927 -17.387  -3.109  1.00  0.00    -0.023 A 
HETATM   16  C7  UNL     1     -28.793 -16.895  -4.392  1.00  0.00     0.010 A 
HETATM   17  C8  UNL     1     -29.527 -17.379  -5.459  1.00  0.00     0.004 A 
HETATM   18  C9  UNL     1     -30.422 -18.401  -5.179  1.00  0.00     0.042 A 
HETATM   19  C10 UNL     1     -30.557 -18.891  -3.904  1.00  0.00     0.117 A 
HETATM   20  F1  UNL     1     -31.435 -19.894  -3.634  1.00  0.00    -0.206 F 
HETATM   21  C11 UNL     1     -29.819 -18.398  -2.854  1.00  0.00     0.052 A 
ENDBRANCH   8  15
BRANCH   9  22
HETATM   22  O2  UNL     1     -29.672 -17.276  -0.292  1.00  0.00    -0.390 OA
ATOM     23  H2  UNL     1     -29.912 -17.932   0.352  1.00  0.00     0.210 HD
ENDBRANCH   9  22
BRANCH  12  24
HETATM   24  C15 UNL     1     -28.347 -11.749   2.888  1.00  0.00     0.189 C 
BRANCH  24  25
HETATM   25  O4  UNL     1     -28.315 -12.896   3.697  1.00  0.00    -0.399 OA
ATOM     26  H4  UNL     1     -29.014 -12.810   4.334  1.00  0.00     0.209 HD
ENDBRANCH  24  25
ENDBRANCH  12  24
TORSDOF 5
ENDMDL
