MODEL 1
REMARK VINA RESULT: -7.083492395      0.000      0.000
REMARK  6 active torsions:
REMARK  status: ('A' for Active; 'I' for Inactive)
REMARK    1  A    between atoms: O1_1  and  C1_3 
REMARK    2  A    between atoms: C1_3  and  C2_4 
REMARK    3  A    between atoms: C3_6  and  N1_7 
REMARK    4  A    between atoms: C9_14  and  O3_15 
REMARK    5  A    between atoms: C10_17  and  O4_18 
REMARK    6  A    between atoms: C11_20  and  O5_21 
ROOT
HETATM    1  C2  UNL     1     -30.056 -18.686  -3.865  1.00  0.00     0.179 C 
HETATM    2  O2  UNL     1     -30.123 -17.668  -2.895  1.00  0.00    -0.354 OA
HETATM    3  C3  UNL     1     -28.856 -17.054  -2.854  1.00  0.00     0.259 C 
HETATM    4  C9  UNL     1     -28.421 -16.587  -4.207  1.00  0.00     0.198 C 
HETATM    5  C10 UNL     1     -29.579 -16.677  -5.157  1.00  0.00     0.182 C 
HETATM    6  C11 UNL     1     -30.015 -18.106  -5.266  1.00  0.00     0.180 C 
ENDROOT
BRANCH   3   7
HETATM    7  N1  UNL     1     -28.818 -16.028  -1.844  1.00  0.00    -0.336 N 
HETATM    8  C4  UNL     1     -28.268 -16.289  -0.623  1.00  0.00     0.093 A 
HETATM    9  C5  UNL     1     -28.245 -15.288   0.325  1.00  0.00     0.019 A 
HETATM   10  C6  UNL     1     -28.765 -14.033   0.069  1.00  0.00     0.022 A 
HETATM   11  C7  UNL     1     -29.320 -13.782  -1.168  1.00  0.00     0.026 A 
HETATM   12 BR1  UNL     1     -30.062 -12.082  -1.616  1.00  0.00    -0.050 Br
HETATM   13  C8  UNL     1     -29.322 -14.811  -2.090  1.00  0.00     0.112 A 
ENDBRANCH   3   7
BRANCH   4  14
HETATM   14  O3  UNL     1     -27.388 -17.361  -4.724  1.00  0.00    -0.388 OA
ATOM     15  H3  UNL     1     -26.957 -16.941  -5.460  1.00  0.00     0.210 HD
ENDBRANCH   4  14
BRANCH   1  16
HETATM   16  C1  UNL     1     -31.278 -19.576  -3.792  1.00  0.00     0.198 C 
BRANCH  16  17
HETATM   17  O1  UNL     1     -31.253 -20.403  -2.677  1.00  0.00    -0.398 OA
ATOM     18  H1  UNL     1     -32.108 -20.772  -2.489  1.00  0.00     0.209 HD
ENDBRANCH  16  17
ENDBRANCH   1  16
BRANCH   5  19
HETATM   19  O4  UNL     1     -29.190 -16.144  -6.384  1.00  0.00    -0.390 OA
ATOM     20  H4  UNL     1     -29.969 -15.928  -6.882  1.00  0.00     0.210 HD
ENDBRANCH   5  19
BRANCH   6  21
HETATM   21  O5  UNL     1     -31.303 -18.116  -5.820  1.00  0.00    -0.390 OA
ATOM     22  H5  UNL     1     -31.565 -17.230  -6.039  1.00  0.00     0.210 HD
ENDBRANCH   6  21
TORSDOF 6
ENDMDL
MODEL 2
REMARK VINA RESULT: -7.073753173      1.267      1.680
REMARK  6 active torsions:
REMARK  status: ('A' for Active; 'I' for Inactive)
REMARK    1  A    between atoms: O1_1  and  C1_3 
REMARK    2  A    between atoms: C1_3  and  C2_4 
REMARK    3  A    between atoms: C3_6  and  N1_7 
REMARK    4  A    between atoms: C9_14  and  O3_15 
REMARK    5  A    between atoms: C10_17  and  O4_18 
REMARK    6  A    between atoms: C11_20  and  O5_21 
ROOT
HETATM    1  C2  UNL     1     -30.044 -18.644  -3.803  1.00  0.00     0.179 C 
HETATM    2  O2  UNL     1     -30.173 -17.553  -2.924  1.00  0.00    -0.354 OA
HETATM    3  C3  UNL     1     -28.931 -16.888  -2.908  1.00  0.00     0.259 C 
HETATM    4  C9  UNL     1     -28.482 -16.518  -4.287  1.00  0.00     0.198 C 
HETATM    5  C10 UNL     1     -29.613 -16.731  -5.249  1.00  0.00     0.182 C 
HETATM    6  C11 UNL     1     -29.992 -18.181  -5.247  1.00  0.00     0.180 C 
ENDROOT
BRANCH   3   7
HETATM    7  N1  UNL     1     -28.955 -15.782  -1.987  1.00  0.00    -0.336 N 
HETATM    8  C4  UNL     1     -29.356 -14.548  -2.409  1.00  0.00     0.093 A 
HETATM    9  C5  UNL     1     -29.369 -13.506  -1.505  1.00  0.00     0.019 A 
HETATM   10  C6  UNL     1     -28.989 -13.682  -0.188  1.00  0.00     0.022 A 
HETATM   11  C7  UNL     1     -28.586 -14.934   0.227  1.00  0.00     0.026 A 
HETATM   12 BR1  UNL     1     -28.043 -15.276   2.023  1.00  0.00    -0.050 Br
HETATM   13  C8  UNL     1     -28.587 -15.950  -0.709  1.00  0.00     0.112 A 
ENDBRANCH   3   7
BRANCH   4  14
HETATM   14  O3  UNL     1     -27.408 -17.290  -4.716  1.00  0.00    -0.388 OA
ATOM     15  H3  UNL     1     -26.988 -17.752  -3.999  1.00  0.00     0.210 HD
ENDBRANCH   4  14
BRANCH   1  16
HETATM   16  C1  UNL     1     -31.233 -19.573  -3.681  1.00  0.00     0.198 C 
BRANCH  16  17
HETATM   17  O1  UNL     1     -31.138 -20.396  -2.567  1.00  0.00    -0.398 OA
ATOM     18  H1  UNL     1     -31.821 -20.215  -1.932  1.00  0.00     0.209 HD
ENDBRANCH  16  17
ENDBRANCH   1  16
BRANCH   5  19
HETATM   19  O4  UNL     1     -29.215 -16.287  -6.508  1.00  0.00    -0.390 OA
ATOM     20  H4  UNL     1     -29.694 -15.493  -6.714  1.00  0.00     0.210 HD
ENDBRANCH   5  19
BRANCH   6  21
HETATM   21  O5  UNL     1     -31.265 -18.287  -5.824  1.00  0.00    -0.390 OA
ATOM     22  H5  UNL     1     -31.925 -18.331  -5.141  1.00  0.00     0.210 HD
ENDBRANCH   6  21
TORSDOF 6
ENDMDL
MODEL 3
REMARK VINA RESULT: -6.937709530      3.131      4.060
REMARK  6 active torsions:
REMARK  status: ('A' for Active; 'I' for Inactive)
REMARK    1  A    between atoms: O1_1  and  C1_3 
REMARK    2  A    between atoms: C1_3  and  C2_4 
REMARK    3  A    between atoms: C3_6  and  N1_7 
REMARK    4  A    between atoms: C9_14  and  O3_15 
REMARK    5  A    between atoms: C10_17  and  O4_18 
REMARK    6  A    between atoms: C11_20  and  O5_21 
ROOT
HETATM    1  C2  UNL     1     -29.410 -17.222  -4.094  1.00  0.00     0.179 C 
HETATM    2  O2  UNL     1     -28.090 -16.745  -3.995  1.00  0.00    -0.354 OA
HETATM    3  C3  UNL     1     -28.142 -15.529  -3.284  1.00  0.00     0.259 C 
HETATM    4  C9  UNL     1     -28.840 -15.686  -1.969  1.00  0.00     0.198 C 
HETATM    5  C10 UNL     1     -29.040 -17.146  -1.687  1.00  0.00     0.182 C 
HETATM    6  C11 UNL     1     -29.906 -17.739  -2.757  1.00  0.00     0.180 C 
ENDROOT
BRANCH   3   7
HETATM    7  N1  UNL     1     -26.833 -14.940  -3.182  1.00  0.00    -0.336 N 
HETATM    8  C4  UNL     1     -26.437 -14.348  -2.018  1.00  0.00     0.093 A 
HETATM    9  C5  UNL     1     -25.177 -13.791  -1.950  1.00  0.00     0.019 A 
HETATM   10  C6  UNL     1     -24.310 -13.819  -3.026  1.00  0.00     0.022 A 
HETATM   11  C7  UNL     1     -24.722 -14.419  -4.197  1.00  0.00     0.026 A 
HETATM   12 BR1  UNL     1     -23.599 -14.507  -5.736  1.00  0.00    -0.050 Br
HETATM   13  C8  UNL     1     -25.991 -14.965  -4.225  1.00  0.00     0.112 A 
ENDBRANCH   3   7
BRANCH   4  14
HETATM   14  O3  UNL     1     -30.089 -15.077  -1.961  1.00  0.00    -0.388 OA
ATOM     15  H3  UNL     1     -30.140 -14.370  -1.327  1.00  0.00     0.210 HD
ENDBRANCH   4  14
BRANCH   1  16
HETATM   16  C1  UNL     1     -29.490 -18.376  -5.069  1.00  0.00     0.198 C 
BRANCH  16  17
HETATM   17  O1  UNL     1     -30.803 -18.748  -5.328  1.00  0.00    -0.398 OA
ATOM     18  H1  UNL     1     -30.857 -19.609  -5.725  1.00  0.00     0.209 HD
ENDBRANCH  16  17
ENDBRANCH   1  16
BRANCH   5  19
HETATM   19  O4  UNL     1     -29.596 -17.281  -0.416  1.00  0.00    -0.390 OA
ATOM     20  H4  UNL     1     -30.072 -18.102  -0.380  1.00  0.00     0.210 HD
ENDBRANCH   5  19
BRANCH   6  21
HETATM   21  O5  UNL     1     -29.755 -19.131  -2.702  1.00  0.00    -0.390 OA
ATOM     22  H5  UNL     1     -29.038 -19.399  -3.264  1.00  0.00     0.210 HD
ENDBRANCH   6  21
TORSDOF 6
ENDMDL
MODEL 4
REMARK VINA RESULT: -6.658450418      2.748      3.809
REMARK  6 active torsions:
REMARK  status: ('A' for Active; 'I' for Inactive)
REMARK    1  A    between atoms: O1_1  and  C1_3 
REMARK    2  A    between atoms: C1_3  and  C2_4 
REMARK    3  A    between atoms: C3_6  and  N1_7 
REMARK    4  A    between atoms: C9_14  and  O3_15 
REMARK    5  A    between atoms: C10_17  and  O4_18 
REMARK    6  A    between atoms: C11_20  and  O5_21 
ROOT
HETATM    1  C2  UNL     1     -29.511 -17.102  -4.089  1.00  0.00     0.179 C 
HETATM    2  O2  UNL     1     -28.257 -16.469  -4.167  1.00  0.00    -0.354 OA
HETATM    3  C3  UNL     1     -28.386 -15.219  -3.527  1.00  0.00     0.259 C 
HETATM    4  C9  UNL     1     -28.920 -15.361  -2.137  1.00  0.00     0.198 C 
HETATM    5  C10 UNL     1     -28.908 -16.809  -1.747  1.00  0.00     0.182 C 
HETATM    6  C11 UNL     1     -29.800 -17.575  -2.677  1.00  0.00     0.180 C 
ENDROOT
BRANCH   3   7
HETATM    7  N1  UNL     1     -27.156 -14.475  -3.606  1.00  0.00    -0.336 N 
HETATM    8  C4  UNL     1     -25.991 -15.110  -3.925  1.00  0.00     0.093 A 
HETATM    9  C5  UNL     1     -24.828 -14.372  -3.994  1.00  0.00     0.019 A 
HETATM   10  C6  UNL     1     -24.814 -13.012  -3.748  1.00  0.00     0.022 A 
HETATM   11  C7  UNL     1     -25.998 -12.382  -3.427  1.00  0.00     0.026 A 
HETATM   12 BR1  UNL     1     -26.081 -10.510  -3.071  1.00  0.00    -0.050 Br
HETATM   13  C8  UNL     1     -27.141 -13.156  -3.369  1.00  0.00     0.112 A 
ENDBRANCH   3   7
BRANCH   4  14
HETATM   14  O3  UNL     1     -30.228 -14.902  -2.027  1.00  0.00    -0.388 OA
ATOM     15  H3  UNL     1     -30.421 -14.570  -1.157  1.00  0.00     0.210 HD
ENDBRANCH   4  14
BRANCH   1  16
HETATM   16  C1  UNL     1     -29.547 -18.326  -4.979  1.00  0.00     0.198 C 
BRANCH  16  17
HETATM   17  O1  UNL     1     -30.832 -18.834  -5.113  1.00  0.00    -0.398 OA
ATOM     18  H1  UNL     1     -30.882 -19.748  -4.860  1.00  0.00     0.209 HD
ENDBRANCH  16  17
ENDBRANCH   1  16
BRANCH   5  19
HETATM   19  O4  UNL     1     -29.311 -16.915  -0.417  1.00  0.00    -0.390 OA
ATOM     20  H4  UNL     1     -28.807 -17.606  -0.003  1.00  0.00     0.210 HD
ENDBRANCH   5  19
BRANCH   6  21
HETATM   21  O5  UNL     1     -29.473 -18.932  -2.556  1.00  0.00    -0.390 OA
ATOM     22  H5  UNL     1     -30.116 -19.460  -3.015  1.00  0.00     0.210 HD
ENDBRANCH   6  21
TORSDOF 6
ENDMDL
MODEL 5
REMARK VINA RESULT: -6.537731901      3.372      4.537
REMARK  6 active torsions:
REMARK  status: ('A' for Active; 'I' for Inactive)
REMARK    1  A    between atoms: O1_1  and  C1_3 
REMARK    2  A    between atoms: C1_3  and  C2_4 
REMARK    3  A    between atoms: C3_6  and  N1_7 
REMARK    4  A    between atoms: C9_14  and  O3_15 
REMARK    5  A    between atoms: C10_17  and  O4_18 
REMARK    6  A    between atoms: C11_20  and  O5_21 
ROOT
HETATM    1  C2  UNL     1     -29.092 -16.352  -4.397  1.00  0.00     0.179 C 
HETATM    2  O2  UNL     1     -27.918 -15.575  -4.371  1.00  0.00    -0.354 OA
HETATM    3  C3  UNL     1     -28.206 -14.419  -3.619  1.00  0.00     0.259 C 
HETATM    4  C9  UNL     1     -28.750 -14.758  -2.267  1.00  0.00     0.198 C 
HETATM    5  C10 UNL     1     -28.578 -16.228  -2.019  1.00  0.00     0.182 C 
HETATM    6  C11 UNL     1     -29.354 -16.993  -3.048  1.00  0.00     0.180 C 
ENDROOT
BRANCH   3   7
HETATM    7  N1  UNL     1     -27.069 -13.536  -3.585  1.00  0.00    -0.336 N 
HETATM    8  C4  UNL     1     -27.219 -12.241  -3.183  1.00  0.00     0.093 A 
HETATM    9  C5  UNL     1     -26.113 -11.418  -3.161  1.00  0.00     0.019 A 
HETATM   10  C6  UNL     1     -24.861 -11.872  -3.534  1.00  0.00     0.022 A 
HETATM   11  C7  UNL     1     -24.722 -13.183  -3.939  1.00  0.00     0.026 A 
HETATM   12 BR1  UNL     1     -23.038 -13.901  -4.473  1.00  0.00    -0.050 Br
HETATM   13  C8  UNL     1     -25.855 -13.974  -3.947  1.00  0.00     0.112 A 
ENDBRANCH   3   7
BRANCH   4  14
HETATM   14  O3  UNL     1     -30.104 -14.464  -2.156  1.00  0.00    -0.388 OA
ATOM     15  H3  UNL     1     -30.555 -15.061  -1.569  1.00  0.00     0.210 HD
ENDBRANCH   4  14
BRANCH   1  16
HETATM   16  C1  UNL     1     -28.967 -17.476  -5.402  1.00  0.00     0.198 C 
BRANCH  16  17
HETATM   17  O1  UNL     1     -27.717 -17.499  -6.005  1.00  0.00    -0.398 OA
ATOM     18  H1  UNL     1     -27.184 -18.220  -5.692  1.00  0.00     0.209 HD
ENDBRANCH  16  17
ENDBRANCH   1  16
BRANCH   5  19
HETATM   19  O4  UNL     1     -28.994 -16.511  -0.720  1.00  0.00    -0.390 OA
ATOM     20  H4  UNL     1     -29.926 -16.691  -0.733  1.00  0.00     0.210 HD
ENDBRANCH   5  19
BRANCH   6  21
HETATM   21  O5  UNL     1     -28.875 -18.310  -3.048  1.00  0.00    -0.390 OA
ATOM     22  H5  UNL     1     -28.776 -18.616  -2.154  1.00  0.00     0.210 HD
ENDBRANCH   6  21
TORSDOF 6
ENDMDL
