MODEL 1
REMARK VINA RESULT: -7.138415772      0.000      0.000
REMARK  6 active torsions:
REMARK  status: ('A' for Active; 'I' for Inactive)
REMARK    1  A    between atoms: C2_4  and  C3_5 
REMARK    2  A    between atoms: C5_8  and  O2_9 
REMARK    3  A    between atoms: C6_11  and  N2_12 
REMARK    4  A    between atoms: N2_12  and  C7_14 
REMARK    5  A    between atoms: C9_18  and  C10_19 
REMARK    6  A    between atoms: C12_22  and  N4_23 
ROOT
HETATM    1  C10 UNL     1     -30.691 -18.776  -3.795  1.00  0.00    -0.026 C 
HETATM    2  C11 UNL     1     -31.549 -19.624  -3.744  1.00  0.00     0.111 C 
HETATM    3  F1  UNL     1     -32.495 -20.571  -3.668  1.00  0.00    -0.143 F 
ENDROOT
BRANCH   1   4
HETATM    4  C9  UNL     1     -29.672 -17.755  -3.846  1.00  0.00     0.080 A 
HETATM    5  C8  UNL     1     -29.166 -17.382  -5.067  1.00  0.00     0.130 A 
HETATM    6  N3  UNL     1     -28.214 -16.428  -5.120  1.00  0.00    -0.200 N 
HETATM    7  C7  UNL     1     -27.725 -15.813  -4.020  1.00  0.00     0.680 A 
ATOM      8  H3  UNL     1     -27.845 -16.158  -6.032  1.00  0.00     0.183 HD
HETATM    9  N5  UNL     1     -28.235 -16.194  -2.831  1.00  0.00    -0.176 N 
HETATM   10  C12 UNL     1     -29.194 -17.147  -2.707  1.00  0.00     0.135 A 
ATOM     11  H5  UNL     1     -27.884 -15.745  -1.986  1.00  0.00     0.186 HD
BRANCH   7  12
HETATM   12  N2  UNL     1     -26.822 -14.909  -4.086  1.00  0.00    -0.215 N 
ATOM     13  H2  UNL     1     -27.032 -14.085  -4.648  1.00  0.00     0.178 HD
BRANCH  12  14
HETATM   14  C6  UNL     1     -25.554 -14.948  -3.447  1.00  0.00     0.170 C 
HETATM   15  C3  UNL     1     -24.540 -14.017  -4.070  1.00  0.00     0.122 C 
HETATM   16  O1  UNL     1     -23.589 -13.901  -3.062  1.00  0.00    -0.364 OA
HETATM   17  C13 UNL     1     -25.041 -12.653  -3.654  1.00  0.00     0.055 C 
HETATM   18  C4  UNL     1     -24.557 -13.203  -2.348  1.00  0.00     0.161 C 
HETATM   19  C5  UNL     1     -25.573 -14.308  -2.048  1.00  0.00     0.174 C 
HETATM   20  C14 UNL     1     -24.188 -11.496  -4.101  1.00  0.00     0.016 C 
BRANCH  15  21
HETATM   21  C2  UNL     1     -24.132 -14.223  -5.423  1.00  0.00     0.095 C 
HETATM   22  N1  UNL     1     -22.932 -14.510  -5.752  1.00  0.00    -0.404 N 
HETATM   23  C1  UNL     1     -21.885 -14.651  -4.792  1.00  0.00     0.145 C 
ATOM     24  H1  UNL     1     -22.713 -14.643  -6.740  1.00  0.00     0.158 HD
ENDBRANCH  15  21
BRANCH  19  25
HETATM   25  O2  UNL     1     -26.760 -13.708  -1.756  1.00  0.00    -0.391 OA
ATOM     26  H2  UNL     1     -26.894 -13.778  -0.818  1.00  0.00     0.210 HD
ENDBRANCH  19  25
ENDBRANCH  12  14
ENDBRANCH   7  12
BRANCH  10  27
HETATM   27  N4  UNL     1     -29.672 -17.502  -1.577  1.00  0.00    -0.384 N 
ATOM     28  H42 UNL     1     -29.490 -18.417  -1.164  1.00  0.00     0.157 HD
ATOM     29  H41 UNL     1     -30.260 -16.844  -1.066  1.00  0.00     0.157 HD
ENDBRANCH  10  27
ENDBRANCH   1   4
TORSDOF 6
ENDMDL
MODEL 2
REMARK VINA RESULT: -6.826611672      1.484      2.885
REMARK  6 active torsions:
REMARK  status: ('A' for Active; 'I' for Inactive)
REMARK    1  A    between atoms: C2_4  and  C3_5 
REMARK    2  A    between atoms: C5_8  and  O2_9 
REMARK    3  A    between atoms: C6_11  and  N2_12 
REMARK    4  A    between atoms: N2_12  and  C7_14 
REMARK    5  A    between atoms: C9_18  and  C10_19 
REMARK    6  A    between atoms: C12_22  and  N4_23 
ROOT
HETATM    1  C10 UNL     1     -30.672 -18.835  -3.678  1.00  0.00    -0.026 C 
HETATM    2  C11 UNL     1     -31.624 -19.576  -3.714  1.00  0.00     0.111 C 
HETATM    3  F1  UNL     1     -32.670 -20.416  -3.748  1.00  0.00    -0.143 F 
ENDROOT
BRANCH   1   4
HETATM    4  C9  UNL     1     -29.532 -17.951  -3.620  1.00  0.00     0.080 A 
HETATM    5  C8  UNL     1     -28.876 -17.637  -4.785  1.00  0.00     0.130 A 
HETATM    6  N3  UNL     1     -27.810 -16.811  -4.736  1.00  0.00    -0.200 N 
HETATM    7  C7  UNL     1     -27.349 -16.271  -3.586  1.00  0.00     0.680 A 
ATOM      8  H3  UNL     1     -27.330 -16.584  -5.607  1.00  0.00     0.183 HD
HETATM    9  N5  UNL     1     -28.008 -16.592  -2.454  1.00  0.00    -0.176 N 
HETATM   10  C12 UNL     1     -29.086 -17.416  -2.432  1.00  0.00     0.135 A 
ATOM     11  H5  UNL     1     -27.681 -16.196  -1.573  1.00  0.00     0.186 HD
BRANCH   7  12
HETATM   12  N2  UNL     1     -26.337 -15.488  -3.556  1.00  0.00    -0.215 N 
ATOM     13  H2  UNL     1     -25.446 -15.893  -3.269  1.00  0.00     0.178 HD
BRANCH  12  14
HETATM   14  C6  UNL     1     -26.341 -14.106  -3.884  1.00  0.00     0.170 C 
HETATM   15  C3  UNL     1     -26.204 -13.203  -2.680  1.00  0.00     0.122 C 
HETATM   16  O1  UNL     1     -25.801 -12.004  -3.256  1.00  0.00    -0.364 OA
HETATM   17  C13 UNL     1     -24.763 -13.409  -2.273  1.00  0.00     0.055 C 
HETATM   18  C4  UNL     1     -24.604 -12.649  -3.553  1.00  0.00     0.161 C 
HETATM   19  C5  UNL     1     -25.057 -13.663  -4.607  1.00  0.00     0.174 C 
HETATM   20  C14 UNL     1     -24.309 -12.585  -1.097  1.00  0.00     0.016 C 
BRANCH  15  21
HETATM   21  C2  UNL     1     -27.218 -13.212  -1.674  1.00  0.00     0.095 C 
HETATM   22  N1  UNL     1     -28.464 -13.127  -1.941  1.00  0.00    -0.404 N 
HETATM   23  C1  UNL     1     -28.958 -13.014  -3.276  1.00  0.00     0.145 C 
ATOM     24  H1  UNL     1     -29.132 -13.139  -1.170  1.00  0.00     0.158 HD
ENDBRANCH  15  21
BRANCH  19  25
HETATM   25  O2  UNL     1     -24.115 -14.645  -4.664  1.00  0.00    -0.391 OA
ATOM     26  H2  UNL     1     -24.520 -15.449  -4.360  1.00  0.00     0.210 HD
ENDBRANCH  19  25
ENDBRANCH  12  14
ENDBRANCH   7  12
BRANCH  10  27
HETATM   27  N4  UNL     1     -29.705 -17.715  -1.356  1.00  0.00    -0.384 N 
ATOM     28  H42 UNL     1     -29.896 -17.033  -0.622  1.00  0.00     0.157 HD
ATOM     29  H41 UNL     1     -30.022 -18.675  -1.224  1.00  0.00     0.157 HD
ENDBRANCH  10  27
ENDBRANCH   1   4
TORSDOF 6
ENDMDL
MODEL 3
REMARK VINA RESULT: -6.713238416      3.918      7.024
REMARK  6 active torsions:
REMARK  status: ('A' for Active; 'I' for Inactive)
REMARK    1  A    between atoms: C2_4  and  C3_5 
REMARK    2  A    between atoms: C5_8  and  O2_9 
REMARK    3  A    between atoms: C6_11  and  N2_12 
REMARK    4  A    between atoms: N2_12  and  C7_14 
REMARK    5  A    between atoms: C9_18  and  C10_19 
REMARK    6  A    between atoms: C12_22  and  N4_23 
ROOT
HETATM    1  C10 UNL     1     -23.251 -11.951  -5.101  1.00  0.00    -0.026 C 
HETATM    2  C11 UNL     1     -22.593 -11.121  -5.679  1.00  0.00     0.111 C 
HETATM    3  F1  UNL     1     -21.865 -10.209  -6.340  1.00  0.00    -0.143 F 
ENDROOT
BRANCH   1   4
HETATM    4  C9  UNL     1     -24.050 -12.941  -4.417  1.00  0.00     0.080 A 
HETATM    5  C8  UNL     1     -24.540 -12.650  -3.167  1.00  0.00     0.130 A 
HETATM    6  N3  UNL     1     -25.287 -13.571  -2.524  1.00  0.00    -0.200 N 
HETATM    7  C7  UNL     1     -25.580 -14.781  -3.052  1.00  0.00     0.680 A 
ATOM      8  H3  UNL     1     -25.647 -13.345  -1.597  1.00  0.00     0.183 HD
HETATM    9  N5  UNL     1     -25.089 -15.046  -4.279  1.00  0.00    -0.176 N 
HETATM   10  C12 UNL     1     -24.332 -14.165  -4.981  1.00  0.00     0.135 A 
ATOM     11  H5  UNL     1     -25.297 -15.951  -4.700  1.00  0.00     0.186 HD
BRANCH   7  12
HETATM   12  N2  UNL     1     -26.291 -15.644  -2.429  1.00  0.00    -0.215 N 
ATOM     13  H2  UNL     1     -25.835 -16.517  -2.167  1.00  0.00     0.178 HD
BRANCH  12  14
HETATM   14  C6  UNL     1     -27.657 -15.497  -2.071  1.00  0.00     0.170 C 
HETATM   15  C3  UNL     1     -28.601 -15.601  -3.247  1.00  0.00     0.122 C 
HETATM   16  O1  UNL     1     -29.816 -15.866  -2.627  1.00  0.00    -0.364 OA
HETATM   17  C13 UNL     1     -28.539 -17.071  -3.594  1.00  0.00     0.055 C 
HETATM   18  C4  UNL     1     -29.276 -17.103  -2.291  1.00  0.00     0.161 C 
HETATM   19  C5  UNL     1     -28.198 -16.703  -1.282  1.00  0.00     0.174 C 
HETATM   20  C14 UNL     1     -29.432 -17.496  -4.730  1.00  0.00     0.016 C 
BRANCH  15  21
HETATM   21  C2  UNL     1     -28.524 -14.636  -4.297  1.00  0.00     0.095 C 
HETATM   22  N1  UNL     1     -28.677 -13.383  -4.104  1.00  0.00    -0.404 N 
HETATM   23  C1  UNL     1     -28.938 -12.831  -2.813  1.00  0.00     0.145 C 
ATOM     24  H1  UNL     1     -28.610 -12.752  -4.903  1.00  0.00     0.158 HD
ENDBRANCH  15  21
BRANCH  19  25
HETATM   25  O2  UNL     1     -27.305 -17.729  -1.204  1.00  0.00    -0.391 OA
ATOM     26  H2  UNL     1     -27.601 -18.314  -0.517  1.00  0.00     0.210 HD
ENDBRANCH  19  25
ENDBRANCH  12  14
ENDBRANCH   7  12
BRANCH  10  27
HETATM   27  N4  UNL     1     -23.870 -14.424  -6.143  1.00  0.00    -0.384 N 
ATOM     28  H42 UNL     1     -23.722 -13.705  -6.851  1.00  0.00     0.157 HD
ATOM     29  H41 UNL     1     -23.640 -15.391  -6.374  1.00  0.00     0.157 HD
ENDBRANCH  10  27
ENDBRANCH   1   4
TORSDOF 6
ENDMDL
MODEL 4
REMARK VINA RESULT: -6.703608593      4.808      7.266
REMARK  6 active torsions:
REMARK  status: ('A' for Active; 'I' for Inactive)
REMARK    1  A    between atoms: C2_4  and  C3_5 
REMARK    2  A    between atoms: C5_8  and  O2_9 
REMARK    3  A    between atoms: C6_11  and  N2_12 
REMARK    4  A    between atoms: N2_12  and  C7_14 
REMARK    5  A    between atoms: C9_18  and  C10_19 
REMARK    6  A    between atoms: C12_22  and  N4_23 
ROOT
HETATM    1  C10 UNL     1     -29.285  -9.370  -0.166  1.00  0.00    -0.026 C 
HETATM    2  C11 UNL     1     -29.258  -8.290   0.373  1.00  0.00     0.111 C 
HETATM    3  F1  UNL     1     -29.222  -7.100   0.990  1.00  0.00    -0.143 F 
ENDROOT
BRANCH   1   4
HETATM    4  C9  UNL     1     -29.302 -10.663  -0.809  1.00  0.00     0.080 A 
HETATM    5  C8  UNL     1     -30.429 -11.441  -0.703  1.00  0.00     0.130 A 
HETATM    6  N3  UNL     1     -30.450 -12.650  -1.301  1.00  0.00    -0.200 N 
HETATM    7  C7  UNL     1     -29.407 -13.141  -2.007  1.00  0.00     0.680 A 
ATOM      8  H3  UNL     1     -31.292 -13.220  -1.217  1.00  0.00     0.183 HD
HETATM    9  N5  UNL     1     -28.312 -12.361  -2.098  1.00  0.00    -0.176 N 
HETATM   10  C12 UNL     1     -28.223 -11.136  -1.521  1.00  0.00     0.135 A 
ATOM     11  H5  UNL     1     -27.511 -12.708  -2.626  1.00  0.00     0.186 HD
BRANCH   7  12
HETATM   12  N2  UNL     1     -29.443 -14.290  -2.570  1.00  0.00    -0.215 N 
ATOM     13  H2  UNL     1     -30.315 -14.554  -3.028  1.00  0.00     0.178 HD
BRANCH  12  14
HETATM   14  C6  UNL     1     -28.379 -15.230  -2.614  1.00  0.00     0.170 C 
HETATM   15  C3  UNL     1     -28.844 -16.652  -2.827  1.00  0.00     0.122 C 
HETATM   16  O1  UNL     1     -27.683 -17.279  -3.264  1.00  0.00    -0.364 OA
HETATM   17  C13 UNL     1     -29.295 -16.642  -4.269  1.00  0.00     0.055 C 
HETATM   18  C4  UNL     1     -27.811 -16.518  -4.422  1.00  0.00     0.161 C 
HETATM   19  C5  UNL     1     -27.533 -15.109  -3.894  1.00  0.00     0.174 C 
HETATM   20  C14 UNL     1     -29.782 -17.967  -4.794  1.00  0.00     0.016 C 
BRANCH  15  21
HETATM   21  C2  UNL     1     -29.672 -17.276  -1.845  1.00  0.00     0.095 C 
HETATM   22  N1  UNL     1     -29.295 -17.475  -0.641  1.00  0.00    -0.404 N 
HETATM   23  C1  UNL     1     -28.005 -17.089  -0.167  1.00  0.00     0.145 C 
ATOM     24  H1  UNL     1     -29.941 -17.928   0.006  1.00  0.00     0.158 HD
ENDBRANCH  15  21
BRANCH  19  25
HETATM   25  O2  UNL     1     -28.051 -14.224  -4.791  1.00  0.00    -0.391 OA
ATOM     26  H2  UNL     1     -27.489 -13.459  -4.796  1.00  0.00     0.210 HD
ENDBRANCH  19  25
ENDBRANCH  12  14
ENDBRANCH   7  12
BRANCH  10  27
HETATM   27  N4  UNL     1     -27.181 -10.403  -1.612  1.00  0.00    -0.384 N 
ATOM     28  H42 UNL     1     -26.911  -9.736  -0.889  1.00  0.00     0.157 HD
ATOM     29  H41 UNL     1     -26.594 -10.489  -2.442  1.00  0.00     0.157 HD
ENDBRANCH  10  27
ENDBRANCH   1   4
TORSDOF 6
ENDMDL
MODEL 5
REMARK VINA RESULT: -6.570315010      1.003      1.602
REMARK  6 active torsions:
REMARK  status: ('A' for Active; 'I' for Inactive)
REMARK    1  A    between atoms: C2_4  and  C3_5 
REMARK    2  A    between atoms: C5_8  and  O2_9 
REMARK    3  A    between atoms: C6_11  and  N2_12 
REMARK    4  A    between atoms: N2_12  and  C7_14 
REMARK    5  A    between atoms: C9_18  and  C10_19 
REMARK    6  A    between atoms: C12_22  and  N4_23 
ROOT
HETATM    1  C10 UNL     1     -30.138 -18.252  -3.797  1.00  0.00    -0.026 C 
HETATM    2  C11 UNL     1     -30.944 -19.144  -3.909  1.00  0.00     0.111 C 
HETATM    3  F1  UNL     1     -31.845 -20.131  -4.014  1.00  0.00    -0.143 F 
ENDROOT
BRANCH   1   4
HETATM    4  C9  UNL     1     -29.186 -17.175  -3.661  1.00  0.00     0.080 A 
HETATM    5  C8  UNL     1     -29.183 -16.433  -2.505  1.00  0.00     0.130 A 
HETATM    6  N3  UNL     1     -28.296 -15.426  -2.373  1.00  0.00    -0.200 N 
HETATM    7  C7  UNL     1     -27.399 -15.104  -3.331  1.00  0.00     0.680 A 
ATOM      8  H3  UNL     1     -28.302 -14.882  -1.510  1.00  0.00     0.183 HD
HETATM    9  N5  UNL     1     -27.418 -15.845  -4.458  1.00  0.00    -0.176 N 
HETATM   10  C12 UNL     1     -28.284 -16.871  -4.656  1.00  0.00     0.135 A 
ATOM     11  H5  UNL     1     -26.751 -15.623  -5.196  1.00  0.00     0.186 HD
BRANCH   7  12
HETATM   12  N2  UNL     1     -26.562 -14.146  -3.191  1.00  0.00    -0.215 N 
ATOM     13  H2  UNL     1     -26.900 -13.204  -3.386  1.00  0.00     0.178 HD
BRANCH  12  14
HETATM   14  C6  UNL     1     -25.206 -14.275  -2.790  1.00  0.00     0.170 C 
HETATM   15  C3  UNL     1     -24.228 -13.687  -3.780  1.00  0.00     0.122 C 
HETATM   16  O1  UNL     1     -23.082 -13.534  -3.008  1.00  0.00    -0.364 OA
HETATM   17  C13 UNL     1     -24.447 -12.200  -3.621  1.00  0.00     0.055 C 
HETATM   18  C4  UNL     1     -23.780 -12.543  -2.325  1.00  0.00     0.161 C 
HETATM   19  C5  UNL     1     -24.849 -13.365  -1.601  1.00  0.00     0.174 C 
HETATM   20  C14 UNL     1     -23.559 -11.330  -4.471  1.00  0.00     0.016 C 
BRANCH  15  21
HETATM   21  C2  UNL     1     -24.141 -14.238  -5.095  1.00  0.00     0.095 C 
HETATM   22  N1  UNL     1     -23.053 -14.687  -5.591  1.00  0.00    -0.404 N 
HETATM   23  C1  UNL     1     -21.820 -14.679  -4.870  1.00  0.00     0.145 C 
ATOM     24  H1  UNL     1     -23.066 -15.067  -6.538  1.00  0.00     0.158 HD
ENDBRANCH  15  21
BRANCH  19  25
HETATM   25  O2  UNL     1     -25.859 -12.517  -1.260  1.00  0.00    -0.391 OA
ATOM     26  H2  UNL     1     -26.584 -12.684  -1.850  1.00  0.00     0.210 HD
ENDBRANCH  19  25
ENDBRANCH  12  14
ENDBRANCH   7  12
BRANCH  10  27
HETATM   27  N4  UNL     1     -28.296 -17.568  -5.726  1.00  0.00    -0.384 N 
ATOM     28  H42 UNL     1     -28.216 -17.154  -6.655  1.00  0.00     0.157 HD
ATOM     29  H41 UNL     1     -28.389 -18.581  -5.650  1.00  0.00     0.157 HD
ENDBRANCH  10  27
ENDBRANCH   1   4
TORSDOF 6
ENDMDL
