MODEL 1
REMARK VINA RESULT: -7.646079098      0.000      0.000
REMARK  8 active torsions:
REMARK  status: ('A' for Active; 'I' for Inactive)
REMARK    1  A    between atoms: C4_5  and  C5_6 
REMARK    2  A    between atoms: N2_9  and  C8_10 
REMARK    3  A    between atoms: C9_12  and  C10_13 
REMARK    4  A    between atoms: C10_13  and  O2_14 
REMARK    5  A    between atoms: C11_16  and  O3_17 
REMARK    6  A    between atoms: C12_19  and  O4_20 
REMARK    7  A    between atoms: C13_22  and  O5_23 
REMARK    8  A    between atoms: N3_29  and  O6_30 
ROOT
HETATM    1  N1  UNL     1     -29.995 -18.818  -5.118  1.00  0.00    -0.190 NA
HETATM    2  C1  UNL     1     -29.474 -18.274  -4.240  1.00  0.00     0.120 C 
HETATM    3  C2  UNL     1     -28.796 -17.600  -3.148  1.00  0.00     0.142 A 
HETATM    4  C3  UNL     1     -27.657 -16.856  -3.355  1.00  0.00     0.056 A 
HETATM    5  C4  UNL     1     -26.968 -16.193  -2.359  1.00  0.00    -0.022 A 
HETATM    6  C16 UNL     1     -27.468 -16.294  -1.081  1.00  0.00     0.032 A 
HETATM    7  C17 UNL     1     -28.611 -17.045  -0.894  1.00  0.00     0.125 A 
HETATM    8  N3  UNL     1     -29.258 -17.678  -1.888  1.00  0.00    -0.226 N 
ENDROOT
BRANCH   8   9
HETATM    9  O6  UNL     1     -30.399 -18.422  -1.674  1.00  0.00    -0.282 OA
ATOM     10  H6  UNL     1     -30.657 -18.577  -0.773  1.00  0.00     0.245 HD
ENDBRANCH   8   9
BRANCH   5  11
HETATM   11  C5  UNL     1     -25.768 -15.428  -2.675  1.00  0.00    -0.023 A 
HETATM   12  C6  UNL     1     -25.052 -14.726  -1.738  1.00  0.00     0.029 A 
HETATM   13  C7  UNL     1     -23.928 -14.033  -2.136  1.00  0.00     0.094 A 
HETATM   14  N2  UNL     1     -23.487 -14.003  -3.406  1.00  0.00    -0.337 N 
HETATM   15  C14 UNL     1     -24.168 -14.680  -4.345  1.00  0.00     0.094 A 
HETATM   16  C15 UNL     1     -25.302 -15.389  -3.979  1.00  0.00     0.029 A 
BRANCH  14  17
HETATM   17  C8  UNL     1     -22.289 -13.253  -3.784  1.00  0.00     0.259 C 
HETATM   18  O1  UNL     1     -21.218 -14.004  -3.411  1.00  0.00    -0.354 OA
HETATM   19  C9  UNL     1     -20.024 -13.598  -3.961  1.00  0.00     0.179 C 
HETATM   20  C11 UNL     1     -20.136 -13.914  -5.459  1.00  0.00     0.180 C 
HETATM   21  C12 UNL     1     -21.119 -12.916  -5.991  1.00  0.00     0.182 C 
HETATM   22  C13 UNL     1     -22.380 -12.857  -5.200  1.00  0.00     0.198 C 
BRANCH  19  23
HETATM   23  C10 UNL     1     -18.831 -14.286  -3.360  1.00  0.00     0.198 C 
BRANCH  23  24
HETATM   24  O2  UNL     1     -19.105 -15.617  -3.166  1.00  0.00    -0.398 OA
ATOM     25  H2  UNL     1     -19.883 -15.714  -2.629  1.00  0.00     0.209 HD
ENDBRANCH  23  24
ENDBRANCH  19  23
BRANCH  20  26
HETATM   26  O3  UNL     1     -20.738 -15.180  -5.562  1.00  0.00    -0.390 OA
ATOM     27  H3  UNL     1     -21.081 -15.249  -6.445  1.00  0.00     0.210 HD
ENDBRANCH  20  26
BRANCH  21  28
HETATM   28  O4  UNL     1     -20.498 -11.649  -5.914  1.00  0.00    -0.390 OA
ATOM     29  H4  UNL     1     -21.190 -11.000  -5.963  1.00  0.00     0.210 HD
ENDBRANCH  21  28
BRANCH  22  30
HETATM   30  O5  UNL     1     -22.861 -11.528  -5.303  1.00  0.00    -0.388 OA
ATOM     31  H5  UNL     1     -23.248 -11.388  -6.159  1.00  0.00     0.210 HD
ENDBRANCH  22  30
ENDBRANCH  14  17
ENDBRANCH   5  11
TORSDOF 8
ENDMDL
MODEL 2
REMARK VINA RESULT: -7.428267338      0.904      1.367
REMARK  8 active torsions:
REMARK  status: ('A' for Active; 'I' for Inactive)
REMARK    1  A    between atoms: C4_5  and  C5_6 
REMARK    2  A    between atoms: N2_9  and  C8_10 
REMARK    3  A    between atoms: C9_12  and  C10_13 
REMARK    4  A    between atoms: C10_13  and  O2_14 
REMARK    5  A    between atoms: C11_16  and  O3_17 
REMARK    6  A    between atoms: C12_19  and  O4_20 
REMARK    7  A    between atoms: C13_22  and  O5_23 
REMARK    8  A    between atoms: N3_29  and  O6_30 
ROOT
HETATM    1  N1  UNL     1     -30.003 -18.830  -5.012  1.00  0.00    -0.190 NA
HETATM    2  C1  UNL     1     -29.464 -18.267  -4.158  1.00  0.00     0.120 C 
HETATM    3  C2  UNL     1     -28.762 -17.570  -3.095  1.00  0.00     0.142 A 
HETATM    4  C3  UNL     1     -27.635 -16.821  -3.345  1.00  0.00     0.056 A 
HETATM    5  C4  UNL     1     -26.925 -16.136  -2.379  1.00  0.00    -0.022 A 
HETATM    6  C16 UNL     1     -27.392 -16.218  -1.086  1.00  0.00     0.032 A 
HETATM    7  C17 UNL     1     -28.524 -16.973  -0.857  1.00  0.00     0.125 A 
HETATM    8  N3  UNL     1     -29.191 -17.628  -1.822  1.00  0.00    -0.226 N 
ENDROOT
BRANCH   8   9
HETATM    9  O6  UNL     1     -30.321 -18.376  -1.567  1.00  0.00    -0.282 OA
ATOM     10  H6  UNL     1     -30.731 -18.271  -0.716  1.00  0.00     0.245 HD
ENDBRANCH   8   9
BRANCH   5  11
HETATM   11  C5  UNL     1     -25.739 -15.368  -2.739  1.00  0.00    -0.023 A 
HETATM   12  C6  UNL     1     -25.317 -15.197  -4.033  1.00  0.00     0.029 A 
HETATM   13  C7  UNL     1     -24.181 -14.451  -4.272  1.00  0.00     0.094 A 
HETATM   14  N2  UNL     1     -23.455 -13.874  -3.299  1.00  0.00    -0.337 N 
HETATM   15  C14 UNL     1     -23.845 -14.024  -2.023  1.00  0.00     0.094 A 
HETATM   16  C15 UNL     1     -24.982 -14.768  -1.747  1.00  0.00     0.029 A 
BRANCH  14  17
HETATM   17  C8  UNL     1     -22.256 -13.091  -3.599  1.00  0.00     0.259 C 
HETATM   18  O1  UNL     1     -21.322 -13.960  -4.070  1.00  0.00    -0.354 OA
HETATM   19  C9  UNL     1     -20.248 -13.358  -4.685  1.00  0.00     0.179 C 
HETATM   20  C11 UNL     1     -20.807 -12.750  -5.978  1.00  0.00     0.180 C 
HETATM   21  C12 UNL     1     -21.644 -11.591  -5.529  1.00  0.00     0.182 C 
HETATM   22  C13 UNL     1     -22.614 -11.949  -4.458  1.00  0.00     0.198 C 
BRANCH  19  23
HETATM   23  C10 UNL     1     -19.127 -14.313  -4.986  1.00  0.00     0.198 C 
BRANCH  23  24
HETATM   24  O2  UNL     1     -19.534 -15.234  -5.918  1.00  0.00    -0.398 OA
ATOM     25  H2  UNL     1     -19.028 -15.134  -6.717  1.00  0.00     0.209 HD
ENDBRANCH  23  24
ENDBRANCH  19  23
BRANCH  20  26
HETATM   26  O3  UNL     1     -21.684 -13.702  -6.528  1.00  0.00    -0.390 OA
ATOM     27  H3  UNL     1     -21.987 -13.349  -7.356  1.00  0.00     0.210 HD
ENDBRANCH  20  26
BRANCH  21  28
HETATM   28  O4  UNL     1     -20.756 -10.624  -5.007  1.00  0.00    -0.390 OA
ATOM     29  H4  UNL     1     -21.139 -10.308  -4.197  1.00  0.00     0.210 HD
ENDBRANCH  21  28
BRANCH  22  30
HETATM   30  O5  UNL     1     -22.795 -10.785  -3.670  1.00  0.00    -0.388 OA
ATOM     31  H5  UNL     1     -23.003 -11.026  -2.775  1.00  0.00     0.210 HD
ENDBRANCH  22  30
ENDBRANCH  14  17
ENDBRANCH   5  11
TORSDOF 8
ENDMDL
MODEL 3
REMARK VINA RESULT: -7.416053677      1.021      1.315
REMARK  8 active torsions:
REMARK  status: ('A' for Active; 'I' for Inactive)
REMARK    1  A    between atoms: C4_5  and  C5_6 
REMARK    2  A    between atoms: N2_9  and  C8_10 
REMARK    3  A    between atoms: C9_12  and  C10_13 
REMARK    4  A    between atoms: C10_13  and  O2_14 
REMARK    5  A    between atoms: C11_16  and  O3_17 
REMARK    6  A    between atoms: C12_19  and  O4_20 
REMARK    7  A    between atoms: C13_22  and  O5_23 
REMARK    8  A    between atoms: N3_29  and  O6_30 
ROOT
HETATM    1  N1  UNL     1     -29.881 -18.912  -5.061  1.00  0.00    -0.190 NA
HETATM    2  C1  UNL     1     -29.350 -18.231  -4.292  1.00  0.00     0.120 C 
HETATM    3  C2  UNL     1     -28.659 -17.385  -3.335  1.00  0.00     0.142 A 
HETATM    4  C3  UNL     1     -27.603 -16.585  -3.710  1.00  0.00     0.056 A 
HETATM    5  C4  UNL     1     -26.907 -15.760  -2.849  1.00  0.00    -0.022 A 
HETATM    6  C16 UNL     1     -27.311 -15.749  -1.533  1.00  0.00     0.032 A 
HETATM    7  C17 UNL     1     -28.371 -16.557  -1.178  1.00  0.00     0.125 A 
HETATM    8  N3  UNL     1     -29.027 -17.350  -2.043  1.00  0.00    -0.226 N 
ENDROOT
BRANCH   8   9
HETATM    9  O6  UNL     1     -30.085 -18.148  -1.662  1.00  0.00    -0.282 OA
ATOM     10  H6  UNL     1     -30.233 -18.944  -2.159  1.00  0.00     0.245 HD
ENDBRANCH   8   9
BRANCH   5  11
HETATM   11  C5  UNL     1     -25.800 -14.948  -3.339  1.00  0.00    -0.023 A 
HETATM   12  C6  UNL     1     -24.909 -15.382  -4.288  1.00  0.00     0.029 A 
HETATM   13  C7  UNL     1     -23.893 -14.537  -4.687  1.00  0.00     0.094 A 
HETATM   14  N2  UNL     1     -23.724 -13.298  -4.195  1.00  0.00    -0.337 N 
HETATM   15  C14 UNL     1     -24.581 -12.846  -3.265  1.00  0.00     0.094 A 
HETATM   16  C15 UNL     1     -25.614 -13.669  -2.842  1.00  0.00     0.029 A 
BRANCH  14  17
HETATM   17  C8  UNL     1     -22.632 -12.436  -4.648  1.00  0.00     0.259 C 
HETATM   18  O1  UNL     1     -21.494 -12.899  -4.066  1.00  0.00    -0.354 OA
HETATM   19  C9  UNL     1     -20.334 -12.402  -4.617  1.00  0.00     0.179 C 
HETATM   20  C11 UNL     1     -20.254 -13.017  -6.021  1.00  0.00     0.180 C 
HETATM   21  C12 UNL     1     -21.332 -12.331  -6.804  1.00  0.00     0.182 C 
HETATM   22  C13 UNL     1     -22.653 -12.343  -6.118  1.00  0.00     0.198 C 
BRANCH  19  23
HETATM   23  C10 UNL     1     -19.107 -12.740  -3.817  1.00  0.00     0.198 C 
BRANCH  23  24
HETATM   24  O2  UNL     1     -19.241 -13.985  -3.256  1.00  0.00    -0.398 OA
ATOM     25  H2  UNL     1     -18.633 -14.592  -3.663  1.00  0.00     0.209 HD
ENDBRANCH  23  24
ENDBRANCH  19  23
BRANCH  20  26
HETATM   26  O3  UNL     1     -20.632 -14.365  -5.895  1.00  0.00    -0.390 OA
ATOM     27  H3  UNL     1     -21.444 -14.468  -6.377  1.00  0.00     0.210 HD
ENDBRANCH  20  26
BRANCH  21  28
HETATM   28  O4  UNL     1     -20.933 -10.984  -6.955  1.00  0.00    -0.390 OA
ATOM     29  H4  UNL     1     -21.472 -10.470  -6.366  1.00  0.00     0.210 HD
ENDBRANCH  21  28
BRANCH  22  30
HETATM   30  O5  UNL     1     -23.330 -11.166  -6.522  1.00  0.00    -0.388 OA
ATOM     31  H5  UNL     1     -24.042 -10.978  -5.923  1.00  0.00     0.210 HD
ENDBRANCH  22  30
ENDBRANCH  14  17
ENDBRANCH   5  11
TORSDOF 8
ENDMDL
MODEL 4
REMARK VINA RESULT: -7.253026077      1.532      2.686
REMARK  8 active torsions:
REMARK  status: ('A' for Active; 'I' for Inactive)
REMARK    1  A    between atoms: C4_5  and  C5_6 
REMARK    2  A    between atoms: N2_9  and  C8_10 
REMARK    3  A    between atoms: C9_12  and  C10_13 
REMARK    4  A    between atoms: C10_13  and  O2_14 
REMARK    5  A    between atoms: C11_16  and  O3_17 
REMARK    6  A    between atoms: C12_19  and  O4_20 
REMARK    7  A    between atoms: C13_22  and  O5_23 
REMARK    8  A    between atoms: N3_29  and  O6_30 
ROOT
HETATM    1  N1  UNL     1     -30.270 -18.491  -2.597  1.00  0.00    -0.190 NA
HETATM    2  C1  UNL     1     -29.454 -17.844  -2.096  1.00  0.00     0.120 C 
HETATM    3  C2  UNL     1     -28.409 -17.044  -1.481  1.00  0.00     0.142 A 
HETATM    4  C3  UNL     1     -27.398 -16.482  -2.226  1.00  0.00     0.056 A 
HETATM    5  C4  UNL     1     -26.379 -15.713  -1.700  1.00  0.00    -0.022 A 
HETATM    6  C16 UNL     1     -26.392 -15.506  -0.339  1.00  0.00     0.032 A 
HETATM    7  C17 UNL     1     -27.414 -16.078   0.389  1.00  0.00     0.125 A 
HETATM    8  N3  UNL     1     -28.392 -16.822  -0.155  1.00  0.00    -0.226 N 
ENDROOT
BRANCH   8   9
HETATM    9  O6  UNL     1     -29.403 -17.382   0.596  1.00  0.00    -0.282 OA
ATOM     10  H6  UNL     1     -29.943 -16.793   1.111  1.00  0.00     0.245 HD
ENDBRANCH   8   9
BRANCH   5  11
HETATM   11  C5  UNL     1     -25.348 -15.158  -2.570  1.00  0.00    -0.023 A 
HETATM   12  C6  UNL     1     -24.336 -14.349  -2.119  1.00  0.00     0.029 A 
HETATM   13  C7  UNL     1     -23.408 -13.874  -3.022  1.00  0.00     0.094 A 
HETATM   14  N2  UNL     1     -23.437 -14.161  -4.335  1.00  0.00    -0.337 N 
HETATM   15  C14 UNL     1     -24.415 -14.951  -4.805  1.00  0.00     0.094 A 
HETATM   16  C15 UNL     1     -25.365 -15.446  -3.925  1.00  0.00     0.029 A 
BRANCH  14  17
HETATM   17  C8  UNL     1     -22.430 -13.634  -5.257  1.00  0.00     0.259 C 
HETATM   18  O1  UNL     1     -22.484 -12.278  -5.171  1.00  0.00    -0.354 OA
HETATM   19  C9  UNL     1     -21.408 -11.632  -5.735  1.00  0.00     0.179 C 
HETATM   20  C11 UNL     1     -20.212 -11.968  -4.832  1.00  0.00     0.180 C 
HETATM   21  C12 UNL     1     -19.925 -13.414  -5.094  1.00  0.00     0.182 C 
HETATM   22  C13 UNL     1     -21.132 -14.279  -4.993  1.00  0.00     0.198 C 
BRANCH  19  23
HETATM   23  C10 UNL     1     -21.597 -10.145  -5.836  1.00  0.00     0.198 C 
BRANCH  23  24
HETATM   24  O2  UNL     1     -20.590  -9.593  -6.589  1.00  0.00    -0.398 OA
ATOM     25  H2  UNL     1     -20.904  -8.813  -7.031  1.00  0.00     0.209 HD
ENDBRANCH  23  24
ENDBRANCH  19  23
BRANCH  20  26
HETATM   26  O3  UNL     1     -20.668 -11.873  -3.505  1.00  0.00    -0.390 OA
ATOM     27  H3  UNL     1     -19.923 -11.606  -2.979  1.00  0.00     0.210 HD
ENDBRANCH  20  26
BRANCH  21  28
HETATM   28  O4  UNL     1     -19.438 -13.500  -6.418  1.00  0.00    -0.390 OA
ATOM     29  H4  UNL     1     -18.525 -13.757  -6.360  1.00  0.00     0.210 HD
ENDBRANCH  21  28
BRANCH  22  30
HETATM   30  O5  UNL     1     -20.934 -15.358  -5.890  1.00  0.00    -0.388 OA
ATOM     31  H5  UNL     1     -20.414 -16.036  -5.475  1.00  0.00     0.210 HD
ENDBRANCH  22  30
ENDBRANCH  14  17
ENDBRANCH   5  11
TORSDOF 8
ENDMDL
MODEL 5
REMARK VINA RESULT: -7.213084805      0.887      2.122
REMARK  8 active torsions:
REMARK  status: ('A' for Active; 'I' for Inactive)
REMARK    1  A    between atoms: C4_5  and  C5_6 
REMARK    2  A    between atoms: N2_9  and  C8_10 
REMARK    3  A    between atoms: C9_12  and  C10_13 
REMARK    4  A    between atoms: C10_13  and  O2_14 
REMARK    5  A    between atoms: C11_16  and  O3_17 
REMARK    6  A    between atoms: C12_19  and  O4_20 
REMARK    7  A    between atoms: C13_22  and  O5_23 
REMARK    8  A    between atoms: N3_29  and  O6_30 
ROOT
HETATM    1  N1  UNL     1     -28.767 -17.337   1.358  1.00  0.00    -0.190 NA
HETATM    2  C1  UNL     1     -28.519 -17.185   0.239  1.00  0.00     0.120 C 
HETATM    3  C2  UNL     1     -28.201 -16.969  -1.161  1.00  0.00     0.142 A 
HETATM    4  C3  UNL     1     -27.057 -16.307  -1.548  1.00  0.00     0.056 A 
HETATM    5  C4  UNL     1     -26.700 -16.071  -2.860  1.00  0.00    -0.022 A 
HETATM    6  C16 UNL     1     -27.556 -16.535  -3.833  1.00  0.00     0.032 A 
HETATM    7  C17 UNL     1     -28.696 -17.196  -3.425  1.00  0.00     0.125 A 
HETATM    8  N3  UNL     1     -29.014 -17.409  -2.137  1.00  0.00    -0.226 N 
ENDROOT
BRANCH   8   9
HETATM    9  O6  UNL     1     -30.160 -18.074  -1.756  1.00  0.00    -0.282 OA
ATOM     10  H6  UNL     1     -30.199 -19.009  -1.920  1.00  0.00     0.245 HD
ENDBRANCH   8   9
BRANCH   5  11
HETATM   11  C5  UNL     1     -25.466 -15.359  -3.173  1.00  0.00    -0.023 A 
HETATM   12  C6  UNL     1     -24.859 -15.407  -4.402  1.00  0.00     0.029 A 
HETATM   13  C7  UNL     1     -23.693 -14.698  -4.600  1.00  0.00     0.094 A 
HETATM   14  N2  UNL     1     -23.109 -13.951  -3.646  1.00  0.00    -0.337 N 
HETATM   15  C14 UNL     1     -23.681 -13.885  -2.434  1.00  0.00     0.094 A 
HETATM   16  C15 UNL     1     -24.854 -14.586  -2.200  1.00  0.00     0.029 A 
BRANCH  14  17
HETATM   17  C8  UNL     1     -21.870 -13.214  -3.901  1.00  0.00     0.259 C 
HETATM   18  O1  UNL     1     -20.845 -14.015  -3.508  1.00  0.00    -0.354 OA
HETATM   19  C9  UNL     1     -19.608 -13.610  -3.955  1.00  0.00     0.179 C 
HETATM   20  C11 UNL     1     -19.631 -13.832  -5.474  1.00  0.00     0.180 C 
HETATM   21  C12 UNL     1     -20.553 -12.778  -6.005  1.00  0.00     0.182 C 
HETATM   22  C13 UNL     1     -21.860 -12.731  -5.293  1.00  0.00     0.198 C 
BRANCH  19  23
HETATM   23  C10 UNL     1     -18.473 -14.366  -3.323  1.00  0.00     0.198 C 
BRANCH  23  24
HETATM   24  O2  UNL     1     -18.835 -15.674  -3.121  1.00  0.00    -0.398 OA
ATOM     25  H2  UNL     1     -18.170 -16.121  -2.611  1.00  0.00     0.209 HD
ENDBRANCH  23  24
ENDBRANCH  19  23
BRANCH  20  26
HETATM   26  O3  UNL     1     -20.255 -15.073  -5.692  1.00  0.00    -0.390 OA
ATOM     27  H3  UNL     1     -19.722 -15.728  -5.256  1.00  0.00     0.210 HD
ENDBRANCH  20  26
BRANCH  21  28
HETATM   28  O4  UNL     1     -19.908 -11.536  -5.811  1.00  0.00    -0.390 OA
ATOM     29  H4  UNL     1     -20.245 -11.175  -5.000  1.00  0.00     0.210 HD
ENDBRANCH  21  28
BRANCH  22  30
HETATM   30  O5  UNL     1     -22.302 -11.386  -5.345  1.00  0.00    -0.388 OA
ATOM     31  H5  UNL     1     -23.116 -11.329  -5.831  1.00  0.00     0.210 HD
ENDBRANCH  22  30
ENDBRANCH  14  17
ENDBRANCH   5  11
TORSDOF 8
ENDMDL
