MODEL 1
REMARK VINA RESULT: -6.624480110      0.000      0.000
REMARK  9 active torsions:
REMARK  status: ('A' for Active; 'I' for Inactive)
REMARK    1  A    between atoms: C2_2  and  C3_3 
REMARK    2  A    between atoms: C4_4  and  C5_5 
REMARK    3  A    between atoms: C5_5  and  C6_6 
REMARK    4  A    between atoms: N1_9  and  S1_10 
REMARK    5  A    between atoms: S1_10  and  C9_13 
REMARK    6  A    between atoms: C12_16  and  C13_17 
REMARK    7  A    between atoms: C13_17  and  O3_18 
REMARK    8  A    between atoms: N2_20  and  O4_22 
REMARK    9  A    between atoms: C15_25  and  O5_26 
ROOT
HETATM    1  C6  UNL     1      28.116  15.268 -13.369  1.00  0.00     0.093 C 
HETATM    2  C7  UNL     1      27.019  15.923 -12.602  1.00  0.00     0.060 C 
HETATM    3  C8  UNL     1      27.053  17.406 -12.486  1.00  0.00     0.077 C 
HETATM    4  N1  UNL     1      25.891  18.121 -12.816  1.00  0.00    -0.277 N 
HETATM    5  C12 UNL     1      25.719  18.773 -14.024  1.00  0.00     0.179 C 
HETATM    6  C14 UNL     1      26.620  18.489 -15.159  1.00  0.00     0.068 C 
HETATM    7  C15 UNL     1      26.274  17.213 -15.941  1.00  0.00     0.138 C 
HETATM    8  C16 UNL     1      27.526  16.558 -16.433  1.00  0.00     0.154 C 
HETATM    9  N3  UNL     1      27.787  15.240 -15.942  1.00  0.00    -0.358 N 
ATOM     10  H3  UNL     1      28.156  14.589 -16.636  1.00  0.00     0.162 HD
HETATM   11  C17 UNL     1      27.619  14.706 -14.672  1.00  0.00     0.223 C 
HETATM   12  O6  UNL     1      26.969  13.605 -14.564  1.00  0.00    -0.273 OA
ENDROOT
BRANCH   5  13
HETATM   13  C13 UNL     1      25.648  20.241 -13.798  1.00  0.00     0.160 C 
HETATM   14  N2  UNL     1      24.561  20.889 -13.900  1.00  0.00    -0.249 N 
ATOM     15  H2  UNL     1      24.659  21.888 -13.716  1.00  0.00     0.196 HD
BRANCH  13  16
HETATM   16  O3  UNL     1      26.766  21.014 -13.463  1.00  0.00    -0.347 OA
ATOM     17  H3  UNL     1      26.985  21.824 -13.908  1.00  0.00     0.219 HD
ENDBRANCH  13  16
BRANCH  14  18
HETATM   18  O4  UNL     1      23.318  20.518 -14.198  1.00  0.00    -0.288 OA
ATOM     19  H4  UNL     1      22.542  20.389 -13.665  1.00  0.00     0.244 HD
ENDBRANCH  14  18
ENDBRANCH   5  13
BRANCH   4  20
HETATM   20  S1  UNL     1      24.543  17.735 -11.893  1.00  0.00     0.236 S 
HETATM   21  O1  UNL     1      24.821  17.591 -10.405  1.00  0.00    -0.205 OA
HETATM   22  O2  UNL     1      23.397  18.703 -11.976  1.00  0.00    -0.205 OA
BRANCH  20  23
HETATM   23  C9  UNL     1      23.888  16.134 -12.391  1.00  0.00     0.121 C 
HETATM   24  C10 UNL     1      23.016  15.533 -11.329  1.00  0.00     0.027 C 
HETATM   25  C11 UNL     1      22.987  16.428 -13.598  1.00  0.00     0.027 C 
ENDBRANCH  20  23
ENDBRANCH   4  20
BRANCH   7  26
HETATM   26  O5  UNL     1      25.412  17.560 -17.016  1.00  0.00    -0.394 OA
ATOM     27  H5  UNL     1      25.940  17.891 -17.732  1.00  0.00     0.210 HD
ENDBRANCH   7  26
BRANCH   1  28
HETATM   28  C5  UNL     1      29.386  16.033 -13.515  1.00  0.00     0.108 C 
BRANCH  28  29
HETATM   29  C4  UNL     1      29.948  16.170 -12.139  1.00  0.00    -0.106 C 
HETATM   30  C3  UNL     1      30.385  16.295 -11.024  1.00  0.00    -0.107 C 
BRANCH  30  31
HETATM   31  C2  UNL     1      30.901  16.463  -9.664  1.00  0.00     0.089 C 
HETATM   32  C1  UNL     1      29.794  17.060  -8.852  1.00  0.00     0.018 C 
ENDBRANCH  30  31
ENDBRANCH  28  29
ENDBRANCH   1  28
TORSDOF 9
ENDMDL
MODEL 2
REMARK VINA RESULT: -6.480881748      2.844      5.678
REMARK  9 active torsions:
REMARK  status: ('A' for Active; 'I' for Inactive)
REMARK    1  A    between atoms: C2_2  and  C3_3 
REMARK    2  A    between atoms: C4_4  and  C5_5 
REMARK    3  A    between atoms: C5_5  and  C6_6 
REMARK    4  A    between atoms: N1_9  and  S1_10 
REMARK    5  A    between atoms: S1_10  and  C9_13 
REMARK    6  A    between atoms: C12_16  and  C13_17 
REMARK    7  A    between atoms: C13_17  and  O3_18 
REMARK    8  A    between atoms: N2_20  and  O4_22 
REMARK    9  A    between atoms: C15_25  and  O5_26 
ROOT
HETATM    1  C6  UNL     1      25.915  15.673 -10.650  1.00  0.00     0.093 C 
HETATM    2  C7  UNL     1      26.768  15.182 -11.769  1.00  0.00     0.060 C 
HETATM    3  C8  UNL     1      26.214  15.276 -13.147  1.00  0.00     0.077 C 
HETATM    4  N1  UNL     1      27.006  15.877 -14.137  1.00  0.00    -0.277 N 
HETATM    5  C12 UNL     1      26.823  17.179 -14.570  1.00  0.00     0.179 C 
HETATM    6  C14 UNL     1      25.987  18.112 -13.790  1.00  0.00     0.068 C 
HETATM    7  C15 UNL     1      26.696  18.745 -12.583  1.00  0.00     0.138 C 
HETATM    8  C16 UNL     1      25.724  18.944 -11.464  1.00  0.00     0.154 C 
HETATM    9  N3  UNL     1      25.999  18.235 -10.252  1.00  0.00    -0.358 N 
ATOM     10  H3  UNL     1      25.828  18.764  -9.397  1.00  0.00     0.162 HD
HETATM   11  C17 UNL     1      26.461  16.941 -10.055  1.00  0.00     0.223 C 
HETATM   12  O6  UNL     1      27.470  16.774  -9.280  1.00  0.00    -0.273 OA
ENDROOT
BRANCH   5  13
HETATM   13  C13 UNL     1      26.383  17.180 -15.990  1.00  0.00     0.160 C 
HETATM   14  N2  UNL     1      27.136  17.576 -16.932  1.00  0.00    -0.249 N 
ATOM     15  H2  UNL     1      26.704  17.520 -17.854  1.00  0.00     0.196 HD
BRANCH  13  16
HETATM   16  O3  UNL     1      25.112  16.750 -16.392  1.00  0.00    -0.347 OA
ATOM     17  H3  UNL     1      24.834  15.843 -16.340  1.00  0.00     0.219 HD
ENDBRANCH  13  16
BRANCH  14  18
HETATM   18  O4  UNL     1      28.379  18.050 -16.949  1.00  0.00    -0.288 OA
ATOM     19  H4  UNL     1      29.120  17.885 -17.520  1.00  0.00     0.244 HD
ENDBRANCH  14  18
ENDBRANCH   5  13
BRANCH   4  20
HETATM   20  S1  UNL     1      28.481  15.122 -14.411  1.00  0.00     0.236 S 
HETATM   21  O1  UNL     1      29.408  15.878 -15.348  1.00  0.00    -0.205 OA
HETATM   22  O2  UNL     1      29.311  14.850 -13.188  1.00  0.00    -0.205 OA
BRANCH  20  23
HETATM   23  C9  UNL     1      28.223  13.530 -15.211  1.00  0.00     0.121 C 
HETATM   24  C10 UNL     1      27.045  13.556 -16.138  1.00  0.00     0.027 C 
HETATM   25  C11 UNL     1      29.470  13.313 -16.078  1.00  0.00     0.027 C 
ENDBRANCH  20  23
ENDBRANCH   4  20
BRANCH   7  26
HETATM   26  O5  UNL     1      27.275  19.976 -12.994  1.00  0.00    -0.394 OA
ATOM     27  H5  UNL     1      28.215  19.860 -13.063  1.00  0.00     0.210 HD
ENDBRANCH   7  26
BRANCH   1  28
HETATM   28  C5  UNL     1      24.447  15.735 -10.898  1.00  0.00     0.108 C 
BRANCH  28  29
HETATM   29  C4  UNL     1      23.918  14.372 -10.595  1.00  0.00    -0.106 C 
HETATM   30  C3  UNL     1      23.511  13.265 -10.350  1.00  0.00    -0.107 C 
BRANCH  30  31
HETATM   31  C2  UNL     1      23.038  11.912 -10.054  1.00  0.00     0.089 C 
HETATM   32  C1  UNL     1      23.876  11.398  -8.925  1.00  0.00     0.018 C 
ENDBRANCH  30  31
ENDBRANCH  28  29
ENDBRANCH   1  28
TORSDOF 9
ENDMDL
MODEL 3
REMARK VINA RESULT: -6.364848155      2.760      5.461
REMARK  9 active torsions:
REMARK  status: ('A' for Active; 'I' for Inactive)
REMARK    1  A    between atoms: C2_2  and  C3_3 
REMARK    2  A    between atoms: C4_4  and  C5_5 
REMARK    3  A    between atoms: C5_5  and  C6_6 
REMARK    4  A    between atoms: N1_9  and  S1_10 
REMARK    5  A    between atoms: S1_10  and  C9_13 
REMARK    6  A    between atoms: C12_16  and  C13_17 
REMARK    7  A    between atoms: C13_17  and  O3_18 
REMARK    8  A    between atoms: N2_20  and  O4_22 
REMARK    9  A    between atoms: C15_25  and  O5_26 
ROOT
HETATM    1  C6  UNL     1      26.641  15.306 -11.195  1.00  0.00     0.093 C 
HETATM    2  C7  UNL     1      27.235  15.153 -12.552  1.00  0.00     0.060 C 
HETATM    3  C8  UNL     1      26.368  15.464 -13.720  1.00  0.00     0.077 C 
HETATM    4  N1  UNL     1      26.866  16.340 -14.697  1.00  0.00    -0.277 N 
HETATM    5  C12 UNL     1      26.505  17.673 -14.777  1.00  0.00     0.179 C 
HETATM    6  C14 UNL     1      25.819  18.328 -13.645  1.00  0.00     0.068 C 
HETATM    7  C15 UNL     1      26.751  18.777 -12.510  1.00  0.00     0.138 C 
HETATM    8  C16 UNL     1      26.059  18.632 -11.192  1.00  0.00     0.154 C 
HETATM    9  N3  UNL     1      26.656  17.725 -10.259  1.00  0.00    -0.358 N 
ATOM     10  H3  UNL     1      26.658  18.046  -9.291  1.00  0.00     0.162 HD
HETATM   11  C17 UNL     1      27.231  16.479 -10.462  1.00  0.00     0.223 C 
HETATM   12  O6  UNL     1      28.403  16.271  -9.981  1.00  0.00    -0.273 OA
ENDROOT
BRANCH   5  13
HETATM   13  C13 UNL     1      25.743  17.915 -16.031  1.00  0.00     0.160 C 
HETATM   14  N2  UNL     1      26.223  18.587 -16.995  1.00  0.00    -0.249 N 
ATOM     15  H2  UNL     1      25.590  18.671 -17.792  1.00  0.00     0.196 HD
BRANCH  13  16
HETATM   16  O3  UNL     1      24.448  17.426 -16.240  1.00  0.00    -0.347 OA
ATOM     17  H3  UNL     1      23.669  17.955 -16.106  1.00  0.00     0.219 HD
ENDBRANCH  13  16
BRANCH  14  18
HETATM   18  O4  UNL     1      27.390  19.202 -17.169  1.00  0.00    -0.288 OA
ATOM     19  H4  UNL     1      28.159  19.284 -16.619  1.00  0.00     0.244 HD
ENDBRANCH  14  18
ENDBRANCH   5  13
BRANCH   4  20
HETATM   20  S1  UNL     1      28.278  15.827 -15.446  1.00  0.00     0.236 S 
HETATM   21  O1  UNL     1      28.713  16.687 -16.622  1.00  0.00    -0.205 OA
HETATM   22  O2  UNL     1      29.491  15.744 -14.563  1.00  0.00    -0.205 OA
BRANCH  20  23
HETATM   23  C9  UNL     1      28.049  14.184 -16.145  1.00  0.00     0.121 C 
HETATM   24  C10 UNL     1      28.550  14.102 -17.555  1.00  0.00     0.027 C 
HETATM   25  C11 UNL     1      28.938  13.263 -15.299  1.00  0.00     0.027 C 
ENDBRANCH  20  23
ENDBRANCH   4  20
BRANCH   7  26
HETATM   26  O5  UNL     1      27.139  20.122 -12.749  1.00  0.00    -0.394 OA
ATOM     27  H5  UNL     1      27.454  20.495 -11.934  1.00  0.00     0.210 HD
ENDBRANCH   7  26
BRANCH   1  28
HETATM   28  C5  UNL     1      25.155  15.252 -11.099  1.00  0.00     0.108 C 
BRANCH  28  29
HETATM   29  C4  UNL     1      24.844  14.252 -10.035  1.00  0.00    -0.106 C 
HETATM   30  C3  UNL     1      24.578  13.436  -9.190  1.00  0.00    -0.107 C 
BRANCH  30  31
HETATM   31  C2  UNL     1      24.235  12.439  -8.174  1.00  0.00     0.089 C 
HETATM   32  C1  UNL     1      23.608  11.286  -8.894  1.00  0.00     0.018 C 
ENDBRANCH  30  31
ENDBRANCH  28  29
ENDBRANCH   1  28
TORSDOF 9
ENDMDL
MODEL 4
REMARK VINA RESULT: -6.349473587      2.431      4.946
REMARK  9 active torsions:
REMARK  status: ('A' for Active; 'I' for Inactive)
REMARK    1  A    between atoms: C2_2  and  C3_3 
REMARK    2  A    between atoms: C4_4  and  C5_5 
REMARK    3  A    between atoms: C5_5  and  C6_6 
REMARK    4  A    between atoms: N1_9  and  S1_10 
REMARK    5  A    between atoms: S1_10  and  C9_13 
REMARK    6  A    between atoms: C12_16  and  C13_17 
REMARK    7  A    between atoms: C13_17  and  O3_18 
REMARK    8  A    between atoms: N2_20  and  O4_22 
REMARK    9  A    between atoms: C15_25  and  O5_26 
ROOT
HETATM    1  C6  UNL     1      28.256  16.273 -13.080  1.00  0.00     0.093 C 
HETATM    2  C7  UNL     1      27.651  17.320 -13.951  1.00  0.00     0.060 C 
HETATM    3  C8  UNL     1      26.221  17.158 -14.326  1.00  0.00     0.077 C 
HETATM    4  N1  UNL     1      25.359  18.248 -14.127  1.00  0.00    -0.277 N 
HETATM    5  C12 UNL     1      24.493  18.345 -13.052  1.00  0.00     0.179 C 
HETATM    6  C14 UNL     1      24.654  17.457 -11.884  1.00  0.00     0.068 C 
HETATM    7  C15 UNL     1      25.738  17.901 -10.891  1.00  0.00     0.138 C 
HETATM    8  C16 UNL     1      26.404  16.704 -10.290  1.00  0.00     0.154 C 
HETATM    9  N3  UNL     1      27.806  16.566 -10.542  1.00  0.00    -0.358 N 
ATOM     10  H3  UNL     1      28.356  16.246  -9.745  1.00  0.00     0.162 HD
HETATM   11  C17 UNL     1      28.536  16.798 -11.699  1.00  0.00     0.223 C 
HETATM   12  O6  UNL     1      29.578  17.543 -11.614  1.00  0.00    -0.273 OA
ENDROOT
BRANCH   5  13
HETATM   13  C13 UNL     1      23.087  18.292 -13.532  1.00  0.00     0.160 C 
HETATM   14  N2  UNL     1      22.360  19.329 -13.614  1.00  0.00    -0.249 N 
ATOM     15  H2  UNL     1      21.418  19.144 -13.960  1.00  0.00     0.196 HD
BRANCH  13  16
HETATM   16  O3  UNL     1      22.462  17.101 -13.923  1.00  0.00    -0.347 OA
ATOM     17  H3  UNL     1      21.565  16.890 -13.692  1.00  0.00     0.219 HD
ENDBRANCH  13  16
BRANCH  14  18
HETATM   18  O4  UNL     1      22.588  20.610 -13.337  1.00  0.00    -0.288 OA
ATOM     19  H4  UNL     1      22.014  21.364 -13.271  1.00  0.00     0.244 HD
ENDBRANCH  14  18
ENDBRANCH   5  13
BRANCH   4  20
HETATM   20  S1  UNL     1      25.779  19.638 -14.969  1.00  0.00     0.236 S 
HETATM   21  O1  UNL     1      24.597  20.426 -15.509  1.00  0.00    -0.205 OA
HETATM   22  O2  UNL     1      26.592  20.644 -14.204  1.00  0.00    -0.205 OA
BRANCH  20  23
HETATM   23  C9  UNL     1      26.746  19.212 -16.427  1.00  0.00     0.121 C 
HETATM   24  C10 UNL     1      25.876  18.982 -17.626  1.00  0.00     0.027 C 
HETATM   25  C11 UNL     1      27.595  20.456 -16.720  1.00  0.00     0.027 C 
ENDBRANCH  20  23
ENDBRANCH   4  20
BRANCH   7  26
HETATM   26  O5  UNL     1      25.133  18.714  -9.894  1.00  0.00    -0.394 OA
ATOM     27  H5  UNL     1      25.651  19.504  -9.793  1.00  0.00     0.210 HD
ENDBRANCH   7  26
BRANCH   1  28
HETATM   28  C5  UNL     1      27.593  14.939 -13.069  1.00  0.00     0.108 C 
BRANCH  28  29
HETATM   29  C4  UNL     1      28.239  14.146 -14.156  1.00  0.00    -0.106 C 
HETATM   30  C3  UNL     1      28.776  13.499 -15.019  1.00  0.00    -0.107 C 
BRANCH  30  31
HETATM   31  C2  UNL     1      29.446  12.710 -16.054  1.00  0.00     0.089 C 
HETATM   32  C1  UNL     1      30.213  13.674 -16.905  1.00  0.00     0.018 C 
ENDBRANCH  30  31
ENDBRANCH  28  29
ENDBRANCH   1  28
TORSDOF 9
ENDMDL
MODEL 5
REMARK VINA RESULT: -6.331181366      2.765      6.182
REMARK  9 active torsions:
REMARK  status: ('A' for Active; 'I' for Inactive)
REMARK    1  A    between atoms: C2_2  and  C3_3 
REMARK    2  A    between atoms: C4_4  and  C5_5 
REMARK    3  A    between atoms: C5_5  and  C6_6 
REMARK    4  A    between atoms: N1_9  and  S1_10 
REMARK    5  A    between atoms: S1_10  and  C9_13 
REMARK    6  A    between atoms: C12_16  and  C13_17 
REMARK    7  A    between atoms: C13_17  and  O3_18 
REMARK    8  A    between atoms: N2_20  and  O4_22 
REMARK    9  A    between atoms: C15_25  and  O5_26 
ROOT
HETATM    1  C6  UNL     1      23.972  14.869 -10.659  1.00  0.00     0.093 C 
HETATM    2  C7  UNL     1      25.316  15.484 -10.476  1.00  0.00     0.060 C 
HETATM    3  C8  UNL     1      26.469  14.829 -11.151  1.00  0.00     0.077 C 
HETATM    4  N1  UNL     1      27.316  15.628 -11.934  1.00  0.00    -0.277 N 
HETATM    5  C12 UNL     1      27.249  15.681 -13.315  1.00  0.00     0.179 C 
HETATM    6  C14 UNL     1      26.072  15.141 -14.024  1.00  0.00     0.068 C 
HETATM    7  C15 UNL     1      24.860  16.084 -14.053  1.00  0.00     0.138 C 
HETATM    8  C16 UNL     1      23.593  15.291 -13.987  1.00  0.00     0.154 C 
HETATM    9  N3  UNL     1      22.755  15.529 -12.852  1.00  0.00    -0.358 N 
ATOM     10  H3  UNL     1      21.756  15.559 -13.056  1.00  0.00     0.162 HD
HETATM   11  C17 UNL     1      23.085  15.726 -11.519  1.00  0.00     0.223 C 
HETATM   12  O6  UNL     1      22.591  16.749 -10.921  1.00  0.00    -0.273 OA
ENDROOT
BRANCH   5  13
HETATM   13  C13 UNL     1      28.491  15.112 -13.902  1.00  0.00     0.160 C 
HETATM   14  N2  UNL     1      29.404  15.844 -14.393  1.00  0.00    -0.249 N 
ATOM     15  H2  UNL     1      30.199  15.320 -14.759  1.00  0.00     0.196 HD
BRANCH  13  16
HETATM   16  O3  UNL     1      28.744  13.736 -13.959  1.00  0.00    -0.347 OA
ATOM     17  H3  UNL     1      29.525  13.339 -13.591  1.00  0.00     0.219 HD
ENDBRANCH  13  16
BRANCH  14  18
HETATM   18  O4  UNL     1      29.526  17.163 -14.524  1.00  0.00    -0.288 OA
ATOM     19  H4  UNL     1      29.737  17.717 -15.266  1.00  0.00     0.244 HD
ENDBRANCH  14  18
ENDBRANCH   5  13
BRANCH   4  20
HETATM   20  S1  UNL     1      28.071  16.876 -11.101  1.00  0.00     0.236 S 
HETATM   21  O1  UNL     1      28.476  18.055 -11.971  1.00  0.00    -0.205 OA
HETATM   22  O2  UNL     1      27.279  17.483  -9.978  1.00  0.00    -0.205 OA
BRANCH  20  23
HETATM   23  C9  UNL     1      29.613  16.295 -10.376  1.00  0.00     0.121 C 
HETATM   24  C10 UNL     1      30.807  16.780 -11.141  1.00  0.00     0.027 C 
HETATM   25  C11 UNL     1      29.672  16.948  -8.989  1.00  0.00     0.027 C 
ENDBRANCH  20  23
ENDBRANCH   4  20
BRANCH   7  26
HETATM   26  O5  UNL     1      24.923  16.866 -15.238  1.00  0.00    -0.394 OA
ATOM     27  H5  UNL     1      25.166  17.753 -15.002  1.00  0.00     0.210 HD
ENDBRANCH   7  26
BRANCH   1  28
HETATM   28  C5  UNL     1      23.935  13.430 -11.043  1.00  0.00     0.108 C 
BRANCH  28  29
HETATM   29  C4  UNL     1      23.026  12.763 -10.065  1.00  0.00    -0.106 C 
HETATM   30  C3  UNL     1      22.309  12.214  -9.267  1.00  0.00    -0.107 C 
BRANCH  30  31
HETATM   31  C2  UNL     1      21.457  11.535  -8.289  1.00  0.00     0.089 C 
HETATM   32  C1  UNL     1      20.925  12.590  -7.371  1.00  0.00     0.018 C 
ENDBRANCH  30  31
ENDBRANCH  28  29
ENDBRANCH   1  28
TORSDOF 9
ENDMDL
