MODEL 1
REMARK VINA RESULT: -6.711050449      0.000      0.000
REMARK  6 active torsions:
REMARK  status: ('A' for Active; 'I' for Inactive)
REMARK    1  A    between atoms: N1_2  and  C3_4 
REMARK    2  A    between atoms: C4_5  and  N2_6 
REMARK    3  A    between atoms: N2_6  and  C5_8 
REMARK    4  A    between atoms: C5_8  and  N3_10 
REMARK    5  A    between atoms: N3_10  and  C6_12 
REMARK    6  A    between atoms: C10_19  and  O1_20 
ROOT
HETATM    1  C3  UNL     1     -24.058 -14.074  -2.854  1.00  0.00     0.278 C 
HETATM    2  C4  UNL     1     -24.956 -14.156  -4.036  1.00  0.00     0.151 C 
HETATM    3  C10 UNL     1     -23.998 -14.254  -5.224  1.00  0.00     0.174 C 
HETATM    4  C11 UNL     1     -22.628 -13.950  -4.702  1.00  0.00     0.187 C 
HETATM    5  O2  UNL     1     -22.014 -12.915  -5.401  1.00  0.00    -0.345 OA
HETATM    6  C12 UNL     1     -22.223 -11.741  -4.718  1.00  0.00     0.158 C 
HETATM    7  C13 UNL     1     -22.634 -10.676  -5.690  1.00  0.00     0.078 C 
HETATM    8  C14 UNL     1     -20.916 -11.346  -4.058  1.00  0.00     0.078 C 
HETATM    9  O3  UNL     1     -23.185 -12.000  -3.741  1.00  0.00    -0.346 OA
HETATM   10  C15 UNL     1     -22.883 -13.307  -3.356  1.00  0.00     0.192 C 
ENDROOT
BRANCH   2  11
HETATM   11  N2  UNL     1     -25.707 -15.375  -4.013  1.00  0.00    -0.358 N 
ATOM     12  H2  UNL     1     -25.233 -16.236  -4.285  1.00  0.00     0.162 HD
BRANCH  11  13
HETATM   13  C5  UNL     1     -27.076 -15.457  -3.635  1.00  0.00     0.168 C 
HETATM   14  S1  UNL     1     -27.994 -14.111  -3.491  1.00  0.00    -0.041 SA
BRANCH  13  15
HETATM   15  N3  UNL     1     -27.695 -16.700  -3.369  1.00  0.00    -0.361 N 
ATOM     16  H3  UNL     1     -27.119 -17.457  -3.003  1.00  0.00     0.162 HD
BRANCH  15  17
HETATM   17  C6  UNL     1     -29.097 -16.953  -3.588  1.00  0.00     0.111 C 
HETATM   18  C7  UNL     1     -29.631 -18.077  -2.758  1.00  0.00     0.054 C 
HETATM   19  C8  UNL     1     -30.415 -18.909  -3.751  1.00  0.00     0.234 C 
HETATM   20  N4  UNL     1     -29.625 -18.793  -4.976  1.00  0.00    -0.073 N 
HETATM   21  C9  UNL     1     -29.414 -17.337  -5.000  1.00  0.00     0.257 C 
ATOM     22  H42 UNL     1     -28.782 -19.366  -5.020  1.00  0.00     0.277 HD
ATOM     23  H41 UNL     1     -30.041 -19.197  -5.814  1.00  0.00     0.277 HD
ENDBRANCH  15  17
ENDBRANCH  13  15
ENDBRANCH  11  13
ENDBRANCH   2  11
BRANCH   1  24
HETATM   24  N1  UNL     1     -24.663 -13.465  -1.690  1.00  0.00     0.089 N 
HETATM   25  C1  UNL     1     -25.187 -14.451  -0.800  1.00  0.00     0.310 C 
HETATM   26  C2  UNL     1     -23.618 -12.739  -0.989  1.00  0.00     0.310 C 
ENDBRANCH   1  24
BRANCH   3  27
HETATM   27  O1  UNL     1     -23.965 -15.558  -5.742  1.00  0.00    -0.391 OA
ATOM     28  H1  UNL     1     -24.699 -15.714  -6.324  1.00  0.00     0.210 HD
ENDBRANCH   3  27
TORSDOF 6
ENDMDL
MODEL 2
REMARK VINA RESULT: -6.631686670      0.977      1.177
REMARK  6 active torsions:
REMARK  status: ('A' for Active; 'I' for Inactive)
REMARK    1  A    between atoms: N1_2  and  C3_4 
REMARK    2  A    between atoms: C4_5  and  N2_6 
REMARK    3  A    between atoms: N2_6  and  C5_8 
REMARK    4  A    between atoms: C5_8  and  N3_10 
REMARK    5  A    between atoms: N3_10  and  C6_12 
REMARK    6  A    between atoms: C10_19  and  O1_20 
ROOT
HETATM    1  C3  UNL     1     -24.128 -13.747  -2.767  1.00  0.00     0.278 C 
HETATM    2  C4  UNL     1     -25.044 -13.807  -3.935  1.00  0.00     0.151 C 
HETATM    3  C10 UNL     1     -24.152 -14.283  -5.084  1.00  0.00     0.174 C 
HETATM    4  C11 UNL     1     -22.740 -14.209  -4.594  1.00  0.00     0.187 C 
HETATM    5  O2  UNL     1     -21.931 -13.446  -5.430  1.00  0.00    -0.345 OA
HETATM    6  C12 UNL     1     -21.869 -12.166  -4.931  1.00  0.00     0.158 C 
HETATM    7  C13 UNL     1     -22.059 -11.193  -6.056  1.00  0.00     0.078 C 
HETATM    8  C14 UNL     1     -20.495 -11.969  -4.319  1.00  0.00     0.078 C 
HETATM    9  O3  UNL     1     -22.845 -12.064  -3.940  1.00  0.00    -0.346 OA
HETATM   10  C15 UNL     1     -22.824 -13.335  -3.361  1.00  0.00     0.192 C 
ENDROOT
BRANCH   2  11
HETATM   11  N2  UNL     1     -26.040 -14.818  -3.743  1.00  0.00    -0.358 N 
ATOM     12  H2  UNL     1     -25.727 -15.769  -3.548  1.00  0.00     0.162 HD
BRANCH  11  13
HETATM   13  C5  UNL     1     -27.440 -14.576  -3.808  1.00  0.00     0.168 C 
HETATM   14  S1  UNL     1     -28.071 -13.142  -3.339  1.00  0.00    -0.041 SA
BRANCH  13  15
HETATM   15  N3  UNL     1     -28.339 -15.561  -4.277  1.00  0.00    -0.361 N 
ATOM     16  H3  UNL     1     -29.067 -15.276  -4.932  1.00  0.00     0.162 HD
BRANCH  15  17
HETATM   17  C6  UNL     1     -28.281 -16.946  -3.881  1.00  0.00     0.111 C 
HETATM   18  C7  UNL     1     -29.454 -17.745  -4.353  1.00  0.00     0.054 C 
HETATM   19  C8  UNL     1     -29.878 -18.512  -3.119  1.00  0.00     0.234 C 
HETATM   20  N4  UNL     1     -29.623 -17.563  -2.036  1.00  0.00    -0.073 N 
HETATM   21  C9  UNL     1     -28.263 -17.133  -2.396  1.00  0.00     0.257 C 
ATOM     22  H42 UNL     1     -30.311 -16.819  -1.923  1.00  0.00     0.277 HD
ATOM     23  H41 UNL     1     -29.741 -17.925  -1.089  1.00  0.00     0.277 HD
ENDBRANCH  15  17
ENDBRANCH  13  15
ENDBRANCH  11  13
ENDBRANCH   2  11
BRANCH   1  24
HETATM   24  N1  UNL     1     -24.565 -12.858  -1.714  1.00  0.00     0.089 N 
HETATM   25  C1  UNL     1     -25.394 -13.536  -0.770  1.00  0.00     0.310 C 
HETATM   26  C2  UNL     1     -23.377 -12.396  -1.017  1.00  0.00     0.310 C 
ENDBRANCH   1  24
BRANCH   3  27
HETATM   27  O1  UNL     1     -24.411 -15.625  -5.402  1.00  0.00    -0.391 OA
ATOM     28  H1  UNL     1     -24.979 -16.027  -4.756  1.00  0.00     0.210 HD
ENDBRANCH   3  27
TORSDOF 6
ENDMDL
MODEL 3
REMARK VINA RESULT: -6.573394409      3.990      5.500
REMARK  6 active torsions:
REMARK  status: ('A' for Active; 'I' for Inactive)
REMARK    1  A    between atoms: N1_2  and  C3_4 
REMARK    2  A    between atoms: C4_5  and  N2_6 
REMARK    3  A    between atoms: N2_6  and  C5_8 
REMARK    4  A    between atoms: C5_8  and  N3_10 
REMARK    5  A    between atoms: N3_10  and  C6_12 
REMARK    6  A    between atoms: C10_19  and  O1_20 
ROOT
HETATM    1  C3  UNL     1     -27.304 -13.372  -1.609  1.00  0.00     0.278 C 
HETATM    2  C4  UNL     1     -28.021 -14.397  -0.806  1.00  0.00     0.151 C 
HETATM    3  C10 UNL     1     -29.406 -13.790  -0.578  1.00  0.00     0.174 C 
HETATM    4  C11 UNL     1     -29.329 -12.360  -1.014  1.00  0.00     0.187 C 
HETATM    5  O2  UNL     1     -29.730 -11.480  -0.013  1.00  0.00    -0.345 OA
HETATM    6  C12 UNL     1     -28.613 -11.038   0.655  1.00  0.00     0.158 C 
HETATM    7  C13 UNL     1     -28.871 -11.097   2.131  1.00  0.00     0.078 C 
HETATM    8  C14 UNL     1     -28.360  -9.601   0.243  1.00  0.00     0.078 C 
HETATM    9  O3  UNL     1     -27.546 -11.840   0.247  1.00  0.00    -0.346 OA
HETATM   10  C15 UNL     1     -27.843 -12.081  -1.095  1.00  0.00     0.192 C 
ENDROOT
BRANCH   2  11
HETATM   11  N2  UNL     1     -28.217 -15.591  -1.572  1.00  0.00    -0.358 N 
ATOM     12  H2  UNL     1     -28.047 -15.549  -2.577  1.00  0.00     0.162 HD
BRANCH  11  13
HETATM   13  C5  UNL     1     -28.634 -16.831  -1.016  1.00  0.00     0.168 C 
HETATM   14  S1  UNL     1     -27.952 -17.416   0.351  1.00  0.00    -0.041 SA
BRANCH  13  15
HETATM   15  N3  UNL     1     -29.650 -17.607  -1.621  1.00  0.00    -0.361 N 
ATOM     16  H3  UNL     1     -30.597 -17.535  -1.250  1.00  0.00     0.162 HD
BRANCH  15  17
HETATM   17  C6  UNL     1     -29.418 -18.495  -2.733  1.00  0.00     0.111 C 
HETATM   18  C7  UNL     1     -29.176 -17.776  -4.022  1.00  0.00     0.054 C 
HETATM   19  C8  UNL     1     -30.072 -18.499  -5.004  1.00  0.00     0.234 C 
HETATM   20  N4  UNL     1     -31.243 -18.838  -4.196  1.00  0.00    -0.073 N 
HETATM   21  C9  UNL     1     -30.575 -19.402  -3.014  1.00  0.00     0.257 C 
ATOM     22  H42 UNL     1     -31.897 -18.076  -4.018  1.00  0.00     0.277 HD
ATOM     23  H41 UNL     1     -31.936 -19.436  -4.646  1.00  0.00     0.277 HD
ENDBRANCH  15  17
ENDBRANCH  13  15
ENDBRANCH  11  13
ENDBRANCH   2  11
BRANCH   1  24
HETATM   24  N1  UNL     1     -25.863 -13.448  -1.520  1.00  0.00     0.089 N 
HETATM   25  C1  UNL     1     -25.450 -14.474  -0.618  1.00  0.00     0.310 C 
HETATM   26  C2  UNL     1     -25.365 -13.786  -2.842  1.00  0.00     0.310 C 
ENDBRANCH   1  24
BRANCH   3  27
HETATM   27  O1  UNL     1     -30.372 -14.417  -1.380  1.00  0.00    -0.391 OA
ATOM     28  H1  UNL     1     -30.499 -13.944  -2.194  1.00  0.00     0.210 HD
ENDBRANCH   3  27
TORSDOF 6
ENDMDL
MODEL 4
REMARK VINA RESULT: -6.451366038      4.203      5.978
REMARK  6 active torsions:
REMARK  status: ('A' for Active; 'I' for Inactive)
REMARK    1  A    between atoms: N1_2  and  C3_4 
REMARK    2  A    between atoms: C4_5  and  N2_6 
REMARK    3  A    between atoms: N2_6  and  C5_8 
REMARK    4  A    between atoms: C5_8  and  N3_10 
REMARK    5  A    between atoms: N3_10  and  C6_12 
REMARK    6  A    between atoms: C10_19  and  O1_20 
ROOT
HETATM    1  C3  UNL     1     -28.129 -12.019  -1.162  1.00  0.00     0.278 C 
HETATM    2  C4  UNL     1     -27.923 -13.467  -1.425  1.00  0.00     0.151 C 
HETATM    3  C10 UNL     1     -29.014 -14.154  -0.603  1.00  0.00     0.174 C 
HETATM    4  C11 UNL     1     -29.606 -13.109   0.290  1.00  0.00     0.187 C 
HETATM    5  O2  UNL     1     -29.570 -13.478   1.632  1.00  0.00    -0.345 OA
HETATM    6  C12 UNL     1     -28.450 -12.928   2.208  1.00  0.00     0.158 C 
HETATM    7  C13 UNL     1     -27.768 -13.970   3.043  1.00  0.00     0.078 C 
HETATM    8  C14 UNL     1     -28.896 -11.781   3.095  1.00  0.00     0.078 C 
HETATM    9  O3  UNL     1     -27.653 -12.440   1.172  1.00  0.00    -0.346 OA
HETATM   10  C15 UNL     1     -28.598 -11.980   0.253  1.00  0.00     0.192 C 
ENDROOT
BRANCH   2  11
HETATM   11  N2  UNL     1     -28.190 -13.773  -2.798  1.00  0.00    -0.358 N 
ATOM     12  H2  UNL     1     -28.839 -13.172  -3.306  1.00  0.00     0.162 HD
BRANCH  11  13
HETATM   13  C5  UNL     1     -27.604 -14.864  -3.497  1.00  0.00     0.168 C 
HETATM   14  S1  UNL     1     -25.980 -15.012  -3.622  1.00  0.00    -0.041 SA
BRANCH  13  15
HETATM   15  N3  UNL     1     -28.398 -15.860  -4.111  1.00  0.00    -0.361 N 
ATOM     16  H3  UNL     1     -29.004 -15.585  -4.884  1.00  0.00     0.162 HD
BRANCH  15  17
HETATM   17  C6  UNL     1     -28.398 -17.242  -3.703  1.00  0.00     0.111 C 
HETATM   18  C7  UNL     1     -29.623 -17.985  -4.131  1.00  0.00     0.054 C 
HETATM   19  C8  UNL     1     -30.047 -18.720  -2.877  1.00  0.00     0.234 C 
HETATM   20  N4  UNL     1     -29.711 -17.777  -1.811  1.00  0.00    -0.073 N 
HETATM   21  C9  UNL     1     -28.343 -17.418  -2.217  1.00  0.00     0.257 C 
ATOM     22  H42 UNL     1     -30.357 -16.997  -1.685  1.00  0.00     0.277 HD
ATOM     23  H41 UNL     1     -29.817 -18.124  -0.858  1.00  0.00     0.277 HD
ENDBRANCH  15  17
ENDBRANCH  13  15
ENDBRANCH  11  13
ENDBRANCH   2  11
BRANCH   1  24
HETATM   24  N1  UNL     1     -26.957 -11.202  -1.382  1.00  0.00     0.089 N 
HETATM   25  C1  UNL     1     -26.577 -11.195  -2.758  1.00  0.00     0.310 C 
HETATM   26  C2  UNL     1     -27.300  -9.842  -1.005  1.00  0.00     0.310 C 
ENDBRANCH   1  24
BRANCH   3  27
HETATM   27  O1  UNL     1     -30.046 -14.628  -1.427  1.00  0.00    -0.391 OA
ATOM     28  H1  UNL     1     -30.633 -15.199  -0.946  1.00  0.00     0.210 HD
ENDBRANCH   3  27
TORSDOF 6
ENDMDL
MODEL 5
REMARK VINA RESULT: -6.425802737      2.631      3.491
REMARK  6 active torsions:
REMARK  status: ('A' for Active; 'I' for Inactive)
REMARK    1  A    between atoms: N1_2  and  C3_4 
REMARK    2  A    between atoms: C4_5  and  N2_6 
REMARK    3  A    between atoms: N2_6  and  C5_8 
REMARK    4  A    between atoms: C5_8  and  N3_10 
REMARK    5  A    between atoms: N3_10  and  C6_12 
REMARK    6  A    between atoms: C10_19  and  O1_20 
ROOT
HETATM    1  C3  UNL     1     -26.934 -13.189  -1.644  1.00  0.00     0.278 C 
HETATM    2  C4  UNL     1     -26.936 -14.675  -1.676  1.00  0.00     0.151 C 
HETATM    3  C10 UNL     1     -25.461 -15.052  -1.523  1.00  0.00     0.174 C 
HETATM    4  C11 UNL     1     -24.673 -13.790  -1.685  1.00  0.00     0.187 C 
HETATM    5  O2  UNL     1     -23.703 -13.898  -2.678  1.00  0.00    -0.345 OA
HETATM    6  C12 UNL     1     -24.216 -13.390  -3.848  1.00  0.00     0.158 C 
HETATM    7  C13 UNL     1     -23.892 -14.329  -4.971  1.00  0.00     0.078 C 
HETATM    8  C14 UNL     1     -23.556 -12.049  -4.104  1.00  0.00     0.078 C 
HETATM    9  O3  UNL     1     -25.585 -13.211  -3.653  1.00  0.00    -0.346 OA
HETATM   10  C15 UNL     1     -25.653 -12.823  -2.314  1.00  0.00     0.192 C 
ENDROOT
BRANCH   2  11
HETATM   11  N2  UNL     1     -27.615 -15.202  -0.532  1.00  0.00    -0.358 N 
ATOM     12  H2  UNL     1     -27.600 -14.656   0.330  1.00  0.00     0.162 HD
BRANCH  11  13
HETATM   13  C5  UNL     1     -28.311 -16.443  -0.522  1.00  0.00     0.168 C 
HETATM   14  S1  UNL     1     -28.151 -17.490   0.723  1.00  0.00    -0.041 SA
BRANCH  13  15
HETATM   15  N3  UNL     1     -29.163 -16.820  -1.585  1.00  0.00    -0.361 N 
ATOM     16  H3  UNL     1     -30.074 -16.365  -1.658  1.00  0.00     0.162 HD
BRANCH  15  17
HETATM   17  C6  UNL     1     -28.816 -17.812  -2.572  1.00  0.00     0.111 C 
HETATM   18  C7  UNL     1     -28.603 -17.238  -3.937  1.00  0.00     0.054 C 
HETATM   19  C8  UNL     1     -29.396 -18.162  -4.836  1.00  0.00     0.234 C 
HETATM   20  N4  UNL     1     -30.554 -18.510  -4.013  1.00  0.00    -0.073 N 
HETATM   21  C9  UNL     1     -29.872 -18.856  -2.756  1.00  0.00     0.257 C 
ATOM     22  H42 UNL     1     -31.283 -17.799  -3.944  1.00  0.00     0.277 HD
ATOM     23  H41 UNL     1     -31.174 -19.224  -4.395  1.00  0.00     0.277 HD
ENDBRANCH  15  17
ENDBRANCH  13  15
ENDBRANCH  11  13
ENDBRANCH   2  11
BRANCH   1  24
HETATM   24  N1  UNL     1     -28.085 -12.580  -2.275  1.00  0.00     0.089 N 
HETATM   25  C1  UNL     1     -28.808 -13.526  -3.062  1.00  0.00     0.310 C 
HETATM   26  C2  UNL     1     -28.962 -12.114  -1.215  1.00  0.00     0.310 C 
ENDBRANCH   1  24
BRANCH   3  27
HETATM   27  O1  UNL     1     -25.196 -15.543  -0.235  1.00  0.00    -0.391 OA
ATOM     28  H1  UNL     1     -24.444 -15.108   0.149  1.00  0.00     0.210 HD
ENDBRANCH   3  27
TORSDOF 6
ENDMDL
