MODEL 1
REMARK VINA RESULT: -7.125368399      0.000      0.000
REMARK  7 active torsions:
REMARK  status: ('A' for Active; 'I' for Inactive)
REMARK    1  A    between atoms: O1_2  and  C2_3 
REMARK    2  A    between atoms: C10_11  and  O2_12 
REMARK    3  A    between atoms: C10_11  and  C16_23 
REMARK    4  A    between atoms: C11_14  and  O3_15 
REMARK    5  A    between atoms: C12_17  and  C13_18 
REMARK    6  A    between atoms: C13_18  and  C15_20 
REMARK    7  A    between atoms: C15_20  and  O4_21 
ROOT
HETATM    1  C2  UNL     1     -29.283 -17.663  -3.645  1.00  0.00     0.132 A 
HETATM    2  C3  UNL     1     -29.533 -17.146  -2.476  1.00  0.00     0.023 A 
HETATM    3  C4  UNL     1     -28.947 -15.928  -1.853  1.00  0.00     0.050 A 
HETATM    4  C5  UNL     1     -28.281 -16.451  -0.614  1.00  0.00     0.018 C 
HETATM    5  C6  UNL     1     -28.014 -15.574   0.520  1.00  0.00    -0.024 C 
HETATM    6  C7  UNL     1     -27.382 -14.421   0.330  1.00  0.00    -0.020 C 
HETATM    7  C8  UNL     1     -27.020 -14.139  -0.992  1.00  0.00    -0.007 C 
HETATM    8  C9  UNL     1     -28.317 -13.412  -1.514  1.00  0.00     0.057 C 
HETATM    9  C10 UNL     1     -28.052 -13.774  -2.907  1.00  0.00     0.111 C 
HETATM   10  C11 UNL     1     -26.637 -13.152  -2.981  1.00  0.00     0.160 C 
HETATM   11  C12 UNL     1     -26.139 -13.097  -1.516  1.00  0.00     0.036 C 
HETATM   12  C16 UNL     1     -27.988 -15.292  -2.756  1.00  0.00     0.079 A 
HETATM   13  N1  UNL     1     -27.693 -15.848  -4.011  1.00  0.00    -0.342 N 
ATOM     14  H1  UNL     1     -26.997 -15.385  -4.594  1.00  0.00     0.163 HD
HETATM   15  C17 UNL     1     -28.309 -17.012  -4.504  1.00  0.00     0.275 A 
HETATM   16  O5  UNL     1     -28.029 -17.478  -5.657  1.00  0.00    -0.265 OA
HETATM   17  C18 UNL     1     -26.753 -15.316  -1.835  1.00  0.00     0.031 C 
HETATM   18  C19 UNL     1     -26.846 -16.676  -1.180  1.00  0.00     0.017 C 
ENDROOT
BRANCH  11  19
HETATM   19  C13 UNL     1     -24.683 -13.249  -1.389  1.00  0.00     0.013 C 
HETATM   20  C14 UNL     1     -23.968 -13.555  -2.678  1.00  0.00     0.012 C 
BRANCH  19  21
HETATM   21  C15 UNL     1     -24.092 -11.929  -0.889  1.00  0.00     0.168 C 
BRANCH  21  22
HETATM   22  O4  UNL     1     -24.378 -10.875  -1.721  1.00  0.00    -0.400 OA
ATOM     23  H4  UNL     1     -24.372 -10.040  -1.267  1.00  0.00     0.209 HD
ENDBRANCH  21  22
ENDBRANCH  19  21
ENDBRANCH  11  19
BRANCH  10  24
HETATM   24  O3  UNL     1     -26.774 -11.840  -3.426  1.00  0.00    -0.392 OA
ATOM     25  H3  UNL     1     -26.414 -11.794  -4.304  1.00  0.00     0.210 HD
ENDBRANCH  10  24
BRANCH   9  26
HETATM   26  O2  UNL     1     -28.881 -13.337  -3.865  1.00  0.00    -0.385 OA
ATOM     27  H2  UNL     1     -29.814 -13.304  -3.690  1.00  0.00     0.210 HD
ENDBRANCH   9  26
BRANCH   1  28
HETATM   28  O1  UNL     1     -29.910 -18.823  -4.111  1.00  0.00    -0.351 OA
HETATM   29  C1  UNL     1     -31.112 -19.308  -3.556  1.00  0.00     0.210 C 
ENDBRANCH   1  28
TORSDOF 7
ENDMDL
MODEL 2
REMARK VINA RESULT: -6.715497207      2.523      3.841
REMARK  7 active torsions:
REMARK  status: ('A' for Active; 'I' for Inactive)
REMARK    1  A    between atoms: O1_2  and  C2_3 
REMARK    2  A    between atoms: C10_11  and  O2_12 
REMARK    3  A    between atoms: C10_11  and  C16_23 
REMARK    4  A    between atoms: C11_14  and  O3_15 
REMARK    5  A    between atoms: C12_17  and  C13_18 
REMARK    6  A    between atoms: C13_18  and  C15_20 
REMARK    7  A    between atoms: C15_20  and  O4_21 
ROOT
HETATM    1  C2  UNL     1     -29.349 -18.002  -4.028  1.00  0.00     0.132 A 
HETATM    2  C3  UNL     1     -28.353 -17.183  -4.205  1.00  0.00     0.023 A 
HETATM    3  C4  UNL     1     -27.634 -16.359  -3.194  1.00  0.00     0.050 A 
HETATM    4  C5  UNL     1     -27.862 -14.951  -3.662  1.00  0.00     0.018 C 
HETATM    5  C6  UNL     1     -26.957 -13.877  -3.268  1.00  0.00    -0.024 C 
HETATM    6  C7  UNL     1     -26.658 -13.700  -1.986  1.00  0.00    -0.020 C 
HETATM    7  C8  UNL     1     -27.257 -14.597  -1.095  1.00  0.00    -0.007 C 
HETATM    8  C9  UNL     1     -26.202 -15.768  -1.087  1.00  0.00     0.057 C 
HETATM    9  C10 UNL     1     -27.200 -16.768  -0.706  1.00  0.00     0.111 C 
HETATM   10  C11 UNL     1     -27.684 -16.048   0.576  1.00  0.00     0.160 C 
HETATM   11  C12 UNL     1     -27.327 -14.556   0.365  1.00  0.00     0.036 C 
HETATM   12  C16 UNL     1     -28.185 -16.581  -1.858  1.00  0.00     0.079 A 
HETATM   13  N1  UNL     1     -29.271 -17.447  -1.653  1.00  0.00    -0.342 N 
ATOM     14  H1  UNL     1     -29.638 -17.548  -0.707  1.00  0.00     0.163 HD
HETATM   15  C17 UNL     1     -29.879 -18.180  -2.687  1.00  0.00     0.275 A 
HETATM   16  O5  UNL     1     -30.853 -18.971  -2.461  1.00  0.00    -0.265 OA
HETATM   17  C18 UNL     1     -28.563 -15.127  -1.519  1.00  0.00     0.031 C 
HETATM   18  C19 UNL     1     -29.131 -14.613  -2.823  1.00  0.00     0.017 C 
ENDROOT
BRANCH  11  19
HETATM   19  C13 UNL     1     -28.265 -13.633   1.019  1.00  0.00     0.013 C 
HETATM   20  C14 UNL     1     -29.400 -14.303   1.746  1.00  0.00     0.012 C 
BRANCH  19  21
HETATM   21  C15 UNL     1     -27.507 -12.830   2.078  1.00  0.00     0.168 C 
BRANCH  21  22
HETATM   22  O4  UNL     1     -26.512 -13.559   2.681  1.00  0.00    -0.400 OA
ATOM     23  H4  UNL     1     -26.769 -14.458   2.849  1.00  0.00     0.209 HD
ENDBRANCH  21  22
ENDBRANCH  19  21
ENDBRANCH  11  19
BRANCH  10  24
HETATM   24  O3  UNL     1     -26.917 -16.516   1.639  1.00  0.00    -0.392 OA
ATOM     25  H3  UNL     1     -27.037 -15.917   2.367  1.00  0.00     0.210 HD
ENDBRANCH  10  24
BRANCH   9  26
HETATM   26  O2  UNL     1     -26.811 -18.033  -0.495  1.00  0.00    -0.385 OA
ATOM     27  H2  UNL     1     -27.430 -18.739  -0.643  1.00  0.00     0.210 HD
ENDBRANCH   9  26
BRANCH   1  28
HETATM   28  O1  UNL     1     -29.936 -18.721  -5.075  1.00  0.00    -0.351 OA
HETATM   29  C1  UNL     1     -30.986 -18.196  -5.856  1.00  0.00     0.210 C 
ENDBRANCH   1  28
TORSDOF 7
ENDMDL
MODEL 3
REMARK VINA RESULT: -6.636033447      2.000      5.897
REMARK  7 active torsions:
REMARK  status: ('A' for Active; 'I' for Inactive)
REMARK    1  A    between atoms: O1_2  and  C2_3 
REMARK    2  A    between atoms: C10_11  and  O2_12 
REMARK    3  A    between atoms: C10_11  and  C16_23 
REMARK    4  A    between atoms: C11_14  and  O3_15 
REMARK    5  A    between atoms: C12_17  and  C13_18 
REMARK    6  A    between atoms: C13_18  and  C15_20 
REMARK    7  A    between atoms: C15_20  and  O4_21 
ROOT
HETATM    1  C2  UNL     1     -24.510 -12.295  -1.979  1.00  0.00     0.132 A 
HETATM    2  C3  UNL     1     -25.659 -12.102  -1.397  1.00  0.00     0.023 A 
HETATM    3  C4  UNL     1     -26.773 -13.069  -1.195  1.00  0.00     0.050 A 
HETATM    4  C5  UNL     1     -27.921 -12.441  -1.931  1.00  0.00     0.018 C 
HETATM    5  C6  UNL     1     -29.299 -12.782  -1.597  1.00  0.00    -0.024 C 
HETATM    6  C7  UNL     1     -29.670 -14.056  -1.539  1.00  0.00    -0.020 C 
HETATM    7  C8  UNL     1     -28.666 -14.993  -1.807  1.00  0.00    -0.007 C 
HETATM    8  C9  UNL     1     -28.049 -15.198  -0.370  1.00  0.00     0.057 C 
HETATM    9  C10 UNL     1     -26.751 -15.611  -0.902  1.00  0.00     0.111 C 
HETATM   10  C11 UNL     1     -27.284 -16.773  -1.776  1.00  0.00     0.160 C 
HETATM   11  C12 UNL     1     -28.770 -16.432  -2.044  1.00  0.00     0.036 C 
HETATM   12  C16 UNL     1     -26.430 -14.380  -1.746  1.00  0.00     0.079 A 
HETATM   13  N1  UNL     1     -25.203 -14.597  -2.394  1.00  0.00    -0.342 N 
ATOM     14  H1  UNL     1     -25.020 -15.521  -2.786  1.00  0.00     0.163 HD
HETATM   15  C17 UNL     1     -24.215 -13.606  -2.530  1.00  0.00     0.275 A 
HETATM   16  O5  UNL     1     -23.105 -13.845  -3.110  1.00  0.00    -0.265 OA
HETATM   17  C18 UNL     1     -27.609 -14.536  -2.725  1.00  0.00     0.031 C 
HETATM   18  C19 UNL     1     -27.749 -13.149  -3.309  1.00  0.00     0.017 C 
ENDROOT
BRANCH  11  19
HETATM   19  C13 UNL     1     -29.255 -16.917  -3.344  1.00  0.00     0.013 C 
HETATM   20  C14 UNL     1     -28.176 -17.160  -4.365  1.00  0.00     0.012 C 
BRANCH  19  21
HETATM   21  C15 UNL     1     -29.945 -18.266  -3.139  1.00  0.00     0.168 C 
BRANCH  21  22
HETATM   22  O4  UNL     1     -30.364 -18.453  -1.845  1.00  0.00    -0.400 OA
ATOM     23  H4  UNL     1     -30.927 -19.212  -1.749  1.00  0.00     0.209 HD
ENDBRANCH  21  22
ENDBRANCH  19  21
ENDBRANCH  11  19
BRANCH  10  24
HETATM   24  O3  UNL     1     -27.253 -17.931  -1.004  1.00  0.00    -0.392 OA
ATOM     25  H3  UNL     1     -26.456 -18.401  -1.220  1.00  0.00     0.210 HD
ENDBRANCH  10  24
BRANCH   9  26
HETATM   26  O2  UNL     1     -25.783 -15.981  -0.051  1.00  0.00    -0.385 OA
ATOM     27  H2  UNL     1     -24.920 -16.185  -0.392  1.00  0.00     0.210 HD
ENDBRANCH   9  26
BRANCH   1  28
HETATM   28  O1  UNL     1     -23.544 -11.291  -2.101  1.00  0.00    -0.351 OA
HETATM   29  C1  UNL     1     -23.546 -10.364  -3.165  1.00  0.00     0.210 C 
ENDBRANCH   1  28
TORSDOF 7
ENDMDL
MODEL 4
REMARK VINA RESULT: -6.420005232      1.773      5.731
REMARK  7 active torsions:
REMARK  status: ('A' for Active; 'I' for Inactive)
REMARK    1  A    between atoms: O1_2  and  C2_3 
REMARK    2  A    between atoms: C10_11  and  O2_12 
REMARK    3  A    between atoms: C10_11  and  C16_23 
REMARK    4  A    between atoms: C11_14  and  O3_15 
REMARK    5  A    between atoms: C12_17  and  C13_18 
REMARK    6  A    between atoms: C13_18  and  C15_20 
REMARK    7  A    between atoms: C15_20  and  O4_21 
ROOT
HETATM    1  C2  UNL     1     -26.854 -11.375  -1.122  1.00  0.00     0.132 A 
HETATM    2  C3  UNL     1     -26.870 -12.390  -0.306  1.00  0.00     0.023 A 
HETATM    3  C4  UNL     1     -27.008 -13.837  -0.625  1.00  0.00     0.050 A 
HETATM    4  C5  UNL     1     -28.264 -14.238   0.092  1.00  0.00     0.018 C 
HETATM    5  C6  UNL     1     -28.508 -15.630   0.454  1.00  0.00    -0.024 C 
HETATM    6  C7  UNL     1     -28.396 -16.582  -0.465  1.00  0.00    -0.020 C 
HETATM    7  C8  UNL     1     -28.036 -16.149  -1.746  1.00  0.00    -0.007 C 
HETATM    8  C9  UNL     1     -26.463 -16.183  -1.647  1.00  0.00     0.057 C 
HETATM    9  C10 UNL     1     -26.299 -15.171  -2.691  1.00  0.00     0.111 C 
HETATM   10  C11 UNL     1     -27.101 -15.918  -3.783  1.00  0.00     0.160 C 
HETATM   11  C12 UNL     1     -28.042 -16.877  -3.013  1.00  0.00     0.036 C 
HETATM   12  C16 UNL     1     -27.119 -14.043  -2.068  1.00  0.00     0.079 A 
HETATM   13  N1  UNL     1     -27.123 -12.958  -2.959  1.00  0.00    -0.342 N 
ATOM     14  H1  UNL     1     -27.231 -13.149  -3.955  1.00  0.00     0.163 HD
HETATM   15  C17 UNL     1     -26.987 -11.620  -2.547  1.00  0.00     0.275 A 
HETATM   16  O5  UNL     1     -26.977 -10.661  -3.387  1.00  0.00    -0.265 OA
HETATM   17  C18 UNL     1     -28.469 -14.785  -2.093  1.00  0.00     0.031 C 
HETATM   18  C19 UNL     1     -29.286 -14.033  -1.068  1.00  0.00     0.017 C 
ENDROOT
BRANCH  11  19
HETATM   19  C13 UNL     1     -29.318 -17.121  -3.701  1.00  0.00     0.013 C 
HETATM   20  C14 UNL     1     -29.244 -17.051  -5.203  1.00  0.00     0.012 C 
BRANCH  19  21
HETATM   21  C15 UNL     1     -29.791 -18.538  -3.372  1.00  0.00     0.168 C 
BRANCH  21  22
HETATM   22  O4  UNL     1     -30.442 -19.134  -4.424  1.00  0.00    -0.400 OA
ATOM     23  H4  UNL     1     -29.857 -19.344  -5.143  1.00  0.00     0.209 HD
ENDBRANCH  21  22
ENDBRANCH  19  21
ENDBRANCH  11  19
BRANCH  10  24
HETATM   24  O3  UNL     1     -26.205 -16.702  -4.505  1.00  0.00    -0.392 OA
ATOM     25  H3  UNL     1     -26.175 -16.363  -5.392  1.00  0.00     0.210 HD
ENDBRANCH  10  24
BRANCH   9  26
HETATM   26  O2  UNL     1     -25.063 -14.824  -3.077  1.00  0.00    -0.385 OA
ATOM     27  H2  UNL     1     -24.477 -15.493  -3.410  1.00  0.00     0.210 HD
ENDBRANCH   9  26
BRANCH   1  28
HETATM   28  O1  UNL     1     -26.717 -10.053  -0.685  1.00  0.00    -0.351 OA
HETATM   29  C1  UNL     1     -27.820  -9.270  -0.287  1.00  0.00     0.210 C 
ENDBRANCH   1  28
TORSDOF 7
ENDMDL
MODEL 5
REMARK VINA RESULT: -6.330906532      2.599      3.983
REMARK  7 active torsions:
REMARK  status: ('A' for Active; 'I' for Inactive)
REMARK    1  A    between atoms: O1_2  and  C2_3 
REMARK    2  A    between atoms: C10_11  and  O2_12 
REMARK    3  A    between atoms: C10_11  and  C16_23 
REMARK    4  A    between atoms: C11_14  and  O3_15 
REMARK    5  A    between atoms: C12_17  and  C13_18 
REMARK    6  A    between atoms: C13_18  and  C15_20 
REMARK    7  A    between atoms: C15_20  and  O4_21 
ROOT
HETATM    1  C2  UNL     1     -28.537 -16.893  -3.503  1.00  0.00     0.132 A 
HETATM    2  C3  UNL     1     -27.718 -15.890  -3.643  1.00  0.00     0.023 A 
HETATM    3  C4  UNL     1     -27.362 -14.836  -2.654  1.00  0.00     0.050 A 
HETATM    4  C5  UNL     1     -27.799 -13.565  -3.322  1.00  0.00     0.018 C 
HETATM    5  C6  UNL     1     -27.214 -12.283  -2.944  1.00  0.00    -0.024 C 
HETATM    6  C7  UNL     1     -27.172 -11.925  -1.666  1.00  0.00    -0.020 C 
HETATM    7  C8  UNL     1     -27.707 -12.848  -0.761  1.00  0.00    -0.007 C 
HETATM    8  C9  UNL     1     -26.446 -13.746  -0.460  1.00  0.00     0.057 C 
HETATM    9  C10 UNL     1     -27.263 -14.905  -0.097  1.00  0.00     0.111 C 
HETATM   10  C11 UNL     1     -28.088 -14.197   1.004  1.00  0.00     0.160 C 
HETATM   11  C12 UNL     1     -28.020 -12.689   0.659  1.00  0.00     0.036 C 
HETATM   12  C16 UNL     1     -28.064 -15.052  -1.389  1.00  0.00     0.079 A 
HETATM   13  N1  UNL     1     -28.964 -16.118  -1.230  1.00  0.00    -0.342 N 
ATOM     14  H1  UNL     1     -29.451 -16.211  -0.339  1.00  0.00     0.163 HD
HETATM   15  C17 UNL     1     -29.229 -17.062  -2.237  1.00  0.00     0.275 A 
HETATM   16  O5  UNL     1     -30.040 -18.027  -2.051  1.00  0.00    -0.265 OA
HETATM   17  C18 UNL     1     -28.787 -13.695  -1.292  1.00  0.00     0.031 C 
HETATM   18  C19 UNL     1     -29.230 -13.446  -2.716  1.00  0.00     0.017 C 
ENDROOT
BRANCH  11  19
HETATM   19  C13 UNL     1     -29.224 -11.945   1.055  1.00  0.00     0.013 C 
HETATM   20  C14 UNL     1     -29.552 -12.016   2.522  1.00  0.00     0.012 C 
BRANCH  19  21
HETATM   21  C15 UNL     1     -29.008 -10.462   0.748  1.00  0.00     0.168 C 
BRANCH  21  22
HETATM   22  O4  UNL     1     -30.027  -9.924   0.000  1.00  0.00    -0.400 OA
ATOM     23  H4  UNL     1     -30.735  -9.588   0.536  1.00  0.00     0.209 HD
ENDBRANCH  21  22
ENDBRANCH  19  21
ENDBRANCH  11  19
BRANCH  10  24
HETATM   24  O3  UNL     1     -27.424 -14.380   2.214  1.00  0.00    -0.392 OA
ATOM     25  H3  UNL     1     -26.964 -13.573   2.415  1.00  0.00     0.210 HD
ENDBRANCH  10  24
BRANCH   9  26
HETATM   26  O2  UNL     1     -26.657 -16.025   0.322  1.00  0.00    -0.385 OA
ATOM     27  H2  UNL     1     -26.482 -16.718  -0.303  1.00  0.00     0.210 HD
ENDBRANCH   9  26
BRANCH   1  28
HETATM   28  O1  UNL     1     -28.782 -17.819  -4.523  1.00  0.00    -0.351 OA
HETATM   29  C1  UNL     1     -29.987 -17.835  -5.256  1.00  0.00     0.210 C 
ENDBRANCH   1  28
TORSDOF 7
ENDMDL
