MODEL 1
REMARK VINA RESULT: -7.326580465      0.000      0.000
REMARK  3 active torsions:
REMARK  status: ('A' for Active; 'I' for Inactive)
REMARK    1  A    between atoms: C2_2  and  C3_3 
REMARK       I    between atoms: C3_3  and  N1_5 
REMARK    2  A    between atoms: N1_5  and  N2_7 
REMARK    3  A    between atoms: C7_17  and  N5_18 
REMARK       I    between atoms: N5_18  and  C8_20 
ROOT
HETATM    1  N2  UNL     1     -26.209 -15.726  -3.342  1.00  0.00    -0.284 N 
ATOM      2  H2  UNL     1     -25.833 -15.512  -2.418  1.00  0.00     0.188 HD
HETATM    3  C4  UNL     1     -27.385 -16.222  -3.404  1.00  0.00     0.134 C 
HETATM    4  N3  UNL     1     -28.034 -16.569  -4.621  1.00  0.00    -0.295 N 
ATOM      5  H3  UNL     1     -27.674 -16.370  -5.554  1.00  0.00     0.172 HD
HETATM    6  C5  UNL     1     -29.257 -17.235  -4.346  1.00  0.00     0.322 C 
HETATM    7  O2  UNL     1     -30.106 -17.693  -5.172  1.00  0.00    -0.247 OA
HETATM    8  N4  UNL     1     -29.381 -17.308  -2.956  1.00  0.00    -0.322 N 
ATOM      9  H4  UNL     1     -30.109 -17.818  -2.455  1.00  0.00     0.165 HD
HETATM   10  C6  UNL     1     -28.322 -16.548  -2.340  1.00  0.00     0.146 C 
HETATM   11  C7  UNL     1     -28.777 -15.409  -1.462  1.00  0.00     0.154 C 
HETATM   12  C10 UNL     1     -28.412 -16.224  -0.247  1.00  0.00     0.182 C 
HETATM   13  O4  UNL     1     -27.335 -15.764   0.490  1.00  0.00    -0.346 OA
HETATM   14  C11 UNL     1     -26.462 -16.821   0.477  1.00  0.00     0.158 C 
HETATM   15  C12 UNL     1     -25.099 -16.510   1.026  1.00  0.00     0.078 C 
HETATM   16  C13 UNL     1     -26.981 -18.042   1.183  1.00  0.00     0.078 C 
HETATM   17  O5  UNL     1     -26.406 -17.118  -0.907  1.00  0.00    -0.345 OA
HETATM   18  C14 UNL     1     -27.793 -17.255  -1.145  1.00  0.00     0.194 C 
ENDROOT
BRANCH  11  19
HETATM   19  N5  UNL     1     -28.098 -14.170  -1.618  1.00  0.00    -0.351 N 
HETATM   20  C8  UNL     1     -28.676 -12.963  -1.165  1.00  0.00     0.214 C 
HETATM   21  C9  UNL     1     -28.022 -11.639  -1.297  1.00  0.00     0.117 C 
HETATM   22  O3  UNL     1     -29.804 -13.009  -0.619  1.00  0.00    -0.274 OA
ATOM     23  H5  UNL     1     -27.181 -14.152  -2.064  1.00  0.00     0.163 HD
ENDBRANCH  11  19
BRANCH   1  24
HETATM   24  N1  UNL     1     -25.410 -15.458  -4.441  1.00  0.00    -0.269 N 
HETATM   25  C3  UNL     1     -24.268 -14.611  -4.386  1.00  0.00     0.235 C 
HETATM   26  O1  UNL     1     -23.921 -14.049  -3.304  1.00  0.00    -0.272 OA
ATOM     27  H1  UNL     1     -25.651 -15.889  -5.333  1.00  0.00     0.190 HD
BRANCH  25  28
HETATM   28  C2  UNL     1     -23.434 -14.346  -5.586  1.00  0.00     0.100 C 
HETATM   29  C1  UNL     1     -22.037 -14.855  -5.433  1.00  0.00     0.014 C 
ENDBRANCH  25  28
ENDBRANCH   1  24
TORSDOF 3
ENDMDL
MODEL 2
REMARK VINA RESULT: -7.225154869      1.948      5.407
REMARK  3 active torsions:
REMARK  status: ('A' for Active; 'I' for Inactive)
REMARK    1  A    between atoms: C2_2  and  C3_3 
REMARK       I    between atoms: C3_3  and  N1_5 
REMARK    2  A    between atoms: N1_5  and  N2_7 
REMARK    3  A    between atoms: C7_17  and  N5_18 
REMARK       I    between atoms: N5_18  and  C8_20 
ROOT
HETATM    1  N2  UNL     1     -27.570 -15.409  -3.329  1.00  0.00    -0.284 N 
ATOM      2  H2  UNL     1     -28.107 -14.991  -2.569  1.00  0.00     0.188 HD
HETATM    3  C4  UNL     1     -26.346 -15.066  -3.451  1.00  0.00     0.134 C 
HETATM    4  N3  UNL     1     -25.480 -15.566  -4.462  1.00  0.00    -0.295 N 
ATOM      5  H3  UNL     1     -25.717 -16.309  -5.120  1.00  0.00     0.172 HD
HETATM    6  C5  UNL     1     -24.239 -14.879  -4.423  1.00  0.00     0.322 C 
HETATM    7  O2  UNL     1     -23.224 -15.047  -5.167  1.00  0.00    -0.247 OA
HETATM    8  N4  UNL     1     -24.320 -13.945  -3.386  1.00  0.00    -0.322 N 
ATOM      9  H4  UNL     1     -23.618 -13.234  -3.177  1.00  0.00     0.165 HD
HETATM   10  C6  UNL     1     -25.548 -14.143  -2.658  1.00  0.00     0.146 C 
HETATM   11  C7  UNL     1     -25.379 -14.474  -1.196  1.00  0.00     0.154 C 
HETATM   12  C10 UNL     1     -25.820 -13.073  -0.848  1.00  0.00     0.182 C 
HETATM   13  O4  UNL     1     -27.046 -12.963  -0.216  1.00  0.00    -0.346 OA
HETATM   14  C11 UNL     1     -27.766 -12.149  -1.053  1.00  0.00     0.158 C 
HETATM   15  C12 UNL     1     -29.224 -12.041  -0.712  1.00  0.00     0.078 C 
HETATM   16  C13 UNL     1     -27.210 -10.757  -1.169  1.00  0.00     0.078 C 
HETATM   17  O5  UNL     1     -27.572 -12.793  -2.300  1.00  0.00    -0.345 OA
HETATM   18  C14 UNL     1     -26.159 -12.840  -2.291  1.00  0.00     0.194 C 
ENDROOT
BRANCH  11  19
HETATM   19  N5  UNL     1     -26.178 -15.531  -0.683  1.00  0.00    -0.351 N 
HETATM   20  C8  UNL     1     -25.746 -16.296   0.425  1.00  0.00     0.214 C 
HETATM   21  C9  UNL     1     -26.530 -17.410   1.008  1.00  0.00     0.117 C 
HETATM   22  O3  UNL     1     -24.640 -16.018   0.947  1.00  0.00    -0.274 OA
ATOM     23  H5  UNL     1     -27.075 -15.742  -1.120  1.00  0.00     0.163 HD
ENDBRANCH  11  19
BRANCH   1  24
HETATM   24  N1  UNL     1     -28.221 -16.309  -4.157  1.00  0.00    -0.269 N 
HETATM   25  C3  UNL     1     -29.240 -17.191  -3.702  1.00  0.00     0.235 C 
HETATM   26  O1  UNL     1     -29.610 -17.194  -2.489  1.00  0.00    -0.272 OA
ATOM     27  H1  UNL     1     -27.956 -16.341  -5.142  1.00  0.00     0.190 HD
BRANCH  25  28
HETATM   28  C2  UNL     1     -29.916 -18.143  -4.620  1.00  0.00     0.100 C 
HETATM   29  C1  UNL     1     -30.821 -19.087  -3.897  1.00  0.00     0.014 C 
ENDBRANCH  25  28
ENDBRANCH   1  24
TORSDOF 3
ENDMDL
MODEL 3
REMARK VINA RESULT: -7.128192814      1.953      4.961
REMARK  3 active torsions:
REMARK  status: ('A' for Active; 'I' for Inactive)
REMARK    1  A    between atoms: C2_2  and  C3_3 
REMARK       I    between atoms: C3_3  and  N1_5 
REMARK    2  A    between atoms: N1_5  and  N2_7 
REMARK    3  A    between atoms: C7_17  and  N5_18 
REMARK       I    between atoms: N5_18  and  C8_20 
ROOT
HETATM    1  N2  UNL     1     -26.818 -16.364  -0.905  1.00  0.00    -0.284 N 
ATOM      2  H2  UNL     1     -27.730 -16.817  -0.968  1.00  0.00     0.188 HD
HETATM    3  C4  UNL     1     -26.417 -15.693  -1.915  1.00  0.00     0.134 C 
HETATM    4  N3  UNL     1     -25.169 -15.012  -1.969  1.00  0.00    -0.295 N 
ATOM      5  H3  UNL     1     -24.525 -14.910  -1.185  1.00  0.00     0.172 HD
HETATM    6  C5  UNL     1     -24.953 -14.496  -3.273  1.00  0.00     0.322 C 
HETATM    7  O2  UNL     1     -23.957 -13.835  -3.702  1.00  0.00    -0.247 OA
HETATM    8  N4  UNL     1     -26.064 -14.850  -4.044  1.00  0.00    -0.322 N 
ATOM      9  H4  UNL     1     -26.154 -14.706  -5.050  1.00  0.00     0.165 HD
HETATM   10  C6  UNL     1     -27.063 -15.451  -3.196  1.00  0.00     0.146 C 
HETATM   11  C7  UNL     1     -28.390 -14.733  -3.162  1.00  0.00     0.154 C 
HETATM   12  C10 UNL     1     -28.980 -15.824  -4.021  1.00  0.00     0.182 C 
HETATM   13  O4  UNL     1     -29.917 -16.637  -3.408  1.00  0.00    -0.346 OA
HETATM   14  C11 UNL     1     -29.384 -17.894  -3.536  1.00  0.00     0.158 C 
HETATM   15  C12 UNL     1     -30.102 -18.956  -2.754  1.00  0.00     0.078 C 
HETATM   16  C13 UNL     1     -29.269 -18.360  -4.960  1.00  0.00     0.078 C 
HETATM   17  O5  UNL     1     -28.071 -17.689  -3.045  1.00  0.00    -0.345 OA
HETATM   18  C14 UNL     1     -27.707 -16.605  -3.875  1.00  0.00     0.194 C 
ENDROOT
BRANCH  11  19
HETATM   19  N5  UNL     1     -28.984 -14.545  -1.885  1.00  0.00    -0.351 N 
HETATM   20  C8  UNL     1     -28.827 -13.329  -1.183  1.00  0.00     0.214 C 
HETATM   21  C9  UNL     1     -29.419 -13.069   0.151  1.00  0.00     0.117 C 
HETATM   22  O3  UNL     1     -28.152 -12.415  -1.715  1.00  0.00    -0.274 OA
ATOM     23  H5  UNL     1     -29.530 -15.299  -1.469  1.00  0.00     0.163 HD
ENDBRANCH  11  19
BRANCH   1  24
HETATM   24  N1  UNL     1     -26.101 -16.521   0.270  1.00  0.00    -0.269 N 
HETATM   25  C3  UNL     1     -26.521 -17.369   1.332  1.00  0.00     0.235 C 
HETATM   26  O1  UNL     1     -27.595 -18.037   1.251  1.00  0.00    -0.272 OA
ATOM     27  H1  UNL     1     -25.230 -16.002   0.380  1.00  0.00     0.190 HD
BRANCH  25  28
HETATM   28  C2  UNL     1     -25.727 -17.511   2.579  1.00  0.00     0.100 C 
HETATM   29  C1  UNL     1     -24.352 -18.038   2.323  1.00  0.00     0.014 C 
ENDBRANCH  25  28
ENDBRANCH   1  24
TORSDOF 3
ENDMDL
MODEL 4
REMARK VINA RESULT: -7.052817526      2.500      5.494
REMARK  3 active torsions:
REMARK  status: ('A' for Active; 'I' for Inactive)
REMARK    1  A    between atoms: C2_2  and  C3_3 
REMARK       I    between atoms: C3_3  and  N1_5 
REMARK    2  A    between atoms: N1_5  and  N2_7 
REMARK    3  A    between atoms: C7_17  and  N5_18 
REMARK       I    between atoms: N5_18  and  C8_20 
ROOT
HETATM    1  N2  UNL     1     -26.869 -16.913   0.132  1.00  0.00    -0.284 N 
ATOM      2  H2  UNL     1     -27.763 -17.308  -0.160  1.00  0.00     0.188 HD
HETATM    3  C4  UNL     1     -26.371 -15.979  -0.582  1.00  0.00     0.134 C 
HETATM    4  N3  UNL     1     -25.134 -15.337  -0.297  1.00  0.00    -0.295 N 
ATOM      5  H3  UNL     1     -24.578 -15.487   0.546  1.00  0.00     0.172 HD
HETATM    6  C5  UNL     1     -24.786 -14.458  -1.355  1.00  0.00     0.322 C 
HETATM    7  O2  UNL     1     -23.759 -13.719  -1.457  1.00  0.00    -0.247 OA
HETATM    8  N4  UNL     1     -25.803 -14.543  -2.310  1.00  0.00    -0.322 N 
ATOM      9  H4  UNL     1     -25.786 -14.102  -3.230  1.00  0.00     0.165 HD
HETATM   10  C6  UNL     1     -26.879 -15.351  -1.792  1.00  0.00     0.146 C 
HETATM   11  C7  UNL     1     -28.211 -14.650  -1.686  1.00  0.00     0.154 C 
HETATM   12  C10 UNL     1     -28.692 -15.422  -2.890  1.00  0.00     0.182 C 
HETATM   13  O4  UNL     1     -29.678 -16.362  -2.652  1.00  0.00    -0.346 OA
HETATM   14  C11 UNL     1     -29.118 -17.533  -3.094  1.00  0.00     0.158 C 
HETATM   15  C12 UNL     1     -29.902 -18.767  -2.748  1.00  0.00     0.078 C 
HETATM   16  C13 UNL     1     -28.845 -17.553  -4.572  1.00  0.00     0.078 C 
HETATM   17  O5  UNL     1     -27.868 -17.511  -2.428  1.00  0.00    -0.345 OA
HETATM   18  C14 UNL     1     -27.431 -16.235  -2.851  1.00  0.00     0.194 C 
ENDROOT
BRANCH  11  19
HETATM   19  N5  UNL     1     -28.941 -14.842  -0.481  1.00  0.00    -0.351 N 
HETATM   20  C8  UNL     1     -28.913 -13.874   0.548  1.00  0.00     0.214 C 
HETATM   21  C9  UNL     1     -29.649 -14.013   1.826  1.00  0.00     0.117 C 
HETATM   22  O3  UNL     1     -28.228 -12.837   0.373  1.00  0.00    -0.274 OA
ATOM     23  H5  UNL     1     -29.493 -15.691  -0.358  1.00  0.00     0.163 HD
ENDBRANCH  11  19
BRANCH   1  24
HETATM   24  N1  UNL     1     -26.280 -17.429   1.275  1.00  0.00    -0.269 N 
HETATM   25  C3  UNL     1     -26.926 -17.451   2.542  1.00  0.00     0.235 C 
HETATM   26  O1  UNL     1     -28.098 -16.990   2.688  1.00  0.00    -0.272 OA
ATOM     27  H1  UNL     1     -25.337 -17.811   1.205  1.00  0.00     0.190 HD
BRANCH  25  28
HETATM   28  C2  UNL     1     -26.263 -18.012   3.747  1.00  0.00     0.100 C 
HETATM   29  C1  UNL     1     -25.502 -19.263   3.449  1.00  0.00     0.014 C 
ENDBRANCH  25  28
ENDBRANCH   1  24
TORSDOF 3
ENDMDL
MODEL 5
REMARK VINA RESULT: -6.935613459      1.663      4.436
REMARK  3 active torsions:
REMARK  status: ('A' for Active; 'I' for Inactive)
REMARK    1  A    between atoms: C2_2  and  C3_3 
REMARK       I    between atoms: C3_3  and  N1_5 
REMARK    2  A    between atoms: N1_5  and  N2_7 
REMARK    3  A    between atoms: C7_17  and  N5_18 
REMARK       I    between atoms: N5_18  and  C8_20 
ROOT
HETATM    1  N2  UNL     1     -28.297 -16.663  -1.875  1.00  0.00    -0.284 N 
ATOM      2  H2  UNL     1     -27.487 -17.187  -1.542  1.00  0.00     0.188 HD
HETATM    3  C4  UNL     1     -28.468 -15.482  -1.422  1.00  0.00     0.134 C 
HETATM    4  N3  UNL     1     -29.551 -14.639  -1.794  1.00  0.00    -0.295 N 
ATOM      5  H3  UNL     1     -30.234 -14.851  -2.522  1.00  0.00     0.172 HD
HETATM    6  C5  UNL     1     -29.544 -13.460  -1.005  1.00  0.00     0.322 C 
HETATM    7  O2  UNL     1     -30.351 -12.480  -1.048  1.00  0.00    -0.247 OA
HETATM    8  N4  UNL     1     -28.456 -13.556  -0.134  1.00  0.00    -0.322 N 
ATOM      9  H4  UNL     1     -28.248 -12.905   0.624  1.00  0.00     0.165 HD
HETATM   10  C6  UNL     1     -27.672 -14.718  -0.473  1.00  0.00     0.146 C 
HETATM   11  C7  UNL     1     -26.241 -14.434  -0.859  1.00  0.00     0.154 C 
HETATM   12  C10 UNL     1     -25.795 -14.969   0.480  1.00  0.00     0.182 C 
HETATM   13  O4  UNL     1     -25.091 -16.159   0.452  1.00  0.00    -0.346 OA
HETATM   14  C11 UNL     1     -25.841 -16.994   1.240  1.00  0.00     0.158 C 
HETATM   15  C12 UNL     1     -25.415 -18.433   1.205  1.00  0.00     0.078 C 
HETATM   16  C13 UNL     1     -25.912 -16.564   2.679  1.00  0.00     0.078 C 
HETATM   17  O5  UNL     1     -27.129 -16.822   0.678  1.00  0.00    -0.345 OA
HETATM   18  C14 UNL     1     -27.202 -15.412   0.753  1.00  0.00     0.194 C 
ENDROOT
BRANCH  11  19
HETATM   19  N5  UNL     1     -25.742 -15.109  -2.006  1.00  0.00    -0.351 N 
HETATM   20  C8  UNL     1     -25.311 -14.389  -3.142  1.00  0.00     0.214 C 
HETATM   21  C9  UNL     1     -24.782 -15.031  -4.369  1.00  0.00     0.117 C 
HETATM   22  O3  UNL     1     -25.377 -13.137  -3.116  1.00  0.00    -0.274 OA
ATOM     23  H5  UNL     1     -25.695 -16.128  -2.008  1.00  0.00     0.163 HD
ENDBRANCH  11  19
BRANCH   1  24
HETATM   24  N1  UNL     1     -29.135 -17.285  -2.786  1.00  0.00    -0.269 N 
HETATM   25  C3  UNL     1     -28.847 -17.373  -4.176  1.00  0.00     0.235 C 
HETATM   26  O1  UNL     1     -27.785 -16.876  -4.658  1.00  0.00    -0.272 OA
ATOM     27  H1  UNL     1     -30.002 -17.700  -2.443  1.00  0.00     0.190 HD
BRANCH  25  28
HETATM   28  C2  UNL     1     -29.771 -18.048  -5.124  1.00  0.00     0.100 C 
HETATM   29  C1  UNL     1     -30.815 -18.855  -4.425  1.00  0.00     0.014 C 
ENDBRANCH  25  28
ENDBRANCH   1  24
TORSDOF 3
ENDMDL
