MODEL 1
REMARK VINA RESULT: -5.947808335      0.000      0.000
REMARK  4 active torsions:
REMARK  status: ('A' for Active; 'I' for Inactive)
REMARK    1  A    between atoms: S1_2  and  C2_3 
REMARK    2  A    between atoms: C6_10  and  O1_11 
REMARK    3  A    between atoms: C6_10  and  C7_13 
REMARK    4  A    between atoms: C11_19  and  C12_20 
ROOT
HETATM    1  C2  UNL     1     -27.715 -15.850   0.624  1.00  0.00     0.255 C 
HETATM    2  N1  UNL     1     -26.500 -16.567   0.856  1.00  0.00    -0.060 N 
ATOM      3  H11 UNL     1     -26.551 -17.533   0.533  1.00  0.00     0.278 HD
ATOM      4  H12 UNL     1     -26.344 -16.756   1.846  1.00  0.00     0.278 HD
HETATM    5  C3  UNL     1     -25.416 -15.850   0.262  1.00  0.00     0.251 C 
HETATM    6  C4  UNL     1     -25.998 -14.528  -0.240  1.00  0.00     0.116 C 
HETATM    7  C5  UNL     1     -27.405 -14.905  -0.548  1.00  0.00     0.090 C 
HETATM    8  C6  UNL     1     -27.597 -15.710  -1.797  1.00  0.00     0.161 C 
HETATM    9  C8  UNL     1     -26.998 -15.148  -3.042  1.00  0.00     0.019 C 
HETATM   10  C9  UNL     1     -27.617 -13.823  -3.438  1.00  0.00     0.020 C 
HETATM   11  C10 UNL     1     -27.330 -16.119  -4.160  1.00  0.00     0.020 C 
HETATM   12  C11 UNL     1     -25.490 -15.059  -2.975  1.00  0.00     0.192 C 
HETATM   13  S2  UNL     1     -25.108 -13.926  -1.628  1.00  0.00     0.037 S 
HETATM   14  O6  UNL     1     -25.605 -12.387  -1.990  1.00  0.00    -0.257 OA
ENDROOT
BRANCH   8  15
HETATM   15  O1  UNL     1     -27.171 -17.032  -1.651  1.00  0.00    -0.377 OA
ATOM     16  H1  UNL     1     -27.448 -17.585  -2.372  1.00  0.00     0.211 HD
ENDBRANCH   8  15
BRANCH   8  17
HETATM   17  C7  UNL     1     -29.081 -15.777  -2.010  1.00  0.00     0.210 C 
HETATM   18  O2  UNL     1     -29.630 -16.854  -2.369  1.00  0.00    -0.646 OA
HETATM   19  O3  UNL     1     -29.919 -14.686  -1.830  1.00  0.00    -0.646 OA
ENDBRANCH   8  17
BRANCH   1  20
HETATM   20  S1  UNL     1     -28.124 -14.860   2.108  1.00  0.00    -0.140 SA
HETATM   21  C1  UNL     1     -29.156 -13.469   1.548  1.00  0.00     0.092 C 
ENDBRANCH   1  20
BRANCH  12  22
HETATM   22  C12 UNL     1     -24.866 -14.643  -4.215  1.00  0.00     0.190 C 
HETATM   23  O4  UNL     1     -24.738 -13.426  -4.482  1.00  0.00    -0.647 OA
HETATM   24  O5  UNL     1     -24.401 -15.561  -5.126  1.00  0.00    -0.647 OA
ENDBRANCH  12  22
TORSDOF 4
ENDMDL
MODEL 2
REMARK VINA RESULT: -5.684477585      2.288      4.138
REMARK  4 active torsions:
REMARK  status: ('A' for Active; 'I' for Inactive)
REMARK    1  A    between atoms: S1_2  and  C2_3 
REMARK    2  A    between atoms: C6_10  and  O1_11 
REMARK    3  A    between atoms: C6_10  and  C7_13 
REMARK    4  A    between atoms: C11_19  and  C12_20 
ROOT
HETATM    1  C2  UNL     1     -28.022 -11.807  -0.535  1.00  0.00     0.255 C 
HETATM    2  N1  UNL     1     -29.257 -12.060   0.137  1.00  0.00    -0.060 N 
ATOM      3  H11 UNL     1     -30.067 -11.869  -0.453  1.00  0.00     0.278 HD
ATOM      4  H12 UNL     1     -29.449 -11.375   0.868  1.00  0.00     0.278 HD
HETATM    5  C3  UNL     1     -29.251 -13.399   0.635  1.00  0.00     0.251 C 
HETATM    6  C4  UNL     1     -27.849 -13.949   0.373  1.00  0.00     0.116 C 
HETATM    7  C5  UNL     1     -27.444 -13.197  -0.847  1.00  0.00     0.090 C 
HETATM    8  C6  UNL     1     -28.090 -13.643  -2.122  1.00  0.00     0.161 C 
HETATM    9  C8  UNL     1     -27.993 -15.097  -2.438  1.00  0.00     0.019 C 
HETATM   10  C9  UNL     1     -26.563 -15.552  -2.647  1.00  0.00     0.020 C 
HETATM   11  C10 UNL     1     -28.699 -15.303  -3.765  1.00  0.00     0.020 C 
HETATM   12  C11 UNL     1     -28.708 -15.963  -1.424  1.00  0.00     0.192 C 
HETATM   13  S2  UNL     1     -27.878 -15.691   0.151  1.00  0.00     0.037 S 
HETATM   14  O6  UNL     1     -26.330 -16.279   0.114  1.00  0.00    -0.257 OA
ENDROOT
BRANCH   8  15
HETATM   15  O1  UNL     1     -29.429 -13.254  -2.208  1.00  0.00    -0.377 OA
ATOM     16  H1  UNL     1     -30.024 -13.993  -2.177  1.00  0.00     0.211 HD
ENDBRANCH   8  15
BRANCH   8  17
HETATM   17  C7  UNL     1     -27.376 -12.904  -3.216  1.00  0.00     0.210 C 
HETATM   18  O2  UNL     1     -28.012 -12.150  -4.002  1.00  0.00    -0.646 OA
HETATM   19  O3  UNL     1     -26.008 -13.003  -3.426  1.00  0.00    -0.646 OA
ENDBRANCH   8  17
BRANCH   1  20
HETATM   20  S1  UNL     1     -26.889 -10.921   0.597  1.00  0.00    -0.140 SA
HETATM   21  C1  UNL     1     -27.928 -10.054   1.815  1.00  0.00     0.092 C 
ENDBRANCH   1  20
BRANCH  12  22
HETATM   22  C12 UNL     1     -28.747 -17.370  -1.770  1.00  0.00     0.190 C 
HETATM   23  O4  UNL     1     -27.715 -18.073  -1.680  1.00  0.00    -0.647 OA
HETATM   24  O5  UNL     1     -29.908 -17.969  -2.202  1.00  0.00    -0.647 OA
ENDBRANCH  12  22
TORSDOF 4
ENDMDL
MODEL 3
REMARK VINA RESULT: -5.570808534      2.421      4.010
REMARK  4 active torsions:
REMARK  status: ('A' for Active; 'I' for Inactive)
REMARK    1  A    between atoms: S1_2  and  C2_3 
REMARK    2  A    between atoms: C6_10  and  O1_11 
REMARK    3  A    between atoms: C6_10  and  C7_13 
REMARK    4  A    between atoms: C11_19  and  C12_20 
ROOT
HETATM    1  C2  UNL     1     -25.186 -12.559  -0.094  1.00  0.00     0.255 C 
HETATM    2  N1  UNL     1     -24.955 -13.826   0.525  1.00  0.00    -0.060 N 
ATOM      3  H11 UNL     1     -25.586 -13.997   1.308  1.00  0.00     0.278 HD
ATOM      4  H12 UNL     1     -24.077 -13.852   1.042  1.00  0.00     0.278 HD
HETATM    5  C3  UNL     1     -25.032 -14.851  -0.468  1.00  0.00     0.251 C 
HETATM    6  C4  UNL     1     -25.173 -14.136  -1.813  1.00  0.00     0.116 C 
HETATM    7  C5  UNL     1     -25.880 -12.884  -1.426  1.00  0.00     0.090 C 
HETATM    8  C6  UNL     1     -27.337 -13.038  -1.112  1.00  0.00     0.161 C 
HETATM    9  C8  UNL     1     -28.165 -13.723  -2.147  1.00  0.00     0.019 C 
HETATM   10  C9  UNL     1     -28.216 -12.955  -3.452  1.00  0.00     0.020 C 
HETATM   11  C10 UNL     1     -29.587 -13.749  -1.618  1.00  0.00     0.020 C 
HETATM   12  C11 UNL     1     -27.755 -15.161  -2.365  1.00  0.00     0.192 C 
HETATM   13  S2  UNL     1     -26.058 -15.120  -2.967  1.00  0.00     0.037 S 
HETATM   14  O6  UNL     1     -25.981 -14.428  -4.471  1.00  0.00    -0.257 OA
ENDROOT
BRANCH   8  15
HETATM   15  O1  UNL     1     -27.555 -13.659   0.119  1.00  0.00    -0.377 OA
ATOM     16  H1  UNL     1     -27.145 -13.194   0.838  1.00  0.00     0.211 HD
ENDBRANCH   8  15
BRANCH   8  17
HETATM   17  C7  UNL     1     -27.869 -11.643  -0.971  1.00  0.00     0.210 C 
HETATM   18  O2  UNL     1     -28.740 -11.373  -0.099  1.00  0.00    -0.646 OA
HETATM   19  O3  UNL     1     -27.448 -10.589  -1.770  1.00  0.00    -0.646 OA
ENDBRANCH   8  17
BRANCH   1  20
HETATM   20  S1  UNL     1     -23.578 -11.751  -0.432  1.00  0.00    -0.140 SA
HETATM   21  C1  UNL     1     -23.866 -10.530  -1.751  1.00  0.00     0.092 C 
ENDBRANCH   1  20
BRANCH  12  22
HETATM   22  C12 UNL     1     -28.622 -15.895  -3.265  1.00  0.00     0.190 C 
HETATM   23  O4  UNL     1     -28.509 -15.758  -4.505  1.00  0.00    -0.647 OA
HETATM   24  O5  UNL     1     -29.585 -16.755  -2.791  1.00  0.00    -0.647 OA
ENDBRANCH  12  22
TORSDOF 4
ENDMDL
MODEL 4
REMARK VINA RESULT: -5.529883984      2.510      4.782
REMARK  4 active torsions:
REMARK  status: ('A' for Active; 'I' for Inactive)
REMARK    1  A    between atoms: S1_2  and  C2_3 
REMARK    2  A    between atoms: C6_10  and  O1_11 
REMARK    3  A    between atoms: C6_10  and  C7_13 
REMARK    4  A    between atoms: C11_19  and  C12_20 
ROOT
HETATM    1  C2  UNL     1     -27.795 -16.650  -3.391  1.00  0.00     0.255 C 
HETATM    2  N1  UNL     1     -28.071 -17.458  -2.246  1.00  0.00    -0.060 N 
ATOM      3  H11 UNL     1     -27.225 -17.852  -1.835  1.00  0.00     0.278 HD
ATOM      4  H12 UNL     1     -28.532 -18.334  -2.490  1.00  0.00     0.278 HD
HETATM    5  C3  UNL     1     -28.825 -16.691  -1.305  1.00  0.00     0.251 C 
HETATM    6  C4  UNL     1     -29.156 -15.368  -1.996  1.00  0.00     0.116 C 
HETATM    7  C5  UNL     1     -27.999 -15.201  -2.918  1.00  0.00     0.090 C 
HETATM    8  C6  UNL     1     -26.713 -14.788  -2.270  1.00  0.00     0.161 C 
HETATM    9  C8  UNL     1     -26.773 -13.578  -1.399  1.00  0.00     0.019 C 
HETATM   10  C9  UNL     1     -27.141 -12.326  -2.168  1.00  0.00     0.020 C 
HETATM   11  C10 UNL     1     -25.368 -13.352  -0.872  1.00  0.00     0.020 C 
HETATM   12  C11 UNL     1     -27.665 -13.770  -0.194  1.00  0.00     0.192 C 
HETATM   13  S2  UNL     1     -29.324 -14.065  -0.831  1.00  0.00     0.037 S 
HETATM   14  O6  UNL     1     -29.917 -12.712  -1.581  1.00  0.00    -0.257 OA
ENDROOT
BRANCH   8  15
HETATM   15  O1  UNL     1     -26.118 -15.827  -1.552  1.00  0.00    -0.377 OA
ATOM     16  H1  UNL     1     -25.201 -15.941  -1.770  1.00  0.00     0.211 HD
ENDBRANCH   8  15
BRANCH   8  17
HETATM   17  C7  UNL     1     -25.775 -14.475  -3.398  1.00  0.00     0.210 C 
HETATM   18  O2  UNL     1     -26.212 -14.011  -4.486  1.00  0.00    -0.646 OA
HETATM   19  O3  UNL     1     -24.404 -14.674  -3.317  1.00  0.00    -0.646 OA
ENDBRANCH   8  17
BRANCH   1  20
HETATM   20  S1  UNL     1     -29.009 -17.032  -4.707  1.00  0.00    -0.140 SA
HETATM   21  C1  UNL     1     -29.809 -18.602  -4.249  1.00  0.00     0.092 C 
ENDBRANCH   1  20
BRANCH  12  22
HETATM   22  C12 UNL     1     -27.642 -12.665   0.743  1.00  0.00     0.190 C 
HETATM   23  O4  UNL     1     -27.195 -12.826   1.902  1.00  0.00    -0.647 OA
HETATM   24  O5  UNL     1     -28.106 -11.418   0.391  1.00  0.00    -0.647 OA
ENDBRANCH  12  22
TORSDOF 4
ENDMDL
MODEL 5
REMARK VINA RESULT: -5.444406969      2.313      3.478
REMARK  4 active torsions:
REMARK  status: ('A' for Active; 'I' for Inactive)
REMARK    1  A    between atoms: S1_2  and  C2_3 
REMARK    2  A    between atoms: C6_10  and  O1_11 
REMARK    3  A    between atoms: C6_10  and  C7_13 
REMARK    4  A    between atoms: C11_19  and  C12_20 
ROOT
HETATM    1  C2  UNL     1     -28.231 -16.795   0.913  1.00  0.00     0.255 C 
HETATM    2  N1  UNL     1     -28.942 -17.400  -0.170  1.00  0.00    -0.060 N 
ATOM      3  H11 UNL     1     -29.922 -17.117  -0.198  1.00  0.00     0.278 HD
ATOM      4  H12 UNL     1     -29.087 -18.399  -0.029  1.00  0.00     0.278 HD
HETATM    5  C3  UNL     1     -28.258 -17.117  -1.392  1.00  0.00     0.251 C 
HETATM    6  C4  UNL     1     -26.958 -16.413  -1.004  1.00  0.00     0.116 C 
HETATM    7  C5  UNL     1     -27.342 -15.725   0.259  1.00  0.00     0.090 C 
HETATM    8  C6  UNL     1     -28.202 -14.509   0.094  1.00  0.00     0.161 C 
HETATM    9  C8  UNL     1     -27.700 -13.469  -0.850  1.00  0.00     0.019 C 
HETATM   10  C9  UNL     1     -26.391 -12.856  -0.396  1.00  0.00     0.020 C 
HETATM   11  C10 UNL     1     -28.718 -12.345  -0.840  1.00  0.00     0.020 C 
HETATM   12  C11 UNL     1     -27.614 -13.968  -2.275  1.00  0.00     0.192 C 
HETATM   13  S2  UNL     1     -26.423 -15.319  -2.270  1.00  0.00     0.037 S 
HETATM   14  O6  UNL     1     -24.900 -14.763  -1.927  1.00  0.00    -0.257 OA
ENDROOT
BRANCH   8  15
HETATM   15  O1  UNL     1     -29.517 -14.828  -0.248  1.00  0.00    -0.377 OA
ATOM     16  H1  UNL     1     -30.128 -14.135  -0.028  1.00  0.00     0.211 HD
ENDBRANCH   8  15
BRANCH   8  17
HETATM   17  C7  UNL     1     -28.271 -13.877   1.453  1.00  0.00     0.210 C 
HETATM   18  O2  UNL     1     -29.360 -13.412   1.890  1.00  0.00    -0.646 OA
HETATM   19  O3  UNL     1     -27.171 -13.766   2.292  1.00  0.00    -0.646 OA
ENDBRANCH   8  17
BRANCH   1  20
HETATM   20  S1  UNL     1     -27.172 -18.052   1.717  1.00  0.00    -0.140 SA
HETATM   21  C1  UNL     1     -25.828 -17.156   2.555  1.00  0.00     0.092 C 
ENDBRANCH   1  20
BRANCH  12  22
HETATM   22  C12 UNL     1     -27.258 -12.947  -3.239  1.00  0.00     0.190 C 
HETATM   23  O4  UNL     1     -28.148 -12.345  -3.883  1.00  0.00    -0.647 OA
HETATM   24  O5  UNL     1     -25.945 -12.611  -3.475  1.00  0.00    -0.647 OA
ENDBRANCH  12  22
TORSDOF 4
ENDMDL
