MODEL 1
REMARK VINA RESULT: -6.147663118      0.000      0.000
REMARK  5 active torsions:
REMARK  status: ('A' for Active; 'I' for Inactive)
REMARK    1  A    between atoms: C2_2  and  N1_5 
REMARK    2  A    between atoms: N1_5  and  S1_7 
REMARK    3  A    between atoms: S1_7  and  N2_10 
REMARK    4  A    between atoms: N2_10  and  C5_12 
REMARK    5  A    between atoms: C8_19  and  C10_21 
ROOT
HETATM    1  C5  UNL     1     -28.455 -16.950  -0.349  1.00  0.00     0.231 C 
HETATM    2  N3  UNL     1     -29.465 -17.730  -1.032  1.00  0.00    -0.318 N 
ATOM      3  H3  UNL     1     -30.173 -18.318  -0.590  1.00  0.00     0.166 HD
HETATM    4  C6  UNL     1     -29.293 -17.530  -2.433  1.00  0.00     0.321 C 
HETATM    5  O3  UNL     1     -30.104 -17.827  -3.359  1.00  0.00    -0.247 OA
HETATM    6  N4  UNL     1     -28.033 -16.924  -2.677  1.00  0.00    -0.315 N 
HETATM    7  C7  UNL     1     -27.196 -16.366  -3.706  1.00  0.00     0.160 C 
HETATM    8  C8  UNL     1     -26.938 -14.906  -3.309  1.00  0.00     0.111 C 
HETATM    9  C9  UNL     1     -28.108 -14.031  -3.609  1.00  0.00     0.040 C 
HETATM   10  S2  UNL     1     -26.715 -15.128  -1.496  1.00  0.00    -0.117 SA
HETATM   11  C11 UNL     1     -27.354 -16.849  -1.394  1.00  0.00     0.195 C 
ENDROOT
BRANCH   1  12
HETATM   12  N2  UNL     1     -27.912 -17.759   0.717  1.00  0.00    -0.278 N 
ATOM     13  H2  UNL     1     -27.673 -18.742   0.586  1.00  0.00     0.176 HD
BRANCH  12  14
HETATM   14  S1  UNL     1     -27.698 -16.960   2.205  1.00  0.00     0.317 S 
HETATM   15  O1  UNL     1     -27.443 -18.021   3.267  1.00  0.00    -0.183 OA
HETATM   16  O2  UNL     1     -29.028 -16.271   2.514  1.00  0.00    -0.183 OA
BRANCH  14  17
HETATM   17  N1  UNL     1     -26.439 -15.837   2.121  1.00  0.00    -0.294 N 
ATOM     18  H1  UNL     1     -26.633 -14.838   2.049  1.00  0.00     0.174 HD
BRANCH  17  19
HETATM   19  C2  UNL     1     -25.110 -16.319   2.152  1.00  0.00     0.031 C 
HETATM   20  C1  UNL     1     -24.846 -17.629   1.488  1.00  0.00     0.038 C 
HETATM   21  C3  UNL     1     -24.527 -16.398   3.550  1.00  0.00     0.038 C 
HETATM   22  C4  UNL     1     -24.252 -15.266   1.422  1.00  0.00     0.038 C 
ENDBRANCH  17  19
ENDBRANCH  14  17
ENDBRANCH  12  14
ENDBRANCH   1  12
BRANCH   8  23
HETATM   23  C10 UNL     1     -25.686 -14.493  -3.946  1.00  0.00     0.193 C 
HETATM   24  O4  UNL     1     -25.258 -13.310  -3.960  1.00  0.00    -0.647 OA
HETATM   25  O5  UNL     1     -24.912 -15.456  -4.579  1.00  0.00    -0.647 OA
ENDBRANCH   8  23
TORSDOF 5
ENDMDL
MODEL 2
REMARK VINA RESULT: -6.087446354      1.119      1.235
REMARK  5 active torsions:
REMARK  status: ('A' for Active; 'I' for Inactive)
REMARK    1  A    between atoms: C2_2  and  N1_5 
REMARK    2  A    between atoms: N1_5  and  S1_7 
REMARK    3  A    between atoms: S1_7  and  N2_10 
REMARK    4  A    between atoms: N2_10  and  C5_12 
REMARK    5  A    between atoms: C8_19  and  C10_21 
ROOT
HETATM    1  C5  UNL     1     -28.334 -16.933  -0.183  1.00  0.00     0.231 C 
HETATM    2  N3  UNL     1     -29.388 -17.701  -0.813  1.00  0.00    -0.318 N 
ATOM      3  H3  UNL     1     -30.083 -18.274  -0.334  1.00  0.00     0.166 HD
HETATM    4  C6  UNL     1     -29.280 -17.511  -2.222  1.00  0.00     0.321 C 
HETATM    5  O3  UNL     1     -30.138 -17.801  -3.106  1.00  0.00    -0.247 OA
HETATM    6  N4  UNL     1     -28.024 -16.927  -2.529  1.00  0.00    -0.315 N 
HETATM    7  C7  UNL     1     -27.229 -16.388  -3.601  1.00  0.00     0.160 C 
HETATM    8  C8  UNL     1     -26.929 -14.930  -3.225  1.00  0.00     0.111 C 
HETATM    9  C9  UNL     1     -28.098 -14.038  -3.476  1.00  0.00     0.040 C 
HETATM   10  S2  UNL     1     -26.623 -15.144  -1.424  1.00  0.00    -0.117 SA
HETATM   11  C11 UNL     1     -27.283 -16.855  -1.280  1.00  0.00     0.195 C 
ENDROOT
BRANCH   1  12
HETATM   12  N2  UNL     1     -27.754 -17.744   0.860  1.00  0.00    -0.278 N 
ATOM     13  H2  UNL     1     -27.722 -18.762   0.804  1.00  0.00     0.176 HD
BRANCH  12  14
HETATM   14  S1  UNL     1     -27.127 -16.886   2.190  1.00  0.00     0.317 S 
HETATM   15  O1  UNL     1     -27.808 -17.415   3.445  1.00  0.00    -0.183 OA
HETATM   16  O2  UNL     1     -27.540 -15.427   1.989  1.00  0.00    -0.183 OA
BRANCH  14  17
HETATM   17  N1  UNL     1     -25.447 -17.033   2.276  1.00  0.00    -0.294 N 
ATOM     18  H1  UNL     1     -24.844 -16.215   2.188  1.00  0.00     0.174 HD
BRANCH  17  19
HETATM   19  C2  UNL     1     -24.897 -18.322   2.473  1.00  0.00     0.031 C 
HETATM   20  C1  UNL     1     -24.737 -19.183   1.265  1.00  0.00     0.038 C 
HETATM   21  C3  UNL     1     -25.632 -19.141   3.516  1.00  0.00     0.038 C 
HETATM   22  C4  UNL     1     -23.487 -18.104   3.057  1.00  0.00     0.038 C 
ENDBRANCH  17  19
ENDBRANCH  14  17
ENDBRANCH  12  14
ENDBRANCH   1  12
BRANCH   8  23
HETATM   23  C10 UNL     1     -25.702 -14.540  -3.925  1.00  0.00     0.193 C 
HETATM   24  O4  UNL     1     -25.261 -13.364  -3.971  1.00  0.00    -0.647 OA
HETATM   25  O5  UNL     1     -24.971 -15.520  -4.581  1.00  0.00    -0.647 OA
ENDBRANCH   8  23
TORSDOF 5
ENDMDL
MODEL 3
REMARK VINA RESULT: -6.049057594      1.232      1.744
REMARK  5 active torsions:
REMARK  status: ('A' for Active; 'I' for Inactive)
REMARK    1  A    between atoms: C2_2  and  N1_5 
REMARK    2  A    between atoms: N1_5  and  S1_7 
REMARK    3  A    between atoms: S1_7  and  N2_10 
REMARK    4  A    between atoms: N2_10  and  C5_12 
REMARK    5  A    between atoms: C8_19  and  C10_21 
ROOT
HETATM    1  C5  UNL     1     -28.404 -16.889  -0.321  1.00  0.00     0.231 C 
HETATM    2  N3  UNL     1     -29.427 -17.669  -0.986  1.00  0.00    -0.318 N 
ATOM      3  H3  UNL     1     -30.134 -18.247  -0.531  1.00  0.00     0.166 HD
HETATM    4  C6  UNL     1     -29.268 -17.484  -2.390  1.00  0.00     0.321 C 
HETATM    5  O3  UNL     1     -30.090 -17.785  -3.305  1.00  0.00    -0.247 OA
HETATM    6  N4  UNL     1     -28.006 -16.890  -2.654  1.00  0.00    -0.315 N 
HETATM    7  C7  UNL     1     -27.176 -16.350  -3.697  1.00  0.00     0.160 C 
HETATM    8  C8  UNL     1     -26.902 -14.887  -3.317  1.00  0.00     0.111 C 
HETATM    9  C9  UNL     1     -28.069 -14.006  -3.615  1.00  0.00     0.040 C 
HETATM   10  S2  UNL     1     -26.662 -15.092  -1.505  1.00  0.00    -0.117 SA
HETATM   11  C11 UNL     1     -27.313 -16.808  -1.378  1.00  0.00     0.195 C 
ENDROOT
BRANCH   1  12
HETATM   12  N2  UNL     1     -27.856 -17.691   0.747  1.00  0.00    -0.278 N 
ATOM     13  H2  UNL     1     -27.579 -18.664   0.611  1.00  0.00     0.176 HD
BRANCH  12  14
HETATM   14  S1  UNL     1     -27.703 -16.904   2.249  1.00  0.00     0.317 S 
HETATM   15  O1  UNL     1     -29.078 -16.374   2.635  1.00  0.00    -0.183 OA
HETATM   16  O2  UNL     1     -26.771 -15.715   2.014  1.00  0.00    -0.183 OA
BRANCH  14  17
HETATM   17  N1  UNL     1     -27.076 -17.943   3.423  1.00  0.00    -0.294 N 
ATOM     18  H1  UNL     1     -27.609 -18.165   4.264  1.00  0.00     0.174 HD
BRANCH  17  19
HETATM   19  C2  UNL     1     -25.793 -18.498   3.209  1.00  0.00     0.031 C 
HETATM   20  C1  UNL     1     -24.674 -17.544   2.958  1.00  0.00     0.038 C 
HETATM   21  C3  UNL     1     -25.758 -19.534   2.103  1.00  0.00     0.038 C 
HETATM   22  C4  UNL     1     -25.440 -19.275   4.494  1.00  0.00     0.038 C 
ENDBRANCH  17  19
ENDBRANCH  14  17
ENDBRANCH  12  14
ENDBRANCH   1  12
BRANCH   8  23
HETATM   23  C10 UNL     1     -25.654 -14.490  -3.972  1.00  0.00     0.193 C 
HETATM   24  O4  UNL     1     -25.216 -13.312  -3.998  1.00  0.00    -0.647 OA
HETATM   25  O5  UNL     1     -24.896 -15.465  -4.607  1.00  0.00    -0.647 OA
ENDBRANCH   8  23
TORSDOF 5
ENDMDL
MODEL 4
REMARK VINA RESULT: -5.973807342      4.067      7.232
REMARK  5 active torsions:
REMARK  status: ('A' for Active; 'I' for Inactive)
REMARK    1  A    between atoms: C2_2  and  N1_5 
REMARK    2  A    between atoms: N1_5  and  S1_7 
REMARK    3  A    between atoms: S1_7  and  N2_10 
REMARK    4  A    between atoms: N2_10  and  C5_12 
REMARK    5  A    between atoms: C8_19  and  C10_21 
ROOT
HETATM    1  C5  UNL     1     -24.737 -13.620  -3.411  1.00  0.00     0.231 C 
HETATM    2  N3  UNL     1     -24.624 -12.629  -2.361  1.00  0.00    -0.318 N 
ATOM      3  H3  UNL     1     -23.966 -11.850  -2.338  1.00  0.00     0.166 HD
HETATM    4  C6  UNL     1     -25.598 -12.939  -1.367  1.00  0.00     0.321 C 
HETATM    5  O3  UNL     1     -25.993 -12.199  -0.419  1.00  0.00    -0.247 OA
HETATM    6  N4  UNL     1     -26.096 -14.251  -1.579  1.00  0.00    -0.315 N 
HETATM    7  C7  UNL     1     -27.065 -15.210  -1.119  1.00  0.00     0.160 C 
HETATM    8  C8  UNL     1     -27.968 -15.521  -2.321  1.00  0.00     0.111 C 
HETATM    9  C9  UNL     1     -28.967 -14.439  -2.563  1.00  0.00     0.040 C 
HETATM   10  S2  UNL     1     -26.694 -15.565  -3.646  1.00  0.00    -0.117 SA
HETATM   11  C11 UNL     1     -25.324 -14.815  -2.674  1.00  0.00     0.195 C 
ENDROOT
BRANCH   1  12
HETATM   12  N2  UNL     1     -23.404 -14.014  -3.798  1.00  0.00    -0.278 N 
ATOM     13  H2  UNL     1     -22.666 -14.184  -3.115  1.00  0.00     0.176 HD
BRANCH  12  14
HETATM   14  S1  UNL     1     -23.146 -14.175  -5.473  1.00  0.00     0.317 S 
HETATM   15  O1  UNL     1     -23.887 -13.039  -6.167  1.00  0.00    -0.183 OA
HETATM   16  O2  UNL     1     -23.794 -15.499  -5.879  1.00  0.00    -0.183 OA
BRANCH  14  17
HETATM   17  N1  UNL     1     -21.498 -14.169  -5.842  1.00  0.00    -0.294 N 
ATOM     18  H1  UNL     1     -21.016 -15.030  -6.101  1.00  0.00     0.174 HD
BRANCH  17  19
HETATM   19  C2  UNL     1     -20.803 -12.938  -5.781  1.00  0.00     0.031 C 
HETATM   20  C1  UNL     1     -20.946 -12.139  -4.529  1.00  0.00     0.038 C 
HETATM   21  C3  UNL     1     -21.107 -12.013  -6.943  1.00  0.00     0.038 C 
HETATM   22  C4  UNL     1     -19.306 -13.281  -5.924  1.00  0.00     0.038 C 
ENDBRANCH  17  19
ENDBRANCH  14  17
ENDBRANCH  12  14
ENDBRANCH   1  12
BRANCH   8  23
HETATM   23  C10 UNL     1     -28.547 -16.849  -2.103  1.00  0.00     0.193 C 
HETATM   24  O4  UNL     1     -29.746 -17.143  -2.340  1.00  0.00    -0.647 OA
HETATM   25  O5  UNL     1     -27.732 -17.856  -1.603  1.00  0.00    -0.647 OA
ENDBRANCH   8  23
TORSDOF 5
ENDMDL
MODEL 5
REMARK VINA RESULT: -5.846340746      1.940      2.383
REMARK  5 active torsions:
REMARK  status: ('A' for Active; 'I' for Inactive)
REMARK    1  A    between atoms: C2_2  and  N1_5 
REMARK    2  A    between atoms: N1_5  and  S1_7 
REMARK    3  A    between atoms: S1_7  and  N2_10 
REMARK    4  A    between atoms: N2_10  and  C5_12 
REMARK    5  A    between atoms: C8_19  and  C10_21 
ROOT
HETATM    1  C5  UNL     1     -28.452 -16.937  -0.378  1.00  0.00     0.231 C 
HETATM    2  N3  UNL     1     -29.459 -17.730  -1.051  1.00  0.00    -0.318 N 
ATOM      3  H3  UNL     1     -30.164 -18.315  -0.602  1.00  0.00     0.166 HD
HETATM    4  C6  UNL     1     -29.288 -17.545  -2.454  1.00  0.00     0.321 C 
HETATM    5  O3  UNL     1     -30.098 -17.857  -3.376  1.00  0.00    -0.247 OA
HETATM    6  N4  UNL     1     -28.031 -16.936  -2.706  1.00  0.00    -0.315 N 
HETATM    7  C7  UNL     1     -27.198 -16.387  -3.743  1.00  0.00     0.160 C 
HETATM    8  C8  UNL     1     -26.946 -14.921  -3.363  1.00  0.00     0.111 C 
HETATM    9  C9  UNL     1     -28.120 -14.055  -3.673  1.00  0.00     0.040 C 
HETATM   10  S2  UNL     1     -26.721 -15.120  -1.548  1.00  0.00    -0.117 SA
HETATM   11  C11 UNL     1     -27.352 -16.843  -1.424  1.00  0.00     0.195 C 
ENDROOT
BRANCH   1  12
HETATM   12  N2  UNL     1     -27.904 -17.730   0.697  1.00  0.00    -0.278 N 
ATOM     13  H2  UNL     1     -27.670 -18.716   0.581  1.00  0.00     0.176 HD
BRANCH  12  14
HETATM   14  S1  UNL     1     -27.678 -16.908   2.171  1.00  0.00     0.317 S 
HETATM   15  O1  UNL     1     -26.470 -15.994   2.009  1.00  0.00    -0.183 OA
HETATM   16  O2  UNL     1     -27.344 -17.979   3.209  1.00  0.00    -0.183 OA
BRANCH  14  17
HETATM   17  N1  UNL     1     -29.064 -16.049   2.610  1.00  0.00    -0.294 N 
ATOM     18  H1  UNL     1     -29.956 -16.526   2.742  1.00  0.00     0.174 HD
BRANCH  17  19
HETATM   19  C2  UNL     1     -28.955 -14.650   2.791  1.00  0.00     0.031 C 
HETATM   20  C1  UNL     1     -28.570 -13.839   1.599  1.00  0.00     0.038 C 
HETATM   21  C3  UNL     1     -28.026 -14.256   3.923  1.00  0.00     0.038 C 
HETATM   22  C4  UNL     1     -30.350 -14.163   3.232  1.00  0.00     0.038 C 
ENDBRANCH  17  19
ENDBRANCH  14  17
ENDBRANCH  12  14
ENDBRANCH   1  12
BRANCH   8  23
HETATM   23  C10 UNL     1     -25.696 -14.510  -4.006  1.00  0.00     0.193 C 
HETATM   24  O4  UNL     1     -25.282 -13.323  -4.048  1.00  0.00    -0.647 OA
HETATM   25  O5  UNL     1     -24.909 -15.480  -4.611  1.00  0.00    -0.647 OA
ENDBRANCH   8  23
TORSDOF 5
ENDMDL
