MODEL 1
REMARK VINA RESULT: -7.299101808      0.000      0.000
REMARK  9 active torsions:
REMARK  status: ('A' for Active; 'I' for Inactive)
REMARK       I    between atoms: C2_2  and  N1_4 
REMARK    1  A    between atoms: N1_4  and  C3_6 
REMARK    2  A    between atoms: C4_9  and  C5_10 
REMARK    3  A    between atoms: C6_11  and  C7_12 
REMARK    4  A    between atoms: C9_14  and  O2_15 
REMARK    5  A    between atoms: O2_15  and  C10_16 
REMARK    6  A    between atoms: C10_16  and  C11_17 
REMARK    7  A    between atoms: C11_17  and  O3_19 
REMARK    8  A    between atoms: C13_21  and  O4_22 
REMARK    9  A    between atoms: C14_24  and  O5_25 
ROOT
HETATM    1  C7  UNL     1       0.855  31.043  24.957  1.00  0.00     0.099 C 
HETATM    2  C8  UNL     1      -0.214  32.083  25.036  1.00  0.00     0.054 C 
HETATM    3  C9  UNL     1       0.177  33.050  26.117  1.00  0.00     0.154 C 
HETATM    4  C13 UNL     1       1.638  32.741  26.375  1.00  0.00     0.177 C 
HETATM    5  C14 UNL     1       1.670  31.232  26.223  1.00  0.00     0.165 C 
ENDROOT
BRANCH   1   6
HETATM    6  C6  UNL     1       0.237  29.720  24.904  1.00  0.00    -0.092 C 
HETATM    7  C5  UNL     1      -0.255  28.618  24.852  1.00  0.00    -0.047 C 
BRANCH   7   8
HETATM    8  C4  UNL     1      -0.839  27.263  24.764  1.00  0.00     0.101 A 
HETATM    9  N2  UNL     1      -1.560  26.909  23.722  1.00  0.00    -0.329 N 
HETATM   10  C3  UNL     1      -2.064  25.672  23.695  1.00  0.00     0.152 A 
ATOM     11  H2  UNL     1      -1.729  27.561  22.956  1.00  0.00     0.168 HD
HETATM   12  S1  UNL     1      -1.520  24.989  25.155  1.00  0.00    -0.056 SA
HETATM   13  C15 UNL     1      -0.659  26.329  25.751  1.00  0.00     0.018 A 
HETATM   14  C16 UNL     1       0.122  26.494  27.035  1.00  0.00     0.059 C 
BRANCH  10  15
HETATM   15  N1  UNL     1      -2.805  25.122  22.756  1.00  0.00    -0.307 N 
HETATM   16  C2  UNL     1      -3.186  23.768  22.961  1.00  0.00     0.219 C 
HETATM   17  C1  UNL     1      -2.350  22.703  22.348  1.00  0.00     0.117 C 
HETATM   18  O1  UNL     1      -4.217  23.485  23.652  1.00  0.00    -0.274 OA
ATOM     19  H1  UNL     1      -3.090  25.641  21.926  1.00  0.00     0.171 HD
ENDBRANCH  10  15
ENDBRANCH   7   8
ENDBRANCH   1   6
BRANCH   5  20
HETATM   20  O5  UNL     1       1.011  30.628  27.284  1.00  0.00    -0.392 OA
ATOM     21  H5  UNL     1       0.283  31.176  27.553  1.00  0.00     0.210 HD
ENDBRANCH   5  20
BRANCH   3  22
HETATM   22  O2  UNL     1      -0.014  34.353  25.696  1.00  0.00    -0.381 OA
BRANCH  22  23
HETATM   23  C10 UNL     1      -0.667  34.452  24.491  1.00  0.00     0.199 C 
BRANCH  23  24
HETATM   24  C11 UNL     1      -1.376  35.754  24.276  1.00  0.00     0.138 C 
HETATM   25  C12 UNL     1      -1.427  36.466  25.632  1.00  0.00     0.041 C 
BRANCH  24  26
HETATM   26  O3  UNL     1      -0.636  36.576  23.433  1.00  0.00    -0.394 OA
ATOM     27  H3  UNL     1      -1.210  37.162  22.953  1.00  0.00     0.210 HD
ENDBRANCH  24  26
ENDBRANCH  23  24
ENDBRANCH  22  23
ENDBRANCH   3  22
BRANCH   4  28
HETATM   28  O4  UNL     1       2.055  33.169  27.615  1.00  0.00    -0.390 OA
ATOM     29  H4  UNL     1       2.684  32.577  28.010  1.00  0.00     0.210 HD
ENDBRANCH   4  28
TORSDOF 9
ENDMDL
MODEL 2
REMARK VINA RESULT: -7.138599535      6.024      9.196
REMARK  9 active torsions:
REMARK  status: ('A' for Active; 'I' for Inactive)
REMARK       I    between atoms: C2_2  and  N1_4 
REMARK    1  A    between atoms: N1_4  and  C3_6 
REMARK    2  A    between atoms: C4_9  and  C5_10 
REMARK    3  A    between atoms: C6_11  and  C7_12 
REMARK    4  A    between atoms: C9_14  and  O2_15 
REMARK    5  A    between atoms: O2_15  and  C10_16 
REMARK    6  A    between atoms: C10_16  and  C11_17 
REMARK    7  A    between atoms: C11_17  and  O3_19 
REMARK    8  A    between atoms: C13_21  and  O4_22 
REMARK    9  A    between atoms: C14_24  and  O5_25 
ROOT
HETATM    1  C7  UNL     1       2.149  31.652  29.317  1.00  0.00     0.099 C 
HETATM    2  C8  UNL     1       3.099  30.767  28.581  1.00  0.00     0.054 C 
HETATM    3  C9  UNL     1       4.443  30.898  29.242  1.00  0.00     0.154 C 
HETATM    4  C13 UNL     1       4.136  31.574  30.563  1.00  0.00     0.177 C 
HETATM    5  C14 UNL     1       3.034  32.540  30.172  1.00  0.00     0.165 C 
ENDROOT
BRANCH   1   6
HETATM    6  C6  UNL     1       1.370  32.430  28.355  1.00  0.00    -0.092 C 
HETATM    7  C5  UNL     1       0.732  33.059  27.545  1.00  0.00    -0.047 C 
BRANCH   7   8
HETATM    8  C4  UNL     1      -0.028  33.821  26.532  1.00  0.00     0.101 A 
HETATM    9  N2  UNL     1      -0.723  34.883  26.873  1.00  0.00    -0.329 N 
HETATM   10  C3  UNL     1      -1.392  35.534  25.917  1.00  0.00     0.152 A 
ATOM     11  H2  UNL     1      -0.752  35.202  27.842  1.00  0.00     0.168 HD
HETATM   12  S1  UNL     1      -1.041  34.644  24.511  1.00  0.00    -0.056 SA
HETATM   13  C15 UNL     1      -0.041  33.458  25.210  1.00  0.00     0.018 A 
HETATM   14  C16 UNL     1       0.673  32.286  24.575  1.00  0.00     0.059 C 
BRANCH  10  15
HETATM   15  N1  UNL     1      -2.141  36.609  26.044  1.00  0.00    -0.307 N 
HETATM   16  C2  UNL     1      -1.565  37.836  25.616  1.00  0.00     0.219 C 
HETATM   17  C1  UNL     1      -0.894  38.689  26.632  1.00  0.00     0.117 C 
HETATM   18  O1  UNL     1      -1.628  38.188  24.394  1.00  0.00    -0.274 OA
ATOM     19  H1  UNL     1      -3.084  36.563  26.428  1.00  0.00     0.171 HD
ENDBRANCH  10  15
ENDBRANCH   7   8
ENDBRANCH   1   6
BRANCH   5  20
HETATM   20  O5  UNL     1       3.547  33.563  29.388  1.00  0.00    -0.392 OA
ATOM     21  H5  UNL     1       3.483  34.383  29.864  1.00  0.00     0.210 HD
ENDBRANCH   5  20
BRANCH   3  22
HETATM   22  O2  UNL     1       5.022  29.655  29.413  1.00  0.00    -0.381 OA
BRANCH  22  23
HETATM   23  C10 UNL     1       5.658  29.183  28.290  1.00  0.00     0.199 C 
BRANCH  23  24
HETATM   24  C11 UNL     1       7.152  29.276  28.338  1.00  0.00     0.138 C 
HETATM   25  C12 UNL     1       7.701  28.064  27.576  1.00  0.00     0.041 C 
BRANCH  24  26
HETATM   26  O3  UNL     1       7.591  30.401  27.648  1.00  0.00    -0.394 OA
ATOM     27  H3  UNL     1       7.191  30.439  26.787  1.00  0.00     0.210 HD
ENDBRANCH  24  26
ENDBRANCH  23  24
ENDBRANCH  22  23
ENDBRANCH   3  22
BRANCH   4  28
HETATM   28  O4  UNL     1       5.238  32.198  31.102  1.00  0.00    -0.390 OA
ATOM     29  H4  UNL     1       5.242  33.133  30.935  1.00  0.00     0.210 HD
ENDBRANCH   4  28
TORSDOF 9
ENDMDL
MODEL 3
REMARK VINA RESULT: -6.941636773      3.372      9.064
REMARK  9 active torsions:
REMARK  status: ('A' for Active; 'I' for Inactive)
REMARK       I    between atoms: C2_2  and  N1_4 
REMARK    1  A    between atoms: N1_4  and  C3_6 
REMARK    2  A    between atoms: C4_9  and  C5_10 
REMARK    3  A    between atoms: C6_11  and  C7_12 
REMARK    4  A    between atoms: C9_14  and  O2_15 
REMARK    5  A    between atoms: O2_15  and  C10_16 
REMARK    6  A    between atoms: C10_16  and  C11_17 
REMARK    7  A    between atoms: C11_17  and  O3_19 
REMARK    8  A    between atoms: C13_21  and  O4_22 
REMARK    9  A    between atoms: C14_24  and  O5_25 
ROOT
HETATM    1  C7  UNL     1       0.165  27.579  24.356  1.00  0.00     0.099 C 
HETATM    2  C8  UNL     1      -0.847  26.804  25.133  1.00  0.00     0.054 C 
HETATM    3  C9  UNL     1      -1.496  25.833  24.187  1.00  0.00     0.154 C 
HETATM    4  C13 UNL     1      -0.579  25.829  22.980  1.00  0.00     0.177 C 
HETATM    5  C14 UNL     1      -0.157  27.284  22.903  1.00  0.00     0.165 C 
ENDROOT
BRANCH   1   6
HETATM    6  C6  UNL     1       0.024  29.001  24.664  1.00  0.00    -0.092 C 
HETATM    7  C5  UNL     1      -0.113  30.174  24.917  1.00  0.00    -0.047 C 
BRANCH   7   8
HETATM    8  C4  UNL     1      -0.306  31.611  25.206  1.00  0.00     0.101 A 
HETATM    9  N2  UNL     1      -0.911  32.395  24.340  1.00  0.00    -0.329 N 
HETATM   10  C3  UNL     1      -1.057  33.685  24.653  1.00  0.00     0.152 A 
ATOM     11  H2  UNL     1      -1.258  32.027  23.454  1.00  0.00     0.168 HD
HETATM   12  S1  UNL     1      -0.335  33.806  26.188  1.00  0.00    -0.056 SA
HETATM   13  C15 UNL     1       0.132  32.181  26.373  1.00  0.00     0.018 A 
HETATM   14  C16 UNL     1       0.849  31.496  27.514  1.00  0.00     0.059 C 
BRANCH  10  15
HETATM   15  N1  UNL     1      -1.627  34.630  23.936  1.00  0.00    -0.307 N 
HETATM   16  C2  UNL     1      -0.888  35.833  23.770  1.00  0.00     0.219 C 
HETATM   17  C1  UNL     1      -1.155  36.956  24.705  1.00  0.00     0.117 C 
HETATM   18  O1  UNL     1      -0.023  35.936  22.841  1.00  0.00    -0.274 OA
ATOM     19  H1  UNL     1      -2.551  34.506  23.522  1.00  0.00     0.171 HD
ENDBRANCH  10  15
ENDBRANCH   7   8
ENDBRANCH   1   6
BRANCH   5  20
HETATM   20  O5  UNL     1      -1.226  28.074  22.504  1.00  0.00    -0.392 OA
ATOM     21  H5  UNL     1      -1.473  27.841  21.616  1.00  0.00     0.210 HD
ENDBRANCH   5  20
BRANCH   3  22
HETATM   22  O2  UNL     1      -1.599  24.584  24.769  1.00  0.00    -0.381 OA
BRANCH  22  23
HETATM   23  C10 UNL     1      -2.881  24.088  24.787  1.00  0.00     0.199 C 
BRANCH  23  24
HETATM   24  C11 UNL     1      -3.245  23.269  23.587  1.00  0.00     0.138 C 
HETATM   25  C12 UNL     1      -4.343  22.294  24.027  1.00  0.00     0.041 C 
BRANCH  24  26
HETATM   26  O3  UNL     1      -3.811  24.074  22.604  1.00  0.00    -0.394 OA
ATOM     27  H3  UNL     1      -3.615  23.729  21.740  1.00  0.00     0.210 HD
ENDBRANCH  24  26
ENDBRANCH  23  24
ENDBRANCH  22  23
ENDBRANCH   3  22
BRANCH   4  28
HETATM   28  O4  UNL     1      -1.212  25.387  21.841  1.00  0.00    -0.390 OA
ATOM     29  H4  UNL     1      -2.117  25.150  21.998  1.00  0.00     0.210 HD
ENDBRANCH   4  28
TORSDOF 9
ENDMDL
MODEL 4
REMARK VINA RESULT: -6.898464173      1.380      1.562
REMARK  9 active torsions:
REMARK  status: ('A' for Active; 'I' for Inactive)
REMARK       I    between atoms: C2_2  and  N1_4 
REMARK    1  A    between atoms: N1_4  and  C3_6 
REMARK    2  A    between atoms: C4_9  and  C5_10 
REMARK    3  A    between atoms: C6_11  and  C7_12 
REMARK    4  A    between atoms: C9_14  and  O2_15 
REMARK    5  A    between atoms: O2_15  and  C10_16 
REMARK    6  A    between atoms: C10_16  and  C11_17 
REMARK    7  A    between atoms: C11_17  and  O3_19 
REMARK    8  A    between atoms: C13_21  and  O4_22 
REMARK    9  A    between atoms: C14_24  and  O5_25 
ROOT
HETATM    1  C7  UNL     1       0.615  31.863  25.512  1.00  0.00     0.099 C 
HETATM    2  C8  UNL     1      -0.210  32.798  24.692  1.00  0.00     0.054 C 
HETATM    3  C9  UNL     1      -0.797  33.819  25.626  1.00  0.00     0.154 C 
HETATM    4  C13 UNL     1       0.006  33.654  26.901  1.00  0.00     0.177 C 
HETATM    5  C14 UNL     1       0.214  32.152  26.946  1.00  0.00     0.165 C 
ENDROOT
BRANCH   1   6
HETATM    6  C6  UNL     1       0.306  30.486  25.130  1.00  0.00    -0.092 C 
HETATM    7  C5  UNL     1       0.069  29.342  24.822  1.00  0.00    -0.047 C 
BRANCH   7   8
HETATM    8  C4  UNL     1      -0.190  27.939  24.439  1.00  0.00     0.101 A 
HETATM    9  N2  UNL     1      -1.321  27.599  23.860  1.00  0.00    -0.329 N 
HETATM   10  C3  UNL     1      -1.503  26.316  23.535  1.00  0.00     0.152 A 
ATOM     11  H2  UNL     1      -2.040  28.296  23.664  1.00  0.00     0.168 HD
HETATM   12  S1  UNL     1      -0.063  25.568  24.048  1.00  0.00    -0.056 SA
HETATM   13  C15 UNL     1       0.724  26.943  24.667  1.00  0.00     0.018 A 
HETATM   14  C16 UNL     1       2.085  27.080  25.312  1.00  0.00     0.059 C 
BRANCH  10  15
HETATM   15  N1  UNL     1      -2.550  25.770  22.955  1.00  0.00    -0.307 N 
HETATM   16  C2  UNL     1      -2.832  24.419  23.297  1.00  0.00     0.219 C 
HETATM   17  C1  UNL     1      -2.303  23.347  22.415  1.00  0.00     0.117 C 
HETATM   18  O1  UNL     1      -3.521  24.145  24.332  1.00  0.00    -0.274 OA
ATOM     19  H1  UNL     1      -3.129  26.289  22.295  1.00  0.00     0.171 HD
ENDBRANCH  10  15
ENDBRANCH   7   8
ENDBRANCH   1   6
BRANCH   5  20
HETATM   20  O5  UNL     1      -0.983  31.509  27.224  1.00  0.00    -0.392 OA
ATOM     21  H5  UNL     1      -1.697  31.990  26.821  1.00  0.00     0.210 HD
ENDBRANCH   5  20
BRANCH   3  22
HETATM   22  O2  UNL     1      -0.677  35.089  25.094  1.00  0.00    -0.381 OA
BRANCH  22  23
HETATM   23  C10 UNL     1      -1.505  36.014  25.683  1.00  0.00     0.199 C 
BRANCH  23  24
HETATM   24  C11 UNL     1      -1.574  37.328  24.967  1.00  0.00     0.138 C 
HETATM   25  C12 UNL     1      -1.193  38.412  25.983  1.00  0.00     0.041 C 
BRANCH  24  26
HETATM   26  O3  UNL     1      -0.614  37.384  23.962  1.00  0.00    -0.394 OA
ATOM     27  H3  UNL     1       0.232  37.108  24.295  1.00  0.00     0.210 HD
ENDBRANCH  24  26
ENDBRANCH  23  24
ENDBRANCH  22  23
ENDBRANCH   3  22
BRANCH   4  28
HETATM   28  O4  UNL     1      -0.654  34.143  28.005  1.00  0.00    -0.390 OA
ATOM     29  H4  UNL     1      -0.278  33.831  28.819  1.00  0.00     0.210 HD
ENDBRANCH   4  28
TORSDOF 9
ENDMDL
MODEL 5
REMARK VINA RESULT: -6.811761292      5.564      6.790
REMARK  9 active torsions:
REMARK  status: ('A' for Active; 'I' for Inactive)
REMARK       I    between atoms: C2_2  and  N1_4 
REMARK    1  A    between atoms: N1_4  and  C3_6 
REMARK    2  A    between atoms: C4_9  and  C5_10 
REMARK    3  A    between atoms: C6_11  and  C7_12 
REMARK    4  A    between atoms: C9_14  and  O2_15 
REMARK    5  A    between atoms: O2_15  and  C10_16 
REMARK    6  A    between atoms: C10_16  and  C11_17 
REMARK    7  A    between atoms: C11_17  and  O3_19 
REMARK    8  A    between atoms: C13_21  and  O4_22 
REMARK    9  A    between atoms: C14_24  and  O5_25 
ROOT
HETATM    1  C7  UNL     1      -0.267  32.119  26.346  1.00  0.00     0.099 C 
HETATM    2  C8  UNL     1      -0.525  33.582  26.500  1.00  0.00     0.054 C 
HETATM    3  C9  UNL     1      -0.441  34.200  25.132  1.00  0.00     0.154 C 
HETATM    4  C13 UNL     1      -0.501  33.015  24.190  1.00  0.00     0.177 C 
HETATM    5  C14 UNL     1       0.300  31.973  24.946  1.00  0.00     0.165 C 
ENDROOT
BRANCH   1   6
HETATM    6  C6  UNL     1       0.688  31.688  27.365  1.00  0.00    -0.092 C 
HETATM    7  C5  UNL     1       1.488  31.350  28.205  1.00  0.00    -0.047 C 
BRANCH   7   8
HETATM    8  C4  UNL     1       2.489  30.952  29.217  1.00  0.00     0.101 A 
HETATM    9  N2  UNL     1       3.621  30.389  28.856  1.00  0.00    -0.329 N 
HETATM   10  C3  UNL     1       4.489  30.049  29.813  1.00  0.00     0.152 A 
ATOM     11  H2  UNL     1       3.830  30.216  27.873  1.00  0.00     0.168 HD
HETATM   12  S1  UNL     1       3.709  30.528  31.246  1.00  0.00    -0.056 SA
HETATM   13  C15 UNL     1       2.284  31.151  30.558  1.00  0.00     0.018 A 
HETATM   14  C16 UNL     1       1.073  31.773  31.216  1.00  0.00     0.059 C 
BRANCH  10  15
HETATM   15  N1  UNL     1       5.668  29.481  29.669  1.00  0.00    -0.307 N 
HETATM   16  C2  UNL     1       6.127  29.302  28.336  1.00  0.00     0.219 C 
HETATM   17  C1  UNL     1       5.876  27.995  27.676  1.00  0.00     0.117 C 
HETATM   18  O1  UNL     1       6.736  30.243  27.732  1.00  0.00    -0.274 OA
ATOM     19  H1  UNL     1       6.222  29.184  30.472  1.00  0.00     0.171 HD
ENDBRANCH  10  15
ENDBRANCH   7   8
ENDBRANCH   1   6
BRANCH   5  20
HETATM   20  O5  UNL     1       1.644  32.317  24.960  1.00  0.00    -0.392 OA
ATOM     21  H5  UNL     1       1.800  32.941  25.660  1.00  0.00     0.210 HD
ENDBRANCH   5  20
BRANCH   3  22
HETATM   22  O2  UNL     1      -1.489  35.080  24.933  1.00  0.00    -0.381 OA
BRANCH  22  23
HETATM   23  C10 UNL     1      -1.482  36.150  25.795  1.00  0.00     0.199 C 
BRANCH  23  24
HETATM   24  C11 UNL     1      -1.563  37.486  25.124  1.00  0.00     0.138 C 
HETATM   25  C12 UNL     1      -1.077  38.527  26.138  1.00  0.00     0.041 C 
BRANCH  24  26
HETATM   26  O3  UNL     1      -0.678  37.545  24.052  1.00  0.00    -0.394 OA
ATOM     27  H3  UNL     1      -0.083  38.279  24.153  1.00  0.00     0.210 HD
ENDBRANCH  24  26
ENDBRANCH  23  24
ENDBRANCH  22  23
ENDBRANCH   3  22
BRANCH   4  28
HETATM   28  O4  UNL     1       0.020  33.304  22.949  1.00  0.00    -0.390 OA
ATOM     29  H4  UNL     1      -0.650  33.558  22.325  1.00  0.00     0.210 HD
ENDBRANCH   4  28
TORSDOF 9
ENDMDL
