MODEL 1
REMARK VINA RESULT: -6.952034023      0.000      0.000
REMARK  9 active torsions:
REMARK  status: ('A' for Active; 'I' for Inactive)
REMARK    1  A    between atoms: C2_2  and  C3_3 
REMARK    2  A    between atoms: C4_4  and  C5_5 
REMARK    3  A    between atoms: C5_5  and  S1_6 
REMARK    4  A    between atoms: S1_6  and  C6_9 
REMARK    5  A    between atoms: C10_13  and  O3_14 
REMARK    6  A    between atoms: C11_16  and  O4_17 
REMARK    7  A    between atoms: C13_21  and  C14_22 
REMARK    8  A    between atoms: C14_22  and  O6_24 
REMARK    9  A    between atoms: C16_26  and  O7_27 
ROOT
HETATM    1  C6  UNL     1     -27.946 -15.965  -0.635  1.00  0.00     0.066 C 
HETATM    2  C7  UNL     1     -28.720 -16.902  -1.160  1.00  0.00     0.002 C 
HETATM    3  C8  UNL     1     -28.540 -17.580  -2.452  1.00  0.00     0.043 C 
HETATM    4  C9  UNL     1     -29.774 -18.389  -2.850  1.00  0.00     0.045 C 
HETATM    5  C10 UNL     1     -29.565 -18.502  -4.355  1.00  0.00     0.150 C 
HETATM    6  C11 UNL     1     -28.713 -17.320  -4.766  1.00  0.00     0.176 C 
HETATM    7  C12 UNL     1     -28.564 -16.518  -3.526  1.00  0.00     0.161 C 
HETATM    8  O5  UNL     1     -27.567 -15.613  -3.481  1.00  0.00    -0.372 OA
HETATM    9  C13 UNL     1     -26.497 -15.884  -2.653  1.00  0.00     0.184 C 
HETATM   10  C16 UNL     1     -26.700 -15.376  -1.238  1.00  0.00     0.194 C 
ENDROOT
BRANCH   1  11
HETATM   11  S1  UNL     1     -28.374 -15.307   0.929  1.00  0.00     0.184 S 
HETATM   12  O1  UNL     1     -29.409 -14.227   0.773  1.00  0.00    -0.222 OA
HETATM   13  O2  UNL     1     -27.141 -14.738   1.555  1.00  0.00    -0.222 OA
BRANCH  11  14
HETATM   14  C5  UNL     1     -29.014 -16.550   2.016  1.00  0.00     0.239 C 
BRANCH  14  15
HETATM   15  C4  UNL     1     -27.994 -17.592   2.136  1.00  0.00    -0.091 C 
HETATM   16  C3  UNL     1     -27.160 -18.467   2.246  1.00  0.00    -0.106 C 
BRANCH  16  17
HETATM   17  C2  UNL     1     -26.168 -19.543   2.390  1.00  0.00     0.089 C 
HETATM   18  C1  UNL     1     -24.946 -19.300   1.552  1.00  0.00     0.018 C 
ENDBRANCH  16  17
ENDBRANCH  14  15
ENDBRANCH  11  14
ENDBRANCH   1  11
BRANCH  10  19
HETATM   19  O7  UNL     1     -25.645 -15.933  -0.478  1.00  0.00    -0.388 OA
ATOM     20  H7  UNL     1     -25.072 -16.330  -1.124  1.00  0.00     0.210 HD
ENDBRANCH  10  19
BRANCH   9  21
HETATM   21  C14 UNL     1     -25.323 -15.069  -3.220  1.00  0.00     0.146 C 
HETATM   22  C15 UNL     1     -25.649 -13.622  -3.380  1.00  0.00     0.042 C 
BRANCH  21  23
HETATM   23  O6  UNL     1     -25.024 -15.606  -4.468  1.00  0.00    -0.393 OA
ATOM     24  H6  UNL     1     -24.474 -14.973  -4.916  1.00  0.00     0.210 HD
ENDBRANCH  21  23
ENDBRANCH   9  21
BRANCH   5  25
HETATM   25  O3  UNL     1     -30.803 -18.497  -4.983  1.00  0.00    -0.393 OA
ATOM     26  H3  UNL     1     -30.819 -19.186  -5.637  1.00  0.00     0.210 HD
ENDBRANCH   5  25
BRANCH   6  27
HETATM   27  O4  UNL     1     -29.436 -16.585  -5.705  1.00  0.00    -0.390 OA
ATOM     28  H4  UNL     1     -30.052 -16.039  -5.230  1.00  0.00     0.210 HD
ENDBRANCH   6  27
TORSDOF 9
ENDMDL
MODEL 2
REMARK VINA RESULT: -6.939941271      2.358      5.897
REMARK  9 active torsions:
REMARK  status: ('A' for Active; 'I' for Inactive)
REMARK    1  A    between atoms: C2_2  and  C3_3 
REMARK    2  A    between atoms: C4_4  and  C5_5 
REMARK    3  A    between atoms: C5_5  and  S1_6 
REMARK    4  A    between atoms: S1_6  and  C6_9 
REMARK    5  A    between atoms: C10_13  and  O3_14 
REMARK    6  A    between atoms: C11_16  and  O4_17 
REMARK    7  A    between atoms: C13_21  and  C14_22 
REMARK    8  A    between atoms: C14_22  and  O6_24 
REMARK    9  A    between atoms: C16_26  and  O7_27 
ROOT
HETATM    1  C6  UNL     1     -26.786 -15.425  -2.653  1.00  0.00     0.066 C 
HETATM    2  C7  UNL     1     -26.385 -15.717  -1.425  1.00  0.00     0.002 C 
HETATM    3  C8  UNL     1     -26.819 -16.851  -0.596  1.00  0.00     0.043 C 
HETATM    4  C9  UNL     1     -26.363 -16.706   0.855  1.00  0.00     0.045 C 
HETATM    5  C10 UNL     1     -27.350 -17.631   1.555  1.00  0.00     0.150 C 
HETATM    6  C11 UNL     1     -28.582 -17.698   0.679  1.00  0.00     0.176 C 
HETATM    7  C12 UNL     1     -28.314 -16.732  -0.415  1.00  0.00     0.161 C 
HETATM    8  O5  UNL     1     -29.052 -16.836  -1.538  1.00  0.00    -0.372 OA
HETATM    9  C13 UNL     1     -28.423 -17.297  -2.675  1.00  0.00     0.184 C 
HETATM   10  C16 UNL     1     -27.780 -16.188  -3.487  1.00  0.00     0.194 C 
ENDROOT
BRANCH   1  11
HETATM   11  S1  UNL     1     -26.119 -14.011  -3.436  1.00  0.00     0.184 S 
HETATM   12  O1  UNL     1     -27.220 -13.061  -3.822  1.00  0.00    -0.222 OA
HETATM   13  O2  UNL     1     -25.382 -14.452  -4.660  1.00  0.00    -0.222 OA
BRANCH  11  14
HETATM   14  C5  UNL     1     -24.975 -13.153  -2.390  1.00  0.00     0.239 C 
BRANCH  14  15
HETATM   15  C4  UNL     1     -23.627 -13.531  -2.815  1.00  0.00    -0.091 C 
HETATM   16  C3  UNL     1     -22.514 -13.840  -3.186  1.00  0.00    -0.106 C 
BRANCH  16  17
HETATM   17  C2  UNL     1     -21.171 -14.206  -3.660  1.00  0.00     0.089 C 
HETATM   18  C1  UNL     1     -21.184 -14.672  -5.088  1.00  0.00     0.018 C 
ENDBRANCH  16  17
ENDBRANCH  14  15
ENDBRANCH  11  14
ENDBRANCH   1  11
BRANCH  10  19
HETATM   19  O7  UNL     1     -26.991 -16.839  -4.465  1.00  0.00    -0.388 OA
ATOM     20  H7  UNL     1     -27.161 -17.764  -4.327  1.00  0.00     0.210 HD
ENDBRANCH  10  19
BRANCH   9  21
HETATM   21  C14 UNL     1     -29.543 -17.863  -3.564  1.00  0.00     0.146 C 
HETATM   22  C15 UNL     1     -30.366 -18.893  -2.868  1.00  0.00     0.042 C 
BRANCH  21  23
HETATM   23  O6  UNL     1     -28.927 -18.444  -4.667  1.00  0.00    -0.393 OA
ATOM     24  H6  UNL     1     -29.022 -19.385  -4.573  1.00  0.00     0.210 HD
ENDBRANCH  21  23
ENDBRANCH   9  21
BRANCH   5  25
HETATM   25  O3  UNL     1     -27.631 -17.119   2.815  1.00  0.00    -0.393 OA
ATOM     26  H3  UNL     1     -28.539 -16.839   2.838  1.00  0.00     0.210 HD
ENDBRANCH   5  25
BRANCH   6  27
HETATM   27  O4  UNL     1     -29.663 -17.246   1.436  1.00  0.00    -0.390 OA
ATOM     28  H4  UNL     1     -30.185 -16.679   0.881  1.00  0.00     0.210 HD
ENDBRANCH   6  27
TORSDOF 9
ENDMDL
MODEL 3
REMARK VINA RESULT: -6.913148376      2.243      5.429
REMARK  9 active torsions:
REMARK  status: ('A' for Active; 'I' for Inactive)
REMARK    1  A    between atoms: C2_2  and  C3_3 
REMARK    2  A    between atoms: C4_4  and  C5_5 
REMARK    3  A    between atoms: C5_5  and  S1_6 
REMARK    4  A    between atoms: S1_6  and  C6_9 
REMARK    5  A    between atoms: C10_13  and  O3_14 
REMARK    6  A    between atoms: C11_16  and  O4_17 
REMARK    7  A    between atoms: C13_21  and  C14_22 
REMARK    8  A    between atoms: C14_22  and  O6_24 
REMARK    9  A    between atoms: C16_26  and  O7_27 
ROOT
HETATM    1  C6  UNL     1     -26.598 -15.405  -2.544  1.00  0.00     0.066 C 
HETATM    2  C7  UNL     1     -26.274 -15.748  -1.307  1.00  0.00     0.002 C 
HETATM    3  C8  UNL     1     -26.795 -16.888  -0.537  1.00  0.00     0.043 C 
HETATM    4  C9  UNL     1     -26.410 -16.803   0.939  1.00  0.00     0.045 C 
HETATM    5  C10 UNL     1     -27.468 -17.708   1.558  1.00  0.00     0.150 C 
HETATM    6  C11 UNL     1     -28.654 -17.700   0.618  1.00  0.00     0.176 C 
HETATM    7  C12 UNL     1     -28.291 -16.714  -0.430  1.00  0.00     0.161 C 
HETATM    8  O5  UNL     1     -28.972 -16.755  -1.592  1.00  0.00    -0.372 OA
HETATM    9  C13 UNL     1     -28.302 -17.207  -2.709  1.00  0.00     0.184 C 
HETATM   10  C16 UNL     1     -27.575 -16.102  -3.452  1.00  0.00     0.194 C 
ENDROOT
BRANCH   1  11
HETATM   11  S1  UNL     1     -25.836 -13.996  -3.248  1.00  0.00     0.184 S 
HETATM   12  O1  UNL     1     -25.479 -14.260  -4.685  1.00  0.00    -0.222 OA
HETATM   13  O2  UNL     1     -24.596 -13.692  -2.468  1.00  0.00    -0.222 OA
BRANCH  11  14
HETATM   14  C5  UNL     1     -26.887 -12.572  -3.180  1.00  0.00     0.239 C 
BRANCH  14  15
HETATM   15  C4  UNL     1     -27.796 -12.755  -2.046  1.00  0.00    -0.091 C 
HETATM   16  C3  UNL     1     -28.542 -12.924  -1.105  1.00  0.00    -0.106 C 
BRANCH  16  17
HETATM   17  C2  UNL     1     -29.434 -13.152   0.042  1.00  0.00     0.089 C 
HETATM   18  C1  UNL     1     -28.677 -13.563   1.272  1.00  0.00     0.018 C 
ENDBRANCH  16  17
ENDBRANCH  14  15
ENDBRANCH  11  14
ENDBRANCH   1  11
BRANCH  10  19
HETATM   19  O7  UNL     1     -26.762 -16.756  -4.407  1.00  0.00    -0.388 OA
ATOM     20  H7  UNL     1     -26.689 -16.133  -5.121  1.00  0.00     0.210 HD
ENDBRANCH  10  19
BRANCH   9  21
HETATM   21  C14 UNL     1     -29.395 -17.701  -3.672  1.00  0.00     0.146 C 
HETATM   22  C15 UNL     1     -30.280 -18.733  -3.058  1.00  0.00     0.042 C 
BRANCH  21  23
HETATM   23  O6  UNL     1     -28.745 -18.257  -4.769  1.00  0.00    -0.393 OA
ATOM     24  H6  UNL     1     -28.092 -17.627  -5.052  1.00  0.00     0.210 HD
ENDBRANCH  21  23
ENDBRANCH   9  21
BRANCH   5  25
HETATM   25  O3  UNL     1     -27.795 -17.222   2.817  1.00  0.00    -0.393 OA
ATOM     26  H3  UNL     1     -27.572 -16.299   2.858  1.00  0.00     0.210 HD
ENDBRANCH   5  25
BRANCH   6  27
HETATM   27  O4  UNL     1     -29.755 -17.227   1.333  1.00  0.00    -0.390 OA
ATOM     28  H4  UNL     1     -30.309 -17.972   1.532  1.00  0.00     0.210 HD
ENDBRANCH   6  27
TORSDOF 9
ENDMDL
MODEL 4
REMARK VINA RESULT: -6.863355760      2.394      6.365
REMARK  9 active torsions:
REMARK  status: ('A' for Active; 'I' for Inactive)
REMARK    1  A    between atoms: C2_2  and  C3_3 
REMARK    2  A    between atoms: C4_4  and  C5_5 
REMARK    3  A    between atoms: C5_5  and  S1_6 
REMARK    4  A    between atoms: S1_6  and  C6_9 
REMARK    5  A    between atoms: C10_13  and  O3_14 
REMARK    6  A    between atoms: C11_16  and  O4_17 
REMARK    7  A    between atoms: C13_21  and  C14_22 
REMARK    8  A    between atoms: C14_22  and  O6_24 
REMARK    9  A    between atoms: C16_26  and  O7_27 
ROOT
HETATM    1  C6  UNL     1     -26.737 -15.460  -2.658  1.00  0.00     0.066 C 
HETATM    2  C7  UNL     1     -26.362 -15.758  -1.424  1.00  0.00     0.002 C 
HETATM    3  C8  UNL     1     -26.832 -16.883  -0.600  1.00  0.00     0.043 C 
HETATM    4  C9  UNL     1     -26.395 -16.745   0.858  1.00  0.00     0.045 C 
HETATM    5  C10 UNL     1     -27.412 -17.649   1.543  1.00  0.00     0.150 C 
HETATM    6  C11 UNL     1     -28.631 -17.692   0.648  1.00  0.00     0.176 C 
HETATM    7  C12 UNL     1     -28.326 -16.733  -0.444  1.00  0.00     0.161 C 
HETATM    8  O5  UNL     1     -29.048 -16.823  -1.578  1.00  0.00    -0.372 OA
HETATM    9  C13 UNL     1     -28.410 -17.298  -2.704  1.00  0.00     0.184 C 
HETATM   10  C16 UNL     1     -27.732 -16.203  -3.507  1.00  0.00     0.194 C 
ENDROOT
BRANCH   1  11
HETATM   11  S1  UNL     1     -26.029 -14.060  -3.432  1.00  0.00     0.184 S 
HETATM   12  O1  UNL     1     -27.100 -13.066  -3.789  1.00  0.00    -0.222 OA
HETATM   13  O2  UNL     1     -25.325 -14.511  -4.671  1.00  0.00    -0.222 OA
BRANCH  11  14
HETATM   14  C5  UNL     1     -24.841 -13.259  -2.390  1.00  0.00     0.239 C 
BRANCH  14  15
HETATM   15  C4  UNL     1     -24.062 -12.352  -3.235  1.00  0.00    -0.091 C 
HETATM   16  C3  UNL     1     -23.411 -11.616  -3.946  1.00  0.00    -0.106 C 
BRANCH  16  17
HETATM   17  C2  UNL     1     -22.620 -10.743  -4.826  1.00  0.00     0.089 C 
HETATM   18  C1  UNL     1     -22.385 -11.363  -6.173  1.00  0.00     0.018 C 
ENDBRANCH  16  17
ENDBRANCH  14  15
ENDBRANCH  11  14
ENDBRANCH   1  11
BRANCH  10  19
HETATM   19  O7  UNL     1     -26.942 -16.871  -4.471  1.00  0.00    -0.388 OA
ATOM     20  H7  UNL     1     -26.487 -17.544  -3.979  1.00  0.00     0.210 HD
ENDBRANCH  10  19
BRANCH   9  21
HETATM   21  C14 UNL     1     -29.527 -17.842  -3.610  1.00  0.00     0.146 C 
HETATM   22  C15 UNL     1     -30.380 -18.858  -2.927  1.00  0.00     0.042 C 
BRANCH  21  23
HETATM   23  O6  UNL     1     -28.907 -18.435  -4.705  1.00  0.00    -0.393 OA
ATOM     24  H6  UNL     1     -28.944 -19.374  -4.569  1.00  0.00     0.210 HD
ENDBRANCH  21  23
ENDBRANCH   9  21
BRANCH   5  25
HETATM   25  O3  UNL     1     -27.702 -17.130   2.797  1.00  0.00    -0.393 OA
ATOM     26  H3  UNL     1     -28.642 -17.003   2.868  1.00  0.00     0.210 HD
ENDBRANCH   5  25
BRANCH   6  27
HETATM   27  O4  UNL     1     -29.714 -17.218   1.387  1.00  0.00    -0.390 OA
ATOM     28  H4  UNL     1     -30.503 -17.394   0.887  1.00  0.00     0.210 HD
ENDBRANCH   6  27
TORSDOF 9
ENDMDL
MODEL 5
REMARK VINA RESULT: -6.855388003      2.353      5.693
REMARK  9 active torsions:
REMARK  status: ('A' for Active; 'I' for Inactive)
REMARK    1  A    between atoms: C2_2  and  C3_3 
REMARK    2  A    between atoms: C4_4  and  C5_5 
REMARK    3  A    between atoms: C5_5  and  S1_6 
REMARK    4  A    between atoms: S1_6  and  C6_9 
REMARK    5  A    between atoms: C10_13  and  O3_14 
REMARK    6  A    between atoms: C11_16  and  O4_17 
REMARK    7  A    between atoms: C13_21  and  C14_22 
REMARK    8  A    between atoms: C14_22  and  O6_24 
REMARK    9  A    between atoms: C16_26  and  O7_27 
ROOT
HETATM    1  C6  UNL     1     -27.413 -13.782  -2.104  1.00  0.00     0.066 C 
HETATM    2  C7  UNL     1     -27.003 -14.260  -0.940  1.00  0.00     0.002 C 
HETATM    3  C8  UNL     1     -26.955 -15.670  -0.527  1.00  0.00     0.043 C 
HETATM    4  C9  UNL     1     -26.697 -15.819   0.972  1.00  0.00     0.045 C 
HETATM    5  C10 UNL     1     -27.229 -17.226   1.212  1.00  0.00     0.150 C 
HETATM    6  C11 UNL     1     -28.254 -17.495   0.131  1.00  0.00     0.176 C 
HETATM    7  C12 UNL     1     -28.362 -16.212  -0.608  1.00  0.00     0.161 C 
HETATM    8  O5  UNL     1     -28.911 -16.242  -1.838  1.00  0.00    -0.372 OA
HETATM    9  C13 UNL     1     -28.074 -16.037  -2.915  1.00  0.00     0.184 C 
HETATM   10  C16 UNL     1     -27.925 -14.571  -3.278  1.00  0.00     0.194 C 
ENDROOT
BRANCH   1  11
HETATM   11  S1  UNL     1     -27.375 -12.051  -2.357  1.00  0.00     0.184 S 
HETATM   12  O1  UNL     1     -28.357 -11.370  -1.443  1.00  0.00    -0.222 OA
HETATM   13  O2  UNL     1     -27.736 -11.775  -3.782  1.00  0.00    -0.222 OA
BRANCH  11  14
HETATM   14  C5  UNL     1     -25.765 -11.374  -2.061  1.00  0.00     0.239 C 
BRANCH  14  15
HETATM   15  C4  UNL     1     -24.845 -12.009  -3.006  1.00  0.00    -0.091 C 
HETATM   16  C3  UNL     1     -24.071 -12.519  -3.790  1.00  0.00    -0.106 C 
BRANCH  16  17
HETATM   17  C2  UNL     1     -23.118 -13.115  -4.737  1.00  0.00     0.089 C 
HETATM   18  C1  UNL     1     -23.535 -14.492  -5.165  1.00  0.00     0.018 C 
ENDBRANCH  16  17
ENDBRANCH  14  15
ENDBRANCH  11  14
ENDBRANCH   1  11
BRANCH  10  19
HETATM   19  O7  UNL     1     -26.873 -14.518  -4.223  1.00  0.00    -0.388 OA
ATOM     20  H7  UNL     1     -26.216 -15.111  -3.879  1.00  0.00     0.210 HD
ENDBRANCH  10  19
BRANCH   9  21
HETATM   21  C14 UNL     1     -28.782 -16.689  -4.114  1.00  0.00     0.146 C 
HETATM   22  C15 UNL     1     -29.684 -17.807  -3.713  1.00  0.00     0.042 C 
BRANCH  21  23
HETATM   23  O6  UNL     1     -27.786 -17.188  -4.948  1.00  0.00    -0.393 OA
ATOM     24  H6  UNL     1     -28.223 -17.606  -5.681  1.00  0.00     0.210 HD
ENDBRANCH  21  23
ENDBRANCH   9  21
BRANCH   5  25
HETATM   25  O3  UNL     1     -27.782 -17.287   2.484  1.00  0.00    -0.393 OA
ATOM     26  H3  UNL     1     -27.882 -18.199   2.733  1.00  0.00     0.210 HD
ENDBRANCH   5  25
BRANCH   6  27
HETATM   27  O4  UNL     1     -29.469 -17.767   0.760  1.00  0.00    -0.390 OA
ATOM     28  H4  UNL     1     -29.495 -18.698   0.946  1.00  0.00     0.210 HD
ENDBRANCH   6  27
TORSDOF 9
ENDMDL
