MODEL 1
REMARK VINA RESULT: -7.215965664      0.000      0.000
REMARK  6 active torsions:
REMARK  status: ('A' for Active; 'I' for Inactive)
REMARK    1  A    between atoms: C4_4  and  C5_5 
REMARK    2  A    between atoms: C5_5  and  O1_6 
REMARK    3  A    between atoms: C12_15  and  O3_16 
REMARK    4  A    between atoms: C13_18  and  O4_19 
REMARK    5  A    between atoms: C14_21  and  O5_22 
REMARK    6  A    between atoms: C15_24  and  S1_25 
ROOT
HETATM    1  C1  UNL     1     -28.607 -13.606  -1.321  1.00  0.00     0.036 C 
HETATM    2  C2  UNL     1     -27.351 -14.222  -0.923  1.00  0.00    -0.022 C 
HETATM    3  C3  UNL     1     -27.013 -15.617  -1.099  1.00  0.00    -0.033 C 
HETATM    4  C4  UNL     1     -27.776 -16.720  -0.487  1.00  0.00     0.001 C 
HETATM    5  C12 UNL     1     -29.072 -16.918  -1.229  1.00  0.00     0.182 C 
HETATM    6  C13 UNL     1     -28.722 -17.408  -2.641  1.00  0.00     0.181 C 
HETATM    7  C14 UNL     1     -27.897 -16.402  -3.352  1.00  0.00     0.172 C 
HETATM    8  C15 UNL     1     -26.714 -16.028  -2.544  1.00  0.00     0.172 C 
ENDROOT
BRANCH   4   9
HETATM    9  C5  UNL     1     -27.782 -16.941   0.951  1.00  0.00     0.152 C 
HETATM   10  C6  UNL     1     -28.399 -16.053   1.902  1.00  0.00     0.173 C 
HETATM   11  O2  UNL     1     -29.420 -15.420   1.809  1.00  0.00    -0.293 OA
HETATM   12  C7  UNL     1     -27.534 -16.025   3.116  1.00  0.00     0.082 C 
HETATM   13  C8  UNL     1     -26.304 -15.292   2.819  1.00  0.00    -0.018 C 
HETATM   14  C11 UNL     1     -26.976 -17.466   3.029  1.00  0.00     0.028 C 
HETATM   15  C9  UNL     1     -25.649 -16.006   1.911  1.00  0.00    -0.021 C 
HETATM   16  C10 UNL     1     -26.439 -17.227   1.593  1.00  0.00     0.055 C 
BRANCH   9  17
HETATM   17  O1  UNL     1     -28.445 -18.193   1.161  1.00  0.00    -0.377 OA
ATOM     18  H1  UNL     1     -28.061 -18.569   1.944  1.00  0.00     0.211 HD
ENDBRANCH   9  17
ENDBRANCH   4   9
BRANCH   5  19
HETATM   19  O3  UNL     1     -29.906 -17.899  -0.731  1.00  0.00    -0.388 OA
ATOM     20  H3  UNL     1     -30.811 -17.644  -0.598  1.00  0.00     0.210 HD
ENDBRANCH   5  19
BRANCH   8  21
HETATM   21  S1  UNL     1     -25.724 -14.875  -3.418  1.00  0.00     0.151 S 
HETATM   22  C16 UNL     1     -24.476 -14.123  -2.423  1.00  0.00     0.162 C 
HETATM   23  O6  UNL     1     -24.972 -15.697  -4.467  1.00  0.00    -0.227 OA
HETATM   24  O7  UNL     1     -26.518 -13.886  -4.225  1.00  0.00    -0.227 OA
ENDBRANCH   8  21
BRANCH   6  25
HETATM   25  O4  UNL     1     -29.842 -17.827  -3.327  1.00  0.00    -0.390 OA
ATOM     26  H4  UNL     1     -29.623 -18.446  -4.013  1.00  0.00     0.210 HD
ENDBRANCH   6  25
BRANCH   7  27
HETATM   27  O5  UNL     1     -27.374 -17.072  -4.493  1.00  0.00    -0.391 OA
ATOM     28  H5  UNL     1     -26.433 -16.945  -4.456  1.00  0.00     0.210 HD
ENDBRANCH   7  27
TORSDOF 6
ENDMDL
MODEL 2
REMARK VINA RESULT: -7.103007502      1.239      1.524
REMARK  6 active torsions:
REMARK  status: ('A' for Active; 'I' for Inactive)
REMARK    1  A    between atoms: C4_4  and  C5_5 
REMARK    2  A    between atoms: C5_5  and  O1_6 
REMARK    3  A    between atoms: C12_15  and  O3_16 
REMARK    4  A    between atoms: C13_18  and  O4_19 
REMARK    5  A    between atoms: C14_21  and  O5_22 
REMARK    6  A    between atoms: C15_24  and  S1_25 
ROOT
HETATM    1  C1  UNL     1     -30.171 -13.493  -0.943  1.00  0.00     0.036 C 
HETATM    2  C2  UNL     1     -28.768 -13.679  -0.602  1.00  0.00    -0.022 C 
HETATM    3  C3  UNL     1     -27.978 -14.845  -0.929  1.00  0.00    -0.033 C 
HETATM    4  C4  UNL     1     -28.299 -16.203  -0.453  1.00  0.00     0.001 C 
HETATM    5  C12 UNL     1     -29.469 -16.752  -1.226  1.00  0.00     0.182 C 
HETATM    6  C13 UNL     1     -29.013 -16.936  -2.681  1.00  0.00     0.181 C 
HETATM    7  C14 UNL     1     -28.603 -15.636  -3.265  1.00  0.00     0.172 C 
HETATM    8  C15 UNL     1     -27.597 -14.969  -2.408  1.00  0.00     0.172 C 
ENDROOT
BRANCH   4   9
HETATM    9  C5  UNL     1     -28.188 -16.568   0.951  1.00  0.00     0.152 C 
HETATM   10  C6  UNL     1     -27.481 -15.788   1.935  1.00  0.00     0.173 C 
HETATM   11  O2  UNL     1     -27.397 -14.591   2.048  1.00  0.00    -0.293 OA
HETATM   12  C7  UNL     1     -26.818 -16.741   2.870  1.00  0.00     0.082 C 
HETATM   13  C8  UNL     1     -25.701 -17.394   2.187  1.00  0.00    -0.018 C 
HETATM   14  C11 UNL     1     -27.849 -17.893   2.788  1.00  0.00     0.028 C 
HETATM   15  C9  UNL     1     -26.230 -18.130   1.218  1.00  0.00    -0.021 C 
HETATM   16  C10 UNL     1     -27.711 -17.976   1.245  1.00  0.00     0.055 C 
BRANCH   9  17
HETATM   17  O1  UNL     1     -29.526 -16.634   1.454  1.00  0.00    -0.377 OA
ATOM     18  H1  UNL     1     -30.027 -15.994   0.962  1.00  0.00     0.211 HD
ENDBRANCH   9  17
ENDBRANCH   4   9
BRANCH   5  19
HETATM   19  O3  UNL     1     -29.902 -18.008  -0.850  1.00  0.00    -0.388 OA
ATOM     20  H3  UNL     1     -30.827 -18.182  -0.977  1.00  0.00     0.210 HD
ENDBRANCH   5  19
BRANCH   8  21
HETATM   21  S1  UNL     1     -27.088 -13.457  -3.136  1.00  0.00     0.151 S 
HETATM   22  C16 UNL     1     -26.178 -12.418  -2.038  1.00  0.00     0.162 C 
HETATM   23  O6  UNL     1     -26.102 -13.850  -4.240  1.00  0.00    -0.227 OA
HETATM   24  O7  UNL     1     -28.187 -12.736  -3.864  1.00  0.00    -0.227 OA
ENDBRANCH   8  21
BRANCH   6  25
HETATM   25  O4  UNL     1     -29.940 -17.637  -3.421  1.00  0.00    -0.390 OA
ATOM     26  H4  UNL     1     -29.712 -17.655  -4.343  1.00  0.00     0.210 HD
ENDBRANCH   6  25
BRANCH   7  27
HETATM   27  O5  UNL     1     -27.914 -15.957  -4.469  1.00  0.00    -0.391 OA
ATOM     28  H5  UNL     1     -28.387 -15.511  -5.161  1.00  0.00     0.210 HD
ENDBRANCH   7  27
TORSDOF 6
ENDMDL
MODEL 3
REMARK VINA RESULT: -7.004210522      1.103      1.233
REMARK  6 active torsions:
REMARK  status: ('A' for Active; 'I' for Inactive)
REMARK    1  A    between atoms: C4_4  and  C5_5 
REMARK    2  A    between atoms: C5_5  and  O1_6 
REMARK    3  A    between atoms: C12_15  and  O3_16 
REMARK    4  A    between atoms: C13_18  and  O4_19 
REMARK    5  A    between atoms: C14_21  and  O5_22 
REMARK    6  A    between atoms: C15_24  and  S1_25 
ROOT
HETATM    1  C1  UNL     1     -29.718 -13.436  -0.429  1.00  0.00     0.036 C 
HETATM    2  C2  UNL     1     -28.288 -13.674  -0.305  1.00  0.00    -0.022 C 
HETATM    3  C3  UNL     1     -27.596 -14.855  -0.772  1.00  0.00    -0.033 C 
HETATM    4  C4  UNL     1     -27.889 -16.215  -0.284  1.00  0.00     0.001 C 
HETATM    5  C12 UNL     1     -29.179 -16.706  -0.886  1.00  0.00     0.182 C 
HETATM    6  C13 UNL     1     -28.950 -16.864  -2.396  1.00  0.00     0.181 C 
HETATM    7  C14 UNL     1     -28.587 -15.562  -3.006  1.00  0.00     0.172 C 
HETATM    8  C15 UNL     1     -27.443 -14.950  -2.293  1.00  0.00     0.172 C 
ENDROOT
BRANCH   4   9
HETATM    9  C5  UNL     1     -27.584 -16.621   1.079  1.00  0.00     0.152 C 
HETATM   10  C6  UNL     1     -28.446 -16.376   2.207  1.00  0.00     0.173 C 
HETATM   11  O2  UNL     1     -29.649 -16.402   2.272  1.00  0.00    -0.293 OA
HETATM   12  C7  UNL     1     -27.577 -16.065   3.377  1.00  0.00     0.082 C 
HETATM   13  C8  UNL     1     -26.979 -14.741   3.200  1.00  0.00    -0.018 C 
HETATM   14  C11 UNL     1     -26.353 -16.929   2.986  1.00  0.00     0.028 C 
HETATM   15  C9  UNL     1     -26.173 -14.829   2.150  1.00  0.00    -0.021 C 
HETATM   16  C10 UNL     1     -26.224 -16.217   1.613  1.00  0.00     0.055 C 
BRANCH   9  17
HETATM   17  O1  UNL     1     -27.443 -18.045   1.051  1.00  0.00    -0.377 OA
ATOM     18  H1  UNL     1     -27.208 -18.306   1.933  1.00  0.00     0.211 HD
ENDBRANCH   9  17
ENDBRANCH   4   9
BRANCH   5  19
HETATM   19  O3  UNL     1     -29.594 -17.958  -0.478  1.00  0.00    -0.388 OA
ATOM     20  H3  UNL     1     -29.511 -18.139   0.451  1.00  0.00     0.210 HD
ENDBRANCH   5  19
BRANCH   8  21
HETATM   21  S1  UNL     1     -26.995 -13.436  -3.055  1.00  0.00     0.151 S 
HETATM   22  C16 UNL     1     -26.001 -12.399  -2.030  1.00  0.00     0.162 C 
HETATM   23  O6  UNL     1     -26.101 -13.824  -4.236  1.00  0.00    -0.227 OA
HETATM   24  O7  UNL     1     -28.150 -12.714  -3.691  1.00  0.00    -0.227 OA
ENDBRANCH   8  21
BRANCH   6  25
HETATM   25  O4  UNL     1     -30.001 -17.516  -3.006  1.00  0.00    -0.390 OA
ATOM     26  H4  UNL     1     -29.977 -18.451  -2.842  1.00  0.00     0.210 HD
ENDBRANCH   6  25
BRANCH   7  27
HETATM   27  O5  UNL     1     -28.096 -15.872  -4.306  1.00  0.00    -0.391 OA
ATOM     28  H5  UNL     1     -27.857 -15.038  -4.694  1.00  0.00     0.210 HD
ENDBRANCH   7  27
TORSDOF 6
ENDMDL
MODEL 4
REMARK VINA RESULT: -6.946538084      5.227      8.934
REMARK  6 active torsions:
REMARK  status: ('A' for Active; 'I' for Inactive)
REMARK    1  A    between atoms: C4_4  and  C5_5 
REMARK    2  A    between atoms: C5_5  and  O1_6 
REMARK    3  A    between atoms: C12_15  and  O3_16 
REMARK    4  A    between atoms: C13_18  and  O4_19 
REMARK    5  A    between atoms: C14_21  and  O5_22 
REMARK    6  A    between atoms: C15_24  and  S1_25 
ROOT
HETATM    1  C1  UNL     1     -21.810 -13.108  -1.858  1.00  0.00     0.036 C 
HETATM    2  C2  UNL     1     -22.655 -12.200  -2.619  1.00  0.00    -0.022 C 
HETATM    3  C3  UNL     1     -22.930 -12.307  -4.034  1.00  0.00    -0.033 C 
HETATM    4  C4  UNL     1     -21.884 -12.241  -5.072  1.00  0.00     0.001 C 
HETATM    5  C12 UNL     1     -21.114 -13.535  -5.102  1.00  0.00     0.182 C 
HETATM    6  C13 UNL     1     -22.079 -14.633  -5.575  1.00  0.00     0.181 C 
HETATM    7  C14 UNL     1     -23.220 -14.761  -4.637  1.00  0.00     0.172 C 
HETATM    8  C15 UNL     1     -23.873 -13.450  -4.422  1.00  0.00     0.172 C 
ENDROOT
BRANCH   4   9
HETATM    9  C5  UNL     1     -21.152 -11.014  -5.344  1.00  0.00     0.152 C 
HETATM   10  C6  UNL     1     -19.944 -10.626  -4.661  1.00  0.00     0.173 C 
HETATM   11  O2  UNL     1     -19.027 -11.308  -4.278  1.00  0.00    -0.293 OA
HETATM   12  C7  UNL     1     -19.987  -9.147  -4.480  1.00  0.00     0.082 C 
HETATM   13  C8  UNL     1     -20.991  -8.810  -3.470  1.00  0.00    -0.018 C 
HETATM   14  C11 UNL     1     -20.800  -8.788  -5.747  1.00  0.00     0.028 C 
HETATM   15  C9  UNL     1     -22.168  -9.158  -3.977  1.00  0.00    -0.021 C 
HETATM   16  C10 UNL     1     -21.959  -9.732  -5.335  1.00  0.00     0.055 C 
BRANCH   9  17
HETATM   17  O1  UNL     1     -20.769 -11.074  -6.722  1.00  0.00    -0.377 OA
ATOM     18  H1  UNL     1     -20.416 -10.219  -6.937  1.00  0.00     0.211 HD
ENDBRANCH   9  17
ENDBRANCH   4   9
BRANCH   5  19
HETATM   19  O3  UNL     1     -20.072 -13.594  -6.006  1.00  0.00    -0.388 OA
ATOM     20  H3  UNL     1     -19.429 -12.897  -5.942  1.00  0.00     0.210 HD
ENDBRANCH   5  19
BRANCH   8  21
HETATM   21  S1  UNL     1     -25.248 -13.627  -3.349  1.00  0.00     0.151 S 
HETATM   22  C16 UNL     1     -25.861 -12.092  -2.732  1.00  0.00     0.162 C 
HETATM   23  O6  UNL     1     -26.371 -14.196  -4.220  1.00  0.00    -0.227 OA
HETATM   24  O7  UNL     1     -25.051 -14.664  -2.279  1.00  0.00    -0.227 OA
ENDBRANCH   8  21
BRANCH   6  25
HETATM   25  O4  UNL     1     -21.417 -15.811  -5.846  1.00  0.00    -0.390 OA
ATOM     26  H4  UNL     1     -21.965 -16.569  -5.678  1.00  0.00     0.210 HD
ENDBRANCH   6  25
BRANCH   7  27
HETATM   27  O5  UNL     1     -24.187 -15.554  -5.317  1.00  0.00    -0.391 OA
ATOM     28  H5  UNL     1     -23.922 -15.554  -6.229  1.00  0.00     0.210 HD
ENDBRANCH   7  27
TORSDOF 6
ENDMDL
MODEL 5
REMARK VINA RESULT: -6.734933135      0.971      1.580
REMARK  6 active torsions:
REMARK  status: ('A' for Active; 'I' for Inactive)
REMARK    1  A    between atoms: C4_4  and  C5_5 
REMARK    2  A    between atoms: C5_5  and  O1_6 
REMARK    3  A    between atoms: C12_15  and  O3_16 
REMARK    4  A    between atoms: C13_18  and  O4_19 
REMARK    5  A    between atoms: C14_21  and  O5_22 
REMARK    6  A    between atoms: C15_24  and  S1_25 
ROOT
HETATM    1  C1  UNL     1     -28.219 -13.327  -1.156  1.00  0.00     0.036 C 
HETATM    2  C2  UNL     1     -26.937 -13.950  -0.862  1.00  0.00    -0.022 C 
HETATM    3  C3  UNL     1     -26.651 -15.362  -0.977  1.00  0.00    -0.033 C 
HETATM    4  C4  UNL     1     -27.359 -16.400  -0.205  1.00  0.00     0.001 C 
HETATM    5  C12 UNL     1     -28.736 -16.611  -0.778  1.00  0.00     0.182 C 
HETATM    6  C13 UNL     1     -28.563 -17.205  -2.183  1.00  0.00     0.181 C 
HETATM    7  C14 UNL     1     -27.806 -16.272  -3.052  1.00  0.00     0.172 C 
HETATM    8  C15 UNL     1     -26.530 -15.878  -2.413  1.00  0.00     0.172 C 
ENDROOT
BRANCH   4   9
HETATM    9  C5  UNL     1     -27.203 -16.523   1.236  1.00  0.00     0.152 C 
HETATM   10  C6  UNL     1     -27.809 -17.562   2.029  1.00  0.00     0.173 C 
HETATM   11  O2  UNL     1     -27.989 -18.723   1.763  1.00  0.00    -0.293 OA
HETATM   12  C7  UNL     1     -28.216 -16.954   3.328  1.00  0.00     0.082 C 
HETATM   13  C8  UNL     1     -29.362 -16.071   3.114  1.00  0.00    -0.018 C 
HETATM   14  C11 UNL     1     -27.107 -15.879   3.432  1.00  0.00     0.028 C 
HETATM   15  C9  UNL     1     -28.932 -15.071   2.354  1.00  0.00    -0.021 C 
HETATM   16  C10 UNL     1     -27.488 -15.279   2.053  1.00  0.00     0.055 C 
BRANCH   9  17
HETATM   17  O1  UNL     1     -25.800 -16.678   1.474  1.00  0.00    -0.377 OA
ATOM     18  H1  UNL     1     -25.574 -16.049   2.150  1.00  0.00     0.211 HD
ENDBRANCH   9  17
ENDBRANCH   4   9
BRANCH   5  19
HETATM   19  O3  UNL     1     -29.526 -17.532  -0.120  1.00  0.00    -0.388 OA
ATOM     20  H3  UNL     1     -30.153 -17.999  -0.659  1.00  0.00     0.210 HD
ENDBRANCH   5  19
BRANCH   8  21
HETATM   21  S1  UNL     1     -25.625 -14.815  -3.474  1.00  0.00     0.151 S 
HETATM   22  C16 UNL     1     -24.243 -14.049  -2.689  1.00  0.00     0.162 C 
HETATM   23  O6  UNL     1     -25.032 -15.725  -4.552  1.00  0.00    -0.227 OA
HETATM   24  O7  UNL     1     -26.486 -13.850  -4.240  1.00  0.00    -0.227 OA
ENDBRANCH   8  21
BRANCH   6  25
HETATM   25  O4  UNL     1     -29.764 -17.638  -2.705  1.00  0.00    -0.390 OA
ATOM     26  H4  UNL     1     -30.377 -16.921  -2.815  1.00  0.00     0.210 HD
ENDBRANCH   6  25
BRANCH   7  27
HETATM   27  O5  UNL     1     -27.433 -17.033  -4.196  1.00  0.00    -0.391 OA
ATOM     28  H5  UNL     1     -27.182 -16.397  -4.856  1.00  0.00     0.210 HD
ENDBRANCH   7  27
TORSDOF 6
ENDMDL
