MODEL 1
REMARK VINA RESULT: -6.620144345      0.000      0.000
REMARK  6 active torsions:
REMARK  status: ('A' for Active; 'I' for Inactive)
REMARK    1  A    between atoms: O1_2  and  C2_3 
REMARK    2  A    between atoms: C3_4  and  N1_5 
REMARK    3  A    between atoms: C4_9  and  N2_10 
REMARK    4  A    between atoms: C11_18  and  O2_19 
REMARK    5  A    between atoms: C14_25  and  O3_26 
REMARK    6  A    between atoms: C16_30  and  O4_31 
ROOT
HETATM    1  N2  UNL     1     -28.441 -15.991  -3.159  1.00  0.00    -0.357 N 
HETATM    2  C5  UNL     1     -28.701 -16.496  -4.395  1.00  0.00     0.092 A 
HETATM    3  C6  UNL     1     -29.527 -17.560  -4.618  1.00  0.00     0.040 A 
HETATM    4  C7  UNL     1     -30.148 -18.180  -3.552  1.00  0.00     0.047 A 
HETATM    5  C8  UNL     1     -31.031 -19.306  -3.714  1.00  0.00     0.099 C 
HETATM    6  N3  UNL     1     -31.733 -20.225  -3.830  1.00  0.00    -0.191 NA
HETATM    7  C9  UNL     1     -29.901 -17.688  -2.292  1.00  0.00     0.040 A 
HETATM    8  C10 UNL     1     -29.055 -16.608  -2.135  1.00  0.00     0.092 A 
ENDROOT
BRANCH   1   9
HETATM    9  C4  UNL     1     -27.563 -14.870  -2.997  1.00  0.00     0.154 C 
HETATM   10  C3  UNL     1     -28.233 -13.653  -2.449  1.00  0.00     0.240 C 
HETATM   11  C2  UNL     1     -27.340 -12.677  -1.788  1.00  0.00     0.185 C 
HETATM   12  C16 UNL     1     -25.912 -12.702  -2.258  1.00  0.00     0.198 C 
HETATM   13  C13 UNL     1     -25.351 -14.054  -2.469  1.00  0.00     0.232 C 
HETATM   14  C11 UNL     1     -26.340 -15.178  -2.159  1.00  0.00     0.195 C 
HETATM   15  N4  UNL     1     -24.075 -14.297  -1.854  1.00  0.00    -0.025 N 
HETATM   16  S1  UNL     1     -24.902 -14.295  -4.239  1.00  0.00    -0.121 SA
HETATM   17  C14 UNL     1     -23.056 -13.622  -2.596  1.00  0.00     0.330 C 
ATOM     18  H42 UNL     1     -24.067 -14.041  -0.866  1.00  0.00     0.282 HD
ATOM     19  H41 UNL     1     -23.880 -15.292  -1.747  1.00  0.00     0.282 HD
HETATM   20  C15 UNL     1     -23.078 -14.189  -4.017  1.00  0.00     0.137 C 
BRANCH  10  21
HETATM   21  N1  UNL     1     -28.885 -12.977  -3.576  1.00  0.00    -0.070 N 
ATOM     22  H13 UNL     1     -29.725 -13.460  -3.893  1.00  0.00     0.274 HD
ATOM     23  H12 UNL     1     -29.326 -12.098  -3.307  1.00  0.00     0.274 HD
ATOM     24  H11 UNL     1     -28.192 -12.861  -4.316  1.00  0.00     0.274 HD
ENDBRANCH  10  21
BRANCH  11  25
HETATM   25  O1  UNL     1     -27.817 -11.381  -2.033  1.00  0.00    -0.386 OA
HETATM   26  C1  UNL     1     -28.238 -10.759  -0.865  1.00  0.00     0.202 C 
ENDBRANCH  11  25
BRANCH  12  27
HETATM   27  O4  UNL     1     -25.154 -12.048  -1.258  1.00  0.00    -0.389 OA
ATOM     28  H4  UNL     1     -25.093 -11.138  -1.522  1.00  0.00     0.210 HD
ENDBRANCH  12  27
BRANCH  14  29
HETATM   29  O2  UNL     1     -26.597 -15.163  -0.811  1.00  0.00    -0.385 OA
HETATM   30  C12 UNL     1     -26.173 -16.321  -0.162  1.00  0.00     0.202 C 
ENDBRANCH  14  29
BRANCH  17  31
HETATM   31  O3  UNL     1     -21.843 -13.850  -1.968  1.00  0.00    -0.369 OA
ATOM     32  H3  UNL     1     -21.365 -14.499  -2.472  1.00  0.00     0.212 HD
ENDBRANCH  17  31
ENDBRANCH   1   9
TORSDOF 6
ENDMDL
MODEL 2
REMARK VINA RESULT: -6.397405329      3.346      5.956
REMARK  6 active torsions:
REMARK  status: ('A' for Active; 'I' for Inactive)
REMARK    1  A    between atoms: O1_2  and  C2_3 
REMARK    2  A    between atoms: C3_4  and  N1_5 
REMARK    3  A    between atoms: C4_9  and  N2_10 
REMARK    4  A    between atoms: C11_18  and  O2_19 
REMARK    5  A    between atoms: C14_25  and  O3_26 
REMARK    6  A    between atoms: C16_30  and  O4_31 
ROOT
HETATM    1  N2  UNL     1     -26.791 -16.524   1.009  1.00  0.00    -0.357 N 
HETATM    2  C5  UNL     1     -26.490 -17.846   1.112  1.00  0.00     0.092 A 
HETATM    3  C6  UNL     1     -25.578 -18.346   1.996  1.00  0.00     0.040 A 
HETATM    4  C7  UNL     1     -24.908 -17.491   2.846  1.00  0.00     0.047 A 
HETATM    5  C8  UNL     1     -23.934 -17.950   3.803  1.00  0.00     0.099 C 
HETATM    6  N3  UNL     1     -23.136 -18.305   4.569  1.00  0.00    -0.191 NA
HETATM    7  C9  UNL     1     -25.194 -16.149   2.762  1.00  0.00     0.040 A 
HETATM    8  C10 UNL     1     -26.127 -15.707   1.845  1.00  0.00     0.092 A 
ENDROOT
BRANCH   1   9
HETATM    9  C4  UNL     1     -27.760 -16.066   0.056  1.00  0.00     0.154 C 
HETATM   10  C3  UNL     1     -28.383 -14.756   0.412  1.00  0.00     0.240 C 
HETATM   11  C2  UNL     1     -28.965 -14.000  -0.717  1.00  0.00     0.185 C 
HETATM   12  C16 UNL     1     -29.398 -14.839  -1.888  1.00  0.00     0.198 C 
HETATM   13  C13 UNL     1     -28.467 -15.928  -2.250  1.00  0.00     0.232 C 
HETATM   14  C11 UNL     1     -27.226 -15.989  -1.358  1.00  0.00     0.195 C 
HETATM   15  N4  UNL     1     -28.115 -16.004  -3.641  1.00  0.00    -0.025 N 
HETATM   16  S1  UNL     1     -29.281 -17.567  -2.038  1.00  0.00    -0.121 SA
HETATM   17  C14 UNL     1     -29.218 -16.533  -4.380  1.00  0.00     0.330 C 
ATOM     18  H42 UNL     1     -27.798 -15.107  -4.009  1.00  0.00     0.282 HD
ATOM     19  H41 UNL     1     -27.258 -16.535  -3.794  1.00  0.00     0.282 HD
HETATM   20  C15 UNL     1     -29.507 -17.930  -3.828  1.00  0.00     0.137 C 
BRANCH  10  21
HETATM   21  N1  UNL     1     -29.458 -15.037   1.369  1.00  0.00    -0.070 N 
ATOM     22  H13 UNL     1     -29.368 -14.502   2.232  1.00  0.00     0.274 HD
ATOM     23  H12 UNL     1     -30.360 -14.664   1.071  1.00  0.00     0.274 HD
ATOM     24  H11 UNL     1     -29.482 -16.044   1.529  1.00  0.00     0.274 HD
ENDBRANCH  10  21
BRANCH  11  25
HETATM   25  O1  UNL     1     -30.107 -13.318  -0.272  1.00  0.00    -0.386 OA
HETATM   26  C1  UNL     1     -29.884 -11.950  -0.175  1.00  0.00     0.202 C 
ENDBRANCH  11  25
BRANCH  12  27
HETATM   27  O4  UNL     1     -29.511 -13.956  -2.988  1.00  0.00    -0.389 OA
ATOM     28  H4  UNL     1     -30.330 -13.489  -2.871  1.00  0.00     0.210 HD
ENDBRANCH  12  27
BRANCH  14  29
HETATM   29  O2  UNL     1     -26.477 -14.862  -1.587  1.00  0.00    -0.385 OA
HETATM   30  C12 UNL     1     -25.155 -15.144  -1.924  1.00  0.00     0.202 C 
ENDBRANCH  14  29
BRANCH  17  31
HETATM   31  O3  UNL     1     -28.862 -16.570  -5.718  1.00  0.00    -0.369 OA
ATOM     32  H3  UNL     1     -28.016 -16.998  -5.788  1.00  0.00     0.212 HD
ENDBRANCH  17  31
ENDBRANCH   1   9
TORSDOF 6
ENDMDL
MODEL 3
REMARK VINA RESULT: -6.205398618      2.804      6.811
REMARK  6 active torsions:
REMARK  status: ('A' for Active; 'I' for Inactive)
REMARK    1  A    between atoms: O1_2  and  C2_3 
REMARK    2  A    between atoms: C3_4  and  N1_5 
REMARK    3  A    between atoms: C4_9  and  N2_10 
REMARK    4  A    between atoms: C11_18  and  O2_19 
REMARK    5  A    between atoms: C14_25  and  O3_26 
REMARK    6  A    between atoms: C16_30  and  O4_31 
ROOT
HETATM    1  N2  UNL     1     -26.971 -12.963  -1.483  1.00  0.00    -0.357 N 
HETATM    2  C5  UNL     1     -26.950 -12.133  -0.407  1.00  0.00     0.092 A 
HETATM    3  C6  UNL     1     -26.757 -10.785  -0.497  1.00  0.00     0.040 A 
HETATM    4  C7  UNL     1     -26.570 -10.200  -1.733  1.00  0.00     0.047 A 
HETATM    5  C8  UNL     1     -26.362  -8.785  -1.902  1.00  0.00     0.099 C 
HETATM    6  N3  UNL     1     -26.178  -7.648  -2.049  1.00  0.00    -0.191 NA
HETATM    7  C9  UNL     1     -26.587 -11.019  -2.837  1.00  0.00     0.040 A 
HETATM    8  C10 UNL     1     -26.787 -12.376  -2.678  1.00  0.00     0.092 A 
ENDROOT
BRANCH   1   9
HETATM    9  C4  UNL     1     -27.178 -14.372  -1.317  1.00  0.00     0.154 C 
HETATM   10  C3  UNL     1     -26.728 -14.896   0.008  1.00  0.00     0.240 C 
HETATM   11  C2  UNL     1     -27.359 -16.160   0.441  1.00  0.00     0.185 C 
HETATM   12  C16 UNL     1     -27.860 -17.036  -0.674  1.00  0.00     0.198 C 
HETATM   13  C13 UNL     1     -28.541 -16.315  -1.772  1.00  0.00     0.232 C 
HETATM   14  C11 UNL     1     -28.610 -14.803  -1.555  1.00  0.00     0.195 C 
HETATM   15  N4  UNL     1     -29.817 -16.847  -2.161  1.00  0.00    -0.025 N 
HETATM   16  S1  UNL     1     -27.613 -16.524  -3.350  1.00  0.00    -0.121 SA
HETATM   17  C14 UNL     1     -29.622 -18.051  -2.906  1.00  0.00     0.330 C 
ATOM     18  H42 UNL     1     -30.439 -16.983  -1.364  1.00  0.00     0.282 HD
ATOM     19  H41 UNL     1     -30.380 -16.166  -2.669  1.00  0.00     0.282 HD
HETATM   20  C15 UNL     1     -28.795 -17.691  -4.142  1.00  0.00     0.137 C 
BRANCH  10  21
HETATM   21  N1  UNL     1     -25.282 -15.122  -0.089  1.00  0.00    -0.070 N 
ATOM     22  H13 UNL     1     -25.034 -16.110  -0.046  1.00  0.00     0.274 HD
ATOM     23  H12 UNL     1     -24.914 -14.929  -1.020  1.00  0.00     0.274 HD
ATOM     24  H11 UNL     1     -24.828 -14.568   0.638  1.00  0.00     0.274 HD
ENDBRANCH  10  21
BRANCH  11  25
HETATM   25  O1  UNL     1     -26.418 -16.922   1.152  1.00  0.00    -0.386 OA
HETATM   26  C1  UNL     1     -26.713 -16.966   2.509  1.00  0.00     0.202 C 
ENDBRANCH  11  25
BRANCH  12  27
HETATM   27  O4  UNL     1     -28.777 -17.939  -0.088  1.00  0.00    -0.389 OA
ATOM     28  H4  UNL     1     -28.790 -18.707  -0.648  1.00  0.00     0.210 HD
ENDBRANCH  12  27
BRANCH  14  29
HETATM   29  O2  UNL     1     -29.428 -14.561  -0.479  1.00  0.00    -0.385 OA
HETATM   30  C12 UNL     1     -30.336 -13.529  -0.706  1.00  0.00     0.202 C 
ENDBRANCH  14  29
BRANCH  17  31
HETATM   31  O3  UNL     1     -30.866 -18.555  -3.246  1.00  0.00    -0.369 OA
ATOM     32  H3  UNL     1     -30.736 -19.321  -3.792  1.00  0.00     0.212 HD
ENDBRANCH  17  31
ENDBRANCH   1   9
TORSDOF 6
ENDMDL
MODEL 4
REMARK VINA RESULT: -6.168923404      2.611      6.172
REMARK  6 active torsions:
REMARK  status: ('A' for Active; 'I' for Inactive)
REMARK    1  A    between atoms: O1_2  and  C2_3 
REMARK    2  A    between atoms: C3_4  and  N1_5 
REMARK    3  A    between atoms: C4_9  and  N2_10 
REMARK    4  A    between atoms: C11_18  and  O2_19 
REMARK    5  A    between atoms: C14_25  and  O3_26 
REMARK    6  A    between atoms: C16_30  and  O4_31 
ROOT
HETATM    1  N2  UNL     1     -25.409 -13.771  -3.347  1.00  0.00    -0.357 N 
HETATM    2  C5  UNL     1     -24.757 -12.581  -3.442  1.00  0.00     0.092 A 
HETATM    3  C6  UNL     1     -23.572 -12.420  -4.100  1.00  0.00     0.040 A 
HETATM    4  C7  UNL     1     -22.977 -13.503  -4.714  1.00  0.00     0.047 A 
HETATM    5  C8  UNL     1     -21.728 -13.404  -5.426  1.00  0.00     0.099 C 
HETATM    6  N3  UNL     1     -20.714 -13.341  -5.989  1.00  0.00    -0.191 NA
HETATM    7  C9  UNL     1     -23.617 -14.717  -4.633  1.00  0.00     0.040 A 
HETATM    8  C10 UNL     1     -24.813 -14.813  -3.952  1.00  0.00     0.092 A 
ENDROOT
BRANCH   1   9
HETATM    9  C4  UNL     1     -26.652 -13.870  -2.639  1.00  0.00     0.154 C 
HETATM   10  C3  UNL     1     -27.395 -15.139  -2.898  1.00  0.00     0.240 C 
HETATM   11  C2  UNL     1     -28.367 -15.532  -1.857  1.00  0.00     0.185 C 
HETATM   12  C16 UNL     1     -28.919 -14.396  -1.041  1.00  0.00     0.198 C 
HETATM   13  C13 UNL     1     -27.924 -13.375  -0.646  1.00  0.00     0.232 C 
HETATM   14  C11 UNL     1     -26.511 -13.679  -1.144  1.00  0.00     0.195 C 
HETATM   15  N4  UNL     1     -27.923 -13.020   0.747  1.00  0.00    -0.025 N 
HETATM   16  S1  UNL     1     -28.347 -11.744  -1.391  1.00  0.00    -0.121 SA
HETATM   17  C14 UNL     1     -29.060 -12.200   1.027  1.00  0.00     0.330 C 
ATOM     18  H42 UNL     1     -27.877 -13.838   1.354  1.00  0.00     0.282 HD
ATOM     19  H41 UNL     1     -27.049 -12.579   1.032  1.00  0.00     0.282 HD
HETATM   20  C15 UNL     1     -28.943 -10.947   0.158  1.00  0.00     0.137 C 
BRANCH  10  21
HETATM   21  N1  UNL     1     -28.127 -14.959  -4.156  1.00  0.00    -0.070 N 
ATOM     22  H13 UNL     1     -28.551 -15.823  -4.493  1.00  0.00     0.274 HD
ATOM     23  H12 UNL     1     -28.987 -14.423  -4.039  1.00  0.00     0.274 HD
ATOM     24  H11 UNL     1     -27.490 -14.541  -4.834  1.00  0.00     0.274 HD
ENDBRANCH  10  21
BRANCH  11  25
HETATM   25  O1  UNL     1     -29.468 -16.152  -2.469  1.00  0.00    -0.386 OA
HETATM   26  C1  UNL     1     -29.449 -17.529  -2.283  1.00  0.00     0.202 C 
ENDBRANCH  11  25
BRANCH  12  27
HETATM   27  O4  UNL     1     -29.462 -14.976   0.130  1.00  0.00    -0.389 OA
ATOM     28  H4  UNL     1     -30.351 -15.230  -0.087  1.00  0.00     0.210 HD
ENDBRANCH  12  27
BRANCH  14  29
HETATM   29  O2  UNL     1     -26.062 -14.805  -0.500  1.00  0.00    -0.385 OA
HETATM   30  C12 UNL     1     -24.885 -14.591   0.216  1.00  0.00     0.202 C 
ENDBRANCH  14  29
BRANCH  17  31
HETATM   31  O3  UNL     1     -29.049 -11.895   2.378  1.00  0.00    -0.369 OA
ATOM     32  H3  UNL     1     -29.768 -12.358   2.792  1.00  0.00     0.212 HD
ENDBRANCH  17  31
ENDBRANCH   1   9
TORSDOF 6
ENDMDL
MODEL 5
REMARK VINA RESULT: -6.121451671      3.098      6.503
REMARK  6 active torsions:
REMARK  status: ('A' for Active; 'I' for Inactive)
REMARK    1  A    between atoms: O1_2  and  C2_3 
REMARK    2  A    between atoms: C3_4  and  N1_5 
REMARK    3  A    between atoms: C4_9  and  N2_10 
REMARK    4  A    between atoms: C11_18  and  O2_19 
REMARK    5  A    between atoms: C14_25  and  O3_26 
REMARK    6  A    between atoms: C16_30  and  O4_31 
ROOT
HETATM    1  N2  UNL     1     -25.732 -15.026  -2.675  1.00  0.00    -0.357 N 
HETATM    2  C5  UNL     1     -24.900 -14.248  -1.932  1.00  0.00     0.092 A 
HETATM    3  C6  UNL     1     -23.690 -13.798  -2.375  1.00  0.00     0.040 A 
HETATM    4  C7  UNL     1     -23.258 -14.130  -3.643  1.00  0.00     0.047 A 
HETATM    5  C8  UNL     1     -21.995 -13.689  -4.175  1.00  0.00     0.099 C 
HETATM    6  N3  UNL     1     -20.971 -13.353  -4.610  1.00  0.00    -0.191 NA
HETATM    7  C9  UNL     1     -24.082 -14.915  -4.415  1.00  0.00     0.040 A 
HETATM    8  C10 UNL     1     -25.294 -15.339  -3.907  1.00  0.00     0.092 A 
ENDROOT
BRANCH   1   9
HETATM    9  C4  UNL     1     -26.990 -15.465  -2.146  1.00  0.00     0.154 C 
HETATM   10  C3  UNL     1     -27.748 -16.369  -3.063  1.00  0.00     0.240 C 
HETATM   11  C2  UNL     1     -28.747 -17.243  -2.414  1.00  0.00     0.185 C 
HETATM   12  C16 UNL     1     -29.297 -16.723  -1.114  1.00  0.00     0.198 C 
HETATM   13  C13 UNL     1     -28.295 -16.108  -0.217  1.00  0.00     0.232 C 
HETATM   14  C11 UNL     1     -26.876 -16.125  -0.789  1.00  0.00     0.195 C 
HETATM   15  N4  UNL     1     -28.315 -16.571   1.143  1.00  0.00    -0.025 N 
HETATM   16  S1  UNL     1     -28.677 -14.325   0.047  1.00  0.00    -0.121 SA
HETATM   17  C14 UNL     1     -29.445 -16.011   1.816  1.00  0.00     0.330 C 
ATOM     18  H42 UNL     1     -28.295 -17.589   1.205  1.00  0.00     0.282 HD
ATOM     19  H41 UNL     1     -27.441 -16.378   1.630  1.00  0.00     0.282 HD
HETATM   20  C15 UNL     1     -29.290 -14.490   1.774  1.00  0.00     0.137 C 
BRANCH  10  21
HETATM   21  N1  UNL     1     -28.452 -15.513  -4.024  1.00  0.00    -0.070 N 
ATOM     22  H13 UNL     1     -29.375 -15.871  -4.269  1.00  0.00     0.274 HD
ATOM     23  H12 UNL     1     -28.753 -14.627  -3.618  1.00  0.00     0.274 HD
ATOM     24  H11 UNL     1     -27.848 -15.390  -4.837  1.00  0.00     0.274 HD
ENDBRANCH  10  21
BRANCH  11  25
HETATM   25  O1  UNL     1     -29.845 -17.401  -3.274  1.00  0.00    -0.386 OA
HETATM   26  C1  UNL     1     -29.928 -18.698  -3.766  1.00  0.00     0.202 C 
ENDBRANCH  11  25
BRANCH  12  27
HETATM   27  O4  UNL     1     -29.873 -17.835  -0.454  1.00  0.00    -0.389 OA
ATOM     28  H4  UNL     1     -29.627 -17.759   0.460  1.00  0.00     0.210 HD
ENDBRANCH  12  27
BRANCH  14  29
HETATM   29  O2  UNL     1     -26.458 -17.430  -0.861  1.00  0.00    -0.385 OA
HETATM   30  C12 UNL     1     -26.104 -17.959   0.379  1.00  0.00     0.202 C 
ENDBRANCH  14  29
BRANCH  17  31
HETATM   31  O3  UNL     1     -29.456 -16.493   3.115  1.00  0.00    -0.369 OA
ATOM     32  H3  UNL     1     -28.593 -16.839   3.310  1.00  0.00     0.212 HD
ENDBRANCH  17  31
ENDBRANCH   1   9
TORSDOF 6
ENDMDL
