MODEL 1
REMARK VINA RESULT: -6.883932619      0.000      0.000
REMARK  8 active torsions:
REMARK  status: ('A' for Active; 'I' for Inactive)
REMARK    1  A    between atoms: O1_2  and  C2_3 
REMARK    2  A    between atoms: C8_10  and  C9_11 
REMARK    3  A    between atoms: C10_12  and  C11_13 
REMARK    4  A    between atoms: C11_13  and  O3_14 
REMARK    5  A    between atoms: C11_13  and  C12_16 
REMARK    6  A    between atoms: C12_16  and  O4_17 
REMARK    7  A    between atoms: C12_16  and  C13_19 
REMARK    8  A    between atoms: C15_21  and  O5_22 
ROOT
HETATM    1  C11 UNL     1     -24.193 -14.937  -4.131  1.00  0.00     0.225 C 
ENDROOT
BRANCH   1   2
HETATM    2  C10 UNL     1     -25.570 -14.668  -3.715  1.00  0.00    -0.071 C 
HETATM    3  C9  UNL     1     -26.723 -14.461  -3.379  1.00  0.00    -0.094 C 
BRANCH   3   4
HETATM    4  C8  UNL     1     -28.108 -14.208  -2.978  1.00  0.00     0.123 C 
HETATM    5  C2  UNL     1     -28.497 -15.138  -1.857  1.00  0.00     0.145 C 
HETATM    6  C3  UNL     1     -28.928 -14.294  -0.681  1.00  0.00     0.040 C 
HETATM    7  C4  UNL     1     -27.769 -13.468  -0.159  1.00  0.00     0.012 C 
HETATM    8  C7  UNL     1     -30.029 -13.372  -1.164  1.00  0.00     0.175 C 
HETATM    9  C5  UNL     1     -27.277 -12.623  -1.315  1.00  0.00     0.034 C 
HETATM   10  C6  UNL     1     -28.243 -12.777  -2.449  1.00  0.00     0.139 C 
HETATM   11  O2  UNL     1     -29.550 -12.517  -2.126  1.00  0.00    -0.384 OA
BRANCH   5  12
HETATM   12  O1  UNL     1     -29.585 -15.900  -2.255  1.00  0.00    -0.389 OA
HETATM   13  C1  UNL     1     -29.203 -17.163  -2.707  1.00  0.00     0.202 C 
ENDBRANCH   5  12
ENDBRANCH   3   4
ENDBRANCH   1   2
BRANCH   1  14
HETATM   14  O3  UNL     1     -24.139 -15.379  -5.470  1.00  0.00    -0.381 OA
ATOM     15  H3  UNL     1     -23.964 -16.312  -5.519  1.00  0.00     0.211 HD
ENDBRANCH   1  14
BRANCH   1  16
HETATM   16  C12 UNL     1     -23.424 -13.642  -3.993  1.00  0.00     0.165 C 
BRANCH  16  17
HETATM   17  O4  UNL     1     -24.172 -12.541  -4.326  1.00  0.00    -0.392 OA
ATOM     18  H4  UNL     1     -23.644 -11.760  -4.447  1.00  0.00     0.210 HD
ENDBRANCH  16  17
BRANCH  16  19
HETATM   19  C13 UNL     1     -22.162 -13.662  -4.851  1.00  0.00     0.053 C 
HETATM   20  C14 UNL     1     -21.104 -14.536  -4.273  1.00  0.00     0.045 C 
HETATM   21  C15 UNL     1     -19.707 -14.201  -4.659  1.00  0.00     0.175 C 
HETATM   22  C16 UNL     1     -19.543 -12.804  -5.217  1.00  0.00     0.350 C 
HETATM   23  N1  UNL     1     -20.455 -11.947  -4.439  1.00  0.00    -0.040 N 
HETATM   24  O6  UNL     1     -19.937 -12.709  -6.528  1.00  0.00    -0.355 OA
HETATM   25  C17 UNL     1     -21.712 -12.266  -5.138  1.00  0.00     0.219 C 
ATOM     26  H12 UNL     1     -20.452 -12.084  -3.429  1.00  0.00     0.280 HD
ATOM     27  H11 UNL     1     -20.208 -10.959  -4.380  1.00  0.00     0.280 HD
HETATM   28  C18 UNL     1     -21.215 -12.202  -6.583  1.00  0.00     0.204 C 
BRANCH  21  29
HETATM   29  O5  UNL     1     -19.247 -15.104  -5.620  1.00  0.00    -0.391 OA
ATOM     30  H5  UNL     1     -18.680 -15.750  -5.214  1.00  0.00     0.210 HD
ENDBRANCH  21  29
ENDBRANCH  16  19
ENDBRANCH   1  16
TORSDOF 8
ENDMDL
MODEL 2
REMARK VINA RESULT: -6.857937040      1.877      2.852
REMARK  8 active torsions:
REMARK  status: ('A' for Active; 'I' for Inactive)
REMARK    1  A    between atoms: O1_2  and  C2_3 
REMARK    2  A    between atoms: C8_10  and  C9_11 
REMARK    3  A    between atoms: C10_12  and  C11_13 
REMARK    4  A    between atoms: C11_13  and  O3_14 
REMARK    5  A    between atoms: C11_13  and  C12_16 
REMARK    6  A    between atoms: C12_16  and  O4_17 
REMARK    7  A    between atoms: C12_16  and  C13_19 
REMARK    8  A    between atoms: C15_21  and  O5_22 
ROOT
HETATM    1  C11 UNL     1     -24.142 -13.503  -3.433  1.00  0.00     0.225 C 
ENDROOT
BRANCH   1   2
HETATM    2  C10 UNL     1     -25.180 -14.518  -3.254  1.00  0.00    -0.071 C 
HETATM    3  C9  UNL     1     -26.045 -15.368  -3.125  1.00  0.00    -0.094 C 
BRANCH   3   4
HETATM    4  C8  UNL     1     -27.087 -16.383  -2.969  1.00  0.00     0.123 C 
HETATM    5  C2  UNL     1     -27.461 -16.518  -1.515  1.00  0.00     0.145 C 
HETATM    6  C3  UNL     1     -28.940 -16.241  -1.387  1.00  0.00     0.040 C 
HETATM    7  C4  UNL     1     -29.255 -14.809  -1.771  1.00  0.00     0.012 C 
HETATM    8  C7  UNL     1     -29.660 -17.187  -2.326  1.00  0.00     0.175 C 
HETATM    9  C5  UNL     1     -28.760 -14.618  -3.189  1.00  0.00     0.034 C 
HETATM   10  C6  UNL     1     -28.349 -15.954  -3.724  1.00  0.00     0.139 C 
HETATM   11  O2  UNL     1     -29.308 -16.928  -3.628  1.00  0.00    -0.384 OA
BRANCH   5  12
HETATM   12  O1  UNL     1     -27.235 -17.824  -1.106  1.00  0.00    -0.389 OA
HETATM   13  C1  UNL     1     -26.857 -17.896   0.234  1.00  0.00     0.202 C 
ENDBRANCH   5  12
ENDBRANCH   3   4
ENDBRANCH   1   2
BRANCH   1  14
HETATM   14  O3  UNL     1     -23.256 -13.477  -2.335  1.00  0.00    -0.381 OA
ATOM     15  H3  UNL     1     -23.555 -14.046  -1.636  1.00  0.00     0.211 HD
ENDBRANCH   1  14
BRANCH   1  16
HETATM   16  C12 UNL     1     -23.380 -13.860  -4.691  1.00  0.00     0.165 C 
BRANCH  16  17
HETATM   17  O4  UNL     1     -22.931 -15.157  -4.690  1.00  0.00    -0.392 OA
ATOM     18  H4  UNL     1     -23.336 -15.686  -4.012  1.00  0.00     0.210 HD
ENDBRANCH  16  17
BRANCH  16  19
HETATM   19  C13 UNL     1     -22.193 -12.924  -4.895  1.00  0.00     0.053 C 
HETATM   20  C14 UNL     1     -22.288 -12.167  -6.175  1.00  0.00     0.045 C 
HETATM   21  C15 UNL     1     -20.995 -11.701  -6.746  1.00  0.00     0.175 C 
HETATM   22  C16 UNL     1     -19.784 -12.413  -6.184  1.00  0.00     0.350 C 
HETATM   23  N1  UNL     1     -20.190 -13.817  -5.996  1.00  0.00    -0.040 N 
HETATM   24  O6  UNL     1     -19.418 -11.940  -4.950  1.00  0.00    -0.355 OA
HETATM   25  C17 UNL     1     -20.911 -13.671  -4.720  1.00  0.00     0.219 C 
ATOM     26  H12 UNL     1     -20.709 -14.244  -6.762  1.00  0.00     0.280 HD
ATOM     27  H11 UNL     1     -19.442 -14.511  -6.017  1.00  0.00     0.280 HD
HETATM   28  C18 UNL     1     -19.921 -12.773  -3.977  1.00  0.00     0.204 C 
BRANCH  21  29
HETATM   29  O5  UNL     1     -20.837 -10.333  -6.513  1.00  0.00    -0.391 OA
ATOM     30  H5  UNL     1     -20.403 -10.194  -5.679  1.00  0.00     0.210 HD
ENDBRANCH  21  29
ENDBRANCH  16  19
ENDBRANCH   1  16
TORSDOF 8
ENDMDL
MODEL 3
REMARK VINA RESULT: -6.849608802      3.153      7.407
REMARK  8 active torsions:
REMARK  status: ('A' for Active; 'I' for Inactive)
REMARK    1  A    between atoms: O1_2  and  C2_3 
REMARK    2  A    between atoms: C8_10  and  C9_11 
REMARK    3  A    between atoms: C10_12  and  C11_13 
REMARK    4  A    between atoms: C11_13  and  O3_14 
REMARK    5  A    between atoms: C11_13  and  C12_16 
REMARK    6  A    between atoms: C12_16  and  O4_17 
REMARK    7  A    between atoms: C12_16  and  C13_19 
REMARK    8  A    between atoms: C15_21  and  O5_22 
ROOT
HETATM    1  C11 UNL     1     -28.925 -12.481  -1.102  1.00  0.00     0.225 C 
ENDROOT
BRANCH   1   2
HETATM    2  C10 UNL     1     -27.656 -12.297  -1.807  1.00  0.00    -0.071 C 
HETATM    3  C9  UNL     1     -26.600 -12.163  -2.401  1.00  0.00    -0.094 C 
BRANCH   3   4
HETATM    4  C8  UNL     1     -25.330 -12.003  -3.110  1.00  0.00     0.123 C 
HETATM    5  C2  UNL     1     -24.303 -11.391  -2.191  1.00  0.00     0.145 C 
HETATM    6  C3  UNL     1     -23.129 -12.338  -2.109  1.00  0.00     0.040 C 
HETATM    7  C4  UNL     1     -23.539 -13.648  -1.467  1.00  0.00     0.012 C 
HETATM    8  C7  UNL     1     -22.654 -12.595  -3.525  1.00  0.00     0.175 C 
HETATM    9  C5  UNL     1     -24.668 -14.212  -2.305  1.00  0.00     0.034 C 
HETATM   10  C6  UNL     1     -24.797 -13.374  -3.538  1.00  0.00     0.139 C 
HETATM   11  O2  UNL     1     -23.635 -13.224  -4.252  1.00  0.00    -0.384 OA
BRANCH   5  12
HETATM   12  O1  UNL     1     -23.852 -10.201  -2.742  1.00  0.00    -0.389 OA
HETATM   13  C1  UNL     1     -24.419  -9.088  -2.123  1.00  0.00     0.202 C 
ENDBRANCH   5  12
ENDBRANCH   3   4
ENDBRANCH   1   2
BRANCH   1  14
HETATM   14  O3  UNL     1     -29.721 -11.317  -1.166  1.00  0.00    -0.381 OA
ATOM     15  H3  UNL     1     -30.365 -11.378  -1.862  1.00  0.00     0.211 HD
ENDBRANCH   1  14
BRANCH   1  16
HETATM   16  C12 UNL     1     -29.648 -13.627  -1.775  1.00  0.00     0.165 C 
BRANCH  16  17
HETATM   17  O4  UNL     1     -30.735 -14.063  -1.061  1.00  0.00    -0.392 OA
ATOM     18  H4  UNL     1     -30.612 -14.932  -0.698  1.00  0.00     0.210 HD
ENDBRANCH  16  17
BRANCH  16  19
HETATM   19  C13 UNL     1     -28.706 -14.803  -2.012  1.00  0.00     0.053 C 
HETATM   20  C14 UNL     1     -28.914 -15.430  -3.347  1.00  0.00     0.045 C 
HETATM   21  C15 UNL     1     -28.509 -16.857  -3.460  1.00  0.00     0.175 C 
HETATM   22  C16 UNL     1     -28.352 -17.558  -2.128  1.00  0.00     0.350 C 
HETATM   23  N1  UNL     1     -29.419 -17.028  -1.262  1.00  0.00    -0.040 N 
HETATM   24  O6  UNL     1     -27.162 -17.261  -1.512  1.00  0.00    -0.355 OA
HETATM   25  C17 UNL     1     -28.780 -15.762  -0.868  1.00  0.00     0.219 C 
ATOM     26  H12 UNL     1     -30.346 -16.955  -1.681  1.00  0.00     0.280 HD
ATOM     27  H11 UNL     1     -29.730 -17.635  -0.503  1.00  0.00     0.280 HD
HETATM   28  C18 UNL     1     -27.371 -16.277  -0.573  1.00  0.00     0.204 C 
BRANCH  21  29
HETATM   29  O5  UNL     1     -27.295 -16.956  -4.144  1.00  0.00    -0.391 OA
ATOM     30  H5  UNL     1     -27.430 -17.374  -4.986  1.00  0.00     0.210 HD
ENDBRANCH  21  29
ENDBRANCH  16  19
ENDBRANCH   1  16
TORSDOF 8
ENDMDL
MODEL 4
REMARK VINA RESULT: -6.786123197      5.374      7.033
REMARK  8 active torsions:
REMARK  status: ('A' for Active; 'I' for Inactive)
REMARK    1  A    between atoms: O1_2  and  C2_3 
REMARK    2  A    between atoms: C8_10  and  C9_11 
REMARK    3  A    between atoms: C10_12  and  C11_13 
REMARK    4  A    between atoms: C11_13  and  O3_14 
REMARK    5  A    between atoms: C11_13  and  C12_16 
REMARK    6  A    between atoms: C12_16  and  O4_17 
REMARK    7  A    between atoms: C12_16  and  C13_19 
REMARK    8  A    between atoms: C15_21  and  O5_22 
ROOT
HETATM    1  C11 UNL     1     -28.341 -16.866   0.573  1.00  0.00     0.225 C 
ENDROOT
BRANCH   1   2
HETATM    2  C10 UNL     1     -28.621 -15.431   0.511  1.00  0.00    -0.071 C 
HETATM    3  C9  UNL     1     -28.875 -14.240   0.464  1.00  0.00    -0.094 C 
BRANCH   3   4
HETATM    4  C8  UNL     1     -29.178 -12.810   0.401  1.00  0.00     0.123 C 
HETATM    5  C2  UNL     1     -28.230 -12.044   1.290  1.00  0.00     0.145 C 
HETATM    6  C3  UNL     1     -27.505 -11.032   0.433  1.00  0.00     0.040 C 
HETATM    7  C4  UNL     1     -26.644 -11.724  -0.604  1.00  0.00     0.012 C 
HETATM    8  C7  UNL     1     -28.557 -10.191  -0.262  1.00  0.00     0.175 C 
HETATM    9  C5  UNL     1     -27.565 -12.605  -1.421  1.00  0.00     0.034 C 
HETATM   10  C6  UNL     1     -28.976 -12.297  -1.028  1.00  0.00     0.139 C 
HETATM   11  O2  UNL     1     -29.313 -10.970  -1.103  1.00  0.00    -0.384 OA
BRANCH   5  12
HETATM   12  O1  UNL     1     -28.960 -11.350   2.243  1.00  0.00    -0.389 OA
HETATM   13  C1  UNL     1     -28.833 -11.913   3.512  1.00  0.00     0.202 C 
ENDBRANCH   5  12
ENDBRANCH   3   4
ENDBRANCH   1   2
BRANCH   1  14
HETATM   14  O3  UNL     1     -29.531 -17.618   0.669  1.00  0.00    -0.381 OA
ATOM     15  H3  UNL     1     -29.347 -18.542   0.789  1.00  0.00     0.211 HD
ENDBRANCH   1  14
BRANCH   1  16
HETATM   16  C12 UNL     1     -27.611 -17.234  -0.701  1.00  0.00     0.165 C 
BRANCH  16  17
HETATM   17  O4  UNL     1     -26.449 -16.525  -0.872  1.00  0.00    -0.392 OA
ATOM     18  H4  UNL     1     -26.074 -16.636  -1.738  1.00  0.00     0.210 HD
ENDBRANCH  16  17
BRANCH  16  19
HETATM   19  C13 UNL     1     -28.504 -17.025  -1.921  1.00  0.00     0.053 C 
HETATM   20  C14 UNL     1     -29.090 -18.303  -2.414  1.00  0.00     0.045 C 
HETATM   21  C15 UNL     1     -29.468 -18.328  -3.853  1.00  0.00     0.175 C 
HETATM   22  C16 UNL     1     -28.823 -17.233  -4.675  1.00  0.00     0.350 C 
HETATM   23  N1  UNL     1     -27.459 -17.074  -4.141  1.00  0.00    -0.040 N 
HETATM   24  O6  UNL     1     -29.449 -16.021  -4.524  1.00  0.00    -0.355 OA
HETATM   25  C17 UNL     1     -27.774 -16.245  -2.966  1.00  0.00     0.219 C 
ATOM     26  H12 UNL     1     -26.941 -17.934  -3.963  1.00  0.00     0.280 HD
ATOM     27  H11 UNL     1     -26.762 -16.701  -4.786  1.00  0.00     0.280 HD
HETATM   28  C18 UNL     1     -28.752 -15.262  -3.612  1.00  0.00     0.204 C 
BRANCH  21  29
HETATM   29  O5  UNL     1     -30.853 -18.206  -3.985  1.00  0.00    -0.391 OA
ATOM     30  H5  UNL     1     -31.288 -18.653  -3.268  1.00  0.00     0.210 HD
ENDBRANCH  21  29
ENDBRANCH  16  19
ENDBRANCH   1  16
TORSDOF 8
ENDMDL
MODEL 5
REMARK VINA RESULT: -6.784610425      4.234      6.212
REMARK  8 active torsions:
REMARK  status: ('A' for Active; 'I' for Inactive)
REMARK    1  A    between atoms: O1_2  and  C2_3 
REMARK    2  A    between atoms: C8_10  and  C9_11 
REMARK    3  A    between atoms: C10_12  and  C11_13 
REMARK    4  A    between atoms: C11_13  and  O3_14 
REMARK    5  A    between atoms: C11_13  and  C12_16 
REMARK    6  A    between atoms: C12_16  and  O4_17 
REMARK    7  A    between atoms: C12_16  and  C13_19 
REMARK    8  A    between atoms: C15_21  and  O5_22 
ROOT
HETATM    1  C11 UNL     1     -28.776 -17.660  -3.156  1.00  0.00     0.225 C 
ENDROOT
BRANCH   1   2
HETATM    2  C10 UNL     1     -28.782 -17.618  -1.693  1.00  0.00    -0.071 C 
HETATM    3  C9  UNL     1     -28.777 -17.600  -0.475  1.00  0.00    -0.094 C 
BRANCH   3   4
HETATM    4  C8  UNL     1     -28.776 -17.580   0.989  1.00  0.00     0.123 C 
HETATM    5  C2  UNL     1     -27.375 -17.791   1.505  1.00  0.00     0.145 C 
HETATM    6  C3  UNL     1     -27.013 -16.602   2.364  1.00  0.00     0.040 C 
HETATM    7  C4  UNL     1     -26.970 -15.334   1.537  1.00  0.00     0.012 C 
HETATM    8  C7  UNL     1     -28.080 -16.473   3.433  1.00  0.00     0.175 C 
HETATM    9  C5  UNL     1     -28.334 -15.180   0.899  1.00  0.00     0.034 C 
HETATM   10  C6  UNL     1     -29.245 -16.211   1.490  1.00  0.00     0.139 C 
HETATM   11  O2  UNL     1     -29.300 -16.206   2.860  1.00  0.00    -0.384 OA
BRANCH   5  12
HETATM   12  O1  UNL     1     -27.352 -18.921   2.310  1.00  0.00    -0.389 OA
HETATM   13  C1  UNL     1     -26.076 -19.475   2.397  1.00  0.00     0.202 C 
ENDBRANCH   5  12
ENDBRANCH   3   4
ENDBRANCH   1   2
BRANCH   1  14
HETATM   14  O3  UNL     1     -29.785 -18.514  -3.648  1.00  0.00    -0.381 OA
ATOM     15  H3  UNL     1     -30.651 -18.183  -3.439  1.00  0.00     0.211 HD
ENDBRANCH   1  14
BRANCH   1  16
HETATM   16  C12 UNL     1     -29.024 -16.249  -3.645  1.00  0.00     0.165 C 
BRANCH  16  17
HETATM   17  O4  UNL     1     -28.777 -16.100  -4.986  1.00  0.00    -0.392 OA
ATOM     18  H4  UNL     1     -27.935 -15.695  -5.162  1.00  0.00     0.210 HD
ENDBRANCH  16  17
BRANCH  16  19
HETATM   19  C13 UNL     1     -28.176 -15.246  -2.868  1.00  0.00     0.053 C 
HETATM   20  C14 UNL     1     -28.701 -13.857  -2.985  1.00  0.00     0.045 C 
HETATM   21  C15 UNL     1     -27.703 -12.771  -2.790  1.00  0.00     0.175 C 
HETATM   22  C16 UNL     1     -26.266 -13.227  -2.925  1.00  0.00     0.350 C 
HETATM   23  N1  UNL     1     -26.258 -14.225  -4.008  1.00  0.00    -0.040 N 
HETATM   24  O6  UNL     1     -25.806 -13.862  -1.800  1.00  0.00    -0.355 OA
HETATM   25  C17 UNL     1     -26.737 -15.389  -3.243  1.00  0.00     0.219 C 
ATOM     26  H12 UNL     1     -26.786 -13.987  -4.847  1.00  0.00     0.280 HD
ATOM     27  H11 UNL     1     -25.376 -14.343  -4.508  1.00  0.00     0.280 HD
HETATM   28  C18 UNL     1     -25.886 -15.224  -1.983  1.00  0.00     0.204 C 
BRANCH  21  29
HETATM   29  O5  UNL     1     -27.857 -12.203  -1.523  1.00  0.00    -0.391 OA
ATOM     30  H5  UNL     1     -27.249 -11.481  -1.415  1.00  0.00     0.210 HD
ENDBRANCH  21  29
ENDBRANCH  16  19
ENDBRANCH   1  16
TORSDOF 8
ENDMDL
