MODEL 1
REMARK VINA RESULT: -7.179265489      0.000      0.000
REMARK  9 active torsions:
REMARK  status: ('A' for Active; 'I' for Inactive)
REMARK    1  A    between atoms: S1_2  and  O3_5 
REMARK    2  A    between atoms: O3_5  and  C2_6 
REMARK    3  A    between atoms: C2_6  and  C3_7 
REMARK    4  A    between atoms: C5_10  and  O5_11 
REMARK    5  A    between atoms: O5_11  and  C6_12 
REMARK    6  A    between atoms: C9_15  and  O6_16 
REMARK    7  A    between atoms: C15_24  and  O8_25 
REMARK    8  A    between atoms: C16_27  and  O9_28 
REMARK    9  A    between atoms: C17_30  and  O10_31 
ROOT
HETATM    1  C3  UNL     1     -27.126 -14.426  -2.807  1.00  0.00     0.114 C 
HETATM    2  C4  UNL     1     -26.966 -14.512  -1.351  1.00  0.00     0.167 C 
HETATM    3  O4  UNL     1     -25.960 -14.190  -0.776  1.00  0.00    -0.294 OA
HETATM    4  C5  UNL     1     -28.114 -15.029  -0.549  1.00  0.00     0.224 C 
HETATM    5  C15 UNL     1     -28.749 -16.216  -1.294  1.00  0.00     0.185 C 
HETATM    6  C16 UNL     1     -27.779 -16.797  -2.292  1.00  0.00     0.179 C 
HETATM    7  C17 UNL     1     -27.338 -15.819  -3.343  1.00  0.00     0.163 C 
ENDROOT
BRANCH   4   8
HETATM    8  O5  UNL     1     -29.041 -14.026  -0.428  1.00  0.00    -0.357 OA
BRANCH   8   9
HETATM    9  C6  UNL     1     -28.990 -13.263   0.706  1.00  0.00     0.112 C 
HETATM   10  C7  UNL     1     -28.764 -14.044   1.943  1.00  0.00     0.012 C 
HETATM   11  C8  UNL     1     -29.246 -13.659   3.098  1.00  0.00     0.003 C 
HETATM   12  C9  UNL     1     -30.062 -12.427   3.341  1.00  0.00     0.141 C 
HETATM   13  C10 UNL     1     -30.640 -11.889   2.074  1.00  0.00     0.044 C 
HETATM   14  C11 UNL     1     -30.433 -12.699   0.857  1.00  0.00     0.032 C 
HETATM   15  C12 UNL     1     -30.418 -11.777  -0.309  1.00  0.00     0.043 C 
HETATM   16  C13 UNL     1     -29.202 -11.368  -0.477  1.00  0.00     0.155 A 
HETATM   17  O7  UNL     1     -27.812 -11.160  -0.332  1.00  0.00    -0.372 OA
HETATM   18  C14 UNL     1     -28.322 -11.958   0.631  1.00  0.00     0.190 A 
BRANCH  12  19
HETATM   19  O6  UNL     1     -31.093 -12.732   4.256  1.00  0.00    -0.392 OA
ATOM     20  H6  UNL     1     -31.816 -13.132   3.785  1.00  0.00     0.210 HD
ENDBRANCH  12  19
ENDBRANCH   8   9
ENDBRANCH   4   8
BRANCH   5  21
HETATM   21  O8  UNL     1     -29.880 -15.837  -1.989  1.00  0.00    -0.390 OA
ATOM     22  H8  UNL     1     -29.896 -16.208  -2.864  1.00  0.00     0.210 HD
ENDBRANCH   5  21
BRANCH   1  23
HETATM   23  C2  UNL     1     -25.975 -13.803  -3.526  1.00  0.00     0.205 C 
BRANCH  23  24
HETATM   24  O3  UNL     1     -25.268 -14.693  -4.325  1.00  0.00    -0.275 OA
BRANCH  24  25
HETATM   25  S1  UNL     1     -23.721 -14.156  -4.642  1.00  0.00     0.261 S 
HETATM   26  C1  UNL     1     -23.000 -13.342  -3.235  1.00  0.00     0.194 C 
HETATM   27  O1  UNL     1     -22.847 -15.319  -5.016  1.00  0.00    -0.199 OA
HETATM   28  O2  UNL     1     -23.773 -13.201  -5.784  1.00  0.00    -0.199 OA
ENDBRANCH  24  25
ENDBRANCH  23  24
ENDBRANCH   1  23
BRANCH   6  29
HETATM   29  O9  UNL     1     -28.439 -17.839  -2.941  1.00  0.00    -0.390 OA
ATOM     30  H9  UNL     1     -28.612 -17.547  -3.828  1.00  0.00     0.210 HD
ENDBRANCH   6  29
BRANCH   7  31
HETATM   31  O10 UNL     1     -28.203 -15.760  -4.411  1.00  0.00    -0.392 OA
ATOM     32  H10 UNL     1     -27.706 -15.853  -5.215  1.00  0.00     0.210 HD
ENDBRANCH   7  31
TORSDOF 9
ENDMDL
MODEL 2
REMARK VINA RESULT: -7.101255646      3.274      7.252
REMARK  9 active torsions:
REMARK  status: ('A' for Active; 'I' for Inactive)
REMARK    1  A    between atoms: S1_2  and  O3_5 
REMARK    2  A    between atoms: O3_5  and  C2_6 
REMARK    3  A    between atoms: C2_6  and  C3_7 
REMARK    4  A    between atoms: C5_10  and  O5_11 
REMARK    5  A    between atoms: O5_11  and  C6_12 
REMARK    6  A    between atoms: C9_15  and  O6_16 
REMARK    7  A    between atoms: C15_24  and  O8_25 
REMARK    8  A    between atoms: C16_27  and  O9_28 
REMARK    9  A    between atoms: C17_30  and  O10_31 
ROOT
HETATM    1  C3  UNL     1     -27.528 -14.094  -3.703  1.00  0.00     0.114 C 
HETATM    2  C4  UNL     1     -26.324 -14.284  -2.886  1.00  0.00     0.167 C 
HETATM    3  O4  UNL     1     -25.995 -15.347  -2.430  1.00  0.00    -0.294 OA
HETATM    4  C5  UNL     1     -25.471 -13.092  -2.609  1.00  0.00     0.224 C 
HETATM    5  C15 UNL     1     -26.379 -11.884  -2.316  1.00  0.00     0.185 C 
HETATM    6  C16 UNL     1     -27.759 -12.343  -1.917  1.00  0.00     0.179 C 
HETATM    7  C17 UNL     1     -28.453 -13.155  -2.972  1.00  0.00     0.163 C 
ENDROOT
BRANCH   4   8
HETATM    8  O5  UNL     1     -24.720 -12.830  -3.726  1.00  0.00    -0.357 OA
BRANCH   8   9
HETATM    9  C6  UNL     1     -23.379 -13.089  -3.650  1.00  0.00     0.112 C 
HETATM   10  C7  UNL     1     -22.769 -12.715  -2.354  1.00  0.00     0.012 C 
HETATM   11  C8  UNL     1     -21.522 -12.327  -2.266  1.00  0.00     0.003 C 
HETATM   12  C9  UNL     1     -20.559 -12.205  -3.407  1.00  0.00     0.141 C 
HETATM   13  C10 UNL     1     -21.264 -12.161  -4.723  1.00  0.00     0.044 C 
HETATM   14  C11 UNL     1     -22.739 -12.111  -4.680  1.00  0.00     0.032 C 
HETATM   15  C12 UNL     1     -23.254 -12.751  -5.919  1.00  0.00     0.043 C 
HETATM   16  C13 UNL     1     -23.374 -14.019  -5.693  1.00  0.00     0.155 A 
HETATM   17  O7  UNL     1     -23.360 -15.291  -5.077  1.00  0.00    -0.372 OA
HETATM   18  C14 UNL     1     -22.877 -14.319  -4.274  1.00  0.00     0.190 A 
BRANCH  12  19
HETATM   19  O6  UNL     1     -19.783 -11.039  -3.231  1.00  0.00    -0.392 OA
ATOM     20  H6  UNL     1     -19.186 -11.171  -2.503  1.00  0.00     0.210 HD
ENDBRANCH  12  19
ENDBRANCH   8   9
ENDBRANCH   4   8
BRANCH   5  21
HETATM   21  O8  UNL     1     -26.518 -11.070  -3.423  1.00  0.00    -0.390 OA
ATOM     22  H8  UNL     1     -25.796 -10.459  -3.503  1.00  0.00     0.210 HD
ENDBRANCH   5  21
BRANCH   1  23
HETATM   23  C2  UNL     1     -28.270 -15.351  -4.022  1.00  0.00     0.205 C 
BRANCH  23  24
HETATM   24  O3  UNL     1     -29.151 -15.749  -3.024  1.00  0.00    -0.275 OA
BRANCH  24  25
HETATM   25  S1  UNL     1     -29.253 -17.409  -2.905  1.00  0.00     0.261 S 
HETATM   26  C1  UNL     1     -29.268 -18.189  -4.502  1.00  0.00     0.194 C 
HETATM   27  O1  UNL     1     -28.077 -17.934  -2.131  1.00  0.00    -0.199 OA
HETATM   28  O2  UNL     1     -30.505 -17.758  -2.179  1.00  0.00    -0.199 OA
ENDBRANCH  24  25
ENDBRANCH  23  24
ENDBRANCH   1  23
BRANCH   6  29
HETATM   29  O9  UNL     1     -28.522 -11.196  -1.703  1.00  0.00    -0.390 OA
ATOM     30  H9  UNL     1     -29.011 -11.335  -0.900  1.00  0.00     0.210 HD
ENDBRANCH   6  29
BRANCH   7  31
HETATM   31  O10 UNL     1     -29.117 -12.378  -3.891  1.00  0.00    -0.392 OA
ATOM     32  H10 UNL     1     -30.026 -12.296  -3.626  1.00  0.00     0.210 HD
ENDBRANCH   7  31
TORSDOF 9
ENDMDL
MODEL 3
REMARK VINA RESULT: -7.096413462      2.862      5.012
REMARK  9 active torsions:
REMARK  status: ('A' for Active; 'I' for Inactive)
REMARK    1  A    between atoms: S1_2  and  O3_5 
REMARK    2  A    between atoms: O3_5  and  C2_6 
REMARK    3  A    between atoms: C2_6  and  C3_7 
REMARK    4  A    between atoms: C5_10  and  O5_11 
REMARK    5  A    between atoms: O5_11  and  C6_12 
REMARK    6  A    between atoms: C9_15  and  O6_16 
REMARK    7  A    between atoms: C15_24  and  O8_25 
REMARK    8  A    between atoms: C16_27  and  O9_28 
REMARK    9  A    between atoms: C17_30  and  O10_31 
ROOT
HETATM    1  C3  UNL     1     -27.902 -15.555  -3.032  1.00  0.00     0.114 C 
HETATM    2  C4  UNL     1     -28.797 -15.439  -1.875  1.00  0.00     0.167 C 
HETATM    3  O4  UNL     1     -29.744 -16.158  -1.696  1.00  0.00    -0.294 OA
HETATM    4  C5  UNL     1     -28.513 -14.370  -0.873  1.00  0.00     0.224 C 
HETATM    5  C15 UNL     1     -28.096 -13.088  -1.616  1.00  0.00     0.185 C 
HETATM    6  C16 UNL     1     -28.560 -13.130  -3.050  1.00  0.00     0.179 C 
HETATM    7  C17 UNL     1     -27.996 -14.282  -3.832  1.00  0.00     0.163 C 
ENDROOT
BRANCH   4   8
HETATM    8  O5  UNL     1     -27.475 -14.787  -0.079  1.00  0.00    -0.357 OA
BRANCH   8   9
HETATM    9  C6  UNL     1     -27.779 -15.640   0.946  1.00  0.00     0.112 C 
HETATM   10  C7  UNL     1     -29.032 -15.298   1.658  1.00  0.00     0.012 C 
HETATM   11  C8  UNL     1     -29.195 -15.562   2.930  1.00  0.00     0.003 C 
HETATM   12  C9  UNL     1     -28.190 -16.220   3.824  1.00  0.00     0.141 C 
HETATM   13  C10 UNL     1     -26.816 -16.171   3.242  1.00  0.00     0.044 C 
HETATM   14  C11 UNL     1     -26.655 -15.398   1.995  1.00  0.00     0.032 C 
HETATM   15  C12 UNL     1     -25.527 -15.993   1.230  1.00  0.00     0.043 C 
HETATM   16  C13 UNL     1     -26.006 -16.936   0.484  1.00  0.00     0.155 A 
HETATM   17  O7  UNL     1     -26.879 -17.849  -0.149  1.00  0.00    -0.372 OA
HETATM   18  C14 UNL     1     -27.508 -17.070   0.757  1.00  0.00     0.190 A 
BRANCH  12  19
HETATM   19  O6  UNL     1     -28.208 -15.582   5.083  1.00  0.00    -0.392 OA
ATOM     20  H6  UNL     1     -29.062 -15.186   5.218  1.00  0.00     0.210 HD
ENDBRANCH  12  19
ENDBRANCH   8   9
ENDBRANCH   4   8
BRANCH   5  21
HETATM   21  O8  UNL     1     -26.724 -12.929  -1.631  1.00  0.00    -0.390 OA
ATOM     22  H8  UNL     1     -26.413 -12.635  -2.479  1.00  0.00     0.210 HD
ENDBRANCH   5  21
BRANCH   1  23
HETATM   23  C2  UNL     1     -28.190 -16.712  -3.931  1.00  0.00     0.205 C 
BRANCH  23  24
HETATM   24  O3  UNL     1     -29.458 -16.677  -4.498  1.00  0.00    -0.275 OA
BRANCH  24  25
HETATM   25  S1  UNL     1     -30.100 -18.204  -4.690  1.00  0.00     0.261 S 
HETATM   26  C1  UNL     1     -30.564 -18.929  -3.134  1.00  0.00     0.194 C 
HETATM   27  O1  UNL     1     -31.321 -18.134  -5.563  1.00  0.00    -0.199 OA
HETATM   28  O2  UNL     1     -29.082 -19.069  -5.347  1.00  0.00    -0.199 OA
ENDBRANCH  24  25
ENDBRANCH  23  24
ENDBRANCH   1  23
BRANCH   6  29
HETATM   29  O9  UNL     1     -28.118 -11.956  -3.656  1.00  0.00    -0.390 OA
ATOM     30  H9  UNL     1     -28.820 -11.653  -4.219  1.00  0.00     0.210 HD
ENDBRANCH   6  29
BRANCH   7  31
HETATM   31  O10 UNL     1     -26.764 -14.003  -4.375  1.00  0.00    -0.392 OA
ATOM     32  H10 UNL     1     -26.840 -13.988  -5.321  1.00  0.00     0.210 HD
ENDBRANCH   7  31
TORSDOF 9
ENDMDL
MODEL 4
REMARK VINA RESULT: -7.047095948      2.292      4.173
REMARK  9 active torsions:
REMARK  status: ('A' for Active; 'I' for Inactive)
REMARK    1  A    between atoms: S1_2  and  O3_5 
REMARK    2  A    between atoms: O3_5  and  C2_6 
REMARK    3  A    between atoms: C2_6  and  C3_7 
REMARK    4  A    between atoms: C5_10  and  O5_11 
REMARK    5  A    between atoms: O5_11  and  C6_12 
REMARK    6  A    between atoms: C9_15  and  O6_16 
REMARK    7  A    between atoms: C15_24  and  O8_25 
REMARK    8  A    between atoms: C16_27  and  O9_28 
REMARK    9  A    between atoms: C17_30  and  O10_31 
ROOT
HETATM    1  C3  UNL     1     -27.844 -15.159  -2.569  1.00  0.00     0.114 C 
HETATM    2  C4  UNL     1     -29.064 -14.986  -1.771  1.00  0.00     0.167 C 
HETATM    3  O4  UNL     1     -29.884 -15.852  -1.620  1.00  0.00    -0.294 OA
HETATM    4  C5  UNL     1     -29.293 -13.663  -1.120  1.00  0.00     0.224 C 
HETATM    5  C15 UNL     1     -28.885 -12.547  -2.098  1.00  0.00     0.185 C 
HETATM    6  C16 UNL     1     -28.861 -13.065  -3.514  1.00  0.00     0.179 C 
HETATM    7  C17 UNL     1     -27.894 -14.195  -3.726  1.00  0.00     0.163 C 
ENDROOT
BRANCH   4   8
HETATM    8  O5  UNL     1     -28.503 -13.591  -0.000  1.00  0.00    -0.357 OA
BRANCH   8   9
HETATM    9  C6  UNL     1     -29.138 -13.573   1.210  1.00  0.00     0.112 C 
HETATM   10  C7  UNL     1     -30.418 -12.829   1.204  1.00  0.00     0.012 C 
HETATM   11  C8  UNL     1     -30.857 -12.204   2.268  1.00  0.00     0.003 C 
HETATM   12  C9  UNL     1     -30.169 -12.147   3.596  1.00  0.00     0.141 C 
HETATM   13  C10 UNL     1     -28.725 -12.511   3.487  1.00  0.00     0.044 C 
HETATM   14  C11 UNL     1     -28.201 -12.731   2.125  1.00  0.00     0.032 C 
HETATM   15  C12 UNL     1     -27.078 -13.700   2.218  1.00  0.00     0.043 C 
HETATM   16  C13 UNL     1     -27.573 -14.893   2.129  1.00  0.00     0.155 A 
HETATM   17  O7  UNL     1     -28.464 -15.982   2.003  1.00  0.00    -0.372 OA
HETATM   18  C14 UNL     1     -29.099 -14.790   2.029  1.00  0.00     0.190 A 
BRANCH  12  19
HETATM   19  O6  UNL     1     -30.303 -10.845   4.127  1.00  0.00    -0.392 OA
ATOM     20  H6  UNL     1     -31.213 -10.577   4.063  1.00  0.00     0.210 HD
ENDBRANCH  12  19
ENDBRANCH   8   9
ENDBRANCH   4   8
BRANCH   5  21
HETATM   21  O8  UNL     1     -27.625 -12.056  -1.816  1.00  0.00    -0.390 OA
ATOM     22  H8  UNL     1     -27.143 -11.848  -2.608  1.00  0.00     0.210 HD
ENDBRANCH   5  21
BRANCH   1  23
HETATM   23  C2  UNL     1     -27.637 -16.540  -3.100  1.00  0.00     0.205 C 
BRANCH  23  24
HETATM   24  O3  UNL     1     -27.963 -16.677  -4.443  1.00  0.00    -0.275 OA
BRANCH  24  25
HETATM   25  S1  UNL     1     -29.172 -17.800  -4.682  1.00  0.00     0.261 S 
HETATM   26  C1  UNL     1     -29.669 -18.574  -3.160  1.00  0.00     0.194 C 
HETATM   27  O1  UNL     1     -30.373 -17.132  -5.288  1.00  0.00    -0.199 OA
HETATM   28  O2  UNL     1     -28.673 -18.844  -5.620  1.00  0.00    -0.199 OA
ENDBRANCH  24  25
ENDBRANCH  23  24
ENDBRANCH   1  23
BRANCH   6  29
HETATM   29  O9  UNL     1     -28.454 -12.008  -4.326  1.00  0.00    -0.390 OA
ATOM     30  H9  UNL     1     -28.357 -12.356  -5.205  1.00  0.00     0.210 HD
ENDBRANCH   6  29
BRANCH   7  31
HETATM   31  O10 UNL     1     -26.619 -13.760  -4.000  1.00  0.00    -0.392 OA
ATOM     32  H10 UNL     1     -26.028 -14.503  -3.974  1.00  0.00     0.210 HD
ENDBRANCH   7  31
TORSDOF 9
ENDMDL
MODEL 5
REMARK VINA RESULT: -7.023391506      3.285      6.827
REMARK  9 active torsions:
REMARK  status: ('A' for Active; 'I' for Inactive)
REMARK    1  A    between atoms: S1_2  and  O3_5 
REMARK    2  A    between atoms: O3_5  and  C2_6 
REMARK    3  A    between atoms: C2_6  and  C3_7 
REMARK    4  A    between atoms: C5_10  and  O5_11 
REMARK    5  A    between atoms: O5_11  and  C6_12 
REMARK    6  A    between atoms: C9_15  and  O6_16 
REMARK    7  A    between atoms: C15_24  and  O8_25 
REMARK    8  A    between atoms: C16_27  and  O9_28 
REMARK    9  A    between atoms: C17_30  and  O10_31 
ROOT
HETATM    1  C3  UNL     1     -28.583 -13.107   1.169  1.00  0.00     0.114 C 
HETATM    2  C4  UNL     1     -27.795 -13.497  -0.006  1.00  0.00     0.167 C 
HETATM    3  O4  UNL     1     -26.603 -13.647   0.017  1.00  0.00    -0.294 OA
HETATM    4  C5  UNL     1     -28.518 -13.713  -1.294  1.00  0.00     0.224 C 
HETATM    5  C15 UNL     1     -29.592 -12.622  -1.453  1.00  0.00     0.185 C 
HETATM    6  C16 UNL     1     -29.280 -11.437  -0.574  1.00  0.00     0.179 C 
HETATM    7  C17 UNL     1     -29.222 -11.771   0.889  1.00  0.00     0.163 C 
ENDROOT
BRANCH   4   8
HETATM    8  O5  UNL     1     -29.128 -14.940  -1.246  1.00  0.00    -0.357 OA
BRANCH   8   9
HETATM    9  C6  UNL     1     -28.679 -15.893  -2.117  1.00  0.00     0.112 C 
HETATM   10  C7  UNL     1     -28.899 -15.554  -3.542  1.00  0.00     0.012 C 
HETATM   11  C8  UNL     1     -29.102 -16.479  -4.446  1.00  0.00     0.003 C 
HETATM   12  C9  UNL     1     -29.141 -17.955  -4.198  1.00  0.00     0.141 C 
HETATM   13  C10 UNL     1     -29.349 -18.266  -2.752  1.00  0.00     0.044 C 
HETATM   14  C11 UNL     1     -29.604 -17.119  -1.860  1.00  0.00     0.032 C 
HETATM   15  C12 UNL     1     -29.104 -17.473  -0.505  1.00  0.00     0.043 C 
HETATM   16  C13 UNL     1     -27.856 -17.138  -0.440  1.00  0.00     0.155 A 
HETATM   17  O7  UNL     1     -26.567 -16.654  -0.757  1.00  0.00    -0.372 OA
HETATM   18  C14 UNL     1     -27.422 -16.581  -1.801  1.00  0.00     0.190 A 
BRANCH  12  19
HETATM   19  O6  UNL     1     -30.176 -18.524  -4.971  1.00  0.00    -0.392 OA
ATOM     20  H6  UNL     1     -29.974 -18.406  -5.893  1.00  0.00     0.210 HD
ENDBRANCH  12  19
ENDBRANCH   8   9
ENDBRANCH   4   8
BRANCH   5  21
HETATM   21  O8  UNL     1     -30.844 -13.082  -1.097  1.00  0.00    -0.390 OA
ATOM     22  H8  UNL     1     -31.530 -12.486  -1.374  1.00  0.00     0.210 HD
ENDBRANCH   5  21
BRANCH   1  23
HETATM   23  C2  UNL     1     -27.805 -13.012   2.440  1.00  0.00     0.205 C 
BRANCH  23  24
HETATM   24  O3  UNL     1     -28.498 -13.466   3.555  1.00  0.00    -0.275 OA
BRANCH  24  25
HETATM   25  S1  UNL     1     -28.287 -15.102   3.800  1.00  0.00     0.261 S 
HETATM   26  C1  UNL     1     -26.875 -15.728   2.920  1.00  0.00     0.194 C 
HETATM   27  O1  UNL     1     -28.092 -15.374   5.264  1.00  0.00    -0.199 OA
HETATM   28  O2  UNL     1     -29.508 -15.815   3.332  1.00  0.00    -0.199 OA
ENDBRANCH  24  25
ENDBRANCH  23  24
ENDBRANCH   1  23
BRANCH   6  29
HETATM   29  O9  UNL     1     -30.310 -10.516  -0.753  1.00  0.00    -0.390 OA
ATOM     30  H9  UNL     1     -29.902  -9.679  -0.944  1.00  0.00     0.210 HD
ENDBRANCH   6  29
BRANCH   7  31
HETATM   31  O10 UNL     1     -30.456 -11.730   1.493  1.00  0.00    -0.392 OA
ATOM     32  H10 UNL     1     -30.712 -10.823   1.611  1.00  0.00     0.210 HD
ENDBRANCH   7  31
TORSDOF 9
ENDMDL
