MODEL 1
REMARK VINA RESULT: -7.799845870      0.000      0.000
REMARK  9 active torsions:
REMARK  status: ('A' for Active; 'I' for Inactive)
REMARK    1  A    between atoms: C4_6  and  C5_7 
REMARK    2  A    between atoms: N2_13  and  S1_14 
REMARK    3  A    between atoms: S1_14  and  C11_17 
REMARK    4  A    between atoms: C11_17  and  C12_18 
REMARK    5  A    between atoms: C13_20  and  C14_21 
REMARK    6  A    between atoms: C14_21  and  O4_22 
REMARK    7  A    between atoms: C15_24  and  O5_25 
REMARK    8  A    between atoms: C16_27  and  O6_28 
REMARK    9  A    between atoms: C17_30  and  O7_31 
ROOT
HETATM    1  S1  UNL     1     -28.339 -12.576  -2.865  1.00  0.00     0.254 S 
HETATM    2  O1  UNL     1     -29.852 -12.659  -2.910  1.00  0.00    -0.204 OA
HETATM    3  O2  UNL     1     -27.929 -11.498  -3.827  1.00  0.00    -0.204 OA
ENDROOT
BRANCH   1   4
HETATM    4  N2  UNL     1     -27.754 -14.097  -3.319  1.00  0.00    -0.165 N 
HETATM    5  C4  UNL     1     -27.863 -15.137  -2.382  1.00  0.00     0.178 C 
HETATM    6  C3  UNL     1     -26.576 -15.749  -1.922  1.00  0.00     0.154 C 
HETATM    7  N1  UNL     1     -25.414 -15.278  -2.601  1.00  0.00    -0.370 N 
HETATM    8  C2  UNL     1     -25.415 -14.466  -3.599  1.00  0.00     0.140 C 
ATOM      9  H1  UNL     1     -24.509 -15.611  -2.268  1.00  0.00     0.161 HD
HETATM   10  C1  UNL     1     -24.190 -13.997  -4.280  1.00  0.00     0.099 C 
HETATM   11  O8  UNL     1     -26.637 -14.020  -4.047  1.00  0.00    -0.212 OA
BRANCH   5  12
HETATM   12  C5  UNL     1     -28.694 -16.222  -2.967  1.00  0.00    -0.031 A 
HETATM   13  C6  UNL     1     -28.928 -16.340  -4.334  1.00  0.00     0.009 A 
HETATM   14  C7  UNL     1     -29.697 -17.347  -4.858  1.00  0.00     0.001 A 
HETATM   15  C8  UNL     1     -30.277 -18.295  -4.042  1.00  0.00     0.000 A 
HETATM   16  C9  UNL     1     -30.060 -18.199  -2.684  1.00  0.00     0.001 A 
HETATM   17  C10 UNL     1     -29.284 -17.181  -2.170  1.00  0.00     0.009 A 
ENDBRANCH   5  12
ENDBRANCH   1   4
BRANCH   1  18
HETATM   18  C11 UNL     1     -27.854 -12.081  -1.244  1.00  0.00     0.200 C 
BRANCH  18  19
HETATM   19  C12 UNL     1     -28.782 -12.581  -0.193  1.00  0.00     0.169 C 
HETATM   20  O3  UNL     1     -28.123 -13.441   0.670  1.00  0.00    -0.372 OA
HETATM   21  C13 UNL     1     -28.869 -13.744   1.800  1.00  0.00     0.176 C 
HETATM   22  C15 UNL     1     -30.356 -13.570   1.588  1.00  0.00     0.180 C 
HETATM   23  C16 UNL     1     -30.728 -12.145   1.243  1.00  0.00     0.180 C 
HETATM   24  C17 UNL     1     -29.558 -11.515   0.519  1.00  0.00     0.179 C 
BRANCH  21  25
HETATM   25  C14 UNL     1     -28.662 -15.184   2.253  1.00  0.00     0.198 C 
BRANCH  25  26
HETATM   26  O4  UNL     1     -29.555 -16.054   1.637  1.00  0.00    -0.398 OA
ATOM     27  H4  UNL     1     -29.277 -16.959   1.716  1.00  0.00     0.209 HD
ENDBRANCH  25  26
ENDBRANCH  21  25
BRANCH  22  28
HETATM   28  O5  UNL     1     -30.979 -13.872   2.800  1.00  0.00    -0.390 OA
ATOM     29  H5  UNL     1     -31.637 -13.203   2.948  1.00  0.00     0.210 HD
ENDBRANCH  22  28
BRANCH  23  30
HETATM   30  O6  UNL     1     -30.988 -11.456   2.427  1.00  0.00    -0.390 OA
ATOM     31  H6  UNL     1     -30.675 -10.564   2.333  1.00  0.00     0.210 HD
ENDBRANCH  23  30
BRANCH  24  32
HETATM   32  O7  UNL     1     -30.084 -10.637  -0.420  1.00  0.00    -0.390 OA
ATOM     33  H7  UNL     1     -29.595  -9.823  -0.389  1.00  0.00     0.210 HD
ENDBRANCH  24  32
ENDBRANCH  18  19
ENDBRANCH   1  18
TORSDOF 9
ENDMDL
MODEL 2
REMARK VINA RESULT: -7.650168742      1.559      1.714
REMARK  9 active torsions:
REMARK  status: ('A' for Active; 'I' for Inactive)
REMARK    1  A    between atoms: C4_6  and  C5_7 
REMARK    2  A    between atoms: N2_13  and  S1_14 
REMARK    3  A    between atoms: S1_14  and  C11_17 
REMARK    4  A    between atoms: C11_17  and  C12_18 
REMARK    5  A    between atoms: C13_20  and  C14_21 
REMARK    6  A    between atoms: C14_21  and  O4_22 
REMARK    7  A    between atoms: C15_24  and  O5_25 
REMARK    8  A    between atoms: C16_27  and  O6_28 
REMARK    9  A    between atoms: C17_30  and  O7_31 
ROOT
HETATM    1  S1  UNL     1     -28.042 -12.819  -2.401  1.00  0.00     0.254 S 
HETATM    2  O1  UNL     1     -29.490 -12.669  -2.823  1.00  0.00    -0.204 OA
HETATM    3  O2  UNL     1     -27.201 -12.268  -3.516  1.00  0.00    -0.204 OA
ENDROOT
BRANCH   1   4
HETATM    4  N2  UNL     1     -27.775 -14.471  -2.151  1.00  0.00    -0.165 N 
HETATM    5  C4  UNL     1     -28.865 -15.242  -1.713  1.00  0.00     0.178 C 
HETATM    6  C3  UNL     1     -28.709 -15.908  -0.381  1.00  0.00     0.154 C 
HETATM    7  N1  UNL     1     -27.417 -15.774   0.207  1.00  0.00    -0.370 N 
HETATM    8  C2  UNL     1     -26.400 -15.221  -0.354  1.00  0.00     0.140 C 
ATOM      9  H1  UNL     1     -27.289 -16.146   1.148  1.00  0.00     0.161 HD
HETATM   10  C1  UNL     1     -25.072 -15.100   0.285  1.00  0.00     0.099 C 
HETATM   11  O8  UNL     1     -26.574 -14.722  -1.624  1.00  0.00    -0.212 OA
BRANCH   5  12
HETATM   12  C5  UNL     1     -29.133 -16.304  -2.719  1.00  0.00    -0.031 A 
HETATM   13  C6  UNL     1     -28.876 -16.139  -4.077  1.00  0.00     0.009 A 
HETATM   14  C7  UNL     1     -29.130 -17.127  -4.992  1.00  0.00     0.001 A 
HETATM   15  C8  UNL     1     -29.653 -18.341  -4.599  1.00  0.00     0.000 A 
HETATM   16  C9  UNL     1     -29.916 -18.528  -3.259  1.00  0.00     0.001 A 
HETATM   17  C10 UNL     1     -29.657 -17.524  -2.349  1.00  0.00     0.009 A 
ENDBRANCH   5  12
ENDBRANCH   1   4
BRANCH   1  18
HETATM   18  C11 UNL     1     -27.772 -11.829  -0.968  1.00  0.00     0.200 C 
BRANCH  18  19
HETATM   19  C12 UNL     1     -28.495 -12.344   0.227  1.00  0.00     0.169 C 
HETATM   20  O3  UNL     1     -27.606 -12.627   1.250  1.00  0.00    -0.372 OA
HETATM   21  C13 UNL     1     -28.241 -12.878   2.459  1.00  0.00     0.176 C 
HETATM   22  C15 UNL     1     -29.669 -13.345   2.289  1.00  0.00     0.180 C 
HETATM   23  C16 UNL     1     -30.535 -12.314   1.598  1.00  0.00     0.180 C 
HETATM   24  C17 UNL     1     -29.655 -11.505   0.671  1.00  0.00     0.179 C 
BRANCH  21  25
HETATM   25  C14 UNL     1     -27.527 -13.955   3.267  1.00  0.00     0.198 C 
BRANCH  25  26
HETATM   26  O4  UNL     1     -28.035 -15.222   3.002  1.00  0.00    -0.398 OA
ATOM     27  H4  UNL     1     -28.981 -15.247   3.074  1.00  0.00     0.209 HD
ENDBRANCH  25  26
ENDBRANCH  21  25
BRANCH  22  28
HETATM   28  O5  UNL     1     -30.194 -13.526   3.569  1.00  0.00    -0.390 OA
ATOM     29  H5  UNL     1     -30.493 -14.426   3.622  1.00  0.00     0.210 HD
ENDBRANCH  22  28
BRANCH  23  30
HETATM   30  O6  UNL     1     -31.099 -11.488   2.568  1.00  0.00    -0.390 OA
ATOM     31  H6  UNL     1     -31.807 -10.994   2.171  1.00  0.00     0.210 HD
ENDBRANCH  23  30
BRANCH  24  32
HETATM   32  O7  UNL     1     -30.424 -11.176  -0.438  1.00  0.00    -0.390 OA
ATOM     33  H7  UNL     1     -30.337 -11.864  -1.088  1.00  0.00     0.210 HD
ENDBRANCH  24  32
ENDBRANCH  18  19
ENDBRANCH   1  18
TORSDOF 9
ENDMDL
MODEL 3
REMARK VINA RESULT: -7.649663240      2.951      6.714
REMARK  9 active torsions:
REMARK  status: ('A' for Active; 'I' for Inactive)
REMARK    1  A    between atoms: C4_6  and  C5_7 
REMARK    2  A    between atoms: N2_13  and  S1_14 
REMARK    3  A    between atoms: S1_14  and  C11_17 
REMARK    4  A    between atoms: C11_17  and  C12_18 
REMARK    5  A    between atoms: C13_20  and  C14_21 
REMARK    6  A    between atoms: C14_21  and  O4_22 
REMARK    7  A    between atoms: C15_24  and  O5_25 
REMARK    8  A    between atoms: C16_27  and  O6_28 
REMARK    9  A    between atoms: C17_30  and  O7_31 
ROOT
HETATM    1  S1  UNL     1     -27.361 -15.257  -3.430  1.00  0.00     0.254 S 
HETATM    2  O1  UNL     1     -27.642 -14.040  -4.289  1.00  0.00    -0.204 OA
HETATM    3  O2  UNL     1     -27.244 -16.432  -4.357  1.00  0.00    -0.204 OA
ENDROOT
BRANCH   1   4
HETATM    4  N2  UNL     1     -28.662 -15.409  -2.360  1.00  0.00    -0.165 N 
HETATM    5  C4  UNL     1     -28.384 -15.316  -0.986  1.00  0.00     0.178 C 
HETATM    6  C3  UNL     1     -28.700 -16.528  -0.165  1.00  0.00     0.154 C 
HETATM    7  N1  UNL     1     -29.366 -17.572  -0.872  1.00  0.00    -0.370 N 
HETATM    8  C2  UNL     1     -29.775 -17.501  -2.090  1.00  0.00     0.140 C 
ATOM      9  H1  UNL     1     -29.532 -18.445  -0.372  1.00  0.00     0.161 HD
HETATM   10  C1  UNL     1     -30.463 -18.604  -2.793  1.00  0.00     0.099 C 
HETATM   11  O8  UNL     1     -29.551 -16.321  -2.761  1.00  0.00    -0.212 OA
BRANCH   5  12
HETATM   12  C5  UNL     1     -29.151 -14.175  -0.420  1.00  0.00    -0.031 A 
HETATM   13  C6  UNL     1     -29.858 -13.275  -1.210  1.00  0.00     0.009 A 
HETATM   14  C7  UNL     1     -30.560 -12.228  -0.673  1.00  0.00     0.001 A 
HETATM   15  C8  UNL     1     -30.596 -12.023   0.690  1.00  0.00     0.000 A 
HETATM   16  C9  UNL     1     -29.903 -12.902   1.495  1.00  0.00     0.001 A 
HETATM   17  C10 UNL     1     -29.200 -13.951   0.940  1.00  0.00     0.009 A 
ENDBRANCH   5  12
ENDBRANCH   1   4
BRANCH   1  18
HETATM   18  C11 UNL     1     -25.805 -15.028  -2.632  1.00  0.00     0.200 C 
BRANCH  18  19
HETATM   19  C12 UNL     1     -24.960 -14.007  -3.309  1.00  0.00     0.169 C 
HETATM   20  O3  UNL     1     -24.463 -13.098  -2.390  1.00  0.00    -0.372 OA
HETATM   21  C13 UNL     1     -23.482 -12.275  -2.926  1.00  0.00     0.176 C 
HETATM   22  C15 UNL     1     -23.577 -12.146  -4.429  1.00  0.00     0.180 C 
HETATM   23  C16 UNL     1     -23.404 -13.473  -5.135  1.00  0.00     0.180 C 
HETATM   24  C17 UNL     1     -23.904 -14.565  -4.215  1.00  0.00     0.179 C 
BRANCH  21  25
HETATM   25  C14 UNL     1     -23.553 -10.861  -2.364  1.00  0.00     0.198 C 
BRANCH  25  26
HETATM   26  O4  UNL     1     -24.467 -10.074  -3.058  1.00  0.00    -0.398 OA
ATOM     27  H4  UNL     1     -24.035  -9.413  -3.585  1.00  0.00     0.209 HD
ENDBRANCH  25  26
ENDBRANCH  21  25
BRANCH  22  28
HETATM   28  O5  UNL     1     -22.523 -11.327  -4.836  1.00  0.00    -0.390 OA
ATOM     29  H5  UNL     1     -21.823 -11.900  -5.127  1.00  0.00     0.210 HD
ENDBRANCH  22  28
BRANCH  23  30
HETATM   30  O6  UNL     1     -22.049 -13.656  -5.406  1.00  0.00    -0.390 OA
ATOM     31  H6  UNL     1     -21.961 -13.992  -6.291  1.00  0.00     0.210 HD
ENDBRANCH  23  30
BRANCH  24  32
HETATM   32  O7  UNL     1     -24.472 -15.546  -5.017  1.00  0.00    -0.390 OA
ATOM     33  H7  UNL     1     -23.996 -16.360  -4.893  1.00  0.00     0.210 HD
ENDBRANCH  24  32
ENDBRANCH  18  19
ENDBRANCH   1  18
TORSDOF 9
ENDMDL
MODEL 4
REMARK VINA RESULT: -7.607204809      1.792      2.893
REMARK  9 active torsions:
REMARK  status: ('A' for Active; 'I' for Inactive)
REMARK    1  A    between atoms: C4_6  and  C5_7 
REMARK    2  A    between atoms: N2_13  and  S1_14 
REMARK    3  A    between atoms: S1_14  and  C11_17 
REMARK    4  A    between atoms: C11_17  and  C12_18 
REMARK    5  A    between atoms: C13_20  and  C14_21 
REMARK    6  A    between atoms: C14_21  and  O4_22 
REMARK    7  A    between atoms: C15_24  and  O5_25 
REMARK    8  A    between atoms: C16_27  and  O6_28 
REMARK    9  A    between atoms: C17_30  and  O7_31 
ROOT
HETATM    1  S1  UNL     1     -26.381 -14.575  -3.235  1.00  0.00     0.254 S 
HETATM    2  O1  UNL     1     -27.350 -14.003  -4.251  1.00  0.00    -0.204 OA
HETATM    3  O2  UNL     1     -25.198 -15.093  -4.000  1.00  0.00    -0.204 OA
ENDROOT
BRANCH   1   4
HETATM    4  N2  UNL     1     -27.204 -15.804  -2.414  1.00  0.00    -0.165 N 
HETATM    5  C4  UNL     1     -28.588 -15.647  -2.234  1.00  0.00     0.178 C 
HETATM    6  C3  UNL     1     -29.065 -15.581  -0.815  1.00  0.00     0.154 C 
HETATM    7  N1  UNL     1     -28.058 -15.819   0.165  1.00  0.00    -0.370 N 
HETATM    8  C2  UNL     1     -26.845 -16.163  -0.085  1.00  0.00     0.140 C 
ATOM      9  H1  UNL     1     -28.323 -15.709   1.145  1.00  0.00     0.161 HD
HETATM   10  C1  UNL     1     -25.825 -16.404   0.958  1.00  0.00     0.099 C 
HETATM   11  O8  UNL     1     -26.492 -16.314  -1.406  1.00  0.00    -0.212 OA
BRANCH   5  12
HETATM   12  C5  UNL     1     -29.288 -16.781  -2.892  1.00  0.00    -0.031 A 
HETATM   13  C6  UNL     1     -29.415 -16.889  -4.274  1.00  0.00     0.009 A 
HETATM   14  C7  UNL     1     -30.064 -17.942  -4.866  1.00  0.00     0.001 A 
HETATM   15  C8  UNL     1     -30.623 -18.948  -4.107  1.00  0.00     0.000 A 
HETATM   16  C9  UNL     1     -30.510 -18.863  -2.736  1.00  0.00     0.001 A 
HETATM   17  C10 UNL     1     -29.855 -17.798  -2.153  1.00  0.00     0.009 A 
ENDBRANCH   5  12
ENDBRANCH   1   4
BRANCH   1  18
HETATM   18  C11 UNL     1     -25.831 -13.266  -2.190  1.00  0.00     0.200 C 
BRANCH  18  19
HETATM   19  C12 UNL     1     -26.909 -12.754  -1.299  1.00  0.00     0.169 C 
HETATM   20  O3  UNL     1     -26.520 -12.827   0.028  1.00  0.00    -0.372 OA
HETATM   21  C13 UNL     1     -27.381 -12.145   0.877  1.00  0.00     0.176 C 
HETATM   22  C15 UNL     1     -28.771 -11.986   0.305  1.00  0.00     0.180 C 
HETATM   23  C16 UNL     1     -28.778 -11.191  -0.982  1.00  0.00     0.180 C 
HETATM   24  C17 UNL     1     -27.454 -11.411  -1.680  1.00  0.00     0.179 C 
BRANCH  21  25
HETATM   25  C14 UNL     1     -27.542 -12.854   2.216  1.00  0.00     0.198 C 
BRANCH  25  26
HETATM   26  O4  UNL     1     -28.595 -13.763   2.197  1.00  0.00    -0.398 OA
ATOM     27  H4  UNL     1     -29.382 -13.401   2.585  1.00  0.00     0.209 HD
ENDBRANCH  25  26
ENDBRANCH  21  25
BRANCH  22  28
HETATM   28  O5  UNL     1     -29.515 -11.262   1.237  1.00  0.00    -0.390 OA
ATOM     29  H5  UNL     1     -28.899 -10.749   1.746  1.00  0.00     0.210 HD
ENDBRANCH  22  28
BRANCH  23  30
HETATM   30  O6  UNL     1     -28.937  -9.842  -0.667  1.00  0.00    -0.390 OA
ATOM     31  H6  UNL     1     -28.326  -9.336  -1.190  1.00  0.00     0.210 HD
ENDBRANCH  23  30
BRANCH  24  32
HETATM   32  O7  UNL     1     -27.705 -11.397  -3.045  1.00  0.00    -0.390 OA
ATOM     33  H7  UNL     1     -27.250 -10.659  -3.435  1.00  0.00     0.210 HD
ENDBRANCH  24  32
ENDBRANCH  18  19
ENDBRANCH   1  18
TORSDOF 9
ENDMDL
MODEL 5
REMARK VINA RESULT: -7.550452032      2.901      6.673
REMARK  9 active torsions:
REMARK  status: ('A' for Active; 'I' for Inactive)
REMARK    1  A    between atoms: C4_6  and  C5_7 
REMARK    2  A    between atoms: N2_13  and  S1_14 
REMARK    3  A    between atoms: S1_14  and  C11_17 
REMARK    4  A    between atoms: C11_17  and  C12_18 
REMARK    5  A    between atoms: C13_20  and  C14_21 
REMARK    6  A    between atoms: C14_21  and  O4_22 
REMARK    7  A    between atoms: C15_24  and  O5_25 
REMARK    8  A    between atoms: C16_27  and  O6_28 
REMARK    9  A    between atoms: C17_30  and  O7_31 
ROOT
HETATM    1  S1  UNL     1     -26.589 -13.875  -2.838  1.00  0.00     0.254 S 
HETATM    2  O1  UNL     1     -27.407 -12.764  -2.209  1.00  0.00    -0.204 OA
HETATM    3  O2  UNL     1     -26.792 -13.784  -4.323  1.00  0.00    -0.204 OA
ENDROOT
BRANCH   1   4
HETATM    4  N2  UNL     1     -27.168 -15.329  -2.197  1.00  0.00    -0.165 N 
HETATM    5  C4  UNL     1     -28.543 -15.413  -1.925  1.00  0.00     0.178 C 
HETATM    6  C3  UNL     1     -28.920 -15.647  -0.494  1.00  0.00     0.154 C 
HETATM    7  N1  UNL     1     -27.820 -15.884   0.382  1.00  0.00    -0.370 N 
HETATM    8  C2  UNL     1     -26.592 -15.996   0.018  1.00  0.00     0.140 C 
ATOM      9  H1  UNL     1     -28.025 -15.972   1.378  1.00  0.00     0.161 HD
HETATM   10  C1  UNL     1     -25.475 -16.243   0.955  1.00  0.00     0.099 C 
HETATM   11  O8  UNL     1     -26.319 -15.879  -1.325  1.00  0.00    -0.212 OA
BRANCH   5  12
HETATM   12  C5  UNL     1     -29.123 -16.520  -2.730  1.00  0.00    -0.031 A 
HETATM   13  C6  UNL     1     -29.130 -16.518  -4.122  1.00  0.00     0.009 A 
HETATM   14  C7  UNL     1     -29.669 -17.546  -4.850  1.00  0.00     0.001 A 
HETATM   15  C8  UNL     1     -30.230 -18.640  -4.225  1.00  0.00     0.000 A 
HETATM   16  C9  UNL     1     -30.235 -18.665  -2.847  1.00  0.00     0.001 A 
HETATM   17  C10 UNL     1     -29.690 -17.623  -2.127  1.00  0.00     0.009 A 
ENDBRANCH   5  12
ENDBRANCH   1   4
BRANCH   1  18
HETATM   18  C11 UNL     1     -24.885 -13.574  -2.496  1.00  0.00     0.200 C 
BRANCH  18  19
HETATM   19  C12 UNL     1     -24.102 -13.268  -3.725  1.00  0.00     0.169 C 
HETATM   20  O3  UNL     1     -23.181 -12.264  -3.478  1.00  0.00    -0.372 OA
HETATM   21  C13 UNL     1     -22.267 -12.108  -4.511  1.00  0.00     0.176 C 
HETATM   22  C15 UNL     1     -22.786 -12.612  -5.839  1.00  0.00     0.180 C 
HETATM   23  C16 UNL     1     -23.100 -14.091  -5.812  1.00  0.00     0.180 C 
HETATM   24  C17 UNL     1     -23.502 -14.463  -4.402  1.00  0.00     0.179 C 
BRANCH  21  25
HETATM   25  C14 UNL     1     -21.884 -10.649  -4.721  1.00  0.00     0.198 C 
BRANCH  25  26
HETATM   26  O4  UNL     1     -22.728 -10.018  -5.628  1.00  0.00    -0.398 OA
ATOM     27  H4  UNL     1     -23.312  -9.403  -5.200  1.00  0.00     0.209 HD
ENDBRANCH  25  26
ENDBRANCH  21  25
BRANCH  22  28
HETATM   28  O5  UNL     1     -21.765 -12.428  -6.772  1.00  0.00    -0.390 OA
ATOM     29  H5  UNL     1     -22.120 -11.888  -7.469  1.00  0.00     0.210 HD
ENDBRANCH  22  28
BRANCH  23  30
HETATM   30  O6  UNL     1     -21.955 -14.793  -6.186  1.00  0.00    -0.390 OA
ATOM     31  H6  UNL     1     -22.041 -15.692  -5.891  1.00  0.00     0.210 HD
ENDBRANCH  23  30
BRANCH  24  32
HETATM   32  O7  UNL     1     -24.467 -15.456  -4.501  1.00  0.00    -0.390 OA
ATOM     33  H7  UNL     1     -24.871 -15.580  -3.650  1.00  0.00     0.210 HD
ENDBRANCH  24  32
ENDBRANCH  18  19
ENDBRANCH   1  18
TORSDOF 9
ENDMDL
