MODEL 1
REMARK VINA RESULT: -7.776459484      0.000      0.000
REMARK  9 active torsions:
REMARK  status: ('A' for Active; 'I' for Inactive)
REMARK    1  A    between atoms: C6_8  and  O2_9 
REMARK    2  A    between atoms: C7_11  and  O3_12 
REMARK    3  A    between atoms: C10_17  and  O5_18 
REMARK    4  A    between atoms: O5_18  and  C11_19 
REMARK    5  A    between atoms: C11_19  and  C12_20 
REMARK    6  A    between atoms: C12_20  and  C13_21 
REMARK    7  A    between atoms: C13_21  and  C14_22 
REMARK    8  A    between atoms: C19_28  and  O6_29 
REMARK    9  A    between atoms: C20_31  and  O7_32 
ROOT
HETATM    1  C1  UNL     1     -25.313 -16.511   5.676  1.00  0.00     0.310 C 
HETATM    2  N1  UNL     1     -25.992 -16.829   4.431  1.00  0.00     0.096 N 
HETATM    3  C2  UNL     1     -27.185 -16.112   4.349  1.00  0.00     0.307 C 
HETATM    4  C3  UNL     1     -28.315 -16.667   3.554  1.00  0.00     0.181 C 
HETATM    5  O1  UNL     1     -28.105 -17.633   2.679  1.00  0.00    -0.381 OA
HETATM    6  C4  UNL     1     -27.300 -18.670   2.786  1.00  0.00     0.178 C 
HETATM    7  C5  UNL     1     -26.061 -18.365   1.944  1.00  0.00     0.072 C 
HETATM    8  C6  UNL     1     -24.835 -19.068   2.515  1.00  0.00     0.157 C 
HETATM    9  C7  UNL     1     -24.231 -18.098   3.477  1.00  0.00     0.183 C 
HETATM   10  C8  UNL     1     -25.054 -16.827   3.393  1.00  0.00     0.282 C 
HETATM   11  C9  UNL     1     -25.664 -16.941   1.993  1.00  0.00     0.169 C 
HETATM   12  O4  UNL     1     -26.557 -15.980   1.870  1.00  0.00    -0.350 OA
HETATM   13  C10 UNL     1     -27.340 -15.811   0.772  1.00  0.00     0.291 C 
HETATM   14  C19 UNL     1     -28.770 -15.738   1.237  1.00  0.00     0.204 C 
HETATM   15  C20 UNL     1     -28.878 -15.490   2.735  1.00  0.00     0.182 C 
ENDROOT
BRANCH  13  16
HETATM   16  O5  UNL     1     -27.099 -16.669  -0.266  1.00  0.00    -0.359 OA
BRANCH  16  17
HETATM   17  C11 UNL     1     -26.827 -15.993  -1.480  1.00  0.00     0.171 C 
BRANCH  17  18
HETATM   18  C12 UNL     1     -28.067 -15.928  -2.333  1.00  0.00     0.031 C 
BRANCH  18  19
HETATM   19  C13 UNL     1     -27.971 -16.733  -3.587  1.00  0.00     0.042 C 
BRANCH  19  20
HETATM   20  C14 UNL     1     -29.191 -17.546  -3.774  1.00  0.00    -0.041 A 
HETATM   21  C15 UNL     1     -29.857 -17.721  -4.992  1.00  0.00     0.025 A 
HETATM   22  C16 UNL     1     -30.941 -18.536  -4.781  1.00  0.00     0.090 A 
HETATM   23  N2  UNL     1     -30.970 -18.870  -3.480  1.00  0.00    -0.370 N 
HETATM   24  C17 UNL     1     -31.943 -19.709  -2.844  1.00  0.00     0.154 C 
HETATM   25  C18 UNL     1     -29.911 -18.273  -2.861  1.00  0.00     0.097 A 
ENDBRANCH  19  20
ENDBRANCH  18  19
ENDBRANCH  17  18
ENDBRANCH  16  17
ENDBRANCH  13  16
BRANCH  14  26
HETATM   26  O6  UNL     1     -29.499 -16.886   0.941  1.00  0.00    -0.388 OA
ATOM     27  H6  UNL     1     -30.088 -17.144   1.641  1.00  0.00     0.210 HD
ENDBRANCH  14  26
BRANCH  15  28
HETATM   28  O7  UNL     1     -30.233 -15.284   2.994  1.00  0.00    -0.390 OA
ATOM     29  H7  UNL     1     -30.547 -14.479   2.599  1.00  0.00     0.210 HD
ENDBRANCH  15  28
BRANCH   8  30
HETATM   30  O2  UNL     1     -23.928 -19.254   1.470  1.00  0.00    -0.392 OA
ATOM     31  H2  UNL     1     -23.061 -19.050   1.801  1.00  0.00     0.210 HD
ENDBRANCH   8  30
BRANCH   9  32
HETATM   32  O3  UNL     1     -22.888 -17.861   3.194  1.00  0.00    -0.391 OA
ATOM     33  H3  UNL     1     -22.475 -17.332   3.868  1.00  0.00     0.210 HD
ENDBRANCH   9  32
TORSDOF 9
ENDMDL
MODEL 2
REMARK VINA RESULT: -7.481565691      4.306      6.492
REMARK  9 active torsions:
REMARK  status: ('A' for Active; 'I' for Inactive)
REMARK    1  A    between atoms: C6_8  and  O2_9 
REMARK    2  A    between atoms: C7_11  and  O3_12 
REMARK    3  A    between atoms: C10_17  and  O5_18 
REMARK    4  A    between atoms: O5_18  and  C11_19 
REMARK    5  A    between atoms: C11_19  and  C12_20 
REMARK    6  A    between atoms: C12_20  and  C13_21 
REMARK    7  A    between atoms: C13_21  and  C14_22 
REMARK    8  A    between atoms: C19_28  and  O6_29 
REMARK    9  A    between atoms: C20_31  and  O7_32 
ROOT
HETATM    1  C1  UNL     1     -27.589  -9.548  -0.401  1.00  0.00     0.310 C 
HETATM    2  N1  UNL     1     -27.432 -10.733  -1.226  1.00  0.00     0.096 N 
HETATM    3  C2  UNL     1     -26.147 -10.768  -1.762  1.00  0.00     0.307 C 
HETATM    4  C3  UNL     1     -25.916 -11.468  -3.056  1.00  0.00     0.181 C 
HETATM    5  O1  UNL     1     -26.811 -12.315  -3.526  1.00  0.00    -0.381 OA
HETATM    6  C4  UNL     1     -28.125 -12.219  -3.489  1.00  0.00     0.178 C 
HETATM    7  C5  UNL     1     -28.611 -13.149  -2.377  1.00  0.00     0.072 C 
HETATM    8  C6  UNL     1     -29.909 -12.630  -1.770  1.00  0.00     0.157 C 
HETATM    9  C7  UNL     1     -29.494 -11.747  -0.639  1.00  0.00     0.183 C 
HETATM   10  C8  UNL     1     -27.983 -11.828  -0.550  1.00  0.00     0.282 C 
HETATM   11  C9  UNL     1     -27.702 -13.181  -1.210  1.00  0.00     0.169 C 
HETATM   12  O4  UNL     1     -26.398 -13.284  -1.364  1.00  0.00    -0.350 OA
HETATM   13  C10 UNL     1     -25.789 -14.336  -1.973  1.00  0.00     0.291 C 
HETATM   14  C19 UNL     1     -24.883 -13.785  -3.041  1.00  0.00     0.204 C 
HETATM   15  C20 UNL     1     -24.629 -12.294  -2.869  1.00  0.00     0.182 C 
ENDROOT
BRANCH  13  16
HETATM   16  O5  UNL     1     -26.617 -15.354  -2.367  1.00  0.00    -0.359 OA
BRANCH  16  17
HETATM   17  C11 UNL     1     -26.845 -16.299  -1.338  1.00  0.00     0.171 C 
BRANCH  17  18
HETATM   18  C12 UNL     1     -27.967 -17.229  -1.720  1.00  0.00     0.031 C 
BRANCH  18  19
HETATM   19  C13 UNL     1     -28.379 -17.111  -3.150  1.00  0.00     0.042 C 
BRANCH  19  20
HETATM   20  C14 UNL     1     -29.597 -17.908  -3.405  1.00  0.00    -0.041 A 
HETATM   21  C15 UNL     1     -30.139 -18.159  -4.669  1.00  0.00     0.025 A 
HETATM   22  C16 UNL     1     -31.263 -18.931  -4.516  1.00  0.00     0.090 A 
HETATM   23  N2  UNL     1     -31.436 -19.166  -3.205  1.00  0.00    -0.370 N 
HETATM   24  C17 UNL     1     -32.494 -19.933  -2.614  1.00  0.00     0.154 C 
HETATM   25  C18 UNL     1     -30.429 -18.549  -2.522  1.00  0.00     0.097 A 
ENDBRANCH  19  20
ENDBRANCH  18  19
ENDBRANCH  17  18
ENDBRANCH  16  17
ENDBRANCH  13  16
BRANCH  14  26
HETATM   26  O6  UNL     1     -25.370 -13.989  -4.329  1.00  0.00    -0.388 OA
ATOM     27  H6  UNL     1     -24.848 -13.559  -4.997  1.00  0.00     0.210 HD
ENDBRANCH  14  26
BRANCH  15  28
HETATM   28  O7  UNL     1     -23.659 -11.958  -3.813  1.00  0.00    -0.390 OA
ATOM     29  H7  UNL     1     -23.408 -12.708  -4.341  1.00  0.00     0.210 HD
ENDBRANCH  15  28
BRANCH   8  30
HETATM   30  O2  UNL     1     -30.592 -13.722  -1.231  1.00  0.00    -0.392 OA
ATOM     31  H2  UNL     1     -30.121 -14.001  -0.455  1.00  0.00     0.210 HD
ENDBRANCH   8  30
BRANCH   9  32
HETATM   32  O3  UNL     1     -30.101 -12.123   0.557  1.00  0.00    -0.391 OA
ATOM     33  H3  UNL     1     -30.643 -11.427   0.911  1.00  0.00     0.210 HD
ENDBRANCH   9  32
TORSDOF 9
ENDMDL
MODEL 3
REMARK VINA RESULT: -7.389733207      2.984      4.010
REMARK  9 active torsions:
REMARK  status: ('A' for Active; 'I' for Inactive)
REMARK    1  A    between atoms: C6_8  and  O2_9 
REMARK    2  A    between atoms: C7_11  and  O3_12 
REMARK    3  A    between atoms: C10_17  and  O5_18 
REMARK    4  A    between atoms: O5_18  and  C11_19 
REMARK    5  A    between atoms: C11_19  and  C12_20 
REMARK    6  A    between atoms: C12_20  and  C13_21 
REMARK    7  A    between atoms: C13_21  and  C14_22 
REMARK    8  A    between atoms: C19_28  and  O6_29 
REMARK    9  A    between atoms: C20_31  and  O7_32 
ROOT
HETATM    1  C1  UNL     1     -26.442 -12.305   3.343  1.00  0.00     0.310 C 
HETATM    2  N1  UNL     1     -27.408 -12.711   2.338  1.00  0.00     0.096 N 
HETATM    3  C2  UNL     1     -27.956 -11.584   1.728  1.00  0.00     0.307 C 
HETATM    4  C3  UNL     1     -29.328 -11.660   1.155  1.00  0.00     0.181 C 
HETATM    5  O1  UNL     1     -29.892 -12.831   0.925  1.00  0.00    -0.381 OA
HETATM    6  C4  UNL     1     -29.832 -13.924   1.657  1.00  0.00     0.178 C 
HETATM    7  C5  UNL     1     -28.839 -14.866   0.975  1.00  0.00     0.072 C 
HETATM    8  C6  UNL     1     -28.162 -15.768   2.001  1.00  0.00     0.157 C 
HETATM    9  C7  UNL     1     -26.933 -15.032   2.427  1.00  0.00     0.183 C 
HETATM   10  C8  UNL     1     -26.869 -13.767   1.595  1.00  0.00     0.282 C 
HETATM   11  C9  UNL     1     -27.693 -14.157   0.366  1.00  0.00     0.169 C 
HETATM   12  O4  UNL     1     -27.870 -13.069  -0.356  1.00  0.00    -0.350 OA
HETATM   13  C10 UNL     1     -28.609 -13.029  -1.496  1.00  0.00     0.291 C 
HETATM   14  C19 UNL     1     -29.609 -11.913  -1.353  1.00  0.00     0.204 C 
HETATM   15  C20 UNL     1     -29.256 -10.964  -0.217  1.00  0.00     0.182 C 
ENDROOT
BRANCH  13  16
HETATM   16  O5  UNL     1     -29.119 -14.229  -1.915  1.00  0.00    -0.359 OA
BRANCH  16  17
HETATM   17  C11 UNL     1     -28.716 -14.561  -3.231  1.00  0.00     0.171 C 
BRANCH  17  18
HETATM   18  C12 UNL     1     -27.607 -15.581  -3.198  1.00  0.00     0.031 C 
BRANCH  18  19
HETATM   19  C13 UNL     1     -27.920 -16.775  -2.358  1.00  0.00     0.042 C 
BRANCH  19  20
HETATM   20  C14 UNL     1     -28.978 -17.589  -2.991  1.00  0.00    -0.041 A 
HETATM   21  C15 UNL     1     -29.067 -17.861  -4.360  1.00  0.00     0.025 A 
HETATM   22  C16 UNL     1     -30.173 -18.644  -4.578  1.00  0.00     0.090 A 
HETATM   23  N2  UNL     1     -30.771 -18.865  -3.395  1.00  0.00    -0.370 N 
HETATM   24  C17 UNL     1     -31.960 -19.637  -3.179  1.00  0.00     0.154 C 
HETATM   25  C18 UNL     1     -30.053 -18.228  -2.426  1.00  0.00     0.097 A 
ENDBRANCH  19  20
ENDBRANCH  18  19
ENDBRANCH  17  18
ENDBRANCH  16  17
ENDBRANCH  13  16
BRANCH  14  26
HETATM   26  O6  UNL     1     -30.908 -12.366  -1.143  1.00  0.00    -0.388 OA
ATOM     27  H6  UNL     1     -31.530 -12.019  -1.772  1.00  0.00     0.210 HD
ENDBRANCH  14  26
BRANCH  15  28
HETATM   28  O7  UNL     1     -30.160  -9.905  -0.306  1.00  0.00    -0.390 OA
ATOM     29  H7  UNL     1     -29.991  -9.362  -1.067  1.00  0.00     0.210 HD
ENDBRANCH  15  28
BRANCH   8  30
HETATM   30  O2  UNL     1     -27.756 -16.930   1.341  1.00  0.00    -0.392 OA
ATOM     31  H2  UNL     1     -26.838 -17.069   1.541  1.00  0.00     0.210 HD
ENDBRANCH   8  30
BRANCH   9  32
HETATM   32  O3  UNL     1     -25.788 -15.810   2.272  1.00  0.00    -0.391 OA
ATOM     33  H3  UNL     1     -25.030 -15.405   2.680  1.00  0.00     0.210 HD
ENDBRANCH   9  32
TORSDOF 9
ENDMDL
MODEL 4
REMARK VINA RESULT: -7.367305142      2.302      3.093
REMARK  9 active torsions:
REMARK  status: ('A' for Active; 'I' for Inactive)
REMARK    1  A    between atoms: C6_8  and  O2_9 
REMARK    2  A    between atoms: C7_11  and  O3_12 
REMARK    3  A    between atoms: C10_17  and  O5_18 
REMARK    4  A    between atoms: O5_18  and  C11_19 
REMARK    5  A    between atoms: C11_19  and  C12_20 
REMARK    6  A    between atoms: C12_20  and  C13_21 
REMARK    7  A    between atoms: C13_21  and  C14_22 
REMARK    8  A    between atoms: C19_28  and  O6_29 
REMARK    9  A    between atoms: C20_31  and  O7_32 
ROOT
HETATM    1  C1  UNL     1     -25.785 -13.764   3.416  1.00  0.00     0.310 C 
HETATM    2  N1  UNL     1     -26.843 -14.019   2.454  1.00  0.00     0.096 N 
HETATM    3  C2  UNL     1     -27.606 -12.867   2.275  1.00  0.00     0.307 C 
HETATM    4  C3  UNL     1     -29.033 -12.993   1.869  1.00  0.00     0.181 C 
HETATM    5  O1  UNL     1     -29.487 -14.127   1.368  1.00  0.00    -0.381 OA
HETATM    6  C4  UNL     1     -29.187 -15.357   1.729  1.00  0.00     0.178 C 
HETATM    7  C5  UNL     1     -28.211 -15.905   0.688  1.00  0.00     0.072 C 
HETATM    8  C6  UNL     1     -27.282 -16.940   1.312  1.00  0.00     0.157 C 
HETATM    9  C7  UNL     1     -26.096 -16.170   1.793  1.00  0.00     0.183 C 
HETATM   10  C8  UNL     1     -26.308 -14.729   1.374  1.00  0.00     0.282 C 
HETATM   11  C9  UNL     1     -27.264 -14.885   0.188  1.00  0.00     0.169 C 
HETATM   12  O4  UNL     1     -27.676 -13.681  -0.151  1.00  0.00    -0.350 OA
HETATM   13  C10 UNL     1     -28.584 -13.440  -1.134  1.00  0.00     0.291 C 
HETATM   14  C19 UNL     1     -29.671 -12.578  -0.551  1.00  0.00     0.204 C 
HETATM   15  C20 UNL     1     -29.257 -11.940   0.767  1.00  0.00     0.182 C 
ENDROOT
BRANCH  13  16
HETATM   16  O5  UNL     1     -29.011 -14.540  -1.829  1.00  0.00    -0.359 OA
BRANCH  16  17
HETATM   17  C11 UNL     1     -28.752 -14.440  -3.217  1.00  0.00     0.171 C 
BRANCH  17  18
HETATM   18  C12 UNL     1     -27.814 -15.534  -3.656  1.00  0.00     0.031 C 
BRANCH  18  19
HETATM   19  C13 UNL     1     -27.945 -16.789  -2.857  1.00  0.00     0.042 C 
BRANCH  19  20
HETATM   20  C14 UNL     1     -29.107 -17.576  -3.319  1.00  0.00    -0.041 A 
HETATM   21  C15 UNL     1     -29.483 -17.737  -4.657  1.00  0.00     0.025 A 
HETATM   22  C16 UNL     1     -30.603 -18.529  -4.702  1.00  0.00     0.090 A 
HETATM   23  N2  UNL     1     -30.933 -18.864  -3.444  1.00  0.00    -0.370 N 
HETATM   24  C17 UNL     1     -32.041 -19.684  -3.048  1.00  0.00     0.154 C 
HETATM   25  C18 UNL     1     -30.030 -18.290  -2.597  1.00  0.00     0.097 A 
ENDBRANCH  19  20
ENDBRANCH  18  19
ENDBRANCH  17  18
ENDBRANCH  16  17
ENDBRANCH  13  16
BRANCH  14  26
HETATM   26  O6  UNL     1     -30.860 -13.269  -0.336  1.00  0.00    -0.388 OA
ATOM     27  H6  UNL     1     -31.470 -13.196  -1.061  1.00  0.00     0.210 HD
ENDBRANCH  14  26
BRANCH  15  28
HETATM   28  O7  UNL     1     -30.280 -11.053   1.103  1.00  0.00    -0.390 OA
ATOM     29  H7  UNL     1     -30.872 -10.908   0.374  1.00  0.00     0.210 HD
ENDBRANCH  15  28
BRANCH   8  30
HETATM   30  O2  UNL     1     -26.853 -17.794   0.295  1.00  0.00    -0.392 OA
ATOM     31  H2  UNL     1     -25.944 -18.011   0.465  1.00  0.00     0.210 HD
ENDBRANCH   8  30
BRANCH   9  32
HETATM   32  O3  UNL     1     -24.906 -16.685   1.282  1.00  0.00    -0.391 OA
ATOM     33  H3  UNL     1     -24.519 -16.103   0.638  1.00  0.00     0.210 HD
ENDBRANCH   9  32
TORSDOF 9
ENDMDL
MODEL 5
REMARK VINA RESULT: -7.253895010      3.076      5.234
REMARK  9 active torsions:
REMARK  status: ('A' for Active; 'I' for Inactive)
REMARK    1  A    between atoms: C6_8  and  O2_9 
REMARK    2  A    between atoms: C7_11  and  O3_12 
REMARK    3  A    between atoms: C10_17  and  O5_18 
REMARK    4  A    between atoms: O5_18  and  C11_19 
REMARK    5  A    between atoms: C11_19  and  C12_20 
REMARK    6  A    between atoms: C12_20  and  C13_21 
REMARK    7  A    between atoms: C13_21  and  C14_22 
REMARK    8  A    between atoms: C19_28  and  O6_29 
REMARK    9  A    between atoms: C20_31  and  O7_32 
ROOT
HETATM    1  C1  UNL     1     -30.862 -12.174   2.522  1.00  0.00     0.310 C 
HETATM    2  N1  UNL     1     -29.810 -12.745   1.700  1.00  0.00     0.096 N 
HETATM    3  C2  UNL     1     -29.703 -14.111   1.953  1.00  0.00     0.307 C 
HETATM    4  C3  UNL     1     -28.393 -14.790   1.750  1.00  0.00     0.181 C 
HETATM    5  O1  UNL     1     -27.444 -14.211   1.040  1.00  0.00    -0.381 OA
HETATM    6  C4  UNL     1     -27.109 -12.937   1.010  1.00  0.00     0.178 C 
HETATM    7  C5  UNL     1     -27.691 -12.350  -0.276  1.00  0.00     0.072 C 
HETATM    8  C6  UNL     1     -28.002 -10.869  -0.099  1.00  0.00     0.157 C 
HETATM    9  C7  UNL     1     -29.415 -10.813   0.383  1.00  0.00     0.183 C 
HETATM   10  C8  UNL     1     -29.928 -12.240   0.401  1.00  0.00     0.282 C 
HETATM   11  C9  UNL     1     -29.012 -12.915  -0.623  1.00  0.00     0.169 C 
HETATM   12  O4  UNL     1     -29.237 -14.212  -0.562  1.00  0.00    -0.350 OA
HETATM   13  C10 UNL     1     -28.557 -15.133  -1.295  1.00  0.00     0.291 C 
HETATM   14  C19 UNL     1     -28.029 -16.174  -0.345  1.00  0.00     0.204 C 
HETATM   15  C20 UNL     1     -28.706 -16.109   1.017  1.00  0.00     0.182 C 
ENDROOT
BRANCH  13  16
HETATM   16  O5  UNL     1     -27.647 -14.629  -2.185  1.00  0.00    -0.359 OA
BRANCH  16  17
HETATM   17  C11 UNL     1     -27.969 -14.940  -3.528  1.00  0.00     0.171 C 
BRANCH  17  18
HETATM   18  C12 UNL     1     -27.496 -16.329  -3.871  1.00  0.00     0.031 C 
BRANCH  18  19
HETATM   19  C13 UNL     1     -28.387 -17.041  -4.836  1.00  0.00     0.042 C 
BRANCH  19  20
HETATM   20  C14 UNL     1     -29.381 -17.860  -4.113  1.00  0.00    -0.041 A 
HETATM   21  C15 UNL     1     -29.257 -18.283  -2.786  1.00  0.00     0.025 A 
HETATM   22  C16 UNL     1     -30.368 -19.019  -2.457  1.00  0.00     0.090 A 
HETATM   23  N2  UNL     1     -31.173 -19.068  -3.531  1.00  0.00    -0.370 N 
HETATM   24  C17 UNL     1     -32.438 -19.738  -3.612  1.00  0.00     0.154 C 
HETATM   25  C18 UNL     1     -30.582 -18.367  -4.542  1.00  0.00     0.097 A 
ENDBRANCH  19  20
ENDBRANCH  18  19
ENDBRANCH  17  18
ENDBRANCH  16  17
ENDBRANCH  13  16
BRANCH  14  26
HETATM   26  O6  UNL     1     -26.655 -16.082  -0.143  1.00  0.00    -0.388 OA
ATOM     27  H6  UNL     1     -26.199 -15.669  -0.867  1.00  0.00     0.210 HD
ENDBRANCH  14  26
BRANCH  15  28
HETATM   28  O7  UNL     1     -28.245 -17.216   1.729  1.00  0.00    -0.390 OA
ATOM     29  H7  UNL     1     -27.956 -16.976   2.602  1.00  0.00     0.210 HD
ENDBRANCH  15  28
BRANCH   8  30
HETATM   30  O2  UNL     1     -27.958 -10.272  -1.360  1.00  0.00    -0.392 OA
ATOM     31  H2  UNL     1     -28.761 -10.496  -1.814  1.00  0.00     0.210 HD
ENDBRANCH   8  30
BRANCH   9  32
HETATM   32  O3  UNL     1     -30.201  -9.992  -0.422  1.00  0.00    -0.391 OA
ATOM     33  H3  UNL     1     -30.393  -9.164   0.003  1.00  0.00     0.210 HD
ENDBRANCH   9  32
TORSDOF 9
ENDMDL
