MODEL 1
REMARK VINA RESULT: -6.450160743      0.000      0.000
REMARK  9 active torsions:
REMARK  status: ('A' for Active; 'I' for Inactive)
REMARK    1  A    between atoms: O1_2  and  C2_3 
REMARK    2  A    between atoms: C2_3  and  C3_4 
REMARK    3  A    between atoms: C2_3  and  C4_7 
REMARK    4  A    between atoms: C2_3  and  C5_10 
REMARK    5  A    between atoms: C3_4  and  O2_5 
REMARK    6  A    between atoms: C4_7  and  O3_8 
REMARK    7  A    between atoms: C5_10  and  O4_11 
REMARK    8  A    between atoms: C5_10  and  C6_13 
REMARK    9  A    between atoms: C6_13  and  O5_14 
ROOT
HETATM    1  C6  UNL     1     -26.746 -13.685  -2.750  1.00  0.00     0.101 C 
HETATM    2  C7  UNL     1     -27.579 -14.903  -3.017  1.00  0.00     0.062 C 
HETATM    3  C8  UNL     1     -26.863 -16.105  -3.590  1.00  0.00     0.017 C 
HETATM    4  C9  UNL     1     -28.375 -15.522  -1.912  1.00  0.00     0.132 C 
HETATM    5  C10 UNL     1     -29.280 -16.577  -2.581  1.00  0.00     0.055 C 
HETATM    6  O6  UNL     1     -29.188 -14.857  -1.121  1.00  0.00    -0.358 OA
HETATM    7  C11 UNL     1     -28.779 -14.271   0.014  1.00  0.00     0.099 C 
HETATM    8  C12 UNL     1     -28.859 -15.122   1.253  1.00  0.00     0.050 C 
HETATM    9  C13 UNL     1     -29.558 -13.016   0.268  1.00  0.00     0.186 A 
HETATM   10  O7  UNL     1     -30.739 -12.829  -0.590  1.00  0.00    -0.372 OA
HETATM   11  C14 UNL     1     -29.464 -12.109  -0.796  1.00  0.00     0.155 A 
HETATM   12  C15 UNL     1     -28.653 -12.539  -1.938  1.00  0.00     0.048 C 
HETATM   13  C16 UNL     1     -27.232 -13.072  -1.518  1.00  0.00     0.006 C 
HETATM   14  C17 UNL     1     -26.693 -11.779  -0.973  1.00  0.00     0.019 C 
HETATM   15  C18 UNL     1     -27.307 -13.901  -0.280  1.00  0.00     0.112 C 
HETATM   16  C19 UNL     1     -26.584 -15.196  -0.307  1.00  0.00     0.205 C 
HETATM   17  O8  UNL     1     -25.483 -15.452   0.215  1.00  0.00    -0.289 OA
HETATM   18  C20 UNL     1     -27.343 -16.221  -1.058  1.00  0.00     0.229 C 
HETATM   19  O9  UNL     1     -27.149 -17.425  -0.983  1.00  0.00    -0.286 OA
ENDROOT
BRANCH   1  20
HETATM   20  C5  UNL     1     -25.357 -13.785  -3.229  1.00  0.00     0.192 C 
BRANCH  20  21
HETATM   21  C2  UNL     1     -24.378 -12.700  -3.280  1.00  0.00     0.131 C 
BRANCH  21  22
HETATM   22  O1  UNL     1     -24.890 -11.423  -3.475  1.00  0.00    -0.378 OA
HETATM   23  C1  UNL     1     -24.057 -10.366  -3.265  1.00  0.00     0.202 C 
ENDBRANCH  21  22
BRANCH  21  24
HETATM   24  C3  UNL     1     -23.282 -12.870  -4.321  1.00  0.00     0.207 C 
BRANCH  24  25
HETATM   25  O2  UNL     1     -22.534 -14.015  -3.915  1.00  0.00    -0.398 OA
ATOM     26  H2  UNL     1     -22.179 -14.389  -4.713  1.00  0.00     0.209 HD
ENDBRANCH  24  25
ENDBRANCH  21  24
BRANCH  21  27
HETATM   27  C4  UNL     1     -23.617 -12.578  -1.981  1.00  0.00     0.207 C 
BRANCH  27  28
HETATM   28  O3  UNL     1     -23.643 -13.594  -1.096  1.00  0.00    -0.398 OA
ATOM     29  H3  UNL     1     -23.271 -13.472  -0.230  1.00  0.00     0.209 HD
ENDBRANCH  27  28
ENDBRANCH  21  27
ENDBRANCH  20  21
BRANCH  20  30
HETATM   30  O4  UNL     1     -25.554 -13.911  -4.649  1.00  0.00    -0.389 OA
ATOM     31  H4  UNL     1     -26.499 -13.818  -4.644  1.00  0.00     0.210 HD
ENDBRANCH  20  30
ENDBRANCH   1  20
BRANCH   1  32
HETATM   32  O5  UNL     1     -27.214 -12.724  -3.743  1.00  0.00    -0.386 OA
ATOM     33  H5  UNL     1     -27.782 -13.315  -4.224  1.00  0.00     0.210 HD
ENDBRANCH   1  32
TORSDOF 9
ENDMDL
MODEL 2
REMARK VINA RESULT: -6.346157992      0.705      1.331
REMARK  9 active torsions:
REMARK  status: ('A' for Active; 'I' for Inactive)
REMARK    1  A    between atoms: O1_2  and  C2_3 
REMARK    2  A    between atoms: C2_3  and  C3_4 
REMARK    3  A    between atoms: C2_3  and  C4_7 
REMARK    4  A    between atoms: C2_3  and  C5_10 
REMARK    5  A    between atoms: C3_4  and  O2_5 
REMARK    6  A    between atoms: C4_7  and  O3_8 
REMARK    7  A    between atoms: C5_10  and  O4_11 
REMARK    8  A    between atoms: C5_10  and  C6_13 
REMARK    9  A    between atoms: C6_13  and  O5_14 
ROOT
HETATM    1  C6  UNL     1     -26.628 -14.032  -2.865  1.00  0.00     0.101 C 
HETATM    2  C7  UNL     1     -27.563 -15.182  -3.098  1.00  0.00     0.062 C 
HETATM    3  C8  UNL     1     -26.958 -16.447  -3.664  1.00  0.00     0.017 C 
HETATM    4  C9  UNL     1     -28.388 -15.716  -1.971  1.00  0.00     0.132 C 
HETATM    5  C10 UNL     1     -29.388 -16.703  -2.608  1.00  0.00     0.055 C 
HETATM    6  O6  UNL     1     -29.129 -14.974  -1.177  1.00  0.00    -0.358 OA
HETATM    7  C11 UNL     1     -28.654 -14.408  -0.059  1.00  0.00     0.099 C 
HETATM    8  C12 UNL     1     -28.782 -15.231   1.195  1.00  0.00     0.050 C 
HETATM    9  C13 UNL     1     -29.322 -13.089   0.187  1.00  0.00     0.186 A 
HETATM   10  O7  UNL     1     -30.498 -12.818  -0.655  1.00  0.00    -0.372 OA
HETATM   11  C14 UNL     1     -29.172 -12.209  -0.893  1.00  0.00     0.155 A 
HETATM   12  C15 UNL     1     -28.419 -12.721  -2.041  1.00  0.00     0.048 C 
HETATM   13  C16 UNL     1     -27.040 -13.364  -1.635  1.00  0.00     0.006 C 
HETATM   14  C17 UNL     1     -26.387 -12.111  -1.120  1.00  0.00     0.019 C 
HETATM   15  C18 UNL     1     -27.162 -14.165  -0.383  1.00  0.00     0.112 C 
HETATM   16  C19 UNL     1     -26.548 -15.516  -0.401  1.00  0.00     0.205 C 
HETATM   17  O8  UNL     1     -25.463 -15.854   0.107  1.00  0.00    -0.289 OA
HETATM   18  C20 UNL     1     -27.401 -16.485  -1.123  1.00  0.00     0.229 C 
HETATM   19  O9  UNL     1     -27.307 -17.700  -1.031  1.00  0.00    -0.286 OA
ENDROOT
BRANCH   1  20
HETATM   20  C5  UNL     1     -25.260 -14.254  -3.364  1.00  0.00     0.192 C 
BRANCH  20  21
HETATM   21  C2  UNL     1     -24.065 -13.504  -2.979  1.00  0.00     0.131 C 
BRANCH  21  22
HETATM   22  O1  UNL     1     -23.716 -13.560  -1.636  1.00  0.00    -0.378 OA
HETATM   23  C1  UNL     1     -22.896 -12.585  -1.151  1.00  0.00     0.202 C 
ENDBRANCH  21  22
BRANCH  21  24
HETATM   24  C3  UNL     1     -24.087 -12.027  -3.340  1.00  0.00     0.207 C 
BRANCH  24  25
HETATM   25  O2  UNL     1     -23.328 -11.909  -4.543  1.00  0.00    -0.398 OA
ATOM     26  H2  UNL     1     -22.969 -11.029  -4.537  1.00  0.00     0.209 HD
ENDBRANCH  24  25
ENDBRANCH  21  24
BRANCH  21  27
HETATM   27  C4  UNL     1     -22.834 -14.023  -3.683  1.00  0.00     0.207 C 
BRANCH  27  28
HETATM   28  O3  UNL     1     -22.959 -14.973  -4.631  1.00  0.00    -0.398 OA
ATOM     29  H3  UNL     1     -22.464 -14.899  -5.438  1.00  0.00     0.209 HD
ENDBRANCH  27  28
ENDBRANCH  21  27
ENDBRANCH  20  21
BRANCH  20  30
HETATM   30  O4  UNL     1     -25.361 -13.744  -4.707  1.00  0.00    -0.389 OA
ATOM     31  H4  UNL     1     -25.011 -12.879  -4.529  1.00  0.00     0.210 HD
ENDBRANCH  20  30
ENDBRANCH   1  20
BRANCH   1  32
HETATM   32  O5  UNL     1     -27.033 -13.051  -3.865  1.00  0.00    -0.386 OA
ATOM     33  H5  UNL     1     -27.971 -13.131  -3.740  1.00  0.00     0.210 HD
ENDBRANCH   1  32
TORSDOF 9
ENDMDL
MODEL 3
REMARK VINA RESULT: -6.195074870      2.345      5.942
REMARK  9 active torsions:
REMARK  status: ('A' for Active; 'I' for Inactive)
REMARK    1  A    between atoms: O1_2  and  C2_3 
REMARK    2  A    between atoms: C2_3  and  C3_4 
REMARK    3  A    between atoms: C2_3  and  C4_7 
REMARK    4  A    between atoms: C2_3  and  C5_10 
REMARK    5  A    between atoms: C3_4  and  O2_5 
REMARK    6  A    between atoms: C4_7  and  O3_8 
REMARK    7  A    between atoms: C5_10  and  O4_11 
REMARK    8  A    between atoms: C5_10  and  C6_13 
REMARK    9  A    between atoms: C6_13  and  O5_14 
ROOT
HETATM    1  C6  UNL     1     -28.536 -15.846   0.602  1.00  0.00     0.101 C 
HETATM    2  C7  UNL     1     -29.148 -14.569   0.109  1.00  0.00     0.062 C 
HETATM    3  C8  UNL     1     -29.152 -13.400   1.069  1.00  0.00     0.017 C 
HETATM    4  C9  UNL     1     -28.641 -13.931  -1.146  1.00  0.00     0.132 C 
HETATM    5  C10 UNL     1     -29.638 -12.801  -1.479  1.00  0.00     0.055 C 
HETATM    6  O6  UNL     1     -28.480 -14.564  -2.287  1.00  0.00    -0.358 OA
HETATM    7  C11 UNL     1     -27.347 -15.206  -2.607  1.00  0.00     0.099 C 
HETATM    8  C12 UNL     1     -26.316 -14.387  -3.335  1.00  0.00     0.050 C 
HETATM    9  C13 UNL     1     -27.646 -16.415  -3.441  1.00  0.00     0.186 A 
HETATM   10  O7  UNL     1     -29.026 -16.501  -3.944  1.00  0.00    -0.372 OA
HETATM   11  C14 UNL     1     -28.528 -17.296  -2.801  1.00  0.00     0.155 A 
HETATM   12  C15 UNL     1     -28.995 -16.888  -1.474  1.00  0.00     0.048 C 
HETATM   13  C16 UNL     1     -27.823 -16.459  -0.513  1.00  0.00     0.006 C 
HETATM   14  C17 UNL     1     -27.148 -17.800  -0.423  1.00  0.00     0.019 C 
HETATM   15  C18 UNL     1     -26.791 -15.662  -1.238  1.00  0.00     0.112 C 
HETATM   16  C19 UNL     1     -26.333 -14.417  -0.575  1.00  0.00     0.205 C 
HETATM   17  O8  UNL     1     -25.272 -14.247   0.053  1.00  0.00    -0.289 OA
HETATM   18  C20 UNL     1     -27.317 -13.325  -0.743  1.00  0.00     0.229 C 
HETATM   19  O9  UNL     1     -27.076 -12.138  -0.579  1.00  0.00    -0.286 OA
ENDROOT
BRANCH   1  20
HETATM   20  C5  UNL     1     -28.151 -15.822   2.023  1.00  0.00     0.192 C 
BRANCH  20  21
HETATM   21  C2  UNL     1     -27.411 -16.862   2.738  1.00  0.00     0.131 C 
BRANCH  21  22
HETATM   22  O1  UNL     1     -27.705 -18.173   2.385  1.00  0.00    -0.378 OA
HETATM   23  C1  UNL     1     -26.989 -19.168   2.982  1.00  0.00     0.202 C 
ENDBRANCH  21  22
BRANCH  21  24
HETATM   24  C3  UNL     1     -27.523 -16.806   4.254  1.00  0.00     0.207 C 
BRANCH  24  25
HETATM   25  O2  UNL     1     -27.429 -15.425   4.601  1.00  0.00    -0.398 OA
ATOM     26  H2  UNL     1     -27.063 -15.402   5.477  1.00  0.00     0.209 HD
ENDBRANCH  24  25
ENDBRANCH  21  24
BRANCH  21  27
HETATM   27  C4  UNL     1     -25.925 -16.756   2.488  1.00  0.00     0.207 C 
BRANCH  27  28
HETATM   28  O3  UNL     1     -25.309 -15.566   2.630  1.00  0.00    -0.398 OA
ATOM     29  H3  UNL     1     -24.717 -15.428   3.361  1.00  0.00     0.209 HD
ENDBRANCH  27  28
ENDBRANCH  21  27
ENDBRANCH  20  21
BRANCH  20  30
HETATM   30  O4  UNL     1     -29.421 -16.038   2.666  1.00  0.00    -0.389 OA
ATOM     31  H4  UNL     1     -29.951 -16.038   1.877  1.00  0.00     0.210 HD
ENDBRANCH  20  30
ENDBRANCH   1  20
BRANCH   1  32
HETATM   32  O5  UNL     1     -29.675 -16.746   0.735  1.00  0.00    -0.386 OA
ATOM     33  H5  UNL     1     -30.343 -16.139   0.438  1.00  0.00     0.210 HD
ENDBRANCH   1  32
TORSDOF 9
ENDMDL
MODEL 4
REMARK VINA RESULT: -6.193828907      2.050      4.818
REMARK  9 active torsions:
REMARK  status: ('A' for Active; 'I' for Inactive)
REMARK    1  A    between atoms: O1_2  and  C2_3 
REMARK    2  A    between atoms: C2_3  and  C3_4 
REMARK    3  A    between atoms: C2_3  and  C4_7 
REMARK    4  A    between atoms: C2_3  and  C5_10 
REMARK    5  A    between atoms: C3_4  and  O2_5 
REMARK    6  A    between atoms: C4_7  and  O3_8 
REMARK    7  A    between atoms: C5_10  and  O4_11 
REMARK    8  A    between atoms: C5_10  and  C6_13 
REMARK    9  A    between atoms: C6_13  and  O5_14 
ROOT
HETATM    1  C6  UNL     1     -27.523 -14.284  -0.921  1.00  0.00     0.101 C 
HETATM    2  C7  UNL     1     -26.248 -13.742  -0.346  1.00  0.00     0.062 C 
HETATM    3  C8  UNL     1     -24.972 -14.071  -1.088  1.00  0.00     0.017 C 
HETATM    4  C9  UNL     1     -26.097 -12.272  -0.115  1.00  0.00     0.132 C 
HETATM    5  C10 UNL     1     -24.795 -12.102   0.695  1.00  0.00     0.055 C 
HETATM    6  O6  UNL     1     -26.972 -11.527   0.523  1.00  0.00    -0.358 OA
HETATM    7  C11 UNL     1     -28.010 -10.939  -0.090  1.00  0.00     0.099 C 
HETATM    8  C12 UNL     1     -27.757  -9.550  -0.613  1.00  0.00     0.050 C 
HETATM    9  C13 UNL     1     -29.194 -10.876   0.826  1.00  0.00     0.186 A 
HETATM   10  O7  UNL     1     -28.916 -11.209   2.231  1.00  0.00    -0.372 OA
HETATM   11  C14 UNL     1     -29.573 -12.142   1.291  1.00  0.00     0.155 A 
HETATM   12  C15 UNL     1     -28.762 -13.269   0.822  1.00  0.00     0.048 C 
HETATM   13  C16 UNL     1     -28.560 -13.274  -0.739  1.00  0.00     0.006 C 
HETATM   14  C17 UNL     1     -29.998 -13.493  -1.119  1.00  0.00     0.019 C 
HETATM   15  C18 UNL     1     -28.327 -11.896  -1.261  1.00  0.00     0.112 C 
HETATM   16  C19 UNL     1     -27.198 -11.731  -2.209  1.00  0.00     0.205 C 
HETATM   17  O8  UNL     1     -27.266 -11.626  -3.448  1.00  0.00    -0.289 OA
HETATM   18  C20 UNL     1     -25.900 -11.699  -1.500  1.00  0.00     0.229 C 
HETATM   19  O9  UNL     1     -24.857 -11.274  -1.974  1.00  0.00    -0.286 OA
ENDROOT
BRANCH   1  20
HETATM   20  C5  UNL     1     -27.331 -15.194  -2.063  1.00  0.00     0.192 C 
BRANCH  20  21
HETATM   21  C2  UNL     1     -28.387 -15.840  -2.842  1.00  0.00     0.131 C 
BRANCH  21  22
HETATM   22  O1  UNL     1     -29.544 -16.171  -2.148  1.00  0.00    -0.378 OA
HETATM   23  C1  UNL     1     -29.867 -17.491  -2.043  1.00  0.00     0.202 C 
ENDBRANCH  21  22
BRANCH  21  24
HETATM   24  C3  UNL     1     -27.966 -17.107  -3.572  1.00  0.00     0.207 C 
BRANCH  24  25
HETATM   25  O2  UNL     1     -26.871 -16.730  -4.407  1.00  0.00    -0.398 OA
ATOM     26  H2  UNL     1     -27.253 -16.499  -5.246  1.00  0.00     0.209 HD
ENDBRANCH  24  25
ENDBRANCH  21  24
BRANCH  21  27
HETATM   27  C4  UNL     1     -28.887 -14.943  -3.949  1.00  0.00     0.207 C 
BRANCH  27  28
HETATM   28  O3  UNL     1     -28.027 -14.116  -4.576  1.00  0.00    -0.398 OA
ATOM     29  H3  UNL     1     -28.362 -13.439  -5.153  1.00  0.00     0.209 HD
ENDBRANCH  27  28
ENDBRANCH  21  27
ENDBRANCH  20  21
BRANCH  20  30
HETATM   30  O4  UNL     1     -26.850 -16.380  -1.404  1.00  0.00    -0.389 OA
ATOM     31  H4  UNL     1     -26.181 -16.603  -2.040  1.00  0.00     0.210 HD
ENDBRANCH  20  30
ENDBRANCH   1  20
BRANCH   1  32
HETATM   32  O5  UNL     1     -27.939 -15.290   0.049  1.00  0.00    -0.386 OA
ATOM     33  H5  UNL     1     -28.817 -14.959   0.196  1.00  0.00     0.210 HD
ENDBRANCH   1  32
TORSDOF 9
ENDMDL
MODEL 5
REMARK VINA RESULT: -6.145621297      2.207      4.830
REMARK  9 active torsions:
REMARK  status: ('A' for Active; 'I' for Inactive)
REMARK    1  A    between atoms: O1_2  and  C2_3 
REMARK    2  A    between atoms: C2_3  and  C3_4 
REMARK    3  A    between atoms: C2_3  and  C4_7 
REMARK    4  A    between atoms: C2_3  and  C5_10 
REMARK    5  A    between atoms: C3_4  and  O2_5 
REMARK    6  A    between atoms: C4_7  and  O3_8 
REMARK    7  A    between atoms: C5_10  and  O4_11 
REMARK    8  A    between atoms: C5_10  and  C6_13 
REMARK    9  A    between atoms: C6_13  and  O5_14 
ROOT
HETATM    1  C6  UNL     1     -28.396 -13.593  -2.102  1.00  0.00     0.101 C 
HETATM    2  C7  UNL     1     -29.286 -12.574  -1.455  1.00  0.00     0.062 C 
HETATM    3  C8  UNL     1     -30.441 -13.102  -0.634  1.00  0.00     0.017 C 
HETATM    4  C9  UNL     1     -28.704 -11.547  -0.536  1.00  0.00     0.132 C 
HETATM    5  C10 UNL     1     -29.837 -10.537  -0.257  1.00  0.00     0.055 C 
HETATM    6  O6  UNL     1     -27.667 -10.794  -0.828  1.00  0.00    -0.358 OA
HETATM    7  C11 UNL     1     -26.403 -11.173  -0.588  1.00  0.00     0.099 C 
HETATM    8  C12 UNL     1     -25.848 -10.781   0.755  1.00  0.00     0.050 C 
HETATM    9  C13 UNL     1     -25.483 -10.632  -1.640  1.00  0.00     0.186 A 
HETATM   10  O7  UNL     1     -26.077  -9.621  -2.529  1.00  0.00    -0.372 OA
HETATM   11  C14 UNL     1     -25.862 -11.028  -2.930  1.00  0.00     0.155 A 
HETATM   12  C15 UNL     1     -27.060 -11.868  -3.020  1.00  0.00     0.048 C 
HETATM   13  C16 UNL     1     -27.026 -13.096  -2.035  1.00  0.00     0.006 C 
HETATM   14  C17 UNL     1     -25.859 -13.810  -2.658  1.00  0.00     0.019 C 
HETATM   15  C18 UNL     1     -26.459 -12.713  -0.709  1.00  0.00     0.112 C 
HETATM   16  C19 UNL     1     -27.212 -13.165   0.486  1.00  0.00     0.205 C 
HETATM   17  O8  UNL     1     -26.936 -14.125   1.229  1.00  0.00    -0.289 OA
HETATM   18  C20 UNL     1     -28.398 -12.314   0.729  1.00  0.00     0.229 C 
HETATM   19  O9  UNL     1     -29.009 -12.256   1.785  1.00  0.00    -0.286 OA
ENDROOT
BRANCH   1  20
HETATM   20  C5  UNL     1     -28.866 -14.982  -1.963  1.00  0.00     0.192 C 
BRANCH  20  21
HETATM   21  C2  UNL     1     -28.040 -16.187  -2.034  1.00  0.00     0.131 C 
BRANCH  21  22
HETATM   22  O1  UNL     1     -26.947 -16.231  -1.179  1.00  0.00    -0.378 OA
HETATM   23  C1  UNL     1     -26.907 -17.226  -0.249  1.00  0.00     0.202 C 
ENDBRANCH  21  22
BRANCH  21  24
HETATM   24  C3  UNL     1     -27.498 -16.515  -3.417  1.00  0.00     0.207 C 
BRANCH  24  25
HETATM   25  O2  UNL     1     -28.189 -17.690  -3.838  1.00  0.00    -0.398 OA
ATOM     26  H2  UNL     1     -28.495 -17.509  -4.719  1.00  0.00     0.209 HD
ENDBRANCH  24  25
ENDBRANCH  21  24
BRANCH  21  27
HETATM   27  C4  UNL     1     -28.828 -17.421  -1.661  1.00  0.00     0.207 C 
BRANCH  27  28
HETATM   28  O3  UNL     1     -30.174 -17.378  -1.662  1.00  0.00    -0.398 OA
ATOM     29  H3  UNL     1     -30.619 -16.574  -1.423  1.00  0.00     0.209 HD
ENDBRANCH  27  28
ENDBRANCH  21  27
ENDBRANCH  20  21
BRANCH  20  30
HETATM   30  O4  UNL     1     -29.562 -15.172  -3.209  1.00  0.00    -0.389 OA
ATOM     31  H4  UNL     1     -30.389 -15.455  -2.837  1.00  0.00     0.210 HD
ENDBRANCH  20  30
ENDBRANCH   1  20
BRANCH   1  32
HETATM   32  O5  UNL     1     -28.678 -13.444  -3.525  1.00  0.00    -0.386 OA
ATOM     33  H5  UNL     1     -27.945 -13.955  -3.847  1.00  0.00     0.210 HD
ENDBRANCH   1  32
TORSDOF 9
ENDMDL
