MODEL 1
REMARK VINA RESULT: -8.125357175      0.000      0.000
REMARK  8 active torsions:
REMARK  status: ('A' for Active; 'I' for Inactive)
REMARK    1  A    between atoms: C2_2  and  C3_3 
REMARK    2  A    between atoms: C2_2  and  O3_8 
REMARK    3  A    between atoms: C3_3  and  C4_4 
REMARK    4  A    between atoms: C4_4  and  C5_5 
REMARK    5  A    between atoms: O3_8  and  C6_9 
REMARK    6  A    between atoms: C6_9  and  C7_11 
REMARK    7  A    between atoms: C8_12  and  O5_13 
REMARK    8  A    between atoms: C19_31  and  O10_32 
ROOT
HETATM    1  C7  UNL     1     -27.726 -14.656  -2.480  1.00  0.00     0.154 C 
HETATM    2  C8  UNL     1     -27.446 -13.268  -3.081  1.00  0.00     0.166 C 
HETATM    3  C9  UNL     1     -27.998 -12.420  -1.958  1.00  0.00     0.188 C 
HETATM    4  O6  UNL     1     -27.765 -11.081  -2.052  1.00  0.00    -0.363 OA
HETATM    5  C10 UNL     1     -27.766 -10.551  -0.754  1.00  0.00     0.242 C 
HETATM    6  C11 UNL     1     -28.946 -10.989   0.044  1.00  0.00     0.193 C 
HETATM    7  O7  UNL     1     -29.944 -10.450  -0.409  1.00  0.00    -0.292 OA
HETATM    8  C12 UNL     1     -29.297 -11.853   1.192  1.00  0.00     0.119 C 
HETATM    9  C13 UNL     1     -30.746 -12.234   1.086  1.00  0.00     0.054 C 
HETATM   10  C14 UNL     1     -29.122 -11.113   2.512  1.00  0.00     0.054 C 
HETATM   11  O8  UNL     1     -28.473 -12.995   1.291  1.00  0.00    -0.341 OA
HETATM   12  C15 UNL     1     -28.520 -13.628   0.082  1.00  0.00     0.296 C 
HETATM   13  O9  UNL     1     -27.956 -14.880  -0.036  1.00  0.00    -0.344 OA
HETATM   14  C16 UNL     1     -27.138 -14.525  -1.114  1.00  0.00     0.108 C 
HETATM   15  C17 UNL     1     -25.688 -14.945  -0.978  1.00  0.00     0.050 C 
HETATM   16  C18 UNL     1     -27.405 -13.091  -0.768  1.00  0.00     0.139 C 
HETATM   17  N1  UNL     1     -26.386 -12.408  -0.085  1.00  0.00    -0.376 N 
ATOM     18  H1  UNL     1     -25.620 -12.894   0.381  1.00  0.00     0.157 HD
HETATM   19  C19 UNL     1     -26.497 -10.979  -0.090  1.00  0.00     0.251 C 
ENDROOT
BRANCH   1  20
HETATM   20  C6  UNL     1     -27.153 -15.734  -3.300  1.00  0.00     0.269 C 
HETATM   21  O4  UNL     1     -26.186 -15.461  -4.053  1.00  0.00    -0.265 OA
BRANCH  20  22
HETATM   22  O3  UNL     1     -27.608 -17.021  -3.294  1.00  0.00    -0.316 OA
BRANCH  22  23
HETATM   23  C2  UNL     1     -28.831 -17.473  -3.878  1.00  0.00     0.128 C 
HETATM   24  C1  UNL     1     -29.155 -16.697  -5.085  1.00  0.00     0.040 C 
BRANCH  23  25
HETATM   25  C3  UNL     1     -29.825 -17.712  -2.826  1.00  0.00     0.043 C 
BRANCH  25  26
HETATM   26  C4  UNL     1     -30.415 -19.043  -2.648  1.00  0.00     0.116 C 
BRANCH  26  27
HETATM   27  C5  UNL     1     -31.669 -19.379  -3.312  1.00  0.00     0.172 C 
HETATM   28  O1  UNL     1     -31.909 -19.315  -4.528  1.00  0.00    -0.648 OA
HETATM   29  O2  UNL     1     -32.757 -19.835  -2.521  1.00  0.00    -0.648 OA
ENDBRANCH  26  27
ENDBRANCH  25  26
ENDBRANCH  23  25
ENDBRANCH  22  23
ENDBRANCH  20  22
ENDBRANCH   1  20
BRANCH   2  30
HETATM   30  O5  UNL     1     -28.077 -13.076  -4.284  1.00  0.00    -0.392 OA
ATOM     31  H5  UNL     1     -27.526 -13.297  -5.026  1.00  0.00     0.210 HD
ENDBRANCH   2  30
BRANCH  19  32
HETATM   32  O10 UNL     1     -25.436 -10.353  -0.769  1.00  0.00    -0.374 OA
ATOM     33  H10 UNL     1     -25.140  -9.630  -0.228  1.00  0.00     0.212 HD
ENDBRANCH  19  32
TORSDOF 8
ENDMDL
MODEL 2
REMARK VINA RESULT: -7.999525458      3.009      5.287
REMARK  8 active torsions:
REMARK  status: ('A' for Active; 'I' for Inactive)
REMARK    1  A    between atoms: C2_2  and  C3_3 
REMARK    2  A    between atoms: C2_2  and  O3_8 
REMARK    3  A    between atoms: C3_3  and  C4_4 
REMARK    4  A    between atoms: C4_4  and  C5_5 
REMARK    5  A    between atoms: O3_8  and  C6_9 
REMARK    6  A    between atoms: C6_9  and  C7_11 
REMARK    7  A    between atoms: C8_12  and  O5_13 
REMARK    8  A    between atoms: C19_31  and  O10_32 
ROOT
HETATM    1  C7  UNL     1     -26.331 -14.578  -2.047  1.00  0.00     0.154 C 
HETATM    2  C8  UNL     1     -25.356 -14.035  -0.990  1.00  0.00     0.166 C 
HETATM    3  C9  UNL     1     -24.177 -13.753  -1.894  1.00  0.00     0.188 C 
HETATM    4  O6  UNL     1     -23.140 -13.077  -1.326  1.00  0.00    -0.363 OA
HETATM    5  C10 UNL     1     -22.467 -12.387  -2.345  1.00  0.00     0.242 C 
HETATM    6  C11 UNL     1     -22.163 -13.250  -3.520  1.00  0.00     0.193 C 
HETATM    7  O7  UNL     1     -21.302 -14.055  -3.200  1.00  0.00    -0.292 OA
HETATM    8  C12 UNL     1     -22.562 -13.448  -4.931  1.00  0.00     0.119 C 
HETATM    9  C13 UNL     1     -22.231 -14.856  -5.335  1.00  0.00     0.054 C 
HETATM   10  C14 UNL     1     -21.785 -12.520  -5.857  1.00  0.00     0.054 C 
HETATM   11  O8  UNL     1     -23.923 -13.154  -5.164  1.00  0.00    -0.341 OA
HETATM   12  C15 UNL     1     -24.648 -13.891  -4.271  1.00  0.00     0.296 C 
HETATM   13  O9  UNL     1     -26.019 -13.940  -4.408  1.00  0.00    -0.344 OA
HETATM   14  C16 UNL     1     -26.270 -13.519  -3.098  1.00  0.00     0.108 C 
HETATM   15  C17 UNL     1     -27.291 -12.407  -2.973  1.00  0.00     0.050 C 
HETATM   16  C18 UNL     1     -24.843 -13.064  -3.034  1.00  0.00     0.139 C 
HETATM   17  N1  UNL     1     -24.616 -11.685  -3.174  1.00  0.00    -0.376 N 
ATOM     18  H1  UNL     1     -25.320 -11.050  -3.551  1.00  0.00     0.157 HD
HETATM   19  C19 UNL     1     -23.324 -11.232  -2.750  1.00  0.00     0.251 C 
ENDROOT
BRANCH   1  20
HETATM   20  C6  UNL     1     -27.671 -14.817  -1.488  1.00  0.00     0.269 C 
HETATM   21  O4  UNL     1     -27.861 -14.570  -0.271  1.00  0.00    -0.265 OA
BRANCH  20  22
HETATM   22  O3  UNL     1     -28.726 -15.294  -2.210  1.00  0.00    -0.316 OA
BRANCH  22  23
HETATM   23  C2  UNL     1     -28.744 -16.518  -2.945  1.00  0.00     0.128 C 
HETATM   24  C1  UNL     1     -28.802 -16.260  -4.393  1.00  0.00     0.040 C 
BRANCH  23  25
HETATM   25  C3  UNL     1     -29.650 -17.474  -2.297  1.00  0.00     0.043 C 
BRANCH  25  26
HETATM   26  C4  UNL     1     -29.903 -18.786  -2.900  1.00  0.00     0.116 C 
BRANCH  26  27
HETATM   27  C5  UNL     1     -31.175 -19.051  -3.562  1.00  0.00     0.172 C 
HETATM   28  O1  UNL     1     -32.207 -19.503  -3.042  1.00  0.00    -0.648 OA
HETATM   29  O2  UNL     1     -31.289 -18.774  -4.951  1.00  0.00    -0.648 OA
ENDBRANCH  26  27
ENDBRANCH  25  26
ENDBRANCH  23  25
ENDBRANCH  22  23
ENDBRANCH  20  22
ENDBRANCH   1  20
BRANCH   2  30
HETATM   30  O5  UNL     1     -25.091 -14.944   0.002  1.00  0.00    -0.392 OA
ATOM     31  H5  UNL     1     -24.497 -15.631  -0.279  1.00  0.00     0.210 HD
ENDBRANCH   2  30
BRANCH  19  32
HETATM   32  O10 UNL     1     -23.388 -10.352  -1.655  1.00  0.00    -0.374 OA
ATOM     33  H10 UNL     1     -24.267  -9.990  -1.633  1.00  0.00     0.212 HD
ENDBRANCH  19  32
TORSDOF 8
ENDMDL
MODEL 3
REMARK VINA RESULT: -7.819776308      2.529      4.732
REMARK  8 active torsions:
REMARK  status: ('A' for Active; 'I' for Inactive)
REMARK    1  A    between atoms: C2_2  and  C3_3 
REMARK    2  A    between atoms: C2_2  and  O3_8 
REMARK    3  A    between atoms: C3_3  and  C4_4 
REMARK    4  A    between atoms: C4_4  and  C5_5 
REMARK    5  A    between atoms: O3_8  and  C6_9 
REMARK    6  A    between atoms: C6_9  and  C7_11 
REMARK    7  A    between atoms: C8_12  and  O5_13 
REMARK    8  A    between atoms: C19_31  and  O10_32 
ROOT
HETATM    1  C7  UNL     1     -27.249 -14.397  -1.901  1.00  0.00     0.154 C 
HETATM    2  C8  UNL     1     -26.556 -13.591  -0.790  1.00  0.00     0.166 C 
HETATM    3  C9  UNL     1     -25.258 -13.289  -1.505  1.00  0.00     0.188 C 
HETATM    4  O6  UNL     1     -24.424 -12.413  -0.880  1.00  0.00    -0.363 OA
HETATM    5  C10 UNL     1     -23.638 -11.792  -1.861  1.00  0.00     0.242 C 
HETATM    6  C11 UNL     1     -23.028 -12.765  -2.810  1.00  0.00     0.193 C 
HETATM    7  O7  UNL     1     -22.169 -13.401  -2.217  1.00  0.00    -0.292 OA
HETATM    8  C12 UNL     1     -23.123 -13.207  -4.218  1.00  0.00     0.119 C 
HETATM    9  C13 UNL     1     -22.581 -14.604  -4.325  1.00  0.00     0.054 C 
HETATM   10  C14 UNL     1     -22.278 -12.327  -5.130  1.00  0.00     0.054 C 
HETATM   11  O8  UNL     1     -24.436 -13.125  -4.731  1.00  0.00    -0.341 OA
HETATM   12  C15 UNL     1     -25.243 -13.818  -3.874  1.00  0.00     0.296 C 
HETATM   13  O9  UNL     1     -26.549 -14.060  -4.241  1.00  0.00    -0.344 OA
HETATM   14  C16 UNL     1     -27.091 -13.496  -3.081  1.00  0.00     0.108 C 
HETATM   15  C17 UNL     1     -28.222 -12.517  -3.319  1.00  0.00     0.050 C 
HETATM   16  C18 UNL     1     -25.756 -12.857  -2.841  1.00  0.00     0.139 C 
HETATM   17  N1  UNL     1     -25.644 -11.494  -3.159  1.00  0.00    -0.376 N 
ATOM     18  H1  UNL     1     -26.322 -11.013  -3.751  1.00  0.00     0.157 HD
HETATM   19  C19 UNL     1     -24.510 -10.824  -2.592  1.00  0.00     0.251 C 
ENDROOT
BRANCH   1  20
HETATM   20  C6  UNL     1     -28.641 -14.724  -1.555  1.00  0.00     0.269 C 
HETATM   21  O4  UNL     1     -29.104 -14.290  -0.472  1.00  0.00    -0.265 OA
BRANCH  20  22
HETATM   22  O3  UNL     1     -29.466 -15.475  -2.341  1.00  0.00    -0.316 OA
BRANCH  22  23
HETATM   23  C2  UNL     1     -29.130 -16.728  -2.941  1.00  0.00     0.128 C 
HETATM   24  C1  UNL     1     -29.097 -16.615  -4.408  1.00  0.00     0.040 C 
BRANCH  23  25
HETATM   25  C3  UNL     1     -29.855 -17.811  -2.268  1.00  0.00     0.043 C 
BRANCH  25  26
HETATM   26  C4  UNL     1     -30.180 -19.048  -2.986  1.00  0.00     0.116 C 
BRANCH  26  27
HETATM   27  C5  UNL     1     -31.546 -19.295  -3.431  1.00  0.00     0.172 C 
HETATM   28  O1  UNL     1     -32.494 -19.697  -2.739  1.00  0.00    -0.648 OA
HETATM   29  O2  UNL     1     -31.869 -19.062  -4.794  1.00  0.00    -0.648 OA
ENDBRANCH  26  27
ENDBRANCH  25  26
ENDBRANCH  23  25
ENDBRANCH  22  23
ENDBRANCH  20  22
ENDBRANCH   1  20
BRANCH   2  30
HETATM   30  O5  UNL     1     -26.399 -14.311   0.367  1.00  0.00    -0.392 OA
ATOM     31  H5  UNL     1     -27.195 -14.755   0.633  1.00  0.00     0.210 HD
ENDBRANCH   2  30
BRANCH  19  32
HETATM   32  O10 UNL     1     -24.873  -9.815  -1.682  1.00  0.00    -0.374 OA
ATOM     33  H10 UNL     1     -24.191  -9.154  -1.704  1.00  0.00     0.212 HD
ENDBRANCH  19  32
TORSDOF 8
ENDMDL
MODEL 4
REMARK VINA RESULT: -7.647548782      4.900      6.892
REMARK  8 active torsions:
REMARK  status: ('A' for Active; 'I' for Inactive)
REMARK    1  A    between atoms: C2_2  and  C3_3 
REMARK    2  A    between atoms: C2_2  and  O3_8 
REMARK    3  A    between atoms: C3_3  and  C4_4 
REMARK    4  A    between atoms: C4_4  and  C5_5 
REMARK    5  A    between atoms: O3_8  and  C6_9 
REMARK    6  A    between atoms: C6_9  and  C7_11 
REMARK    7  A    between atoms: C8_12  and  O5_13 
REMARK    8  A    between atoms: C19_31  and  O10_32 
ROOT
HETATM    1  C7  UNL     1     -24.352 -13.413  -4.217  1.00  0.00     0.154 C 
HETATM    2  C8  UNL     1     -23.395 -14.547  -4.620  1.00  0.00     0.166 C 
HETATM    3  C9  UNL     1     -22.159 -13.717  -4.884  1.00  0.00     0.188 C 
HETATM    4  O6  UNL     1     -21.010 -14.413  -5.106  1.00  0.00    -0.363 OA
HETATM    5  C10 UNL     1     -19.933 -13.598  -4.730  1.00  0.00     0.242 C 
HETATM    6  C11 UNL     1     -20.025 -12.225  -5.301  1.00  0.00     0.193 C 
HETATM    7  O7  UNL     1     -19.835 -12.290  -6.505  1.00  0.00    -0.292 OA
HETATM    8  C12 UNL     1     -20.269 -10.826  -4.888  1.00  0.00     0.119 C 
HETATM    9  C13 UNL     1     -20.756 -10.048  -6.076  1.00  0.00     0.054 C 
HETATM   10  C14 UNL     1     -18.985 -10.160  -4.411  1.00  0.00     0.054 C 
HETATM   11  O8  UNL     1     -21.168 -10.723  -3.804  1.00  0.00    -0.341 OA
HETATM   12  C15 UNL     1     -22.298 -11.405  -4.156  1.00  0.00     0.296 C 
HETATM   13  O9  UNL     1     -23.414 -11.303  -3.354  1.00  0.00    -0.344 OA
HETATM   14  C16 UNL     1     -23.552 -12.685  -3.188  1.00  0.00     0.108 C 
HETATM   15  C17 UNL     1     -23.754 -13.135  -1.755  1.00  0.00     0.050 C 
HETATM   16  C18 UNL     1     -22.147 -12.825  -3.691  1.00  0.00     0.139 C 
HETATM   17  N1  UNL     1     -21.152 -13.054  -2.727  1.00  0.00    -0.376 N 
ATOM     18  H1  UNL     1     -21.306 -12.884  -1.732  1.00  0.00     0.157 HD
HETATM   19  C19 UNL     1     -19.906 -13.545  -3.237  1.00  0.00     0.251 C 
ENDROOT
BRANCH   1  20
HETATM   20  C6  UNL     1     -25.646 -13.928  -3.744  1.00  0.00     0.269 C 
HETATM   21  O4  UNL     1     -26.603 -13.123  -3.632  1.00  0.00    -0.265 OA
BRANCH  20  22
HETATM   22  O3  UNL     1     -25.873 -15.233  -3.415  1.00  0.00    -0.316 OA
BRANCH  22  23
HETATM   23  C2  UNL     1     -27.084 -15.752  -2.863  1.00  0.00     0.128 C 
HETATM   24  C1  UNL     1     -26.920 -16.059  -1.433  1.00  0.00     0.040 C 
BRANCH  23  25
HETATM   25  C3  UNL     1     -27.681 -16.717  -3.794  1.00  0.00     0.043 C 
BRANCH  25  26
HETATM   26  C4  UNL     1     -28.889 -17.460  -3.423  1.00  0.00     0.116 C 
BRANCH  26  27
HETATM   27  C5  UNL     1     -29.859 -17.832  -4.447  1.00  0.00     0.172 C 
HETATM   28  O1  UNL     1     -30.214 -17.150  -5.421  1.00  0.00    -0.648 OA
HETATM   29  O2  UNL     1     -30.486 -19.103  -4.359  1.00  0.00    -0.648 OA
ENDBRANCH  26  27
ENDBRANCH  25  26
ENDBRANCH  23  25
ENDBRANCH  22  23
ENDBRANCH  20  22
ENDBRANCH   1  20
BRANCH   2  30
HETATM   30  O5  UNL     1     -23.837 -15.249  -5.712  1.00  0.00    -0.392 OA
ATOM     31  H5  UNL     1     -24.156 -16.115  -5.487  1.00  0.00     0.210 HD
ENDBRANCH   2  30
BRANCH  19  32
HETATM   32  O10 UNL     1     -19.600 -14.838  -2.776  1.00  0.00    -0.374 OA
ATOM     33  H10 UNL     1     -19.317 -14.757  -1.872  1.00  0.00     0.212 HD
ENDBRANCH  19  32
TORSDOF 8
ENDMDL
MODEL 5
REMARK VINA RESULT: -7.643765227      2.963      4.546
REMARK  8 active torsions:
REMARK  status: ('A' for Active; 'I' for Inactive)
REMARK    1  A    between atoms: C2_2  and  C3_3 
REMARK    2  A    between atoms: C2_2  and  O3_8 
REMARK    3  A    between atoms: C3_3  and  C4_4 
REMARK    4  A    between atoms: C4_4  and  C5_5 
REMARK    5  A    between atoms: O3_8  and  C6_9 
REMARK    6  A    between atoms: C6_9  and  C7_11 
REMARK    7  A    between atoms: C8_12  and  O5_13 
REMARK    8  A    between atoms: C19_31  and  O10_32 
ROOT
HETATM    1  C7  UNL     1     -28.612 -15.818  -0.711  1.00  0.00     0.154 C 
HETATM    2  C8  UNL     1     -28.482 -14.695   0.331  1.00  0.00     0.166 C 
HETATM    3  C9  UNL     1     -27.669 -15.440   1.366  1.00  0.00     0.188 C 
HETATM    4  O6  UNL     1     -27.193 -14.692   2.399  1.00  0.00    -0.363 OA
HETATM    5  C10 UNL     1     -26.035 -15.317   2.885  1.00  0.00     0.242 C 
HETATM    6  C11 UNL     1     -26.225 -16.775   3.122  1.00  0.00     0.193 C 
HETATM    7  O7  UNL     1     -26.966 -16.920   4.082  1.00  0.00    -0.292 OA
HETATM    8  C12 UNL     1     -25.814 -18.088   2.579  1.00  0.00     0.119 C 
HETATM    9  C13 UNL     1     -26.830 -19.118   2.982  1.00  0.00     0.054 C 
HETATM   10  C14 UNL     1     -24.475 -18.528   3.157  1.00  0.00     0.054 C 
HETATM   11  O8  UNL     1     -25.629 -18.070   1.180  1.00  0.00    -0.341 OA
HETATM   12  C15 UNL     1     -26.779 -17.575   0.632  1.00  0.00     0.296 C 
HETATM   13  O9  UNL     1     -26.941 -17.630  -0.736  1.00  0.00    -0.344 OA
HETATM   14  C16 UNL     1     -27.195 -16.261  -0.867  1.00  0.00     0.108 C 
HETATM   15  C17 UNL     1     -26.404 -15.570  -1.960  1.00  0.00     0.050 C 
HETATM   16  C18 UNL     1     -26.633 -16.086   0.512  1.00  0.00     0.139 C 
HETATM   17  N1  UNL     1     -25.324 -15.586   0.600  1.00  0.00    -0.376 N 
ATOM     18  H1  UNL     1     -24.687 -15.580  -0.196  1.00  0.00     0.157 HD
HETATM   19  C19 UNL     1     -24.946 -15.085   1.889  1.00  0.00     0.251 C 
ENDROOT
BRANCH   1  20
HETATM   20  C6  UNL     1     -29.252 -15.348  -1.949  1.00  0.00     0.269 C 
HETATM   21  O4  UNL     1     -29.324 -14.110  -2.150  1.00  0.00    -0.265 OA
BRANCH  20  22
HETATM   22  O3  UNL     1     -29.778 -16.175  -2.899  1.00  0.00    -0.316 OA
BRANCH  22  23
HETATM   23  C2  UNL     1     -29.032 -17.064  -3.731  1.00  0.00     0.128 C 
HETATM   24  C1  UNL     1     -29.072 -16.626  -5.136  1.00  0.00     0.040 C 
BRANCH  23  25
HETATM   25  C3  UNL     1     -29.312 -18.454  -3.350  1.00  0.00     0.043 C 
BRANCH  25  26
HETATM   26  C4  UNL     1     -30.518 -18.788  -2.587  1.00  0.00     0.116 C 
BRANCH  26  27
HETATM   27  C5  UNL     1     -31.692 -19.315  -3.273  1.00  0.00     0.172 C 
HETATM   28  O1  UNL     1     -31.894 -19.334  -4.498  1.00  0.00    -0.648 OA
HETATM   29  O2  UNL     1     -32.739 -19.876  -2.495  1.00  0.00    -0.648 OA
ENDBRANCH  26  27
ENDBRANCH  25  26
ENDBRANCH  23  25
ENDBRANCH  22  23
ENDBRANCH  20  22
ENDBRANCH   1  20
BRANCH   2  30
HETATM   30  O5  UNL     1     -29.698 -14.256   0.790  1.00  0.00    -0.392 OA
ATOM     31  H5  UNL     1     -29.919 -13.389   0.470  1.00  0.00     0.210 HD
ENDBRANCH   2  30
BRANCH  19  32
HETATM   32  O10 UNL     1     -24.673 -13.706   1.877  1.00  0.00    -0.374 OA
ATOM     33  H10 UNL     1     -25.444 -13.261   2.209  1.00  0.00     0.212 HD
ENDBRANCH  19  32
TORSDOF 8
ENDMDL
