MODEL 1
REMARK VINA RESULT: -7.944607539      0.000      0.000
REMARK  9 active torsions:
REMARK  status: ('A' for Active; 'I' for Inactive)
REMARK    1  A    between atoms: C2_4  and  O3_5 
REMARK    2  A    between atoms: O3_5  and  C3_6 
REMARK    3  A    between atoms: C3_6  and  C4_7 
REMARK    4  A    between atoms: C5_8  and  O4_9 
REMARK    5  A    between atoms: C12_21  and  O5_22 
REMARK    6  A    between atoms: C13_24  and  O6_25 
REMARK    7  A    between atoms: C14_27  and  O7_28 
REMARK    8  A    between atoms: O7_28  and  C15_29 
REMARK    9  A    between atoms: C15_29  and  C16_30 
ROOT
HETATM    1  O1  UNL     1     -26.167 -15.565  -1.056  1.00  0.00    -0.262 OA
HETATM    2  C1  UNL     1     -26.452 -14.414  -1.446  1.00  0.00     0.293 C 
HETATM    3  O2  UNL     1     -25.481 -13.639  -2.037  1.00  0.00    -0.285 OA
HETATM    4  C2  UNL     1     -25.805 -12.812  -3.152  1.00  0.00     0.300 C 
HETATM    5  C12 UNL     1     -27.209 -12.302  -3.117  1.00  0.00     0.205 C 
HETATM    6  C13 UNL     1     -27.856 -12.415  -1.738  1.00  0.00     0.190 C 
HETATM    7  C14 UNL     1     -27.804 -13.884  -1.282  1.00  0.00     0.252 C 
ENDROOT
BRANCH   4   8
HETATM    8  O3  UNL     1     -24.947 -11.717  -3.214  1.00  0.00    -0.357 OA
BRANCH   8   9
HETATM    9  C3  UNL     1     -23.663 -12.170  -3.436  1.00  0.00     0.180 C 
BRANCH   9  10
HETATM   10  C4  UNL     1     -23.477 -13.031  -4.629  1.00  0.00     0.078 C 
HETATM   11  C5  UNL     1     -22.314 -13.995  -4.261  1.00  0.00     0.162 C 
HETATM   12  C6  UNL     1     -21.237 -13.172  -4.787  1.00  0.00     0.281 C 
HETATM   13  C7  UNL     1     -19.919 -13.702  -5.154  1.00  0.00     0.273 C 
HETATM   14  N2  UNL     1     -21.768 -12.985  -6.163  1.00  0.00     0.140 N 
HETATM   15  N1  UNL     1     -19.514 -12.648  -6.115  1.00  0.00    -0.038 N 
HETATM   16  C8  UNL     1     -20.754 -12.083  -6.632  1.00  0.00     0.444 C 
ATOM     17  H12 UNL     1     -18.884 -11.952  -5.715  1.00  0.00     0.280 HD
ATOM     18  H11 UNL     1     -18.882 -12.981  -6.843  1.00  0.00     0.280 HD
HETATM   19  C9  UNL     1     -21.153 -10.819  -5.942  1.00  0.00     0.036 C 
HETATM   20  C10 UNL     1     -22.401 -10.931  -5.499  1.00  0.00     0.009 C 
HETATM   21  C11 UNL     1     -22.950 -12.251  -5.839  1.00  0.00     0.258 C 
BRANCH  11  22
HETATM   22  O4  UNL     1     -22.551 -15.143  -5.026  1.00  0.00    -0.393 OA
ATOM     23  H4  UNL     1     -21.849 -15.737  -4.789  1.00  0.00     0.210 HD
ENDBRANCH  11  22
ENDBRANCH   9  10
ENDBRANCH   8   9
ENDBRANCH   4   8
BRANCH   5  24
HETATM   24  O5  UNL     1     -28.002 -12.974  -4.038  1.00  0.00    -0.388 OA
ATOM     25  H5  UNL     1     -27.497 -13.218  -4.804  1.00  0.00     0.210 HD
ENDBRANCH   5  24
BRANCH   6  26
HETATM   26  O6  UNL     1     -29.179 -12.005  -1.896  1.00  0.00    -0.390 OA
ATOM     27  H6  UNL     1     -29.599 -12.135  -1.053  1.00  0.00     0.210 HD
ENDBRANCH   6  26
BRANCH   7  28
HETATM   28  O7  UNL     1     -28.781 -14.553  -1.973  1.00  0.00    -0.369 OA
BRANCH  28  29
HETATM   29  C15 UNL     1     -29.107 -15.785  -1.418  1.00  0.00     0.207 C 
BRANCH  29  30
HETATM   30  C16 UNL     1     -29.324 -16.739  -2.538  1.00  0.00    -0.035 A 
HETATM   31  C17 UNL     1     -28.935 -16.438  -3.838  1.00  0.00     0.009 A 
HETATM   32  C18 UNL     1     -29.117 -17.288  -4.894  1.00  0.00     0.001 A 
HETATM   33  C19 UNL     1     -29.714 -18.509  -4.676  1.00  0.00     0.000 A 
HETATM   34  C20 UNL     1     -30.120 -18.854  -3.395  1.00  0.00     0.001 A 
HETATM   35  C21 UNL     1     -29.920 -17.970  -2.352  1.00  0.00     0.009 A 
ENDBRANCH  29  30
ENDBRANCH  28  29
ENDBRANCH   7  28
TORSDOF 9
ENDMDL
MODEL 2
REMARK VINA RESULT: -7.786483668      4.786      6.424
REMARK  9 active torsions:
REMARK  status: ('A' for Active; 'I' for Inactive)
REMARK    1  A    between atoms: C2_4  and  O3_5 
REMARK    2  A    between atoms: O3_5  and  C3_6 
REMARK    3  A    between atoms: C3_6  and  C4_7 
REMARK    4  A    between atoms: C5_8  and  O4_9 
REMARK    5  A    between atoms: C12_21  and  O5_22 
REMARK    6  A    between atoms: C13_24  and  O6_25 
REMARK    7  A    between atoms: C14_27  and  O7_28 
REMARK    8  A    between atoms: O7_28  and  C15_29 
REMARK    9  A    between atoms: C15_29  and  C16_30 
ROOT
HETATM    1  O1  UNL     1     -27.601 -12.092  -3.611  1.00  0.00    -0.262 OA
HETATM    2  C1  UNL     1     -28.083 -12.345  -2.488  1.00  0.00     0.293 C 
HETATM    3  O2  UNL     1     -28.538 -11.316  -1.698  1.00  0.00    -0.285 OA
HETATM    4  C2  UNL     1     -29.727 -11.476  -0.927  1.00  0.00     0.300 C 
HETATM    5  C12 UNL     1     -29.948 -12.883  -0.473  1.00  0.00     0.205 C 
HETATM    6  C13 UNL     1     -28.691 -13.747  -0.559  1.00  0.00     0.190 C 
HETATM    7  C14 UNL     1     -28.169 -13.723  -2.006  1.00  0.00     0.252 C 
ENDROOT
BRANCH   4   8
HETATM    8  O3  UNL     1     -29.694 -10.657   0.198  1.00  0.00    -0.357 OA
BRANCH   8   9
HETATM    9  C3  UNL     1     -28.399 -10.223   0.394  1.00  0.00     0.180 C 
BRANCH   9  10
HETATM   10  C4  UNL     1     -28.252  -8.878   1.002  1.00  0.00     0.078 C 
HETATM   11  C5  UNL     1     -29.030  -7.916   0.060  1.00  0.00     0.162 C 
HETATM   12  C6  UNL     1     -27.905  -7.565  -0.792  1.00  0.00     0.281 C 
HETATM   13  C7  UNL     1     -27.861  -6.352  -1.615  1.00  0.00     0.273 C 
HETATM   14  N2  UNL     1     -26.966  -7.121   0.271  1.00  0.00     0.140 N 
HETATM   15  N1  UNL     1     -26.390  -6.221  -1.743  1.00  0.00    -0.038 N 
HETATM   16  C8  UNL     1     -25.829  -6.884  -0.573  1.00  0.00     0.444 C 
ATOM     17  H12 UNL     1     -26.025  -6.575  -2.627  1.00  0.00     0.280 HD
ATOM     18  H11 UNL     1     -26.075  -5.258  -1.856  1.00  0.00     0.280 HD
HETATM   19  C9  UNL     1     -25.384  -8.284  -0.852  1.00  0.00     0.036 C 
HETATM   20  C10 UNL     1     -25.947  -9.111   0.022  1.00  0.00     0.009 C 
HETATM   21  C11 UNL     1     -26.808  -8.366   0.952  1.00  0.00     0.258 C 
BRANCH  11  22
HETATM   22  O4  UNL     1     -29.439  -6.865   0.888  1.00  0.00    -0.393 OA
ATOM     23  H4  UNL     1     -28.782  -6.829   1.573  1.00  0.00     0.210 HD
ENDBRANCH  11  22
ENDBRANCH   9  10
ENDBRANCH   8   9
ENDBRANCH   4   8
BRANCH   5  24
HETATM   24  O5  UNL     1     -30.957 -13.488  -1.211  1.00  0.00    -0.388 OA
ATOM     25  H5  UNL     1     -30.883 -13.264  -2.131  1.00  0.00     0.210 HD
ENDBRANCH   5  24
BRANCH   6  26
HETATM   26  O6  UNL     1     -29.084 -15.038  -0.209  1.00  0.00    -0.390 OA
ATOM     27  H6  UNL     1     -29.409 -14.983   0.682  1.00  0.00     0.210 HD
ENDBRANCH   6  26
BRANCH   7  28
HETATM   28  O7  UNL     1     -28.982 -14.548  -2.740  1.00  0.00    -0.369 OA
BRANCH  28  29
HETATM   29  C15 UNL     1     -28.284 -15.448  -3.537  1.00  0.00     0.207 C 
BRANCH  29  30
HETATM   30  C16 UNL     1     -29.124 -16.666  -3.681  1.00  0.00    -0.035 A 
HETATM   31  C17 UNL     1     -29.484 -17.438  -2.583  1.00  0.00     0.009 A 
HETATM   32  C18 UNL     1     -30.255 -18.564  -2.675  1.00  0.00     0.001 A 
HETATM   33  C19 UNL     1     -30.706 -18.968  -3.911  1.00  0.00     0.000 A 
HETATM   34  C20 UNL     1     -30.372 -18.230  -5.037  1.00  0.00     0.001 A 
HETATM   35  C21 UNL     1     -29.591 -17.098  -4.907  1.00  0.00     0.009 A 
ENDBRANCH  29  30
ENDBRANCH  28  29
ENDBRANCH   7  28
TORSDOF 9
ENDMDL
MODEL 3
REMARK VINA RESULT: -7.709690481      1.868      2.979
REMARK  9 active torsions:
REMARK  status: ('A' for Active; 'I' for Inactive)
REMARK    1  A    between atoms: C2_4  and  O3_5 
REMARK    2  A    between atoms: O3_5  and  C3_6 
REMARK    3  A    between atoms: C3_6  and  C4_7 
REMARK    4  A    between atoms: C5_8  and  O4_9 
REMARK    5  A    between atoms: C12_21  and  O5_22 
REMARK    6  A    between atoms: C13_24  and  O6_25 
REMARK    7  A    between atoms: C14_27  and  O7_28 
REMARK    8  A    between atoms: O7_28  and  C15_29 
REMARK    9  A    between atoms: C15_29  and  C16_30 
ROOT
HETATM    1  O1  UNL     1     -25.015 -14.848  -0.149  1.00  0.00    -0.262 OA
HETATM    2  C1  UNL     1     -25.059 -14.326  -1.282  1.00  0.00     0.293 C 
HETATM    3  O2  UNL     1     -23.973 -13.623  -1.747  1.00  0.00    -0.285 OA
HETATM    4  C2  UNL     1     -23.584 -13.726  -3.115  1.00  0.00     0.300 C 
HETATM    5  C12 UNL     1     -24.737 -13.961  -4.037  1.00  0.00     0.205 C 
HETATM    6  C13 UNL     1     -26.089 -13.632  -3.406  1.00  0.00     0.190 C 
HETATM    7  C14 UNL     1     -26.251 -14.458  -2.118  1.00  0.00     0.252 C 
ENDROOT
BRANCH   4   8
HETATM    8  O3  UNL     1     -22.929 -12.569  -3.526  1.00  0.00    -0.357 OA
BRANCH   8   9
HETATM    9  C3  UNL     1     -21.606 -12.872  -3.775  1.00  0.00     0.180 C 
BRANCH   9  10
HETATM   10  C4  UNL     1     -20.618 -11.844  -3.364  1.00  0.00     0.078 C 
HETATM   11  C5  UNL     1     -21.331 -10.481  -3.582  1.00  0.00     0.162 C 
HETATM   12  C6  UNL     1     -20.871 -10.262  -4.944  1.00  0.00     0.281 C 
HETATM   13  C7  UNL     1     -20.826  -8.942  -5.581  1.00  0.00     0.273 C 
HETATM   14  N2  UNL     1     -19.413 -10.417  -4.700  1.00  0.00     0.140 N 
HETATM   15  N1  UNL     1     -19.792  -9.223  -6.604  1.00  0.00    -0.038 N 
HETATM   16  C8  UNL     1     -18.985 -10.310  -6.066  1.00  0.00     0.444 C 
ATOM     17  H12 UNL     1     -20.175  -9.418  -7.530  1.00  0.00     0.280 HD
ATOM     18  H11 UNL     1     -19.246  -8.402  -6.869  1.00  0.00     0.280 HD
HETATM   19  C9  UNL     1     -19.381 -11.650  -6.597  1.00  0.00     0.036 C 
HETATM   20  C10 UNL     1     -19.616 -12.477  -5.583  1.00  0.00     0.009 C 
HETATM   21  C11 UNL     1     -19.406 -11.789  -4.301  1.00  0.00     0.258 C 
BRANCH  11  22
HETATM   22  O4  UNL     1     -20.734  -9.617  -2.657  1.00  0.00    -0.393 OA
ATOM     23  H4  UNL     1     -20.982  -8.747  -2.946  1.00  0.00     0.210 HD
ENDBRANCH  11  22
ENDBRANCH   9  10
ENDBRANCH   8   9
ENDBRANCH   4   8
BRANCH   5  24
HETATM   24  O5  UNL     1     -24.758 -15.278  -4.476  1.00  0.00    -0.388 OA
ATOM     25  H5  UNL     1     -24.060 -15.438  -5.099  1.00  0.00     0.210 HD
ENDBRANCH   5  24
BRANCH   6  26
HETATM   26  O6  UNL     1     -27.054 -14.002  -4.342  1.00  0.00    -0.390 OA
ATOM     27  H6  UNL     1     -27.872 -13.625  -4.041  1.00  0.00     0.210 HD
ENDBRANCH   6  26
BRANCH   7  28
HETATM   28  O7  UNL     1     -26.560 -15.738  -2.498  1.00  0.00    -0.369 OA
BRANCH  28  29
HETATM   29  C15 UNL     1     -27.539 -16.330  -1.709  1.00  0.00     0.207 C 
BRANCH  29  30
HETATM   30  C16 UNL     1     -28.421 -17.122  -2.607  1.00  0.00    -0.035 A 
HETATM   31  C17 UNL     1     -29.460 -17.899  -2.109  1.00  0.00     0.009 A 
HETATM   32  C18 UNL     1     -30.292 -18.641  -2.902  1.00  0.00     0.001 A 
HETATM   33  C19 UNL     1     -30.105 -18.628  -4.266  1.00  0.00     0.000 A 
HETATM   34  C20 UNL     1     -29.080 -17.868  -4.810  1.00  0.00     0.001 A 
HETATM   35  C21 UNL     1     -28.259 -17.131  -3.978  1.00  0.00     0.009 A 
ENDBRANCH  29  30
ENDBRANCH  28  29
ENDBRANCH   7  28
TORSDOF 9
ENDMDL
MODEL 4
REMARK VINA RESULT: -7.687987827      4.432      6.576
REMARK  9 active torsions:
REMARK  status: ('A' for Active; 'I' for Inactive)
REMARK    1  A    between atoms: C2_4  and  O3_5 
REMARK    2  A    between atoms: O3_5  and  C3_6 
REMARK    3  A    between atoms: C3_6  and  C4_7 
REMARK    4  A    between atoms: C5_8  and  O4_9 
REMARK    5  A    between atoms: C12_21  and  O5_22 
REMARK    6  A    between atoms: C13_24  and  O6_25 
REMARK    7  A    between atoms: C14_27  and  O7_28 
REMARK    8  A    between atoms: O7_28  and  C15_29 
REMARK    9  A    between atoms: C15_29  and  C16_30 
ROOT
HETATM    1  O1  UNL     1     -25.464 -15.663  -4.330  1.00  0.00    -0.262 OA
HETATM    2  C1  UNL     1     -26.266 -15.090  -3.565  1.00  0.00     0.293 C 
HETATM    3  O2  UNL     1     -25.924 -13.882  -3.004  1.00  0.00    -0.285 OA
HETATM    4  C2  UNL     1     -26.900 -12.854  -2.866  1.00  0.00     0.300 C 
HETATM    5  C12 UNL     1     -28.282 -13.380  -2.649  1.00  0.00     0.205 C 
HETATM    6  C13 UNL     1     -28.306 -14.844  -2.211  1.00  0.00     0.190 C 
HETATM    7  C14 UNL     1     -27.565 -15.690  -3.261  1.00  0.00     0.252 C 
ENDROOT
BRANCH   4   8
HETATM    8  O3  UNL     1     -26.583 -12.017  -1.799  1.00  0.00    -0.357 OA
BRANCH   8   9
HETATM    9  C3  UNL     1     -27.749 -11.472  -1.301  1.00  0.00     0.180 C 
BRANCH   9  10
HETATM   10  C4  UNL     1     -27.788 -11.258   0.167  1.00  0.00     0.078 C 
HETATM   11  C5  UNL     1     -27.235 -12.572   0.786  1.00  0.00     0.162 C 
HETATM   12  C6  UNL     1     -28.515 -13.245   0.932  1.00  0.00     0.281 C 
HETATM   13  C7  UNL     1     -28.746 -14.354   1.863  1.00  0.00     0.273 C 
HETATM   14  N2  UNL     1     -29.223 -12.187   1.701  1.00  0.00     0.140 N 
HETATM   15  N1  UNL     1     -30.213 -14.215   2.018  1.00  0.00    -0.038 N 
HETATM   16  C8  UNL     1     -30.512 -12.817   1.739  1.00  0.00     0.444 C 
ATOM     17  H12 UNL     1     -30.747 -14.869   1.445  1.00  0.00     0.280 HD
ATOM     18  H11 UNL     1     -30.560 -14.534   2.923  1.00  0.00     0.280 HD
HETATM   19  C9  UNL     1     -30.984 -12.588   0.340  1.00  0.00     0.036 C 
HETATM   20  C10 UNL     1     -30.241 -11.646  -0.231  1.00  0.00     0.009 C 
HETATM   21  C11 UNL     1     -29.219 -11.161   0.707  1.00  0.00     0.258 C 
BRANCH  11  22
HETATM   22  O4  UNL     1     -26.680 -12.180   2.009  1.00  0.00    -0.393 OA
ATOM     23  H4  UNL     1     -26.734 -12.955   2.556  1.00  0.00     0.210 HD
ENDBRANCH  11  22
ENDBRANCH   9  10
ENDBRANCH   8   9
ENDBRANCH   4   8
BRANCH   5  24
HETATM   24  O5  UNL     1     -29.049 -13.247  -3.800  1.00  0.00    -0.388 OA
ATOM     25  H5  UNL     1     -29.563 -14.030  -3.956  1.00  0.00     0.210 HD
ENDBRANCH   5  24
BRANCH   6  26
HETATM   26  O6  UNL     1     -29.650 -15.210  -2.157  1.00  0.00    -0.390 OA
ATOM     27  H6  UNL     1     -30.044 -14.674  -1.479  1.00  0.00     0.210 HD
ENDBRANCH   6  26
BRANCH   7  28
HETATM   28  O7  UNL     1     -28.409 -15.830  -4.332  1.00  0.00    -0.369 OA
BRANCH  28  29
HETATM   29  C15 UNL     1     -28.370 -17.095  -4.906  1.00  0.00     0.207 C 
BRANCH  29  30
HETATM   30  C16 UNL     1     -29.508 -17.875  -4.350  1.00  0.00    -0.035 A 
HETATM   31  C17 UNL     1     -29.520 -18.305  -3.029  1.00  0.00     0.009 A 
HETATM   32  C18 UNL     1     -30.547 -19.024  -2.481  1.00  0.00     0.001 A 
HETATM   33  C19 UNL     1     -31.632 -19.346  -3.264  1.00  0.00     0.000 A 
HETATM   34  C20 UNL     1     -31.665 -18.938  -4.590  1.00  0.00     0.001 A 
HETATM   35  C21 UNL     1     -30.610 -18.214  -5.110  1.00  0.00     0.009 A 
ENDBRANCH  29  30
ENDBRANCH  28  29
ENDBRANCH   7  28
TORSDOF 9
ENDMDL
MODEL 5
REMARK VINA RESULT: -7.652341422      3.171      8.482
REMARK  9 active torsions:
REMARK  status: ('A' for Active; 'I' for Inactive)
REMARK    1  A    between atoms: C2_4  and  O3_5 
REMARK    2  A    between atoms: O3_5  and  C3_6 
REMARK    3  A    between atoms: C3_6  and  C4_7 
REMARK    4  A    between atoms: C5_8  and  O4_9 
REMARK    5  A    between atoms: C12_21  and  O5_22 
REMARK    6  A    between atoms: C13_24  and  O6_25 
REMARK    7  A    between atoms: C14_27  and  O7_28 
REMARK    8  A    between atoms: O7_28  and  C15_29 
REMARK    9  A    between atoms: C15_29  and  C16_30 
ROOT
HETATM    1  O1  UNL     1     -26.473 -10.104  -2.918  1.00  0.00    -0.262 OA
HETATM    2  C1  UNL     1     -26.099 -11.283  -2.753  1.00  0.00     0.293 C 
HETATM    3  O2  UNL     1     -27.035 -12.266  -2.529  1.00  0.00    -0.285 OA
HETATM    4  C2  UNL     1     -26.877 -13.553  -3.121  1.00  0.00     0.300 C 
HETATM    5  C12 UNL     1     -25.446 -13.949  -3.294  1.00  0.00     0.205 C 
HETATM    6  C13 UNL     1     -24.485 -13.115  -2.448  1.00  0.00     0.190 C 
HETATM    7  C14 UNL     1     -24.679 -11.628  -2.794  1.00  0.00     0.252 C 
ENDROOT
BRANCH   4   8
HETATM    8  O3  UNL     1     -27.506 -14.526  -2.350  1.00  0.00    -0.357 OA
BRANCH   8   9
HETATM    9  C3  UNL     1     -28.419 -15.196  -3.139  1.00  0.00     0.180 C 
BRANCH   9  10
HETATM   10  C4  UNL     1     -27.971 -16.503  -3.680  1.00  0.00     0.078 C 
HETATM   11  C5  UNL     1     -28.728 -16.668  -5.027  1.00  0.00     0.162 C 
HETATM   12  C6  UNL     1     -29.879 -17.376  -4.492  1.00  0.00     0.281 C 
HETATM   13  C7  UNL     1     -30.766 -18.214  -5.306  1.00  0.00     0.273 C 
HETATM   14  N2  UNL     1     -29.149 -18.471  -3.800  1.00  0.00     0.140 N 
HETATM   15  N1  UNL     1     -31.301 -19.083  -4.233  1.00  0.00    -0.038 N 
HETATM   16  C8  UNL     1     -30.288 -19.094  -3.186  1.00  0.00     0.444 C 
ATOM     17  H12 UNL     1     -32.225 -18.802  -3.903  1.00  0.00     0.280 HD
ATOM     18  H11 UNL     1     -31.565 -20.015  -4.555  1.00  0.00     0.280 HD
HETATM   19  C9  UNL     1     -30.579 -18.132  -2.080  1.00  0.00     0.036 C 
HETATM   20  C10 UNL     1     -29.528 -17.341  -1.891  1.00  0.00     0.009 C 
HETATM   21  C11 UNL     1     -28.452 -17.685  -2.831  1.00  0.00     0.258 C 
BRANCH  11  22
HETATM   22  O4  UNL     1     -27.896 -17.483  -5.803  1.00  0.00    -0.393 OA
ATOM     23  H4  UNL     1     -28.473 -18.150  -6.154  1.00  0.00     0.210 HD
ENDBRANCH  11  22
ENDBRANCH   9  10
ENDBRANCH   8   9
ENDBRANCH   4   8
BRANCH   5  24
HETATM   24  O5  UNL     1     -25.065 -13.855  -4.626  1.00  0.00    -0.388 OA
ATOM     25  H5  UNL     1     -24.299 -13.301  -4.720  1.00  0.00     0.210 HD
ENDBRANCH   5  24
BRANCH   6  26
HETATM   26  O6  UNL     1     -23.201 -13.529  -2.799  1.00  0.00    -0.390 OA
ATOM     27  H6  UNL     1     -22.664 -13.411  -2.024  1.00  0.00     0.210 HD
ENDBRANCH   6  26
BRANCH   7  28
HETATM   28  O7  UNL     1     -24.061 -11.413  -3.999  1.00  0.00    -0.369 OA
BRANCH  28  29
HETATM   29  C15 UNL     1     -23.274 -10.267  -4.021  1.00  0.00     0.207 C 
BRANCH  29  30
HETATM   30  C16 UNL     1     -22.119 -10.533  -4.919  1.00  0.00    -0.035 A 
HETATM   31  C17 UNL     1     -22.056 -11.675  -5.709  1.00  0.00     0.009 A 
HETATM   32  C18 UNL     1     -21.012 -11.954  -6.547  1.00  0.00     0.001 A 
HETATM   33  C19 UNL     1     -19.961 -11.068  -6.626  1.00  0.00     0.000 A 
HETATM   34  C20 UNL     1     -19.979  -9.914  -5.857  1.00  0.00     0.001 A 
HETATM   35  C21 UNL     1     -21.050  -9.665  -5.020  1.00  0.00     0.009 A 
ENDBRANCH  29  30
ENDBRANCH  28  29
ENDBRANCH   7  28
TORSDOF 9
ENDMDL
