MODEL 1
REMARK VINA RESULT: -5.950609543      0.000      0.000
REMARK  2 active torsions:
REMARK  status: ('A' for Active; 'I' for Inactive)
REMARK    1  A    between atoms: C2_2  and  O2_4 
REMARK    2  A    between atoms: O2_4  and  C3_5 
ROOT
HETATM    1  C3  UNL     1     -12.498  -4.859  26.006  1.00  0.00     0.140 C 
HETATM    2  C4  UNL     1     -11.671  -3.644  25.789  1.00  0.00     0.036 C 
HETATM    3  C5  UNL     1     -12.153  -2.351  26.443  1.00  0.00     0.035 C 
HETATM    4  C6  UNL     1     -13.157  -2.860  27.438  1.00  0.00     0.128 C 
HETATM    5  O3  UNL     1     -13.899  -2.043  28.197  1.00  0.00    -0.366 OA
HETATM    6  C7  UNL     1     -15.110  -2.766  28.429  1.00  0.00     0.128 C 
HETATM    7  C8  UNL     1     -15.738  -2.112  29.632  1.00  0.00     0.047 C 
HETATM    8  C9  UNL     1     -16.713  -1.024  29.220  1.00  0.00     0.004 C 
HETATM    9  C10 UNL     1     -16.105  -0.200  28.105  1.00  0.00     0.008 C 
HETATM   10  C11 UNL     1     -15.980  -1.003  26.830  1.00  0.00     0.081 C 
HETATM   11  C12 UNL     1     -15.960  -2.451  27.259  1.00  0.00     0.162 C 
HETATM   12  O4  UNL     1     -16.627  -3.203  26.618  1.00  0.00    -0.295 OA
HETATM   13  C13 UNL     1     -14.904  -4.208  28.691  1.00  0.00    -0.005 C 
HETATM   14  C14 UNL     1     -16.266  -4.752  29.159  1.00  0.00     0.019 C 
HETATM   15  C15 UNL     1     -14.022  -4.318  29.933  1.00  0.00     0.013 C 
HETATM   16  C16 UNL     1     -12.614  -3.975  29.636  1.00  0.00     0.009 C 
HETATM   17  C17 UNL     1     -12.419  -3.932  28.167  1.00  0.00     0.025 C 
HETATM   18  C18 UNL     1     -12.907  -5.178  27.433  1.00  0.00    -0.010 C 
HETATM   19  C19 UNL     1     -12.328  -6.437  27.961  1.00  0.00     0.018 C 
HETATM   20  C20 UNL     1     -14.432  -5.104  27.620  1.00  0.00     0.025 C 
ENDROOT
BRANCH   1  21
HETATM   21  O2  UNL     1     -11.886  -5.946  25.369  1.00  0.00    -0.316 OA
BRANCH  21  22
HETATM   22  C2  UNL     1     -12.409  -6.747  24.399  1.00  0.00     0.255 C 
HETATM   23  C1  UNL     1     -13.744  -6.513  23.763  1.00  0.00     0.126 C 
HETATM   24  O1  UNL     1     -11.672  -7.709  24.078  1.00  0.00    -0.266 OA
ENDBRANCH  21  22
ENDBRANCH   1  21
TORSDOF 2
ENDMDL
MODEL 2
REMARK VINA RESULT: -5.857087542      2.160      3.777
REMARK  2 active torsions:
REMARK  status: ('A' for Active; 'I' for Inactive)
REMARK    1  A    between atoms: C2_2  and  O2_4 
REMARK    2  A    between atoms: O2_4  and  C3_5 
ROOT
HETATM    1  C3  UNL     1     -12.740  -5.567  25.483  1.00  0.00     0.140 C 
HETATM    2  C4  UNL     1     -14.203  -5.505  25.231  1.00  0.00     0.036 C 
HETATM    3  C5  UNL     1     -15.110  -5.326  26.447  1.00  0.00     0.035 C 
HETATM    4  C6  UNL     1     -14.134  -4.884  27.501  1.00  0.00     0.128 C 
HETATM    5  O3  UNL     1     -14.492  -4.681  28.775  1.00  0.00    -0.366 OA
HETATM    6  C7  UNL     1     -13.316  -4.974  29.532  1.00  0.00     0.128 C 
HETATM    7  C8  UNL     1     -13.527  -4.311  30.868  1.00  0.00     0.047 C 
HETATM    8  C9  UNL     1     -14.153  -5.270  31.864  1.00  0.00     0.004 C 
HETATM    9  C10 UNL     1     -15.263  -6.046  31.187  1.00  0.00     0.008 C 
HETATM   10  C11 UNL     1     -14.716  -6.995  30.144  1.00  0.00     0.081 C 
HETATM   11  C12 UNL     1     -13.369  -6.437  29.749  1.00  0.00     0.162 C 
HETATM   12  O4  UNL     1     -12.479  -7.223  29.650  1.00  0.00    -0.295 OA
HETATM   13  C13 UNL     1     -12.068  -4.472  28.914  1.00  0.00    -0.005 C 
HETATM   14  C14 UNL     1     -10.967  -4.655  29.975  1.00  0.00     0.019 C 
HETATM   15  C15 UNL     1     -12.205  -2.957  28.790  1.00  0.00     0.013 C 
HETATM   16  C16 UNL     1     -13.125  -2.578  27.695  1.00  0.00     0.009 C 
HETATM   17  C17 UNL     1     -13.393  -3.766  26.848  1.00  0.00     0.025 C 
HETATM   18  C18 UNL     1     -12.138  -4.486  26.363  1.00  0.00    -0.010 C 
HETATM   19  C19 UNL     1     -11.183  -3.597  25.660  1.00  0.00     0.018 C 
HETATM   20  C20 UNL     1     -11.558  -5.066  27.665  1.00  0.00     0.025 C 
ENDROOT
BRANCH   1  21
HETATM   21  O2  UNL     1     -12.072  -5.694  24.259  1.00  0.00    -0.316 OA
BRANCH  21  22
HETATM   22  C2  UNL     1     -12.016  -6.787  23.448  1.00  0.00     0.255 C 
HETATM   23  C1  UNL     1     -12.378  -6.760  21.995  1.00  0.00     0.126 C 
HETATM   24  O1  UNL     1     -11.633  -7.833  24.024  1.00  0.00    -0.266 OA
ENDBRANCH  21  22
ENDBRANCH   1  21
TORSDOF 2
ENDMDL
MODEL 3
REMARK VINA RESULT: -5.669737134      1.858      5.123
REMARK  2 active torsions:
REMARK  status: ('A' for Active; 'I' for Inactive)
REMARK    1  A    between atoms: C2_2  and  O2_4 
REMARK    2  A    between atoms: O2_4  and  C3_5 
ROOT
HETATM    1  C3  UNL     1     -12.011  -3.111  28.455  1.00  0.00     0.140 C 
HETATM    2  C4  UNL     1     -11.578  -2.188  27.373  1.00  0.00     0.036 C 
HETATM    3  C5  UNL     1     -11.990  -2.549  25.947  1.00  0.00     0.035 C 
HETATM    4  C6  UNL     1     -13.060  -3.577  26.182  1.00  0.00     0.128 C 
HETATM    5  O3  UNL     1     -13.661  -4.236  25.183  1.00  0.00    -0.366 OA
HETATM    6  C7  UNL     1     -14.019  -5.499  25.746  1.00  0.00     0.128 C 
HETATM    7  C8  UNL     1     -15.086  -6.050  24.836  1.00  0.00     0.047 C 
HETATM    8  C9  UNL     1     -14.485  -6.937  23.760  1.00  0.00     0.004 C 
HETATM    9  C10 UNL     1     -13.240  -6.280  23.204  1.00  0.00     0.008 C 
HETATM   10  C11 UNL     1     -12.130  -6.243  24.230  1.00  0.00     0.081 C 
HETATM   11  C12 UNL     1     -12.812  -6.338  25.575  1.00  0.00     0.162 C 
HETATM   12  O4  UNL     1     -12.317  -7.076  26.368  1.00  0.00    -0.295 OA
HETATM   13  C13 UNL     1     -14.536  -5.410  27.130  1.00  0.00    -0.005 C 
HETATM   14  C14 UNL     1     -15.095  -6.806  27.463  1.00  0.00     0.019 C 
HETATM   15  C15 UNL     1     -15.777  -4.522  27.091  1.00  0.00     0.013 C 
HETATM   16  C16 UNL     1     -15.423  -3.094  26.929  1.00  0.00     0.009 C 
HETATM   17  C17 UNL     1     -13.970  -2.920  27.166  1.00  0.00     0.025 C 
HETATM   18  C18 UNL     1     -13.472  -3.522  28.477  1.00  0.00    -0.010 C 
HETATM   19  C19 UNL     1     -14.217  -3.044  29.666  1.00  0.00     0.018 C 
HETATM   20  C20 UNL     1     -13.644  -5.033  28.240  1.00  0.00     0.025 C 
ENDROOT
BRANCH   1  21
HETATM   21  O2  UNL     1     -11.579  -2.603  29.686  1.00  0.00    -0.316 OA
BRANCH  21  22
HETATM   22  C2  UNL     1     -10.866  -3.248  30.652  1.00  0.00     0.255 C 
HETATM   23  C1  UNL     1     -10.397  -2.591  31.912  1.00  0.00     0.126 C 
HETATM   24  O1  UNL     1     -10.631  -4.453  30.395  1.00  0.00    -0.266 OA
ENDBRANCH  21  22
ENDBRANCH   1  21
TORSDOF 2
ENDMDL
MODEL 4
REMARK VINA RESULT: -5.416050147      2.072      3.977
REMARK  2 active torsions:
REMARK  status: ('A' for Active; 'I' for Inactive)
REMARK    1  A    between atoms: C2_2  and  O2_4 
REMARK    2  A    between atoms: O2_4  and  C3_5 
ROOT
HETATM    1  C3  UNL     1     -14.529  -4.389  26.566  1.00  0.00     0.140 C 
HETATM    2  C4  UNL     1     -15.186  -3.061  26.670  1.00  0.00     0.036 C 
HETATM    3  C5  UNL     1     -14.744  -2.156  27.818  1.00  0.00     0.035 C 
HETATM    4  C6  UNL     1     -13.465  -2.811  28.257  1.00  0.00     0.128 C 
HETATM    5  O3  UNL     1     -12.761  -2.384  29.313  1.00  0.00    -0.366 OA
HETATM    6  C7  UNL     1     -12.114  -3.556  29.814  1.00  0.00     0.128 C 
HETATM    7  C8  UNL     1     -10.976  -3.049  30.662  1.00  0.00     0.047 C 
HETATM    8  C9  UNL     1     -11.394  -2.913  32.115  1.00  0.00     0.004 C 
HETATM    9  C10 UNL     1     -12.769  -2.285  32.187  1.00  0.00     0.008 C 
HETATM   10  C11 UNL     1     -13.830  -3.216  31.646  1.00  0.00     0.081 C 
HETATM   11  C12 UNL     1     -13.107  -4.169  30.723  1.00  0.00     0.162 C 
HETATM   12  O4  UNL     1     -13.402  -5.320  30.813  1.00  0.00    -0.295 OA
HETATM   13  C13 UNL     1     -11.591  -4.448  28.754  1.00  0.00    -0.005 C 
HETATM   14  C14 UNL     1     -10.726  -5.499  29.475  1.00  0.00     0.019 C 
HETATM   15  C15 UNL     1     -10.582  -3.640  27.943  1.00  0.00     0.013 C 
HETATM   16  C16 UNL     1     -11.250  -2.663  27.055  1.00  0.00     0.009 C 
HETATM   17  C17 UNL     1     -12.698  -2.974  26.987  1.00  0.00     0.025 C 
HETATM   18  C18 UNL     1     -13.013  -4.425  26.635  1.00  0.00    -0.010 C 
HETATM   19  C19 UNL     1     -12.361  -4.882  25.385  1.00  0.00     0.018 C 
HETATM   20  C20 UNL     1     -12.514  -5.187  27.875  1.00  0.00     0.025 C 
ENDROOT
BRANCH   1  21
HETATM   21  O2  UNL     1     -15.029  -5.058  25.442  1.00  0.00    -0.316 OA
BRANCH  21  22
HETATM   22  C2  UNL     1     -15.963  -6.049  25.407  1.00  0.00     0.255 C 
HETATM   23  C1  UNL     1     -15.917  -7.260  26.286  1.00  0.00     0.126 C 
HETATM   24  O1  UNL     1     -16.876  -5.863  24.569  1.00  0.00    -0.266 OA
ENDBRANCH  21  22
ENDBRANCH   1  21
TORSDOF 2
ENDMDL
MODEL 5
REMARK VINA RESULT: -5.149345491      2.188      2.861
REMARK  2 active torsions:
REMARK  status: ('A' for Active; 'I' for Inactive)
REMARK    1  A    between atoms: C2_2  and  O2_4 
REMARK    2  A    between atoms: O2_4  and  C3_5 
ROOT
HETATM    1  C3  UNL     1     -12.128  -5.124  27.586  1.00  0.00     0.140 C 
HETATM    2  C4  UNL     1     -11.526  -3.845  27.131  1.00  0.00     0.036 C 
HETATM    3  C5  UNL     1     -11.638  -2.650  28.075  1.00  0.00     0.035 C 
HETATM    4  C6  UNL     1     -12.021  -3.309  29.369  1.00  0.00     0.128 C 
HETATM    5  O3  UNL     1     -12.303  -2.614  30.478  1.00  0.00    -0.366 OA
HETATM    6  C7  UNL     1     -13.238  -3.429  31.188  1.00  0.00     0.128 C 
HETATM    7  C8  UNL     1     -13.201  -2.929  32.609  1.00  0.00     0.047 C 
HETATM    8  C9  UNL     1     -14.263  -1.870  32.845  1.00  0.00     0.004 C 
HETATM    9  C10 UNL     1     -14.288  -0.912  31.675  1.00  0.00     0.008 C 
HETATM   10  C11 UNL     1     -14.796  -1.585  30.420  1.00  0.00     0.081 C 
HETATM   11  C12 UNL     1     -14.555  -3.062  30.622  1.00  0.00     0.162 C 
HETATM   12  O4  UNL     1     -15.444  -3.792  30.308  1.00  0.00    -0.295 OA
HETATM   13  C13 UNL     1     -12.916  -4.873  31.156  1.00  0.00    -0.005 C 
HETATM   14  C14 UNL     1     -13.868  -5.542  32.164  1.00  0.00     0.019 C 
HETATM   15  C15 UNL     1     -11.538  -5.042  31.791  1.00  0.00     0.013 C 
HETATM   16  C16 UNL     1     -10.458  -4.586  30.887  1.00  0.00     0.009 C 
HETATM   17  C17 UNL     1     -11.010  -4.396  29.524  1.00  0.00     0.025 C 
HETATM   18  C18 UNL     1     -11.783  -5.598  28.987  1.00  0.00    -0.010 C 
HETATM   19  C19 UNL     1     -11.008  -6.861  29.024  1.00  0.00     0.018 C 
HETATM   20  C20 UNL     1     -13.021  -5.636  29.899  1.00  0.00     0.025 C 
ENDROOT
BRANCH   1  21
HETATM   21  O2  UNL     1     -11.897  -6.107  26.617  1.00  0.00    -0.316 OA
BRANCH  21  22
HETATM   22  C2  UNL     1     -12.680  -6.426  25.548  1.00  0.00     0.255 C 
HETATM   23  C1  UNL     1     -14.052  -5.866  25.331  1.00  0.00     0.126 C 
HETATM   24  O1  UNL     1     -12.152  -7.237  24.750  1.00  0.00    -0.266 OA
ENDBRANCH  21  22
ENDBRANCH   1  21
TORSDOF 2
ENDMDL
