MODEL 1
REMARK VINA RESULT: -6.243259512      0.000      0.000
REMARK  2 active torsions:
REMARK  status: ('A' for Active; 'I' for Inactive)
REMARK    1  A    between atoms: O1_2  and  C2_3 
REMARK    2  A    between atoms: C2_3  and  C3_5 
ROOT
HETATM    1  C3  UNL     1     -13.012  -4.856  25.970  1.00  0.00     0.162 C 
HETATM    2  O3  UNL     1     -13.886  -3.896  25.375  1.00  0.00    -0.363 OA
HETATM    3  C4  UNL     1     -13.053  -2.844  25.737  1.00  0.00     0.133 C 
HETATM    4  C5  UNL     1     -13.612  -2.218  26.950  1.00  0.00     0.074 C 
HETATM    5  C6  UNL     1     -13.387  -3.041  28.214  1.00  0.00     0.099 A 
HETATM    6  O4  UNL     1     -13.310  -2.220  29.280  1.00  0.00    -0.363 OA
HETATM    7  C7  UNL     1     -12.157  -2.826  28.873  1.00  0.00     0.090 A 
HETATM    8  C8  UNL     1     -11.535  -3.614  29.969  1.00  0.00     0.049 C 
HETATM    9  C9  UNL     1     -11.213  -2.345  27.837  1.00  0.00     0.041 C 
HETATM   10  C10 UNL     1     -10.956  -3.565  26.928  1.00  0.00     0.014 C 
HETATM   11  C11 UNL     1     -11.963  -3.855  25.933  1.00  0.00     0.060 C 
HETATM   12  C12 UNL     1     -14.202  -4.262  28.093  1.00  0.00     0.035 C 
HETATM   13  C13 UNL     1     -14.736  -4.824  29.380  1.00  0.00     0.009 C 
HETATM   14  C14 UNL     1     -15.921  -5.681  29.044  1.00  0.00     0.009 C 
HETATM   15  C15 UNL     1     -15.840  -6.494  27.831  1.00  0.00    -0.047 C 
HETATM   16  C16 UNL     1     -17.236  -6.504  27.167  1.00  0.00     0.015 C 
HETATM   17  C17 UNL     1     -15.672  -7.962  28.269  1.00  0.00     0.015 C 
HETATM   18  C18 UNL     1     -14.907  -6.125  26.754  1.00  0.00     0.022 C 
HETATM   19  C19 UNL     1     -13.655  -5.352  27.236  1.00  0.00     0.005 C 
HETATM   20  C20 UNL     1     -12.793  -6.379  27.850  1.00  0.00     0.019 C 
ENDROOT
BRANCH   1  21
HETATM   21  C2  UNL     1     -12.892  -5.960  24.977  1.00  0.00     0.294 C 
HETATM   22  O2  UNL     1     -12.145  -6.953  25.158  1.00  0.00    -0.262 OA
BRANCH  21  23
HETATM   23  O1  UNL     1     -13.601  -5.965  23.787  1.00  0.00    -0.324 OA
HETATM   24  C1  UNL     1     -14.142  -7.153  23.223  1.00  0.00     0.213 C 
ENDBRANCH  21  23
ENDBRANCH   1  21
TORSDOF 2
ENDMDL
MODEL 2
REMARK VINA RESULT: -5.321974663      1.586      4.252
REMARK  2 active torsions:
REMARK  status: ('A' for Active; 'I' for Inactive)
REMARK    1  A    between atoms: O1_2  and  C2_3 
REMARK    2  A    between atoms: C2_3  and  C3_5 
ROOT
HETATM    1  C3  UNL     1     -14.133  -5.951  26.118  1.00  0.00     0.162 C 
HETATM    2  O3  UNL     1     -14.051  -7.000  27.083  1.00  0.00    -0.363 OA
HETATM    3  C4  UNL     1     -15.435  -7.070  27.193  1.00  0.00     0.133 C 
HETATM    4  C5  UNL     1     -15.833  -6.333  28.407  1.00  0.00     0.074 C 
HETATM    5  C6  UNL     1     -15.763  -4.819  28.247  1.00  0.00     0.099 A 
HETATM    6  O4  UNL     1     -16.678  -4.236  29.047  1.00  0.00    -0.363 OA
HETATM    7  C7  UNL     1     -16.913  -4.208  27.702  1.00  0.00     0.090 A 
HETATM    8  C8  UNL     1     -17.085  -2.817  27.206  1.00  0.00     0.049 C 
HETATM    9  C9  UNL     1     -17.587  -5.248  26.891  1.00  0.00     0.041 C 
HETATM   10  C10 UNL     1     -16.661  -5.477  25.679  1.00  0.00     0.014 C 
HETATM   11  C11 UNL     1     -15.514  -6.329  25.892  1.00  0.00     0.060 C 
HETATM   12  C12 UNL     1     -14.340  -4.456  28.119  1.00  0.00     0.035 C 
HETATM   13  C13 UNL     1     -13.952  -3.116  28.674  1.00  0.00     0.009 C 
HETATM   14  C14 UNL     1     -12.477  -3.147  28.945  1.00  0.00     0.009 C 
HETATM   15  C15 UNL     1     -11.631  -3.847  27.979  1.00  0.00    -0.047 C 
HETATM   16  C16 UNL     1     -10.511  -4.572  28.759  1.00  0.00     0.015 C 
HETATM   17  C17 UNL     1     -10.847  -2.779  27.191  1.00  0.00     0.015 C 
HETATM   18  C18 UNL     1     -12.209  -4.874  27.096  1.00  0.00     0.022 C 
HETATM   19  C19 UNL     1     -13.712  -4.669  26.784  1.00  0.00     0.005 C 
HETATM   20  C20 UNL     1     -13.744  -3.573  25.797  1.00  0.00     0.019 C 
ENDROOT
BRANCH   1  21
HETATM   21  C2  UNL     1     -13.173  -6.320  25.041  1.00  0.00     0.294 C 
HETATM   22  O2  UNL     1     -12.167  -7.043  25.251  1.00  0.00    -0.262 OA
BRANCH  21  23
HETATM   23  O1  UNL     1     -13.326  -5.890  23.734  1.00  0.00    -0.324 OA
HETATM   24  C1  UNL     1     -13.652  -6.775  22.669  1.00  0.00     0.213 C 
ENDBRANCH  21  23
ENDBRANCH   1  21
TORSDOF 2
ENDMDL
MODEL 3
REMARK VINA RESULT: -5.164393483      5.183      7.457
REMARK  2 active torsions:
REMARK  status: ('A' for Active; 'I' for Inactive)
REMARK    1  A    between atoms: O1_2  and  C2_3 
REMARK    2  A    between atoms: C2_3  and  C3_5 
ROOT
HETATM    1  C3  UNL     1      -9.564  -6.906  30.508  1.00  0.00     0.162 C 
HETATM    2  O3  UNL     1      -8.841  -6.178  29.515  1.00  0.00    -0.363 OA
HETATM    3  C4  UNL     1      -7.827  -7.130  29.489  1.00  0.00     0.133 C 
HETATM    4  C5  UNL     1      -6.708  -6.625  30.304  1.00  0.00     0.074 C 
HETATM    5  C6  UNL     1      -6.965  -6.710  31.804  1.00  0.00     0.099 A 
HETATM    6  O4  UNL     1      -5.796  -6.863  32.457  1.00  0.00    -0.363 OA
HETATM    7  C7  UNL     1      -6.634  -7.939  32.414  1.00  0.00     0.090 A 
HETATM    8  C8  UNL     1      -6.971  -8.425  33.778  1.00  0.00     0.049 C 
HETATM    9  C9  UNL     1      -6.720  -8.963  31.347  1.00  0.00     0.041 C 
HETATM   10  C10 UNL     1      -8.223  -9.085  31.024  1.00  0.00     0.014 C 
HETATM   11  C11 UNL     1      -8.782  -8.075  30.155  1.00  0.00     0.060 C 
HETATM   12  C12 UNL     1      -8.035  -5.747  32.121  1.00  0.00     0.035 C 
HETATM   13  C13 UNL     1      -7.966  -5.112  33.480  1.00  0.00     0.009 C 
HETATM   14  C14 UNL     1      -8.752  -3.835  33.426  1.00  0.00     0.009 C 
HETATM   15  C15 UNL     1      -9.991  -3.842  32.649  1.00  0.00    -0.047 C 
HETATM   16  C16 UNL     1     -10.120  -2.475  31.941  1.00  0.00     0.015 C 
HETATM   17  C17 UNL     1     -11.164  -3.809  33.649  1.00  0.00     0.015 C 
HETATM   18  C18 UNL     1     -10.194  -4.843  31.589  1.00  0.00     0.022 C 
HETATM   19  C19 UNL     1      -9.431  -6.171  31.815  1.00  0.00     0.005 C 
HETATM   20  C20 UNL     1     -10.206  -6.877  32.852  1.00  0.00     0.019 C 
ENDROOT
BRANCH   1  21
HETATM   21  C2  UNL     1     -10.981  -6.908  30.052  1.00  0.00     0.294 C 
HETATM   22  O2  UNL     1     -11.827  -7.731  30.480  1.00  0.00    -0.262 OA
BRANCH  21  23
HETATM   23  O1  UNL     1     -11.461  -5.998  29.126  1.00  0.00    -0.324 OA
HETATM   24  C1  UNL     1     -12.135  -6.397  27.938  1.00  0.00     0.213 C 
ENDBRANCH  21  23
ENDBRANCH   1  21
TORSDOF 2
ENDMDL
MODEL 4
REMARK VINA RESULT: -5.146416056      2.568      6.123
REMARK  2 active torsions:
REMARK  status: ('A' for Active; 'I' for Inactive)
REMARK    1  A    between atoms: O1_2  and  C2_3 
REMARK    2  A    between atoms: C2_3  and  C3_5 
ROOT
HETATM    1  C3  UNL     1     -13.273  -3.282  30.024  1.00  0.00     0.162 C 
HETATM    2  O3  UNL     1     -12.549  -2.490  29.081  1.00  0.00    -0.363 OA
HETATM    3  C4  UNL     1     -12.801  -3.396  28.057  1.00  0.00     0.133 C 
HETATM    4  C5  UNL     1     -11.601  -4.235  27.886  1.00  0.00     0.074 C 
HETATM    5  C6  UNL     1     -11.431  -5.280  28.982  1.00  0.00     0.099 A 
HETATM    6  O4  UNL     1     -10.782  -6.353  28.489  1.00  0.00    -0.363 OA
HETATM    7  C7  UNL     1     -12.109  -6.501  28.775  1.00  0.00     0.090 A 
HETATM    8  C8  UNL     1     -12.341  -7.613  29.733  1.00  0.00     0.049 C 
HETATM    9  C9  UNL     1     -13.254  -6.190  27.888  1.00  0.00     0.041 C 
HETATM   10  C10 UNL     1     -14.219  -5.355  28.753  1.00  0.00     0.014 C 
HETATM   11  C11 UNL     1     -13.905  -3.953  28.905  1.00  0.00     0.060 C 
HETATM   12  C12 UNL     1     -11.127  -4.559  30.232  1.00  0.00     0.035 C 
HETATM   13  C13 UNL     1     -10.235  -5.278  31.203  1.00  0.00     0.009 C 
HETATM   14  C14 UNL     1      -9.620  -4.246  32.102  1.00  0.00     0.009 C 
HETATM   15  C15 UNL     1     -10.467  -3.131  32.524  1.00  0.00    -0.047 C 
HETATM   16  C16 UNL     1      -9.596  -1.855  32.561  1.00  0.00     0.015 C 
HETATM   17  C17 UNL     1     -10.805  -3.345  34.013  1.00  0.00     0.015 C 
HETATM   18  C18 UNL     1     -11.653  -2.763  31.734  1.00  0.00     0.022 C 
HETATM   19  C19 UNL     1     -12.280  -3.938  30.944  1.00  0.00     0.005 C 
HETATM   20  C20 UNL     1     -13.002  -4.728  31.958  1.00  0.00     0.019 C 
ENDROOT
BRANCH   1  21
HETATM   21  C2  UNL     1     -14.130  -2.325  30.777  1.00  0.00     0.294 C 
HETATM   22  O2  UNL     1     -15.266  -2.634  31.213  1.00  0.00    -0.262 OA
BRANCH  21  23
HETATM   23  O1  UNL     1     -13.728  -1.028  31.049  1.00  0.00    -0.324 OA
HETATM   24  C1  UNL     1     -14.524  -0.120  31.800  1.00  0.00     0.213 C 
ENDBRANCH  21  23
ENDBRANCH   1  21
TORSDOF 2
ENDMDL
MODEL 5
REMARK VINA RESULT: -5.116727716      1.768      2.849
REMARK  2 active torsions:
REMARK  status: ('A' for Active; 'I' for Inactive)
REMARK    1  A    between atoms: O1_2  and  C2_3 
REMARK    2  A    between atoms: C2_3  and  C3_5 
ROOT
HETATM    1  C3  UNL     1     -13.150  -4.533  26.933  1.00  0.00     0.162 C 
HETATM    2  O3  UNL     1     -12.467  -3.447  26.307  1.00  0.00    -0.363 OA
HETATM    3  C4  UNL     1     -11.279  -3.756  26.961  1.00  0.00     0.133 C 
HETATM    4  C5  UNL     1     -11.141  -2.843  28.110  1.00  0.00     0.074 C 
HETATM    5  C6  UNL     1     -12.058  -3.194  29.275  1.00  0.00     0.099 A 
HETATM    6  O4  UNL     1     -11.488  -2.806  30.433  1.00  0.00    -0.363 OA
HETATM    7  C7  UNL     1     -11.554  -4.147  30.187  1.00  0.00     0.090 A 
HETATM    8  C8  UNL     1     -12.267  -4.869  31.272  1.00  0.00     0.049 C 
HETATM    9  C9  UNL     1     -10.578  -4.964  29.429  1.00  0.00     0.041 C 
HETATM   10  C10 UNL     1     -11.426  -5.788  28.438  1.00  0.00     0.014 C 
HETATM   11  C11 UNL     1     -11.856  -5.113  27.235  1.00  0.00     0.060 C 
HETATM   12  C12 UNL     1     -13.442  -2.932  28.839  1.00  0.00     0.035 C 
HETATM   13  C13 UNL     1     -14.395  -2.486  29.910  1.00  0.00     0.009 C 
HETATM   14  C14 UNL     1     -15.533  -1.776  29.239  1.00  0.00     0.009 C 
HETATM   15  C15 UNL     1     -16.012  -2.324  27.971  1.00  0.00    -0.047 C 
HETATM   16  C16 UNL     1     -16.387  -1.142  27.049  1.00  0.00     0.015 C 
HETATM   17  C17 UNL     1     -17.381  -2.982  28.239  1.00  0.00     0.015 C 
HETATM   18  C18 UNL     1     -15.135  -3.181  27.157  1.00  0.00     0.022 C 
HETATM   19  C19 UNL     1     -14.078  -3.965  27.973  1.00  0.00     0.005 C 
HETATM   20  C20 UNL     1     -14.831  -5.063  28.606  1.00  0.00     0.019 C 
ENDROOT
BRANCH   1  21
HETATM   21  C2  UNL     1     -13.925  -5.198  25.850  1.00  0.00     0.294 C 
HETATM   22  O2  UNL     1     -14.098  -4.673  24.722  1.00  0.00    -0.262 OA
BRANCH  21  23
HETATM   23  O1  UNL     1     -14.505  -6.445  26.013  1.00  0.00    -0.324 OA
HETATM   24  C1  UNL     1     -15.682  -6.840  25.318  1.00  0.00     0.213 C 
ENDBRANCH  21  23
ENDBRANCH   1  21
TORSDOF 2
ENDMDL
