MODEL 1
REMARK VINA RESULT: -5.954544334      0.000      0.000
REMARK  2 active torsions:
REMARK  status: ('A' for Active; 'I' for Inactive)
REMARK       I    between atoms: N2_12  and  C10_13 
REMARK    1  A    between atoms: C10_13  and  O3_15 
REMARK    2  A    between atoms: O3_15  and  C11_16 
ROOT
HETATM    1  C1  UNL     1     -11.700  -3.447  29.775  1.00  0.00     0.023 C 
HETATM    2  C2  UNL     1     -12.811  -3.221  29.177  1.00  0.00    -0.017 C 
HETATM    3  C3  UNL     1     -13.862  -2.351  29.800  1.00  0.00     0.157 C 
HETATM    4  O1  UNL     1     -13.570  -1.541  30.728  1.00  0.00    -0.293 OA
HETATM    5  C4  UNL     1     -15.227  -2.536  29.234  1.00  0.00     0.112 C 
HETATM    6  C5  UNL     1     -15.291  -2.360  27.711  1.00  0.00     0.074 C 
HETATM    7  C6  UNL     1     -15.840  -1.040  27.402  1.00  0.00     0.073 C 
HETATM    8  N1  UNL     1     -16.284  -0.007  27.146  1.00  0.00    -0.196 NA
HETATM    9  C7  UNL     1     -15.911  -3.479  26.973  1.00  0.00    -0.004 C 
HETATM   10  C8  UNL     1     -15.203  -4.564  26.330  1.00  0.00    -0.003 C 
HETATM   11  C9  UNL     1     -13.850  -4.496  25.792  1.00  0.00     0.121 C 
HETATM   12  N2  UNL     1     -13.538  -5.766  25.142  1.00  0.00    -0.319 N 
HETATM   13  C10 UNL     1     -14.222  -6.356  24.030  1.00  0.00     0.363 C 
HETATM   14  O2  UNL     1     -13.782  -7.492  23.641  1.00  0.00    -0.238 OA
HETATM   15  C14 UNL     1     -12.382  -6.383  25.754  1.00  0.00     0.130 C 
HETATM   16  C15 UNL     1     -12.423  -5.855  27.157  1.00  0.00     0.032 C 
HETATM   17  C16 UNL     1     -12.733  -4.401  26.863  1.00  0.00    -0.011 C 
HETATM   18  C17 UNL     1     -11.520  -3.731  26.279  1.00  0.00     0.018 C 
HETATM   19  C18 UNL     1     -13.347  -3.656  27.903  1.00  0.00     0.034 C 
HETATM   20  C19 UNL     1     -13.839  -2.359  27.291  1.00  0.00     0.039 C 
ENDROOT
BRANCH  13  21
HETATM   21  O3  UNL     1     -15.282  -5.814  23.361  1.00  0.00    -0.299 OA
BRANCH  21  22
HETATM   22  C11 UNL     1     -15.740  -6.437  22.181  1.00  0.00     0.125 C 
HETATM   23  C12 UNL     1     -15.112  -5.816  20.948  1.00  0.00     0.040 C 
HETATM   24  C13 UNL     1     -17.239  -6.311  22.022  1.00  0.00     0.040 C 
ENDBRANCH  21  22
ENDBRANCH  13  21
TORSDOF 2
ENDMDL
MODEL 2
REMARK VINA RESULT: -5.714926713      2.951      5.086
REMARK  2 active torsions:
REMARK  status: ('A' for Active; 'I' for Inactive)
REMARK       I    between atoms: N2_12  and  C10_13 
REMARK    1  A    between atoms: C10_13  and  O3_15 
REMARK    2  A    between atoms: O3_15  and  C11_16 
ROOT
HETATM    1  C1  UNL     1     -10.244  -2.679  31.878  1.00  0.00     0.023 C 
HETATM    2  C2  UNL     1     -10.413  -3.832  31.343  1.00  0.00    -0.017 C 
HETATM    3  C3  UNL     1      -9.695  -5.040  31.866  1.00  0.00     0.157 C 
HETATM    4  O1  UNL     1      -9.201  -5.049  33.032  1.00  0.00    -0.293 OA
HETATM    5  C4  UNL     1      -9.630  -6.178  30.909  1.00  0.00     0.112 C 
HETATM    6  C5  UNL     1     -11.001  -6.618  30.381  1.00  0.00     0.074 C 
HETATM    7  C6  UNL     1     -11.420  -7.831  31.084  1.00  0.00     0.073 C 
HETATM    8  N1  UNL     1     -11.754  -8.795  31.622  1.00  0.00    -0.196 NA
HETATM    9  C7  UNL     1     -11.120  -6.681  28.911  1.00  0.00    -0.004 C 
HETATM   10  C8  UNL     1     -11.668  -5.645  28.062  1.00  0.00    -0.003 C 
HETATM   11  C9  UNL     1     -12.676  -4.669  28.455  1.00  0.00     0.121 C 
HETATM   12  N2  UNL     1     -13.030  -3.864  27.289  1.00  0.00    -0.319 N 
HETATM   13  C10 UNL     1     -13.598  -4.330  26.059  1.00  0.00     0.363 C 
HETATM   14  O2  UNL     1     -13.806  -3.440  25.165  1.00  0.00    -0.238 OA
HETATM   15  C14 UNL     1     -12.761  -2.463  27.534  1.00  0.00     0.130 C 
HETATM   16  C15 UNL     1     -11.645  -2.506  28.533  1.00  0.00     0.032 C 
HETATM   17  C16 UNL     1     -12.176  -3.589  29.450  1.00  0.00    -0.011 C 
HETATM   18  C17 UNL     1     -13.333  -3.056  30.250  1.00  0.00     0.018 C 
HETATM   19  C18 UNL     1     -11.221  -4.290  30.231  1.00  0.00     0.034 C 
HETATM   20  C19 UNL     1     -11.924  -5.502  30.811  1.00  0.00     0.039 C 
ENDROOT
BRANCH  13  21
HETATM   21  O3  UNL     1     -13.933  -5.622  25.770  1.00  0.00    -0.299 OA
BRANCH  21  22
HETATM   22  C11 UNL     1     -13.812  -6.082  24.442  1.00  0.00     0.125 C 
HETATM   23  C12 UNL     1     -14.918  -7.057  24.091  1.00  0.00     0.040 C 
HETATM   24  C13 UNL     1     -12.502  -6.802  24.212  1.00  0.00     0.040 C 
ENDBRANCH  21  22
ENDBRANCH  13  21
TORSDOF 2
ENDMDL
MODEL 3
REMARK VINA RESULT: -5.673910286      4.256      7.380
REMARK  2 active torsions:
REMARK  status: ('A' for Active; 'I' for Inactive)
REMARK       I    between atoms: N2_12  and  C10_13 
REMARK    1  A    between atoms: C10_13  and  O3_15 
REMARK    2  A    between atoms: O3_15  and  C11_16 
ROOT
HETATM    1  C1  UNL     1     -13.795  -1.892  31.333  1.00  0.00     0.023 C 
HETATM    2  C2  UNL     1     -13.160  -2.610  30.481  1.00  0.00    -0.017 C 
HETATM    3  C3  UNL     1     -13.621  -2.711  29.058  1.00  0.00     0.157 C 
HETATM    4  O1  UNL     1     -14.403  -1.847  28.564  1.00  0.00    -0.293 OA
HETATM    5  C4  UNL     1     -13.084  -3.889  28.321  1.00  0.00     0.112 C 
HETATM    6  C5  UNL     1     -11.553  -3.983  28.343  1.00  0.00     0.074 C 
HETATM    7  C6  UNL     1     -11.024  -3.517  27.061  1.00  0.00     0.073 C 
HETATM    8  N1  UNL     1     -10.596  -3.164  26.050  1.00  0.00    -0.196 NA
HETATM    9  C7  UNL     1     -11.008  -5.274  28.807  1.00  0.00    -0.004 C 
HETATM   10  C8  UNL     1     -10.560  -5.570  30.151  1.00  0.00    -0.003 C 
HETATM   11  C9  UNL     1     -10.028  -4.602  31.102  1.00  0.00     0.121 C 
HETATM   12  N2  UNL     1      -9.601  -5.311  32.305  1.00  0.00    -0.319 N 
HETATM   13  C10 UNL     1      -8.598  -6.330  32.395  1.00  0.00     0.363 C 
HETATM   14  O2  UNL     1      -8.408  -6.826  33.559  1.00  0.00    -0.238 OA
HETATM   15  C14 UNL     1     -10.316  -4.825  33.465  1.00  0.00     0.130 C 
HETATM   16  C15 UNL     1     -11.611  -4.342  32.883  1.00  0.00     0.032 C 
HETATM   17  C16 UNL     1     -11.076  -3.610  31.668  1.00  0.00    -0.011 C 
HETATM   18  C17 UNL     1     -10.397  -2.339  32.099  1.00  0.00     0.018 C 
HETATM   19  C18 UNL     1     -11.973  -3.434  30.583  1.00  0.00     0.034 C 
HETATM   20  C19 UNL     1     -11.149  -2.976  29.395  1.00  0.00     0.039 C 
ENDROOT
BRANCH  13  21
HETATM   21  O3  UNL     1      -7.841  -6.804  31.362  1.00  0.00    -0.299 OA
BRANCH  21  22
HETATM   22  C11 UNL     1      -7.860  -8.185  31.075  1.00  0.00     0.125 C 
HETATM   23  C12 UNL     1      -6.502  -8.817  31.311  1.00  0.00     0.040 C 
HETATM   24  C13 UNL     1      -8.225  -8.456  29.633  1.00  0.00     0.040 C 
ENDBRANCH  21  22
ENDBRANCH  13  21
TORSDOF 2
ENDMDL
MODEL 4
REMARK VINA RESULT: -5.575802895      2.937      4.948
REMARK  2 active torsions:
REMARK  status: ('A' for Active; 'I' for Inactive)
REMARK       I    between atoms: N2_12  and  C10_13 
REMARK    1  A    between atoms: C10_13  and  O3_15 
REMARK    2  A    between atoms: O3_15  and  C11_16 
ROOT
HETATM    1  C1  UNL     1     -17.624  -5.031  26.454  1.00  0.00     0.023 C 
HETATM    2  C2  UNL     1     -16.361  -5.163  26.272  1.00  0.00    -0.017 C 
HETATM    3  C3  UNL     1     -15.374  -4.469  27.162  1.00  0.00     0.157 C 
HETATM    4  O1  UNL     1     -15.716  -4.040  28.303  1.00  0.00    -0.293 OA
HETATM    5  C4  UNL     1     -14.008  -4.343  26.583  1.00  0.00     0.112 C 
HETATM    6  C5  UNL     1     -13.403  -5.680  26.137  1.00  0.00     0.074 C 
HETATM    7  C6  UNL     1     -12.439  -6.130  27.141  1.00  0.00     0.073 C 
HETATM    8  N1  UNL     1     -11.666  -6.489  27.919  1.00  0.00    -0.196 NA
HETATM    9  C7  UNL     1     -12.913  -5.717  24.745  1.00  0.00    -0.004 C 
HETATM   10  C8  UNL     1     -13.644  -6.222  23.603  1.00  0.00    -0.003 C 
HETATM   11  C9  UNL     1     -14.670  -7.256  23.641  1.00  0.00     0.121 C 
HETATM   12  N2  UNL     1     -15.092  -7.550  22.274  1.00  0.00    -0.319 N 
HETATM   13  C10 UNL     1     -14.275  -8.046  21.207  1.00  0.00     0.363 C 
HETATM   14  O2  UNL     1     -14.861  -8.208  20.082  1.00  0.00    -0.238 OA
HETATM   15  C14 UNL     1     -16.509  -7.303  22.113  1.00  0.00     0.130 C 
HETATM   16  C15 UNL     1     -16.783  -6.244  23.138  1.00  0.00     0.032 C 
HETATM   17  C16 UNL     1     -16.003  -6.819  24.302  1.00  0.00    -0.011 C 
HETATM   18  C17 UNL     1     -16.721  -8.022  24.850  1.00  0.00     0.018 C 
HETATM   19  C18 UNL     1     -15.581  -5.905  25.302  1.00  0.00     0.034 C 
HETATM   20  C19 UNL     1     -14.576  -6.632  26.174  1.00  0.00     0.039 C 
ENDROOT
BRANCH  13  21
HETATM   21  O3  UNL     1     -12.948  -8.356  21.291  1.00  0.00    -0.299 OA
BRANCH  21  22
HETATM   22  C11 UNL     1     -12.087  -7.980  20.239  1.00  0.00     0.125 C 
HETATM   23  C12 UNL     1     -10.745  -8.678  20.345  1.00  0.00     0.040 C 
HETATM   24  C13 UNL     1     -11.811  -6.493  20.241  1.00  0.00     0.040 C 
ENDBRANCH  21  22
ENDBRANCH  13  21
TORSDOF 2
ENDMDL
MODEL 5
REMARK VINA RESULT: -5.535871668      4.455      7.408
REMARK  2 active torsions:
REMARK  status: ('A' for Active; 'I' for Inactive)
REMARK       I    between atoms: N2_12  and  C10_13 
REMARK    1  A    between atoms: C10_13  and  O3_15 
REMARK    2  A    between atoms: O3_15  and  C11_16 
ROOT
HETATM    1  C1  UNL     1      -8.186  -4.726  34.137  1.00  0.00     0.023 C 
HETATM    2  C2  UNL     1      -8.262  -5.330  33.009  1.00  0.00    -0.017 C 
HETATM    3  C3  UNL     1      -7.226  -6.332  32.596  1.00  0.00     0.157 C 
HETATM    4  O1  UNL     1      -6.468  -6.875  33.452  1.00  0.00    -0.293 OA
HETATM    5  C4  UNL     1      -7.186  -6.606  31.133  1.00  0.00     0.112 C 
HETATM    6  C5  UNL     1      -8.538  -7.037  30.550  1.00  0.00     0.074 C 
HETATM    7  C6  UNL     1      -8.537  -8.488  30.357  1.00  0.00     0.073 C 
HETATM    8  N1  UNL     1      -8.544  -9.629  30.188  1.00  0.00    -0.196 NA
HETATM    9  C7  UNL     1      -9.000  -6.256  29.386  1.00  0.00    -0.004 C 
HETATM   10  C8  UNL     1      -9.922  -5.142  29.426  1.00  0.00    -0.003 C 
HETATM   11  C9  UNL     1     -10.967  -4.940  30.421  1.00  0.00     0.121 C 
HETATM   12  N2  UNL     1     -11.740  -3.755  30.057  1.00  0.00    -0.319 N 
HETATM   13  C10 UNL     1     -12.495  -3.554  28.856  1.00  0.00     0.363 C 
HETATM   14  O2  UNL     1     -13.078  -2.421  28.744  1.00  0.00    -0.238 OA
HETATM   15  C14 UNL     1     -11.685  -2.766  31.111  1.00  0.00     0.130 C 
HETATM   16  C15 UNL     1     -10.370  -3.051  31.771  1.00  0.00     0.032 C 
HETATM   17  C16 UNL     1     -10.449  -4.563  31.834  1.00  0.00    -0.011 C 
HETATM   18  C17 UNL     1     -11.453  -4.977  32.874  1.00  0.00     0.018 C 
HETATM   19  C18 UNL     1      -9.218  -5.263  31.922  1.00  0.00     0.034 C 
HETATM   20  C19 UNL     1      -9.518  -6.726  31.656  1.00  0.00     0.039 C 
ENDROOT
BRANCH  13  21
HETATM   21  O3  UNL     1     -12.643  -4.457  27.842  1.00  0.00    -0.299 OA
BRANCH  21  22
HETATM   22  C11 UNL     1     -12.367  -4.053  26.519  1.00  0.00     0.125 C 
HETATM   23  C12 UNL     1     -12.373  -5.233  25.567  1.00  0.00     0.040 C 
HETATM   24  C13 UNL     1     -11.007  -3.402  26.401  1.00  0.00     0.040 C 
ENDBRANCH  21  22
ENDBRANCH  13  21
TORSDOF 2
ENDMDL
