MODEL 1
REMARK VINA RESULT: -6.077225864      0.000      0.000
REMARK  0 active torsions:
REMARK  status: ('A' for Active; 'I' for Inactive)
ROOT
HETATM    1  C1  UNL     1     -13.810  -4.621  31.983  1.00  0.00     0.310 C 
HETATM    2  N1  UNL     1     -13.162  -5.175  30.782  1.00  0.00     0.091 N 
HETATM    3  C2  UNL     1     -13.669  -6.508  30.701  1.00  0.00     0.273 C 
HETATM    4  C3  UNL     1     -13.349  -7.307  29.423  1.00  0.00     0.042 C 
HETATM    5  C4  UNL     1     -12.792  -6.190  28.529  1.00  0.00     0.003 C 
HETATM    6  C5  UNL     1     -11.442  -6.107  29.011  1.00  0.00     0.012 C 
HETATM    7  C6  UNL     1     -10.592  -4.971  29.270  1.00  0.00     0.001 C 
HETATM    8  C7  UNL     1     -11.175  -3.750  29.850  1.00  0.00     0.007 C 
HETATM    9  C8  UNL     1     -12.446  -3.412  29.165  1.00  0.00     0.025 C 
HETATM   10  C9  UNL     1     -12.406  -3.097  27.746  1.00  0.00    -0.004 C 
HETATM   11  C10 UNL     1     -11.374  -1.936  27.655  1.00  0.00     0.005 C 
HETATM   12  C11 UNL     1     -11.246  -1.792  26.127  1.00  0.00     0.001 C 
HETATM   13  C12 UNL     1     -10.892  -3.261  25.876  1.00  0.00     0.005 C 
HETATM   14  C13 UNL     1     -12.124  -3.894  26.607  1.00  0.00    -0.010 C 
HETATM   15  C14 UNL     1     -11.934  -5.301  26.455  1.00  0.00     0.015 C 
HETATM   16  C15 UNL     1     -12.846  -6.365  27.054  1.00  0.00     0.065 C 
HETATM   17  C16 UNL     1     -14.212  -6.009  26.553  1.00  0.00     0.336 C 
HETATM   18  C17 UNL     1     -15.228  -7.032  26.709  1.00  0.00     0.118 C 
HETATM   19  N2  UNL     1     -16.050  -7.842  26.808  1.00  0.00    -0.193 NA
HETATM   20  C18 UNL     1     -14.209  -5.705  25.102  1.00  0.00     0.118 C 
HETATM   21  N3  UNL     1     -14.223  -5.486  23.961  1.00  0.00    -0.193 NA
HETATM   22  N4  UNL     1     -14.424  -4.834  27.375  1.00  0.00     0.130 N 
HETATM   23  C19 UNL     1     -15.794  -4.477  27.316  1.00  0.00     0.314 C 
HETATM   24  C20 UNL     1     -13.923  -5.248  28.640  1.00  0.00     0.268 C 
HETATM   25  C21 UNL     1     -13.558  -4.280  29.678  1.00  0.00     0.261 C 
ENDROOT
TORSDOF 0
ENDMDL
MODEL 2
REMARK VINA RESULT: -5.828094288      1.996      3.660
REMARK  0 active torsions:
REMARK  status: ('A' for Active; 'I' for Inactive)
ROOT
HETATM    1  C1  UNL     1     -13.102  -1.269  32.013  1.00  0.00     0.310 C 
HETATM    2  N1  UNL     1     -13.416  -2.451  31.192  1.00  0.00     0.091 N 
HETATM    3  C2  UNL     1     -14.573  -2.057  30.452  1.00  0.00     0.273 C 
HETATM    4  C3  UNL     1     -15.044  -3.000  29.327  1.00  0.00     0.042 C 
HETATM    5  C4  UNL     1     -13.840  -3.948  29.237  1.00  0.00     0.003 C 
HETATM    6  C5  UNL     1     -14.119  -4.842  30.326  1.00  0.00     0.012 C 
HETATM    7  C6  UNL     1     -13.255  -5.433  31.318  1.00  0.00     0.001 C 
HETATM    8  C7  UNL     1     -12.153  -4.637  31.881  1.00  0.00     0.007 C 
HETATM    9  C8  UNL     1     -11.434  -3.919  30.801  1.00  0.00     0.025 C 
HETATM   10  C9  UNL     1     -10.762  -4.701  29.776  1.00  0.00    -0.004 C 
HETATM   11  C10 UNL     1      -9.812  -5.631  30.584  1.00  0.00     0.005 C 
HETATM   12  C11 UNL     1      -9.290  -6.545  29.461  1.00  0.00     0.001 C 
HETATM   13  C12 UNL     1     -10.676  -6.973  28.970  1.00  0.00     0.005 C 
HETATM   14  C13 UNL     1     -11.263  -5.537  28.745  1.00  0.00    -0.010 C 
HETATM   15  C14 UNL     1     -12.589  -5.774  28.272  1.00  0.00     0.015 C 
HETATM   16  C15 UNL     1     -13.604  -4.679  27.965  1.00  0.00     0.065 C 
HETATM   17  C16 UNL     1     -12.900  -3.783  26.992  1.00  0.00     0.336 C 
HETATM   18  C17 UNL     1     -13.740  -2.833  26.287  1.00  0.00     0.118 C 
HETATM   19  N2  UNL     1     -14.395  -2.079  25.700  1.00  0.00    -0.193 NA
HETATM   20  C18 UNL     1     -12.225  -4.551  25.918  1.00  0.00     0.118 C 
HETATM   21  N3  UNL     1     -11.710  -5.141  25.060  1.00  0.00    -0.193 NA
HETATM   22  N4  UNL     1     -11.969  -3.174  27.921  1.00  0.00     0.130 N 
HETATM   23  C19 UNL     1     -11.382  -2.043  27.303  1.00  0.00     0.314 C 
HETATM   24  C20 UNL     1     -12.784  -2.932  29.061  1.00  0.00     0.268 C 
HETATM   25  C21 UNL     1     -12.205  -2.699  30.387  1.00  0.00     0.261 C 
ENDROOT
TORSDOF 0
ENDMDL
MODEL 3
REMARK VINA RESULT: -5.451396724      2.318      4.444
REMARK  0 active torsions:
REMARK  status: ('A' for Active; 'I' for Inactive)
ROOT
HETATM    1  C1  UNL     1     -15.386  -1.640  29.832  1.00  0.00     0.310 C 
HETATM    2  N1  UNL     1     -14.689  -2.832  30.343  1.00  0.00     0.091 N 
HETATM    3  C2  UNL     1     -15.229  -3.904  29.567  1.00  0.00     0.273 C 
HETATM    4  C3  UNL     1     -14.553  -5.283  29.705  1.00  0.00     0.042 C 
HETATM    5  C4  UNL     1     -13.284  -4.894  30.476  1.00  0.00     0.003 C 
HETATM    6  C5  UNL     1     -13.793  -4.829  31.817  1.00  0.00     0.012 C 
HETATM    7  C6  UNL     1     -13.539  -3.896  32.888  1.00  0.00     0.001 C 
HETATM    8  C7  UNL     1     -13.376  -2.467  32.577  1.00  0.00     0.007 C 
HETATM    9  C8  UNL     1     -12.491  -2.295  31.400  1.00  0.00     0.025 C 
HETATM   10  C9  UNL     1     -11.114  -2.753  31.495  1.00  0.00    -0.004 C 
HETATM   11  C10 UNL     1     -10.564  -2.010  32.746  1.00  0.00     0.005 C 
HETATM   12  C11 UNL     1      -9.187  -2.684  32.890  1.00  0.00     0.001 C 
HETATM   13  C12 UNL     1      -9.733  -4.114  32.928  1.00  0.00     0.005 C 
HETATM   14  C13 UNL     1     -10.555  -4.052  31.596  1.00  0.00    -0.010 C 
HETATM   15  C14 UNL     1     -11.139  -5.351  31.487  1.00  0.00     0.015 C 
HETATM   16  C15 UNL     1     -12.092  -5.777  30.377  1.00  0.00     0.065 C 
HETATM   17  C16 UNL     1     -11.348  -5.479  29.112  1.00  0.00     0.336 C 
HETATM   18  C17 UNL     1     -11.888  -6.077  27.906  1.00  0.00     0.118 C 
HETATM   19  N2  UNL     1     -12.292  -6.559  26.933  1.00  0.00    -0.193 NA
HETATM   20  C18 UNL     1      -9.945  -5.957  29.168  1.00  0.00     0.118 C 
HETATM   21  N3  UNL     1      -8.850  -6.345  29.192  1.00  0.00    -0.193 NA
HETATM   22  N4  UNL     1     -11.454  -4.034  29.156  1.00  0.00     0.130 N 
HETATM   23  C19 UNL     1     -11.089  -3.512  27.890  1.00  0.00     0.314 C 
HETATM   24  C20 UNL     1     -12.800  -3.836  29.568  1.00  0.00     0.268 C 
HETATM   25  C21 UNL     1     -13.253  -2.563  30.134  1.00  0.00     0.261 C 
ENDROOT
TORSDOF 0
ENDMDL
MODEL 4
REMARK VINA RESULT: -5.421537044      1.638      3.261
REMARK  0 active torsions:
REMARK  status: ('A' for Active; 'I' for Inactive)
ROOT
HETATM    1  C1  UNL     1     -13.312  -1.703  31.700  1.00  0.00     0.310 C 
HETATM    2  N1  UNL     1     -13.476  -3.085  31.218  1.00  0.00     0.091 N 
HETATM    3  C2  UNL     1     -14.794  -3.102  30.666  1.00  0.00     0.273 C 
HETATM    4  C3  UNL     1     -15.210  -4.359  29.877  1.00  0.00     0.042 C 
HETATM    5  C4  UNL     1     -13.852  -5.061  29.736  1.00  0.00     0.003 C 
HETATM    6  C5  UNL     1     -13.747  -5.702  31.017  1.00  0.00     0.012 C 
HETATM    7  C6  UNL     1     -12.626  -5.865  31.911  1.00  0.00     0.001 C 
HETATM    8  C7  UNL     1     -11.658  -4.768  32.063  1.00  0.00     0.007 C 
HETATM    9  C8  UNL     1     -11.300  -4.211  30.737  1.00  0.00     0.025 C 
HETATM   10  C9  UNL     1     -10.638  -5.080  29.776  1.00  0.00    -0.004 C 
HETATM   11  C10 UNL     1      -9.388  -5.594  30.544  1.00  0.00     0.005 C 
HETATM   12  C11 UNL     1      -8.855  -6.640  29.547  1.00  0.00     0.001 C 
HETATM   13  C12 UNL     1     -10.168  -7.422  29.447  1.00  0.00     0.005 C 
HETATM   14  C13 UNL     1     -11.092  -6.217  29.061  1.00  0.00    -0.010 C 
HETATM   15  C14 UNL     1     -12.388  -6.802  28.926  1.00  0.00     0.015 C 
HETATM   16  C15 UNL     1     -13.659  -6.021  28.618  1.00  0.00     0.065 C 
HETATM   17  C16 UNL     1     -13.339  -5.272  27.361  1.00  0.00     0.336 C 
HETATM   18  C17 UNL     1     -14.472  -4.692  26.665  1.00  0.00     0.118 C 
HETATM   19  N2  UNL     1     -15.365  -4.236  26.084  1.00  0.00    -0.193 NA
HETATM   20  C18 UNL     1     -12.685  -6.137  26.350  1.00  0.00     0.118 C 
HETATM   21  N3  UNL     1     -12.191  -6.811  25.542  1.00  0.00    -0.193 NA
HETATM   22  N4  UNL     1     -12.435  -4.295  27.936  1.00  0.00     0.130 N 
HETATM   23  C19 UNL     1     -12.225  -3.258  26.995  1.00  0.00     0.314 C 
HETATM   24  C20 UNL     1     -13.095  -3.941  29.146  1.00  0.00     0.268 C 
HETATM   25  C21 UNL     1     -12.382  -3.292  30.250  1.00  0.00     0.261 C 
ENDROOT
TORSDOF 0
ENDMDL
MODEL 5
REMARK VINA RESULT: -5.326036113      2.451      3.541
REMARK  0 active torsions:
REMARK  status: ('A' for Active; 'I' for Inactive)
ROOT
HETATM    1  C1  UNL     1     -11.091  -6.023  31.901  1.00  0.00     0.310 C 
HETATM    2  N1  UNL     1     -12.073  -5.766  30.835  1.00  0.00     0.091 N 
HETATM    3  C2  UNL     1     -13.320  -6.152  31.417  1.00  0.00     0.273 C 
HETATM    4  C3  UNL     1     -14.600  -5.808  30.630  1.00  0.00     0.042 C 
HETATM    5  C4  UNL     1     -14.027  -4.865  29.564  1.00  0.00     0.003 C 
HETATM    6  C5  UNL     1     -13.505  -5.812  28.619  1.00  0.00     0.012 C 
HETATM    7  C6  UNL     1     -12.282  -5.819  27.854  1.00  0.00     0.001 C 
HETATM    8  C7  UNL     1     -11.042  -5.322  28.471  1.00  0.00     0.007 C 
HETATM    9  C8  UNL     1     -11.299  -4.052  29.192  1.00  0.00     0.025 C 
HETATM   10  C9  UNL     1     -11.751  -2.900  28.427  1.00  0.00    -0.004 C 
HETATM   11  C10 UNL     1     -10.658  -2.733  27.333  1.00  0.00     0.005 C 
HETATM   12  C11 UNL     1     -11.297  -1.635  26.463  1.00  0.00     0.001 C 
HETATM   13  C12 UNL     1     -12.614  -2.383  26.236  1.00  0.00     0.005 C 
HETATM   14  C13 UNL     1     -12.964  -2.637  27.742  1.00  0.00    -0.010 C 
HETATM   15  C14 UNL     1     -14.204  -3.345  27.696  1.00  0.00     0.015 C 
HETATM   16  C15 UNL     1     -14.936  -3.881  28.920  1.00  0.00     0.065 C 
HETATM   17  C16 UNL     1     -15.098  -2.687  29.809  1.00  0.00     0.336 C 
HETATM   18  C17 UNL     1     -16.040  -2.838  30.903  1.00  0.00     0.118 C 
HETATM   19  N2  UNL     1     -16.800  -2.931  31.772  1.00  0.00    -0.193 NA
HETATM   20  C18 UNL     1     -15.583  -1.501  29.063  1.00  0.00     0.118 C 
HETATM   21  N3  UNL     1     -15.982  -0.570  28.493  1.00  0.00    -0.193 NA
HETATM   22  N4  UNL     1     -13.717  -2.564  30.230  1.00  0.00     0.130 N 
HETATM   23  C19 UNL     1     -13.654  -1.681  31.336  1.00  0.00     0.314 C 
HETATM   24  C20 UNL     1     -13.345  -3.916  30.466  1.00  0.00     0.268 C 
HETATM   25  C21 UNL     1     -11.940  -4.330  30.521  1.00  0.00     0.261 C 
ENDROOT
TORSDOF 0
ENDMDL
