MODEL 1
REMARK VINA RESULT: -7.051115001      0.000      0.000
REMARK  8 active torsions:
REMARK  status: ('A' for Active; 'I' for Inactive)
REMARK    1  A    between atoms: C2_2  and  O2_4 
REMARK    2  A    between atoms: O2_4  and  C3_5 
REMARK    3  A    between atoms: C3_5  and  C4_6 
REMARK    4  A    between atoms: C8_11  and  O4_12 
REMARK    5  A    between atoms: C9_14  and  O5_16 
REMARK    6  A    between atoms: C12_22  and  O6_24 
REMARK    7  A    between atoms: C15_27  and  C16_28 
REMARK    8  A    between atoms: C16_28  and  C17_29 
ROOT
HETATM    1  C4  UNL     1      -0.317 -32.405 -24.624  1.00  0.00     0.004 C 
HETATM    2  C5  UNL     1       0.720 -31.988 -25.325  1.00  0.00    -0.062 C 
HETATM    3  C6  UNL     1       2.009 -32.697 -25.489  1.00  0.00     0.116 C 
HETATM    4  C7  UNL     1       2.881 -31.758 -26.274  1.00  0.00     0.169 C 
HETATM    5  O3  UNL     1       4.094 -31.752 -26.294  1.00  0.00    -0.294 OA
HETATM    6  C8  UNL     1       1.932 -30.868 -26.995  1.00  0.00     0.165 C 
HETATM    7  C9  UNL     1       1.551 -31.601 -28.274  1.00  0.00     0.134 C 
HETATM    8  C10 UNL     1       2.714 -32.449 -28.758  1.00  0.00     0.056 C 
HETATM    9  C11 UNL     1       0.295 -32.343 -28.186  1.00  0.00     0.052 C 
HETATM   10  N1  UNL     1       0.253 -33.569 -28.493  1.00  0.00    -0.401 N 
ATOM     11  H11 UNL     1      -0.624 -34.087 -28.432  1.00  0.00     0.155 HD
ATOM     12  H12 UNL     1       1.078 -34.080 -28.806  1.00  0.00     0.155 HD
HETATM   13  C12 UNL     1      -0.908 -31.600 -27.731  1.00  0.00     0.096 C 
HETATM   14  C13 UNL     1      -1.535 -30.895 -28.950  1.00  0.00     0.052 C 
HETATM   15  C14 UNL     1      -0.542 -30.524 -26.773  1.00  0.00     0.061 C 
HETATM   16  C15 UNL     1       0.797 -30.709 -26.080  1.00  0.00     0.029 C 
ENDROOT
BRANCH   1  17
HETATM   17  C3  UNL     1      -0.345 -33.690 -23.872  1.00  0.00     0.206 C 
BRANCH  17  18
HETATM   18  O2  UNL     1      -1.328 -34.581 -24.268  1.00  0.00    -0.318 OA
BRANCH  18  19
HETATM   19  C2  UNL     1      -0.977 -35.577 -25.168  1.00  0.00     0.255 C 
HETATM   20  C1  UNL     1      -1.025 -37.013 -24.794  1.00  0.00     0.126 C 
HETATM   21  O1  UNL     1      -0.602 -35.272 -26.349  1.00  0.00    -0.266 OA
ENDBRANCH  18  19
ENDBRANCH  17  18
ENDBRANCH   1  17
BRANCH  16  22
HETATM   22  C16 UNL     1       0.903 -29.648 -25.030  1.00  0.00     0.028 C 
BRANCH  22  23
HETATM   23  C17 UNL     1       0.157 -28.385 -25.217  1.00  0.00     0.086 C 
HETATM   24 BR1  UNL     1      -0.874 -28.149 -23.553  1.00  0.00    -0.096 Br
ENDBRANCH  22  23
ENDBRANCH  16  22
BRANCH   6  25
HETATM   25  O4  UNL     1       2.562 -29.710 -27.430  1.00  0.00    -0.377 OA
ATOM     26  H4  UNL     1       3.475 -29.871 -27.634  1.00  0.00     0.211 HD
ENDBRANCH   6  25
BRANCH   7  27
HETATM   27  O5  UNL     1       1.343 -30.648 -29.306  1.00  0.00    -0.381 OA
ATOM     28  H5  UNL     1       1.835 -30.912 -30.074  1.00  0.00     0.211 HD
ENDBRANCH   7  27
BRANCH  13  29
HETATM   29  O6  UNL     1      -1.852 -32.507 -27.280  1.00  0.00    -0.384 OA
ATOM     30  H6  UNL     1      -2.625 -32.444 -27.830  1.00  0.00     0.211 HD
ENDBRANCH  13  29
TORSDOF 8
ENDMDL
MODEL 2
REMARK VINA RESULT: -6.678389947      2.879      4.947
REMARK  8 active torsions:
REMARK  status: ('A' for Active; 'I' for Inactive)
REMARK    1  A    between atoms: C2_2  and  O2_4 
REMARK    2  A    between atoms: O2_4  and  C3_5 
REMARK    3  A    between atoms: C3_5  and  C4_6 
REMARK    4  A    between atoms: C8_11  and  O4_12 
REMARK    5  A    between atoms: C9_14  and  O5_16 
REMARK    6  A    between atoms: C12_22  and  O6_24 
REMARK    7  A    between atoms: C15_27  and  C16_28 
REMARK    8  A    between atoms: C16_28  and  C17_29 
ROOT
HETATM    1  C4  UNL     1      -0.250 -29.133 -26.220  1.00  0.00     0.004 C 
HETATM    2  C5  UNL     1       0.589 -29.853 -26.939  1.00  0.00    -0.062 C 
HETATM    3  C6  UNL     1       1.953 -29.457 -27.354  1.00  0.00     0.116 C 
HETATM    4  C7  UNL     1       2.436 -30.569 -28.242  1.00  0.00     0.169 C 
HETATM    5  O3  UNL     1       3.300 -30.487 -29.090  1.00  0.00    -0.294 OA
HETATM    6  C8  UNL     1       1.630 -31.753 -27.844  1.00  0.00     0.165 C 
HETATM    7  C9  UNL     1       2.348 -32.377 -26.655  1.00  0.00     0.134 C 
HETATM    8  C10 UNL     1       3.846 -32.164 -26.778  1.00  0.00     0.056 C 
HETATM    9  C11 UNL     1       1.813 -31.971 -25.355  1.00  0.00     0.052 C 
HETATM   10  N1  UNL     1       2.579 -31.495 -24.469  1.00  0.00    -0.401 N 
ATOM     11  H11 UNL     1       2.207 -31.212 -23.562  1.00  0.00     0.155 HD
ATOM     12  H12 UNL     1       3.580 -31.374 -24.623  1.00  0.00     0.155 HD
HETATM   13  C12 UNL     1       0.356 -32.148 -25.130  1.00  0.00     0.096 C 
HETATM   14  C13 UNL     1       0.108 -33.596 -24.661  1.00  0.00     0.052 C 
HETATM   15  C14 UNL     1      -0.405 -31.987 -26.397  1.00  0.00     0.061 C 
HETATM   16  C15 UNL     1       0.316 -31.210 -27.485  1.00  0.00     0.029 C 
ENDROOT
BRANCH   1  17
HETATM   17  C3  UNL     1       0.062 -27.771 -25.703  1.00  0.00     0.206 C 
BRANCH  17  18
HETATM   18  O2  UNL     1       0.156 -27.673 -24.326  1.00  0.00    -0.318 OA
BRANCH  18  19
HETATM   19  C2  UNL     1      -1.016 -27.759 -23.587  1.00  0.00     0.255 C 
HETATM   20  C1  UNL     1      -1.931 -26.599 -23.444  1.00  0.00     0.126 C 
HETATM   21  O1  UNL     1      -1.331 -28.854 -23.011  1.00  0.00    -0.266 OA
ENDBRANCH  18  19
ENDBRANCH  17  18
ENDBRANCH   1  17
BRANCH  16  22
HETATM   22  C16 UNL     1      -0.663 -30.988 -28.594  1.00  0.00     0.028 C 
BRANCH  22  23
HETATM   23  C17 UNL     1      -1.893 -31.809 -28.632  1.00  0.00     0.086 C 
HETATM   24 BR1  UNL     1      -1.700 -32.947 -30.231  1.00  0.00    -0.096 Br
ENDBRANCH  22  23
ENDBRANCH  16  22
BRANCH   6  25
HETATM   25  O4  UNL     1       1.662 -32.735 -28.825  1.00  0.00    -0.377 OA
ATOM     26  H4  UNL     1       1.335 -33.563 -28.493  1.00  0.00     0.211 HD
ENDBRANCH   6  25
BRANCH   7  27
HETATM   27  O5  UNL     1       2.175 -33.785 -26.699  1.00  0.00    -0.381 OA
ATOM     28  H5  UNL     1       1.956 -34.096 -25.829  1.00  0.00     0.211 HD
ENDBRANCH   7  27
BRANCH  13  29
HETATM   29  O6  UNL     1      -0.039 -31.329 -24.086  1.00  0.00    -0.384 OA
ATOM     30  H6  UNL     1      -0.057 -30.429 -24.391  1.00  0.00     0.211 HD
ENDBRANCH  13  29
TORSDOF 8
ENDMDL
MODEL 3
REMARK VINA RESULT: -6.673900811      2.716      5.095
REMARK  8 active torsions:
REMARK  status: ('A' for Active; 'I' for Inactive)
REMARK    1  A    between atoms: C2_2  and  O2_4 
REMARK    2  A    between atoms: O2_4  and  C3_5 
REMARK    3  A    between atoms: C3_5  and  C4_6 
REMARK    4  A    between atoms: C8_11  and  O4_12 
REMARK    5  A    between atoms: C9_14  and  O5_16 
REMARK    6  A    between atoms: C12_22  and  O6_24 
REMARK    7  A    between atoms: C15_27  and  C16_28 
REMARK    8  A    between atoms: C16_28  and  C17_29 
ROOT
HETATM    1  C4  UNL     1       0.643 -30.375 -25.014  1.00  0.00     0.004 C 
HETATM    2  C5  UNL     1       0.222 -30.952 -26.122  1.00  0.00    -0.062 C 
HETATM    3  C6  UNL     1      -0.530 -30.303 -27.219  1.00  0.00     0.116 C 
HETATM    4  C7  UNL     1      -0.864 -31.408 -28.180  1.00  0.00     0.169 C 
HETATM    5  O3  UNL     1      -1.774 -31.411 -28.983  1.00  0.00    -0.294 OA
HETATM    6  C8  UNL     1       0.153 -32.461 -27.920  1.00  0.00     0.165 C 
HETATM    7  C9  UNL     1       1.372 -32.090 -28.753  1.00  0.00     0.134 C 
HETATM    8  C10 UNL     1       0.940 -31.390 -30.029  1.00  0.00     0.056 C 
HETATM    9  C11 UNL     1       2.400 -31.358 -28.015  1.00  0.00     0.052 C 
HETATM   10  N1  UNL     1       2.839 -30.255 -28.451  1.00  0.00    -0.401 N 
ATOM     11  H11 UNL     1       3.556 -29.745 -27.936  1.00  0.00     0.155 HD
ATOM     12  H12 UNL     1       2.497 -29.838 -29.317  1.00  0.00     0.155 HD
HETATM   13  C12 UNL     1       2.898 -31.965 -26.755  1.00  0.00     0.096 C 
HETATM   14  C13 UNL     1       4.016 -32.968 -27.105  1.00  0.00     0.052 C 
HETATM   15  C14 UNL     1       1.832 -32.752 -26.080  1.00  0.00     0.061 C 
HETATM   16  C15 UNL     1       0.414 -32.384 -26.478  1.00  0.00     0.029 C 
ENDROOT
BRANCH   1  17
HETATM   17  C3  UNL     1       0.417 -28.938 -24.692  1.00  0.00     0.206 C 
BRANCH  17  18
HETATM   18  O2  UNL     1       0.184 -28.665 -23.355  1.00  0.00    -0.318 OA
BRANCH  18  19
HETATM   19  C2  UNL     1      -0.952 -27.937 -23.029  1.00  0.00     0.255 C 
HETATM   20  C1  UNL     1      -1.352 -26.734 -23.802  1.00  0.00     0.126 C 
HETATM   21  O1  UNL     1      -1.681 -28.294 -22.045  1.00  0.00    -0.266 OA
ENDBRANCH  18  19
ENDBRANCH  17  18
ENDBRANCH   1  17
BRANCH  16  22
HETATM   22  C16 UNL     1      -0.510 -33.133 -25.571  1.00  0.00     0.028 C 
BRANCH  22  23
HETATM   23  C17 UNL     1       0.059 -33.848 -24.409  1.00  0.00     0.086 C 
HETATM   24 BR1  UNL     1      -1.124 -35.403 -24.136  1.00  0.00    -0.096 Br
ENDBRANCH  22  23
ENDBRANCH  16  22
BRANCH   6  25
HETATM   25  O4  UNL     1      -0.255 -33.689 -28.424  1.00  0.00    -0.377 OA
ATOM     26  H4  UNL     1       0.475 -34.163 -28.803  1.00  0.00     0.211 HD
ENDBRANCH   6  25
BRANCH   7  27
HETATM   27  O5  UNL     1       2.011 -33.280 -29.190  1.00  0.00    -0.381 OA
ATOM     28  H5  UNL     1       2.948 -33.190 -29.066  1.00  0.00     0.211 HD
ENDBRANCH   7  27
BRANCH  13  29
HETATM   29  O6  UNL     1       3.491 -30.979 -25.985  1.00  0.00    -0.384 OA
ATOM     30  H6  UNL     1       3.741 -31.351 -25.147  1.00  0.00     0.211 HD
ENDBRANCH  13  29
TORSDOF 8
ENDMDL
MODEL 4
REMARK VINA RESULT: -6.578418352      2.493      4.988
REMARK  8 active torsions:
REMARK  status: ('A' for Active; 'I' for Inactive)
REMARK    1  A    between atoms: C2_2  and  O2_4 
REMARK    2  A    between atoms: O2_4  and  C3_5 
REMARK    3  A    between atoms: C3_5  and  C4_6 
REMARK    4  A    between atoms: C8_11  and  O4_12 
REMARK    5  A    between atoms: C9_14  and  O5_16 
REMARK    6  A    between atoms: C12_22  and  O6_24 
REMARK    7  A    between atoms: C15_27  and  C16_28 
REMARK    8  A    between atoms: C16_28  and  C17_29 
ROOT
HETATM    1  C4  UNL     1      -0.184 -31.192 -25.135  1.00  0.00     0.004 C 
HETATM    2  C5  UNL     1      -0.333 -31.532 -26.400  1.00  0.00    -0.062 C 
HETATM    3  C6  UNL     1      -0.871 -30.676 -27.481  1.00  0.00     0.116 C 
HETATM    4  C7  UNL     1      -0.938 -31.562 -28.693  1.00  0.00     0.169 C 
HETATM    5  O3  UNL     1      -1.658 -31.406 -29.658  1.00  0.00    -0.294 OA
HETATM    6  C8  UNL     1       0.054 -32.639 -28.435  1.00  0.00     0.165 C 
HETATM    7  C9  UNL     1       1.400 -32.095 -28.894  1.00  0.00     0.134 C 
HETATM    8  C10 UNL     1       1.210 -31.150 -30.068  1.00  0.00     0.056 C 
HETATM    9  C11 UNL     1       2.212 -31.523 -27.820  1.00  0.00     0.052 C 
HETATM   10  N1  UNL     1       2.674 -30.351 -27.922  1.00  0.00    -0.401 N 
ATOM     11  H11 UNL     1       3.241 -29.952 -27.174  1.00  0.00     0.155 HD
ATOM     12  H12 UNL     1       2.501 -29.767 -28.741  1.00  0.00     0.155 HD
HETATM   13  C12 UNL     1       2.465 -32.373 -26.629  1.00  0.00     0.096 C 
HETATM   14  C13 UNL     1       3.681 -33.274 -26.923  1.00  0.00     0.052 C 
HETATM   15  C14 UNL     1       1.323 -33.290 -26.372  1.00  0.00     0.061 C 
HETATM   16  C15 UNL     1       0.003 -32.858 -26.985  1.00  0.00     0.029 C 
ENDROOT
BRANCH   1  17
HETATM   17  C3  UNL     1      -0.546 -29.854 -24.590  1.00  0.00     0.206 C 
BRANCH  17  18
HETATM   18  O2  UNL     1       0.515 -29.113 -24.099  1.00  0.00    -0.318 OA
BRANCH  18  19
HETATM   19  C2  UNL     1       1.350 -28.488 -25.015  1.00  0.00     0.255 C 
HETATM   20  C1  UNL     1       0.849 -27.426 -25.923  1.00  0.00     0.126 C 
HETATM   21  O1  UNL     1       2.579 -28.821 -25.093  1.00  0.00    -0.266 OA
ENDBRANCH  18  19
ENDBRANCH  17  18
ENDBRANCH   1  17
BRANCH  16  22
HETATM   22  C16 UNL     1      -1.051 -33.785 -26.467  1.00  0.00     0.028 C 
BRANCH  22  23
HETATM   23  C17 UNL     1      -0.645 -35.120 -25.978  1.00  0.00     0.086 C 
HETATM   24 BR1  UNL     1      -1.137 -35.136 -24.068  1.00  0.00    -0.096 Br
ENDBRANCH  22  23
ENDBRANCH  16  22
BRANCH   6  25
HETATM   25  O4  UNL     1      -0.175 -33.739 -29.250  1.00  0.00    -0.377 OA
ATOM     26  H4  UNL     1      -0.417 -34.501 -28.737  1.00  0.00     0.211 HD
ENDBRANCH   6  25
BRANCH   7  27
HETATM   27  O5  UNL     1       2.177 -33.165 -29.411  1.00  0.00    -0.381 OA
ATOM     28  H5  UNL     1       3.098 -32.953 -29.313  1.00  0.00     0.211 HD
ENDBRANCH   7  27
BRANCH  13  29
HETATM   29  O6  UNL     1       2.832 -31.562 -25.569  1.00  0.00    -0.384 OA
ATOM     30  H6  UNL     1       3.277 -30.794 -25.909  1.00  0.00     0.211 HD
ENDBRANCH  13  29
TORSDOF 8
ENDMDL
MODEL 5
REMARK VINA RESULT: -6.576725192      2.789      4.764
REMARK  8 active torsions:
REMARK  status: ('A' for Active; 'I' for Inactive)
REMARK    1  A    between atoms: C2_2  and  O2_4 
REMARK    2  A    between atoms: O2_4  and  C3_5 
REMARK    3  A    between atoms: C3_5  and  C4_6 
REMARK    4  A    between atoms: C8_11  and  O4_12 
REMARK    5  A    between atoms: C9_14  and  O5_16 
REMARK    6  A    between atoms: C12_22  and  O6_24 
REMARK    7  A    between atoms: C15_27  and  C16_28 
REMARK    8  A    between atoms: C16_28  and  C17_29 
ROOT
HETATM    1  C4  UNL     1      -0.068 -28.731 -25.800  1.00  0.00     0.004 C 
HETATM    2  C5  UNL     1       0.770 -29.478 -26.494  1.00  0.00    -0.062 C 
HETATM    3  C6  UNL     1       2.239 -29.314 -26.564  1.00  0.00     0.116 C 
HETATM    4  C7  UNL     1       2.705 -30.332 -27.566  1.00  0.00     0.169 C 
HETATM    5  O3  UNL     1       3.733 -30.289 -28.209  1.00  0.00    -0.294 OA
HETATM    6  C8  UNL     1       1.639 -31.368 -27.581  1.00  0.00     0.165 C 
HETATM    7  C9  UNL     1       1.962 -32.327 -26.443  1.00  0.00     0.134 C 
HETATM    8  C10 UNL     1       3.464 -32.419 -26.247  1.00  0.00     0.056 C 
HETATM    9  C11 UNL     1       1.235 -32.049 -25.204  1.00  0.00     0.052 C 
HETATM   10  N1  UNL     1       1.860 -31.908 -24.114  1.00  0.00    -0.401 N 
ATOM     11  H11 UNL     1       1.354 -31.714 -23.250  1.00  0.00     0.155 HD
ATOM     12  H12 UNL     1       2.876 -31.977 -24.057  1.00  0.00     0.155 HD
HETATM   13  C12 UNL     1      -0.244 -31.949 -25.288  1.00  0.00     0.096 C 
HETATM   14  C13 UNL     1      -0.835 -33.369 -25.190  1.00  0.00     0.052 C 
HETATM   15  C14 UNL     1      -0.671 -31.413 -26.606  1.00  0.00     0.061 C 
HETATM   16  C15 UNL     1       0.392 -30.629 -27.356  1.00  0.00     0.029 C 
ENDROOT
BRANCH   1  17
HETATM   17  C3  UNL     1       0.355 -27.578 -24.958  1.00  0.00     0.206 C 
BRANCH  17  18
HETATM   18  O2  UNL     1       0.226 -27.768 -23.594  1.00  0.00    -0.318 OA
BRANCH  18  19
HETATM   19  C2  UNL     1      -1.055 -27.788 -23.059  1.00  0.00     0.255 C 
HETATM   20  C1  UNL     1      -1.862 -26.549 -22.930  1.00  0.00     0.126 C 
HETATM   21  O1  UNL     1      -1.567 -28.888 -22.663  1.00  0.00    -0.266 OA
ENDBRANCH  18  19
ENDBRANCH  17  18
ENDBRANCH   1  17
BRANCH  16  22
HETATM   22  C16 UNL     1      -0.268 -30.016 -28.550  1.00  0.00     0.028 C 
BRANCH  22  23
HETATM   23  C17 UNL     1      -1.543 -30.590 -29.032  1.00  0.00     0.086 C 
HETATM   24 BR1  UNL     1      -2.084 -29.441 -30.541  1.00  0.00    -0.096 Br
ENDBRANCH  22  23
ENDBRANCH  16  22
BRANCH   6  25
HETATM   25  O4  UNL     1       1.714 -32.149 -28.727  1.00  0.00    -0.377 OA
ATOM     26  H4  UNL     1       2.164 -31.691 -29.426  1.00  0.00     0.211 HD
ENDBRANCH   6  25
BRANCH   7  27
HETATM   27  O5  UNL     1       1.562 -33.637 -26.817  1.00  0.00    -0.381 OA
ATOM     28  H5  UNL     1       1.361 -34.133 -26.032  1.00  0.00     0.211 HD
ENDBRANCH   7  27
BRANCH  13  29
HETATM   29  O6  UNL     1      -0.710 -31.259 -24.182  1.00  0.00    -0.384 OA
ATOM     30  H6  UNL     1      -1.427 -31.747 -23.794  1.00  0.00     0.211 HD
ENDBRANCH  13  29
TORSDOF 8
ENDMDL
