MODEL 1
REMARK VINA RESULT: -7.571103690      0.000      0.000
REMARK  6 active torsions:
REMARK  status: ('A' for Active; 'I' for Inactive)
REMARK    1  A    between atoms: C2_2  and  C3_3 
REMARK    2  A    between atoms: C4_4  and  O1_5 
REMARK    3  A    between atoms: C5_7  and  O2_8 
REMARK    4  A    between atoms: C11_16  and  O3_18 
REMARK    5  A    between atoms: C14_21  and  C15_22 
REMARK    6  A    between atoms: C15_22  and  O4_23 
REMARK       I    between atoms: N1_30  and  C21_31 
ROOT
HETATM    1  C3  UNL     1       0.876 -27.379 -26.632  1.00  0.00     0.118 C 
HETATM    2  C4  UNL     1       0.288 -27.857 -25.345  1.00  0.00     0.170 C 
HETATM    3  C5  UNL     1       0.433 -29.331 -25.081  1.00  0.00     0.155 C 
HETATM    4  C6  UNL     1       1.674 -29.971 -25.510  1.00  0.00     0.052 C 
HETATM    5  C7  UNL     1       2.305 -29.318 -26.756  1.00  0.00     0.098 C 
HETATM    6  C8  UNL     1       1.440 -29.970 -27.816  1.00  0.00     0.070 C 
HETATM    7  C9  UNL     1       1.760 -31.432 -27.452  1.00  0.00     0.116 C 
HETATM    8  F1  UNL     1       3.112 -31.545 -27.829  1.00  0.00    -0.242 F 
HETATM    9  C10 UNL     1       0.971 -32.336 -28.252  1.00  0.00     0.082 C 
HETATM   10  C11 UNL     1      -0.091 -33.154 -27.582  1.00  0.00     0.065 C 
HETATM   11  C12 UNL     1      -1.415 -32.446 -27.595  1.00  0.00     0.046 C 
HETATM   12  C13 UNL     1       0.396 -33.509 -26.228  1.00  0.00     0.056 C 
HETATM   13  C14 UNL     1      -0.513 -34.301 -25.390  1.00  0.00    -0.053 C 
HETATM   14  C16 UNL     1      -0.297 -33.936 -24.119  1.00  0.00    -0.021 C 
HETATM   15  C17 UNL     1       0.780 -32.874 -24.082  1.00  0.00     0.033 C 
HETATM   16  C18 UNL     1       0.514 -32.220 -25.423  1.00  0.00     0.012 C 
HETATM   17  C19 UNL     1       1.615 -31.404 -25.966  1.00  0.00     0.005 C 
HETATM   18  C20 UNL     1       2.921 -32.035 -25.429  1.00  0.00     0.019 C 
HETATM   19  N1  UNL     1       2.206 -27.887 -26.737  1.00  0.00    -0.340 N 
HETATM   20  C21 UNL     1       3.385 -27.109 -26.823  1.00  0.00     0.216 C 
HETATM   21  C22 UNL     1       4.713 -27.768 -26.928  1.00  0.00     0.117 C 
HETATM   22  O5  UNL     1       3.400 -25.847 -26.815  1.00  0.00    -0.274 OA
ENDROOT
BRANCH  10  23
HETATM   23  O3  UNL     1      -0.270 -34.357 -28.287  1.00  0.00    -0.389 OA
ATOM     24  H3  UNL     1      -1.111 -34.736 -28.057  1.00  0.00     0.210 HD
ENDBRANCH  10  23
BRANCH  13  25
HETATM   25  C15 UNL     1      -1.518 -35.330 -25.767  1.00  0.00     0.198 C 
BRANCH  25  26
HETATM   26  O4  UNL     1      -0.888 -36.481 -26.224  1.00  0.00    -0.397 OA
ATOM     27  H4  UNL     1      -0.890 -37.152 -25.550  1.00  0.00     0.209 HD
ENDBRANCH  25  26
ENDBRANCH  13  25
BRANCH   3  28
HETATM   28  O2  UNL     1       0.333 -29.417 -23.662  1.00  0.00    -0.392 OA
ATOM     29  H2  UNL     1       0.287 -30.353 -23.506  1.00  0.00     0.210 HD
ENDBRANCH   3  28
BRANCH   1  30
HETATM   30  C2  UNL     1       0.774 -25.869 -26.643  1.00  0.00     0.023 C 
HETATM   31  C1  UNL     1       0.056 -25.474 -27.942  1.00  0.00     0.007 C 
ENDBRANCH   1  30
BRANCH   2  32
HETATM   32  O1  UNL     1       0.857 -27.081 -24.325  1.00  0.00    -0.391 OA
ATOM     33  H1  UNL     1       0.152 -26.581 -23.932  1.00  0.00     0.210 HD
ENDBRANCH   2  32
TORSDOF 6
ENDMDL
MODEL 2
REMARK VINA RESULT: -7.115526413      2.416      4.122
REMARK  6 active torsions:
REMARK  status: ('A' for Active; 'I' for Inactive)
REMARK    1  A    between atoms: C2_2  and  C3_3 
REMARK    2  A    between atoms: C4_4  and  O1_5 
REMARK    3  A    between atoms: C5_7  and  O2_8 
REMARK    4  A    between atoms: C11_16  and  O3_18 
REMARK    5  A    between atoms: C14_21  and  C15_22 
REMARK    6  A    between atoms: C15_22  and  O4_23 
REMARK       I    between atoms: N1_30  and  C21_31 
ROOT
HETATM    1  C3  UNL     1       4.005 -29.914 -28.189  1.00  0.00     0.118 C 
HETATM    2  C4  UNL     1       3.916 -31.357 -28.561  1.00  0.00     0.170 C 
HETATM    3  C5  UNL     1       2.606 -32.024 -28.238  1.00  0.00     0.155 C 
HETATM    4  C6  UNL     1       1.391 -31.231 -28.402  1.00  0.00     0.052 C 
HETATM    5  C7  UNL     1       1.601 -29.723 -28.154  1.00  0.00     0.098 C 
HETATM    6  C8  UNL     1       1.556 -29.734 -26.639  1.00  0.00     0.070 C 
HETATM    7  C9  UNL     1       0.157 -30.363 -26.494  1.00  0.00     0.116 C 
HETATM    8  F1  UNL     1      -0.683 -29.339 -26.971  1.00  0.00    -0.242 F 
HETATM    9  C10 UNL     1      -0.144 -30.610 -25.105  1.00  0.00     0.082 C 
HETATM   10  C11 UNL     1      -0.243 -32.028 -24.629  1.00  0.00     0.065 C 
HETATM   11  C12 UNL     1       1.081 -32.531 -24.133  1.00  0.00     0.046 C 
HETATM   12  C13 UNL     1      -0.829 -32.835 -25.725  1.00  0.00     0.056 C 
HETATM   13  C14 UNL     1      -0.994 -34.271 -25.467  1.00  0.00    -0.053 C 
HETATM   14  C16 UNL     1      -0.829 -34.904 -26.637  1.00  0.00    -0.021 C 
HETATM   15  C17 UNL     1      -0.546 -33.885 -27.719  1.00  0.00     0.033 C 
HETATM   16  C18 UNL     1       0.165 -32.841 -26.880  1.00  0.00     0.012 C 
HETATM   17  C19 UNL     1       0.239 -31.492 -27.469  1.00  0.00     0.005 C 
HETATM   18  C20 UNL     1      -1.019 -31.340 -28.355  1.00  0.00     0.019 C 
HETATM   19  N1  UNL     1       2.846 -29.246 -28.686  1.00  0.00    -0.340 N 
HETATM   20  C21 UNL     1       2.838 -28.190 -29.627  1.00  0.00     0.216 C 
HETATM   21  C22 UNL     1       1.553 -27.581 -30.062  1.00  0.00     0.117 C 
HETATM   22  O5  UNL     1       3.878 -27.702 -30.149  1.00  0.00    -0.274 OA
ENDROOT
BRANCH  10  23
HETATM   23  O3  UNL     1      -1.133 -32.096 -23.543  1.00  0.00    -0.389 OA
ATOM     24  H3  UNL     1      -1.656 -32.887 -23.611  1.00  0.00     0.210 HD
ENDBRANCH  10  23
BRANCH  13  25
HETATM   25  C15 UNL     1      -1.285 -34.994 -24.201  1.00  0.00     0.198 C 
BRANCH  25  26
HETATM   26  O4  UNL     1      -1.608 -36.321 -24.461  1.00  0.00    -0.397 OA
ATOM     27  H4  UNL     1      -0.868 -36.772 -24.852  1.00  0.00     0.209 HD
ENDBRANCH  25  26
ENDBRANCH  13  25
BRANCH   3  28
HETATM   28  O2  UNL     1       2.570 -33.121 -29.146  1.00  0.00    -0.392 OA
ATOM     29  H2  UNL     1       2.059 -32.783 -29.873  1.00  0.00     0.210 HD
ENDBRANCH   3  28
BRANCH   1  30
HETATM   30  C2  UNL     1       5.318 -29.388 -28.730  1.00  0.00     0.023 C 
HETATM   31  C1  UNL     1       6.000 -28.619 -27.589  1.00  0.00     0.007 C 
ENDBRANCH   1  30
BRANCH   2  32
HETATM   32  O1  UNL     1       4.229 -31.446 -29.925  1.00  0.00    -0.391 OA
ATOM     33  H1  UNL     1       3.831 -30.695 -30.348  1.00  0.00     0.210 HD
ENDBRANCH   2  32
TORSDOF 6
ENDMDL
MODEL 3
REMARK VINA RESULT: -6.803208571      1.205      1.295
REMARK  6 active torsions:
REMARK  status: ('A' for Active; 'I' for Inactive)
REMARK    1  A    between atoms: C2_2  and  C3_3 
REMARK    2  A    between atoms: C4_4  and  O1_5 
REMARK    3  A    between atoms: C5_7  and  O2_8 
REMARK    4  A    between atoms: C11_16  and  O3_18 
REMARK    5  A    between atoms: C14_21  and  C15_22 
REMARK    6  A    between atoms: C15_22  and  O4_23 
REMARK       I    between atoms: N1_30  and  C21_31 
ROOT
HETATM    1  C3  UNL     1       1.172 -26.559 -25.774  1.00  0.00     0.118 C 
HETATM    2  C4  UNL     1       0.302 -27.258 -24.783  1.00  0.00     0.170 C 
HETATM    3  C5  UNL     1       0.451 -28.755 -24.742  1.00  0.00     0.155 C 
HETATM    4  C6  UNL     1       1.791 -29.303 -24.936  1.00  0.00     0.052 C 
HETATM    5  C7  UNL     1       2.683 -28.437 -25.849  1.00  0.00     0.098 C 
HETATM    6  C8  UNL     1       2.150 -28.898 -27.190  1.00  0.00     0.070 C 
HETATM    7  C9  UNL     1       2.442 -30.400 -27.007  1.00  0.00     0.116 C 
HETATM    8  F1  UNL     1       3.849 -30.437 -27.034  1.00  0.00    -0.242 F 
HETATM    9  C10 UNL     1       1.929 -31.154 -28.124  1.00  0.00     0.082 C 
HETATM   10  C11 UNL     1       0.775 -32.083 -27.899  1.00  0.00     0.065 C 
HETATM   11  C12 UNL     1      -0.536 -31.391 -28.135  1.00  0.00     0.046 C 
HETATM   12  C13 UNL     1       0.919 -32.668 -26.545  1.00  0.00     0.056 C 
HETATM   13  C14 UNL     1      -0.131 -33.599 -26.116  1.00  0.00    -0.053 C 
HETATM   14  C16 UNL     1      -0.263 -33.462 -24.790  1.00  0.00    -0.021 C 
HETATM   15  C17 UNL     1       0.713 -32.417 -24.297  1.00  0.00     0.033 C 
HETATM   16  C18 UNL     1       0.763 -31.539 -25.532  1.00  0.00     0.012 C 
HETATM   17  C19 UNL     1       1.923 -30.634 -25.626  1.00  0.00     0.005 C 
HETATM   18  C20 UNL     1       3.080 -31.341 -24.884  1.00  0.00     0.019 C 
HETATM   19  N1  UNL     1       2.509 -27.032 -25.616  1.00  0.00    -0.340 N 
HETATM   20  C21 UNL     1       3.630 -26.244 -25.261  1.00  0.00     0.216 C 
HETATM   21  C22 UNL     1       4.974 -26.867 -25.128  1.00  0.00     0.117 C 
HETATM   22  O5  UNL     1       3.578 -25.004 -25.037  1.00  0.00    -0.274 OA
ENDROOT
BRANCH  10  23
HETATM   23  O3  UNL     1       0.842 -33.145 -28.818  1.00  0.00    -0.389 OA
ATOM     24  H3  UNL     1       1.720 -33.509 -28.818  1.00  0.00     0.210 HD
ENDBRANCH  10  23
BRANCH  13  25
HETATM   25  C15 UNL     1      -0.953 -34.553 -26.908  1.00  0.00     0.198 C 
BRANCH  25  26
HETATM   26  O4  UNL     1      -0.631 -35.864 -26.577  1.00  0.00    -0.397 OA
ATOM     27  H4  UNL     1       0.087 -35.883 -25.956  1.00  0.00     0.209 HD
ENDBRANCH  25  26
ENDBRANCH  13  25
BRANCH   3  28
HETATM   28  O2  UNL     1      -0.002 -29.090 -23.433  1.00  0.00    -0.392 OA
ATOM     29  H2  UNL     1       0.258 -29.999 -23.341  1.00  0.00     0.210 HD
ENDBRANCH   3  28
BRANCH   1  30
HETATM   30  C2  UNL     1       0.999 -25.071 -25.557  1.00  0.00     0.023 C 
HETATM   31  C1  UNL     1      -0.248 -24.642 -26.344  1.00  0.00     0.007 C 
ENDBRANCH   1  30
BRANCH   2  32
HETATM   32  O1  UNL     1       0.553 -26.671 -23.534  1.00  0.00    -0.391 OA
ATOM     33  H1  UNL     1       0.703 -25.746 -23.690  1.00  0.00     0.210 HD
ENDBRANCH   2  32
TORSDOF 6
ENDMDL
MODEL 4
REMARK VINA RESULT: -6.756548354      3.112      5.421
REMARK  6 active torsions:
REMARK  status: ('A' for Active; 'I' for Inactive)
REMARK    1  A    between atoms: C2_2  and  C3_3 
REMARK    2  A    between atoms: C4_4  and  O1_5 
REMARK    3  A    between atoms: C5_7  and  O2_8 
REMARK    4  A    between atoms: C11_16  and  O3_18 
REMARK    5  A    between atoms: C14_21  and  C15_22 
REMARK    6  A    between atoms: C15_22  and  O4_23 
REMARK       I    between atoms: N1_30  and  C21_31 
ROOT
HETATM    1  C3  UNL     1       3.305 -31.701 -30.980  1.00  0.00     0.118 C 
HETATM    2  C4  UNL     1       2.551 -32.978 -30.811  1.00  0.00     0.170 C 
HETATM    3  C5  UNL     1       1.491 -32.962 -29.743  1.00  0.00     0.155 C 
HETATM    4  C6  UNL     1       0.731 -31.726 -29.570  1.00  0.00     0.052 C 
HETATM    5  C7  UNL     1       1.534 -30.456 -29.917  1.00  0.00     0.098 C 
HETATM    6  C8  UNL     1       2.314 -30.321 -28.625  1.00  0.00     0.070 C 
HETATM    7  C9  UNL     1       1.103 -30.246 -27.676  1.00  0.00     0.116 C 
HETATM    8  F1  UNL     1       0.541 -28.997 -28.006  1.00  0.00    -0.242 F 
HETATM    9  C10 UNL     1       1.539 -30.218 -26.301  1.00  0.00     0.082 C 
HETATM   10  C11 UNL     1       1.243 -31.397 -25.426  1.00  0.00     0.065 C 
HETATM   11  C12 UNL     1       2.364 -32.396 -25.459  1.00  0.00     0.046 C 
HETATM   12  C13 UNL     1      -0.073 -31.946 -25.832  1.00  0.00     0.056 C 
HETATM   13  C14 UNL     1      -0.543 -33.131 -25.104  1.00  0.00    -0.053 C 
HETATM   14  C16 UNL     1      -1.261 -33.864 -25.965  1.00  0.00    -0.021 C 
HETATM   15  C17 UNL     1      -1.285 -33.172 -27.310  1.00  0.00     0.033 C 
HETATM   16  C18 UNL     1       0.067 -32.490 -27.249  1.00  0.00     0.012 C 
HETATM   17  C19 UNL     1       0.260 -31.368 -28.186  1.00  0.00     0.005 C 
HETATM   18  C20 UNL     1      -1.139 -30.745 -28.403  1.00  0.00     0.019 C 
HETATM   19  N1  UNL     1       2.367 -30.630 -31.073  1.00  0.00    -0.340 N 
HETATM   20  C21 UNL     1       2.208 -29.762 -32.179  1.00  0.00     0.216 C 
HETATM   21  C22 UNL     1       1.186 -28.682 -32.145  1.00  0.00     0.117 C 
HETATM   22  O5  UNL     1       2.891 -29.834 -33.237  1.00  0.00    -0.274 OA
ENDROOT
BRANCH  10  23
HETATM   23  O3  UNL     1       1.121 -30.972 -24.092  1.00  0.00    -0.389 OA
ATOM     24  H3  UNL     1       0.736 -31.668 -23.572  1.00  0.00     0.210 HD
ENDBRANCH  10  23
BRANCH  13  25
HETATM   25  C15 UNL     1      -0.326 -33.541 -23.691  1.00  0.00     0.198 C 
BRANCH  25  26
HETATM   26  O4  UNL     1      -1.173 -32.836 -22.844  1.00  0.00    -0.397 OA
ATOM     27  H4  UNL     1      -1.460 -32.029 -23.256  1.00  0.00     0.209 HD
ENDBRANCH  25  26
ENDBRANCH  13  25
BRANCH   3  28
HETATM   28  O2  UNL     1       0.602 -33.998 -30.153  1.00  0.00    -0.392 OA
ATOM     29  H2  UNL     1      -0.119 -33.919 -29.539  1.00  0.00     0.210 HD
ENDBRANCH   3  28
BRANCH   1  30
HETATM   30  C2  UNL     1       4.202 -31.862 -32.189  1.00  0.00     0.023 C 
HETATM   31  C1  UNL     1       5.305 -32.859 -31.805  1.00  0.00     0.007 C 
ENDBRANCH   1  30
BRANCH   2  32
HETATM   32  O1  UNL     1       2.024 -33.309 -32.069  1.00  0.00    -0.391 OA
ATOM     33  H1  UNL     1       1.738 -34.213 -32.019  1.00  0.00     0.210 HD
ENDBRANCH   2  32
TORSDOF 6
ENDMDL
MODEL 5
REMARK VINA RESULT: -6.631006248      3.651      6.119
REMARK  6 active torsions:
REMARK  status: ('A' for Active; 'I' for Inactive)
REMARK    1  A    between atoms: C2_2  and  C3_3 
REMARK    2  A    between atoms: C4_4  and  O1_5 
REMARK    3  A    between atoms: C5_7  and  O2_8 
REMARK    4  A    between atoms: C11_16  and  O3_18 
REMARK    5  A    between atoms: C14_21  and  C15_22 
REMARK    6  A    between atoms: C15_22  and  O4_23 
REMARK       I    between atoms: N1_30  and  C21_31 
ROOT
HETATM    1  C3  UNL     1      -0.023 -32.135 -26.047  1.00  0.00     0.118 C 
HETATM    2  C4  UNL     1      -0.291 -33.377 -26.831  1.00  0.00     0.170 C 
HETATM    3  C5  UNL     1      -0.526 -33.169 -28.302  1.00  0.00     0.155 C 
HETATM    4  C6  UNL     1       0.258 -32.132 -28.969  1.00  0.00     0.052 C 
HETATM    5  C7  UNL     1       0.630 -30.954 -28.046  1.00  0.00     0.098 C 
HETATM    6  C8  UNL     1      -0.681 -30.196 -28.106  1.00  0.00     0.070 C 
HETATM    7  C9  UNL     1      -0.724 -30.009 -29.635  1.00  0.00     0.116 C 
HETATM    8  F1  UNL     1       0.337 -29.110 -29.856  1.00  0.00    -0.242 F 
HETATM    9  C10 UNL     1      -1.962 -29.384 -30.032  1.00  0.00     0.082 C 
HETATM   10  C11 UNL     1      -2.954 -30.183 -30.820  1.00  0.00     0.065 C 
HETATM   11  C12 UNL     1      -3.931 -30.882 -29.920  1.00  0.00     0.046 C 
HETATM   12  C13 UNL     1      -2.197 -31.089 -31.717  1.00  0.00     0.056 C 
HETATM   13  C14 UNL     1      -2.991 -31.983 -32.570  1.00  0.00    -0.053 C 
HETATM   14  C16 UNL     1      -2.284 -33.110 -32.726  1.00  0.00    -0.021 C 
HETATM   15  C17 UNL     1      -0.981 -32.990 -31.968  1.00  0.00     0.033 C 
HETATM   16  C18 UNL     1      -1.444 -32.085 -30.843  1.00  0.00     0.012 C 
HETATM   17  C19 UNL     1      -0.377 -31.382 -30.109  1.00  0.00     0.005 C 
HETATM   18  C20 UNL     1       0.774 -31.171 -31.120  1.00  0.00     0.019 C 
HETATM   19  N1  UNL     1       0.984 -31.382 -26.723  1.00  0.00    -0.340 N 
HETATM   20  C21 UNL     1       2.253 -31.040 -26.199  1.00  0.00     0.216 C 
HETATM   21  C22 UNL     1       3.212 -30.248 -27.014  1.00  0.00     0.117 C 
HETATM   22  O5  UNL     1       2.654 -31.368 -25.049  1.00  0.00    -0.274 OA
ENDROOT
BRANCH  10  23
HETATM   23  O3  UNL     1      -3.705 -29.322 -31.640  1.00  0.00    -0.389 OA
ATOM     24  H3  UNL     1      -4.605 -29.626 -31.678  1.00  0.00     0.210 HD
ENDBRANCH  10  23
BRANCH  13  25
HETATM   25  C15 UNL     1      -4.326 -31.783 -33.192  1.00  0.00     0.198 C 
BRANCH  25  26
HETATM   26  O4  UNL     1      -4.289 -30.730 -34.098  1.00  0.00    -0.397 OA
ATOM     27  H4  UNL     1      -4.283 -31.058 -34.990  1.00  0.00     0.209 HD
ENDBRANCH  25  26
ENDBRANCH  13  25
BRANCH   3  28
HETATM   28  O2  UNL     1      -0.194 -34.435 -28.866  1.00  0.00    -0.392 OA
ATOM     29  H2  UNL     1      -0.982 -34.673 -29.341  1.00  0.00     0.210 HD
ENDBRANCH   3  28
BRANCH   1  30
HETATM   30  C2  UNL     1       0.343 -32.558 -24.640  1.00  0.00     0.023 C 
HETATM   31  C1  UNL     1      -0.915 -33.177 -24.013  1.00  0.00     0.007 C 
ENDBRANCH   1  30
BRANCH   2  32
HETATM   32  O1  UNL     1       0.780 -34.250 -26.589  1.00  0.00    -0.391 OA
ATOM     33  H1  UNL     1       1.144 -34.012 -25.744  1.00  0.00     0.210 HD
ENDBRANCH   2  32
TORSDOF 6
ENDMDL
