MODEL 1
REMARK VINA RESULT: -7.324099154      0.000      0.000
REMARK  4 active torsions:
REMARK  status: ('A' for Active; 'I' for Inactive)
REMARK    1  A    between atoms: C2_2  and  N1_4 
REMARK    2  A    between atoms: C6_7  and  C7_8 
REMARK    3  A    between atoms: C6_7  and  N3_18 
REMARK       I    between atoms: C7_8  and  N2_10 
REMARK    4  A    between atoms: N2_10  and  C8_12 
ROOT
HETATM    1  N1  UNL     1     -24.528  27.163  92.155  1.00  0.00     0.092 N 
HETATM    2  C4  UNL     1     -24.715  28.006  93.288  1.00  0.00     0.276 C 
HETATM    3  C5  UNL     1     -26.117  28.507  93.400  1.00  0.00     0.072 C 
HETATM    4  C6  UNL     1     -27.156  27.380  93.329  1.00  0.00     0.119 C 
HETATM    5  C19 UNL     1     -26.817  26.569  92.120  1.00  0.00     0.072 C 
HETATM    6  C20 UNL     1     -25.399  26.000  92.233  1.00  0.00     0.276 C 
ENDROOT
BRANCH   4   7
HETATM    7  C7  UNL     1     -28.457  28.029  93.099  1.00  0.00     0.246 C 
HETATM    8  O1  UNL     1     -28.957  28.224  91.962  1.00  0.00    -0.271 OA
HETATM    9  N2  UNL     1     -29.216  28.469  94.208  1.00  0.00    -0.354 N 
ATOM     10  H2  UNL     1     -28.844  28.325  95.146  1.00  0.00     0.162 HD
BRANCH   9  11
HETATM   11  C8  UNL     1     -30.523  29.128  94.055  1.00  0.00     0.084 C 
HETATM   12  C9  UNL     1     -31.490  28.098  93.584  1.00  0.00     0.025 C 
HETATM   13  C10 UNL     1     -32.239  27.557  94.788  1.00  0.00     0.002 C 
HETATM   14  C11 UNL     1     -33.099  28.690  95.304  1.00  0.00     0.000 C 
HETATM   15  C12 UNL     1     -32.272  29.888  95.702  1.00  0.00     0.002 C 
HETATM   16  C13 UNL     1     -30.832  29.762  95.362  1.00  0.00     0.025 C 
ENDBRANCH   9  11
ENDBRANCH   4   7
BRANCH   4  17
HETATM   17  N3  UNL     1     -27.061  26.651  94.542  1.00  0.00    -0.355 N 
HETATM   18  C14 UNL     1     -27.679  25.399  94.657  1.00  0.00     0.066 C 
HETATM   19  C15 UNL     1     -28.863  25.318  95.585  1.00  0.00     0.065 C 
HETATM   20  C16 UNL     1     -28.550  26.033  96.861  1.00  0.00     0.091 C 
HETATM   21 CL1  UNL     1     -28.765  24.968  98.287  1.00  0.00    -0.124 Cl
HETATM   22  C17 UNL     1     -27.163  26.584  96.933  1.00  0.00     0.065 C 
HETATM   23  C18 UNL     1     -26.778  27.376  95.708  1.00  0.00     0.066 C 
ENDBRANCH   4  17
BRANCH   1  24
HETATM   24  C2  UNL     1     -23.184  26.868  91.811  1.00  0.00     0.215 C 
HETATM   25  C1  UNL     1     -22.693  27.552  90.558  1.00  0.00     0.042 C 
HETATM   26  C3  UNL     1     -22.973  25.387  91.806  1.00  0.00     0.042 C 
ENDBRANCH   1  24
TORSDOF 4
ENDMDL
MODEL 2
REMARK VINA RESULT: -6.541296997      1.512      1.762
REMARK  4 active torsions:
REMARK  status: ('A' for Active; 'I' for Inactive)
REMARK    1  A    between atoms: C2_2  and  N1_4 
REMARK    2  A    between atoms: C6_7  and  C7_8 
REMARK    3  A    between atoms: C6_7  and  N3_18 
REMARK       I    between atoms: C7_8  and  N2_10 
REMARK    4  A    between atoms: N2_10  and  C8_12 
ROOT
HETATM    1  N1  UNL     1     -24.059  28.422  91.737  1.00  0.00     0.092 N 
HETATM    2  C4  UNL     1     -24.229  28.351  93.149  1.00  0.00     0.276 C 
HETATM    3  C5  UNL     1     -25.572  28.838  93.586  1.00  0.00     0.072 C 
HETATM    4  C6  UNL     1     -26.722  28.169  92.821  1.00  0.00     0.119 C 
HETATM    5  C19 UNL     1     -26.392  28.293  91.369  1.00  0.00     0.072 C 
HETATM    6  C20 UNL     1     -25.057  27.609  91.059  1.00  0.00     0.276 C 
ENDROOT
BRANCH   4   7
HETATM    7  C7  UNL     1     -27.924  28.973  93.092  1.00  0.00     0.246 C 
HETATM    8  O1  UNL     1     -28.150  30.098  92.578  1.00  0.00    -0.271 OA
HETATM    9  N2  UNL     1     -28.904  28.476  93.980  1.00  0.00    -0.354 N 
ATOM     10  H2  UNL     1     -28.757  27.565  94.414  1.00  0.00     0.162 HD
BRANCH   9  11
HETATM   11  C8  UNL     1     -30.130  29.225  94.301  1.00  0.00     0.084 C 
HETATM   12  C9  UNL     1     -31.216  28.698  93.429  1.00  0.00     0.025 C 
HETATM   13  C10 UNL     1     -32.002  27.663  94.214  1.00  0.00     0.002 C 
HETATM   14  C11 UNL     1     -32.717  28.413  95.317  1.00  0.00     0.000 C 
HETATM   15  C12 UNL     1     -31.752  29.132  96.227  1.00  0.00     0.002 C 
HETATM   16  C13 UNL     1     -30.341  29.083  95.764  1.00  0.00     0.025 C 
ENDBRANCH   9  11
ENDBRANCH   4   7
BRANCH   4  17
HETATM   17  N3  UNL     1     -26.793  26.825  93.270  1.00  0.00    -0.355 N 
HETATM   18  C14 UNL     1     -27.306  25.831  92.428  1.00  0.00     0.066 C 
HETATM   19  C15 UNL     1     -28.633  25.235  92.825  1.00  0.00     0.065 C 
HETATM   20  C16 UNL     1     -28.631  24.939  94.291  1.00  0.00     0.091 C 
HETATM   21 CL1  UNL     1     -29.015  23.219  94.620  1.00  0.00    -0.124 Cl
HETATM   22  C17 UNL     1     -27.337  25.237  94.977  1.00  0.00     0.065 C 
HETATM   23  C18 UNL     1     -26.800  26.609  94.656  1.00  0.00     0.066 C 
ENDBRANCH   4  17
BRANCH   1  24
HETATM   24  C2  UNL     1     -22.735  28.248  91.257  1.00  0.00     0.215 C 
HETATM   25  C1  UNL     1     -22.191  29.422  90.478  1.00  0.00     0.042 C 
HETATM   26  C3  UNL     1     -22.623  26.945  90.532  1.00  0.00     0.042 C 
ENDBRANCH   1  24
TORSDOF 4
ENDMDL
MODEL 3
REMARK VINA RESULT: -6.307538902      1.866      6.502
REMARK  4 active torsions:
REMARK  status: ('A' for Active; 'I' for Inactive)
REMARK    1  A    between atoms: C2_2  and  N1_4 
REMARK    2  A    between atoms: C6_7  and  C7_8 
REMARK    3  A    between atoms: C6_7  and  N3_18 
REMARK       I    between atoms: C7_8  and  N2_10 
REMARK    4  A    between atoms: N2_10  and  C8_12 
ROOT
HETATM    1  N1  UNL     1     -29.652  28.257  95.109  1.00  0.00     0.092 N 
HETATM    2  C4  UNL     1     -29.362  27.782  93.798  1.00  0.00     0.276 C 
HETATM    3  C5  UNL     1     -27.921  27.942  93.440  1.00  0.00     0.072 C 
HETATM    4  C6  UNL     1     -26.980  27.353  94.499  1.00  0.00     0.119 C 
HETATM    5  C19 UNL     1     -27.420  27.911  95.813  1.00  0.00     0.072 C 
HETATM    6  C20 UNL     1     -28.876  27.529  96.101  1.00  0.00     0.276 C 
ENDROOT
BRANCH   4   7
HETATM    7  C7  UNL     1     -25.638  27.879  94.201  1.00  0.00     0.246 C 
HETATM    8  O1  UNL     1     -25.015  28.682  94.941  1.00  0.00    -0.271 OA
HETATM    9  N2  UNL     1     -24.984  27.474  93.015  1.00  0.00    -0.354 N 
ATOM     10  H2  UNL     1     -25.457  26.821  92.391  1.00  0.00     0.162 HD
BRANCH   9  11
HETATM   11  C8  UNL     1     -23.644  27.961  92.650  1.00  0.00     0.084 C 
HETATM   12  C9  UNL     1     -22.885  26.805  92.097  1.00  0.00     0.025 C 
HETATM   13  C10 UNL     1     -22.985  26.845  90.583  1.00  0.00     0.002 C 
HETATM   14  C11 UNL     1     -22.214  28.067  90.133  1.00  0.00     0.000 C 
HETATM   15  C12 UNL     1     -22.776  29.336  90.725  1.00  0.00     0.002 C 
HETATM   16  C13 UNL     1     -23.848  29.107  91.728  1.00  0.00     0.025 C 
ENDBRANCH   9  11
ENDBRANCH   4   7
BRANCH   4  17
HETATM   17  N3  UNL     1     -27.096  25.941  94.419  1.00  0.00    -0.355 N 
HETATM   18  C14 UNL     1     -27.641  25.346  93.275  1.00  0.00     0.066 C 
HETATM   19  C15 UNL     1     -28.987  24.688  93.437  1.00  0.00     0.065 C 
HETATM   20  C16 UNL     1     -28.997  23.870  94.690  1.00  0.00     0.091 C 
HETATM   21 CL1  UNL     1     -29.438  22.164  94.363  1.00  0.00    -0.124 Cl
HETATM   22  C17 UNL     1     -27.695  23.852  95.423  1.00  0.00     0.065 C 
HETATM   23  C18 UNL     1     -27.113  25.228  95.627  1.00  0.00     0.066 C 
ENDBRANCH   4  17
BRANCH   1  24
HETATM   24  C2  UNL     1     -31.025  28.405  95.432  1.00  0.00     0.215 C 
HETATM   25  C1  UNL     1     -31.976  27.887  94.380  1.00  0.00     0.042 C 
HETATM   26  C3  UNL     1     -31.302  29.816  95.846  1.00  0.00     0.042 C 
ENDBRANCH   1  24
TORSDOF 4
ENDMDL
MODEL 4
REMARK VINA RESULT: -6.278073511      1.900      6.585
REMARK  4 active torsions:
REMARK  status: ('A' for Active; 'I' for Inactive)
REMARK    1  A    between atoms: C2_2  and  N1_4 
REMARK    2  A    between atoms: C6_7  and  C7_8 
REMARK    3  A    between atoms: C6_7  and  N3_18 
REMARK       I    between atoms: C7_8  and  N2_10 
REMARK    4  A    between atoms: N2_10  and  C8_12 
ROOT
HETATM    1  N1  UNL     1     -30.331  29.357  95.238  1.00  0.00     0.092 N 
HETATM    2  C4  UNL     1     -30.121  29.059  93.861  1.00  0.00     0.276 C 
HETATM    3  C5  UNL     1     -28.690  28.759  93.555  1.00  0.00     0.072 C 
HETATM    4  C6  UNL     1     -28.097  27.691  94.484  1.00  0.00     0.119 C 
HETATM    5  C19 UNL     1     -28.419  28.119  95.878  1.00  0.00     0.072 C 
HETATM    6  C20 UNL     1     -29.935  28.231  96.071  1.00  0.00     0.276 C 
ENDROOT
BRANCH   4   7
HETATM    7  C7  UNL     1     -26.638  27.752  94.308  1.00  0.00     0.246 C 
HETATM    8  O1  UNL     1     -25.828  28.029  95.229  1.00  0.00    -0.271 OA
HETATM    9  N2  UNL     1     -26.082  27.485  93.036  1.00  0.00    -0.354 N 
ATOM     10  H2  UNL     1     -26.708  27.253  92.265  1.00  0.00     0.162 HD
BRANCH   9  11
HETATM   11  C8  UNL     1     -24.632  27.531  92.784  1.00  0.00     0.084 C 
HETATM   12  C9  UNL     1     -24.079  26.190  93.121  1.00  0.00     0.025 C 
HETATM   13  C10 UNL     1     -23.973  25.380  91.842  1.00  0.00     0.002 C 
HETATM   14  C11 UNL     1     -22.903  26.042  91.001  1.00  0.00     0.000 C 
HETATM   15  C12 UNL     1     -23.246  27.476  90.681  1.00  0.00     0.002 C 
HETATM   16  C13 UNL     1     -24.461  27.972  91.377  1.00  0.00     0.025 C 
ENDBRANCH   9  11
ENDBRANCH   4   7
BRANCH   4  17
HETATM   17  N3  UNL     1     -28.688  26.452  94.123  1.00  0.00    -0.355 N 
HETATM   18  C14 UNL     1     -29.552  25.803  95.013  1.00  0.00     0.066 C 
HETATM   19  C15 UNL     1     -29.047  24.519  95.621  1.00  0.00     0.065 C 
HETATM   20  C16 UNL     1     -28.417  23.675  94.559  1.00  0.00     0.091 C 
HETATM   21 CL1  UNL     1     -29.163  22.047  94.478  1.00  0.00    -0.124 Cl
HETATM   22  C17 UNL     1     -28.491  24.259  93.185  1.00  0.00     0.065 C 
HETATM   23  C18 UNL     1     -28.046  25.698  93.130  1.00  0.00     0.066 C 
ENDBRANCH   4  17
BRANCH   1  24
HETATM   24  C2  UNL     1     -31.588  29.921  95.571  1.00  0.00     0.215 C 
HETATM   25  C1  UNL     1     -32.036  29.662  96.990  1.00  0.00     0.042 C 
HETATM   26  C3  UNL     1     -32.606  29.540  94.544  1.00  0.00     0.042 C 
ENDBRANCH   1  24
TORSDOF 4
ENDMDL
MODEL 5
REMARK VINA RESULT: -6.086806346      1.869      6.159
REMARK  4 active torsions:
REMARK  status: ('A' for Active; 'I' for Inactive)
REMARK    1  A    between atoms: C2_2  and  N1_4 
REMARK    2  A    between atoms: C6_7  and  C7_8 
REMARK    3  A    between atoms: C6_7  and  N3_18 
REMARK       I    between atoms: C7_8  and  N2_10 
REMARK    4  A    between atoms: N2_10  and  C8_12 
ROOT
HETATM    1  N1  UNL     1     -29.042  26.998  92.840  1.00  0.00     0.092 N 
HETATM    2  C4  UNL     1     -28.487  25.689  92.920  1.00  0.00     0.276 C 
HETATM    3  C5  UNL     1     -26.994  25.702  92.921  1.00  0.00     0.072 C 
HETATM    4  C6  UNL     1     -26.411  26.653  93.975  1.00  0.00     0.119 C 
HETATM    5  C19 UNL     1     -27.103  27.964  93.790  1.00  0.00     0.072 C 
HETATM    6  C20 UNL     1     -28.616  27.805  93.973  1.00  0.00     0.276 C 
ENDROOT
BRANCH   4   7
HETATM    7  C7  UNL     1     -24.990  26.830  93.634  1.00  0.00     0.246 C 
HETATM    8  O1  UNL     1     -24.049  26.210  94.190  1.00  0.00    -0.271 OA
HETATM    9  N2  UNL     1     -24.631  27.747  92.620  1.00  0.00    -0.354 N 
ATOM     10  H2  UNL     1     -25.368  28.267  92.144  1.00  0.00     0.162 HD
BRANCH   9  11
HETATM   11  C8  UNL     1     -23.231  27.980  92.227  1.00  0.00     0.084 C 
HETATM   12  C9  UNL     1     -22.835  26.872  91.314  1.00  0.00     0.025 C 
HETATM   13  C10 UNL     1     -23.001  27.348  89.882  1.00  0.00     0.002 C 
HETATM   14  C11 UNL     1     -21.961  28.424  89.663  1.00  0.00     0.000 C 
HETATM   15  C12 UNL     1     -22.136  29.580  90.618  1.00  0.00     0.002 C 
HETATM   16  C13 UNL     1     -23.174  29.349  91.655  1.00  0.00     0.025 C 
ENDBRANCH   9  11
ENDBRANCH   4   7
BRANCH   4  17
HETATM   17  N3  UNL     1     -26.649  26.064  95.243  1.00  0.00    -0.355 N 
HETATM   18  C14 UNL     1     -27.333  24.846  95.332  1.00  0.00     0.066 C 
HETATM   19  C15 UNL     1     -28.711  24.894  95.941  1.00  0.00     0.065 C 
HETATM   20  C16 UNL     1     -28.686  25.742  97.173  1.00  0.00     0.091 C 
HETATM   21 CL1  UNL     1     -29.291  24.850  98.605  1.00  0.00    -0.124 Cl
HETATM   22  C17 UNL     1     -27.333  26.271  97.527  1.00  0.00     0.065 C 
HETATM   23  C18 UNL     1     -26.625  26.911  96.360  1.00  0.00     0.066 C 
ENDBRANCH   4  17
BRANCH   1  24
HETATM   24  C2  UNL     1     -30.429  27.072  92.554  1.00  0.00     0.215 C 
HETATM   25  C1  UNL     1     -30.786  27.990  91.410  1.00  0.00     0.042 C 
HETATM   26  C3  UNL     1     -31.193  27.355  93.809  1.00  0.00     0.042 C 
ENDBRANCH   1  24
TORSDOF 4
ENDMDL
