MODEL 1
REMARK VINA RESULT: -8.051529262      0.000      0.000
REMARK  5 active torsions:
REMARK  status: ('A' for Active; 'I' for Inactive)
REMARK       I    between atoms: C2_2  and  N1_4 
REMARK    1  A    between atoms: N1_4  and  S1_5 
REMARK    2  A    between atoms: N1_4  and  C15_25 
REMARK    3  A    between atoms: S1_5  and  N2_6 
REMARK    4  A    between atoms: C6_10  and  C7_11 
REMARK       I    between atoms: C7_11  and  N3_13 
REMARK    5  A    between atoms: N3_13  and  C8_15 
ROOT
HETATM    1  C7  UNL     1     -27.983  25.518  93.771  1.00  0.00     0.247 C 
HETATM    2  O2  UNL     1     -28.509  24.768  92.877  1.00  0.00    -0.271 OA
HETATM    3  N3  UNL     1     -26.803  26.091  93.592  1.00  0.00    -0.310 N 
ATOM      4  H3  UNL     1     -26.486  26.257  94.547  1.00  0.00     0.170 HD
ENDROOT
BRANCH   1   5
HETATM    5  C6  UNL     1     -28.845  25.667  95.025  1.00  0.00     0.190 C 
HETATM    6  N2  UNL     1     -28.467  26.849  95.674  1.00  0.00    -0.304 N 
HETATM    7  C3  UNL     1     -27.434  26.606  96.589  1.00  0.00     0.074 C 
HETATM    8  C4  UNL     1     -27.541  25.141  96.951  1.00  0.00     0.048 C 
HETATM    9  C5  UNL     1     -28.499  24.551  95.948  1.00  0.00     0.041 C 
BRANCH   6  10
HETATM   10  S1  UNL     1     -29.510  28.158  95.827  1.00  0.00     0.075 SA
BRANCH  10  11
HETATM   11  N1  UNL     1     -30.196  28.867  94.399  1.00  0.00    -0.270 N 
HETATM   12  C2  UNL     1     -29.452  29.208  93.235  1.00  0.00     0.227 C 
HETATM   13  C1  UNL     1     -30.097  29.810  92.055  1.00  0.00     0.118 C 
HETATM   14  O1  UNL     1     -28.192  28.987  93.212  1.00  0.00    -0.273 OA
BRANCH  11  15
HETATM   15  C15 UNL     1     -31.619  29.130  94.369  1.00  0.00     0.093 C 
HETATM   16  C16 UNL     1     -32.086  29.920  95.577  1.00  0.00     0.033 C 
HETATM   17  C17 UNL     1     -32.372  27.826  94.399  1.00  0.00     0.033 C 
ENDBRANCH  11  15
ENDBRANCH  10  11
ENDBRANCH   6  10
ENDBRANCH   1   5
BRANCH   3  18
HETATM   18  C8  UNL     1     -25.886  26.530  92.924  1.00  0.00     0.130 A 
HETATM   19  N4  UNL     1     -25.461  27.811  93.203  1.00  0.00    -0.350 N 
HETATM   20  C9  UNL     1     -24.466  28.405  92.550  1.00  0.00     0.097 A 
ATOM     21  H4  UNL     1     -25.932  28.328  93.945  1.00  0.00     0.166 HD
HETATM   22  C10 UNL     1     -23.787  27.773  91.544  1.00  0.00    -0.039 A 
HETATM   23  C11 UNL     1     -22.673  28.446  90.820  1.00  0.00     0.050 C 
HETATM   24  C12 UNL     1     -24.171  26.494  91.226  1.00  0.00    -0.029 A 
HETATM   25  C13 UNL     1     -23.430  25.804  90.136  1.00  0.00     0.050 C 
HETATM   26  C14 UNL     1     -25.213  25.883  91.915  1.00  0.00     0.084 A 
HETATM   27 CL1  UNL     1     -25.617  24.245  91.408  1.00  0.00    -0.080 Cl
ENDBRANCH   3  18
TORSDOF 5
ENDMDL
MODEL 2
REMARK VINA RESULT: -7.771113969      1.503      1.715
REMARK  5 active torsions:
REMARK  status: ('A' for Active; 'I' for Inactive)
REMARK       I    between atoms: C2_2  and  N1_4 
REMARK    1  A    between atoms: N1_4  and  S1_5 
REMARK    2  A    between atoms: N1_4  and  C15_25 
REMARK    3  A    between atoms: S1_5  and  N2_6 
REMARK    4  A    between atoms: C6_10  and  C7_11 
REMARK       I    between atoms: C7_11  and  N3_13 
REMARK    5  A    between atoms: N3_13  and  C8_15 
ROOT
HETATM    1  C7  UNL     1     -27.330  25.285  94.327  1.00  0.00     0.247 C 
HETATM    2  O2  UNL     1     -27.027  24.042  94.341  1.00  0.00    -0.271 OA
HETATM    3  N3  UNL     1     -26.530  26.190  93.785  1.00  0.00    -0.310 N 
ATOM      4  H3  UNL     1     -26.807  27.049  94.260  1.00  0.00     0.170 HD
ENDROOT
BRANCH   1   5
HETATM    5  C6  UNL     1     -28.675  25.592  94.987  1.00  0.00     0.190 C 
HETATM    6  N2  UNL     1     -28.744  26.973  95.211  1.00  0.00    -0.304 N 
HETATM    7  C3  UNL     1     -28.216  27.300  96.468  1.00  0.00     0.074 C 
HETATM    8  C4  UNL     1     -28.337  26.045  97.304  1.00  0.00     0.048 C 
HETATM    9  C5  UNL     1     -28.679  24.947  96.329  1.00  0.00     0.041 C 
BRANCH   6  10
HETATM   10  S1  UNL     1     -29.862  27.952  94.426  1.00  0.00     0.075 SA
BRANCH  10  11
HETATM   11  N1  UNL     1     -29.731  28.180  92.710  1.00  0.00    -0.270 N 
HETATM   12  C2  UNL     1     -29.052  29.267  92.094  1.00  0.00     0.227 C 
HETATM   13  C1  UNL     1     -28.980  29.402  90.629  1.00  0.00     0.118 C 
HETATM   14  O1  UNL     1     -28.489  30.149  92.830  1.00  0.00    -0.273 OA
BRANCH  11  15
HETATM   15  C15 UNL     1     -30.343  27.206  91.831  1.00  0.00     0.093 C 
HETATM   16  C16 UNL     1     -31.675  26.708  92.360  1.00  0.00     0.033 C 
HETATM   17  C17 UNL     1     -29.451  25.997  91.723  1.00  0.00     0.033 C 
ENDBRANCH  11  15
ENDBRANCH  10  11
ENDBRANCH   6  10
ENDBRANCH   1   5
BRANCH   3  18
HETATM   18  C8  UNL     1     -25.649  26.568  93.036  1.00  0.00     0.130 A 
HETATM   19  N4  UNL     1     -25.082  27.796  93.302  1.00  0.00    -0.350 N 
HETATM   20  C9  UNL     1     -24.107  28.321  92.563  1.00  0.00     0.097 A 
ATOM     21  H4  UNL     1     -25.425  28.327  94.102  1.00  0.00     0.166 HD
HETATM   22  C10 UNL     1     -23.596  27.666  91.476  1.00  0.00    -0.039 A 
HETATM   23  C11 UNL     1     -22.504  28.262  90.657  1.00  0.00     0.050 C 
HETATM   24  C12 UNL     1     -24.127  26.438  91.168  1.00  0.00    -0.029 A 
HETATM   25  C13 UNL     1     -23.567  25.723  89.990  1.00  0.00     0.050 C 
HETATM   26  C14 UNL     1     -25.145  25.900  91.947  1.00  0.00     0.084 A 
HETATM   27 CL1  UNL     1     -25.747  24.322  91.444  1.00  0.00    -0.080 Cl
ENDBRANCH   3  18
TORSDOF 5
ENDMDL
MODEL 3
REMARK VINA RESULT: -7.719569561      1.310      1.316
REMARK  5 active torsions:
REMARK  status: ('A' for Active; 'I' for Inactive)
REMARK       I    between atoms: C2_2  and  N1_4 
REMARK    1  A    between atoms: N1_4  and  S1_5 
REMARK    2  A    between atoms: N1_4  and  C15_25 
REMARK    3  A    between atoms: S1_5  and  N2_6 
REMARK    4  A    between atoms: C6_10  and  C7_11 
REMARK       I    between atoms: C7_11  and  N3_13 
REMARK    5  A    between atoms: N3_13  and  C8_15 
ROOT
HETATM    1  C7  UNL     1     -26.586  25.892  95.069  1.00  0.00     0.247 C 
HETATM    2  O2  UNL     1     -25.808  25.812  96.082  1.00  0.00    -0.271 OA
HETATM    3  N3  UNL     1     -26.201  26.464  93.939  1.00  0.00    -0.310 N 
ATOM      4  H3  UNL     1     -27.086  26.734  93.509  1.00  0.00     0.170 HD
ENDROOT
BRANCH   1   5
HETATM    5  C6  UNL     1     -27.963  25.272  95.309  1.00  0.00     0.190 C 
HETATM    6  N2  UNL     1     -28.889  26.313  95.453  1.00  0.00    -0.304 N 
HETATM    7  C3  UNL     1     -28.992  26.704  96.795  1.00  0.00     0.074 C 
HETATM    8  C4  UNL     1     -28.551  25.507  97.608  1.00  0.00     0.048 C 
HETATM    9  C5  UNL     1     -27.920  24.563  96.616  1.00  0.00     0.041 C 
BRANCH   6  10
HETATM   10  S1  UNL     1     -30.129  26.568  94.347  1.00  0.00     0.075 SA
BRANCH  10  11
HETATM   11  N1  UNL     1     -30.314  28.136  93.628  1.00  0.00    -0.270 N 
HETATM   12  C2  UNL     1     -29.533  28.619  92.542  1.00  0.00     0.227 C 
HETATM   13  C1  UNL     1     -29.740  29.964  91.979  1.00  0.00     0.118 C 
HETATM   14  O1  UNL     1     -28.626  27.867  92.042  1.00  0.00    -0.273 OA
BRANCH  11  15
HETATM   15  C15 UNL     1     -31.330  29.025  94.151  1.00  0.00     0.093 C 
HETATM   16  C16 UNL     1     -30.920  29.660  95.466  1.00  0.00     0.033 C 
HETATM   17  C17 UNL     1     -32.586  28.241  94.432  1.00  0.00     0.033 C 
ENDBRANCH  11  15
ENDBRANCH  10  11
ENDBRANCH   6  10
ENDBRANCH   1   5
BRANCH   3  18
HETATM   18  C8  UNL     1     -25.381  26.849  93.128  1.00  0.00     0.130 A 
HETATM   19  N4  UNL     1     -24.838  28.100  93.325  1.00  0.00    -0.350 N 
HETATM   20  C9  UNL     1     -23.928  28.634  92.514  1.00  0.00     0.097 A 
ATOM     21  H4  UNL     1     -25.148  28.642  94.131  1.00  0.00     0.166 HD
HETATM   22  C10 UNL     1     -23.464  27.964  91.414  1.00  0.00    -0.039 A 
HETATM   23  C11 UNL     1     -22.444  28.570  90.513  1.00  0.00     0.050 C 
HETATM   24  C12 UNL     1     -23.972  26.713  91.172  1.00  0.00    -0.029 A 
HETATM   25  C13 UNL     1     -23.464  25.983  89.980  1.00  0.00     0.050 C 
HETATM   26  C14 UNL     1     -24.923  26.165  92.026  1.00  0.00     0.084 A 
HETATM   27 CL1  UNL     1     -25.504  24.557  91.603  1.00  0.00    -0.080 Cl
ENDBRANCH   3  18
TORSDOF 5
ENDMDL
MODEL 4
REMARK VINA RESULT: -7.637785394      1.346      1.634
REMARK  5 active torsions:
REMARK  status: ('A' for Active; 'I' for Inactive)
REMARK       I    between atoms: C2_2  and  N1_4 
REMARK    1  A    between atoms: N1_4  and  S1_5 
REMARK    2  A    between atoms: N1_4  and  C15_25 
REMARK    3  A    between atoms: S1_5  and  N2_6 
REMARK    4  A    between atoms: C6_10  and  C7_11 
REMARK       I    between atoms: C7_11  and  N3_13 
REMARK    5  A    between atoms: N3_13  and  C8_15 
ROOT
HETATM    1  C7  UNL     1     -27.423  24.845  94.577  1.00  0.00     0.247 C 
HETATM    2  O2  UNL     1     -27.118  23.622  94.357  1.00  0.00    -0.271 OA
HETATM    3  N3  UNL     1     -26.674  25.840  94.128  1.00  0.00    -0.310 N 
ATOM      4  H3  UNL     1     -26.910  26.604  94.762  1.00  0.00     0.170 HD
ENDROOT
BRANCH   1   5
HETATM    5  C6  UNL     1     -28.706  25.016  95.390  1.00  0.00     0.190 C 
HETATM    6  N2  UNL     1     -29.061  26.371  95.363  1.00  0.00    -0.304 N 
HETATM    7  C3  UNL     1     -28.466  27.062  96.427  1.00  0.00     0.074 C 
HETATM    8  C4  UNL     1     -28.187  26.022  97.489  1.00  0.00     0.048 C 
HETATM    9  C5  UNL     1     -28.390  24.693  96.808  1.00  0.00     0.041 C 
BRANCH   6  10
HETATM   10  S1  UNL     1     -30.465  26.913  94.614  1.00  0.00     0.075 SA
BRANCH  10  11
HETATM   11  N1  UNL     1     -30.340  27.925  93.210  1.00  0.00    -0.270 N 
HETATM   12  C2  UNL     1     -30.201  27.440  91.880  1.00  0.00     0.227 C 
HETATM   13  C1  UNL     1     -30.098  28.356  90.731  1.00  0.00     0.118 C 
HETATM   14  O1  UNL     1     -30.164  26.178  91.677  1.00  0.00    -0.273 OA
BRANCH  11  15
HETATM   15  C15 UNL     1     -30.383  29.362  93.383  1.00  0.00     0.093 C 
HETATM   16  C16 UNL     1     -29.020  30.006  93.213  1.00  0.00     0.033 C 
HETATM   17  C17 UNL     1     -30.833  29.685  94.784  1.00  0.00     0.033 C 
ENDBRANCH  11  15
ENDBRANCH  10  11
ENDBRANCH   6  10
ENDBRANCH   1   5
BRANCH   3  18
HETATM   18  C8  UNL     1     -25.861  26.352  93.382  1.00  0.00     0.130 A 
HETATM   19  N4  UNL     1     -25.447  27.631  93.685  1.00  0.00    -0.350 N 
HETATM   20  C9  UNL     1     -24.559  28.300  92.953  1.00  0.00     0.097 A 
ATOM     21  H4  UNL     1     -25.838  28.086  94.509  1.00  0.00     0.166 HD
HETATM   22  C10 UNL     1     -23.990  27.753  91.835  1.00  0.00    -0.039 A 
HETATM   23  C11 UNL     1     -22.997  28.509  91.023  1.00  0.00     0.050 C 
HETATM   24  C12 UNL     1     -24.369  26.480  91.489  1.00  0.00    -0.029 A 
HETATM   25  C13 UNL     1     -23.747  25.882  90.277  1.00  0.00     0.050 C 
HETATM   26  C14 UNL     1     -25.298  25.791  92.261  1.00  0.00     0.084 A 
HETATM   27 CL1  UNL     1     -25.708  24.169  91.708  1.00  0.00    -0.080 Cl
ENDBRANCH   3  18
TORSDOF 5
ENDMDL
MODEL 5
REMARK VINA RESULT: -7.429267575      1.844      2.355
REMARK  5 active torsions:
REMARK  status: ('A' for Active; 'I' for Inactive)
REMARK       I    between atoms: C2_2  and  N1_4 
REMARK    1  A    between atoms: N1_4  and  S1_5 
REMARK    2  A    between atoms: N1_4  and  C15_25 
REMARK    3  A    between atoms: S1_5  and  N2_6 
REMARK    4  A    between atoms: C6_10  and  C7_11 
REMARK       I    between atoms: C7_11  and  N3_13 
REMARK    5  A    between atoms: N3_13  and  C8_15 
ROOT
HETATM    1  C7  UNL     1     -27.619  24.557  94.747  1.00  0.00     0.247 C 
HETATM    2  O2  UNL     1     -27.491  23.288  94.643  1.00  0.00    -0.271 OA
HETATM    3  N3  UNL     1     -26.775  25.392  94.160  1.00  0.00    -0.310 N 
ATOM      4  H3  UNL     1     -26.869  26.239  94.720  1.00  0.00     0.170 HD
ENDROOT
BRANCH   1   5
HETATM    5  C6  UNL     1     -28.815  24.981  95.599  1.00  0.00     0.190 C 
HETATM    6  N2  UNL     1     -29.054  26.342  95.367  1.00  0.00    -0.304 N 
HETATM    7  C3  UNL     1     -28.321  27.135  96.259  1.00  0.00     0.074 C 
HETATM    8  C4  UNL     1     -28.050  26.259  97.462  1.00  0.00     0.048 C 
HETATM    9  C5  UNL     1     -28.418  24.863  97.029  1.00  0.00     0.041 C 
BRANCH   6  10
HETATM   10  S1  UNL     1     -30.462  26.889  94.627  1.00  0.00     0.075 SA
BRANCH  10  11
HETATM   11  N1  UNL     1     -30.342  27.905  93.226  1.00  0.00    -0.270 N 
HETATM   12  C2  UNL     1     -30.209  27.424  91.894  1.00  0.00     0.227 C 
HETATM   13  C1  UNL     1     -30.111  28.344  90.747  1.00  0.00     0.118 C 
HETATM   14  O1  UNL     1     -30.173  26.162  91.686  1.00  0.00    -0.273 OA
BRANCH  11  15
HETATM   15  C15 UNL     1     -30.385  29.341  93.404  1.00  0.00     0.093 C 
HETATM   16  C16 UNL     1     -29.020  29.984  93.247  1.00  0.00     0.033 C 
HETATM   17  C17 UNL     1     -30.846  29.660  94.802  1.00  0.00     0.033 C 
ENDBRANCH  11  15
ENDBRANCH  10  11
ENDBRANCH   6  10
ENDBRANCH   1   5
BRANCH   3  18
HETATM   18  C8  UNL     1     -25.951  25.712  93.325  1.00  0.00     0.130 A 
HETATM   19  N4  UNL     1     -25.550  24.743  92.431  1.00  0.00    -0.350 N 
HETATM   20  C9  UNL     1     -24.660  24.966  91.467  1.00  0.00     0.097 A 
ATOM     21  H4  UNL     1     -25.955  23.811  92.512  1.00  0.00     0.166 HD
HETATM   22  C10 UNL     1     -24.076  26.191  91.297  1.00  0.00    -0.039 A 
HETATM   23  C11 UNL     1     -23.082  26.431  90.215  1.00  0.00     0.050 C 
HETATM   24  C12 UNL     1     -24.441  27.193  92.162  1.00  0.00    -0.029 A 
HETATM   25  C13 UNL     1     -23.810  28.528  91.973  1.00  0.00     0.050 C 
HETATM   26  C14 UNL     1     -25.372  26.949  93.165  1.00  0.00     0.084 A 
HETATM   27 CL1  UNL     1     -25.750  28.313  94.214  1.00  0.00    -0.080 Cl
ENDBRANCH   3  18
TORSDOF 5
ENDMDL
