MODEL 1
REMARK VINA RESULT: -5.827237481      0.000      0.000
REMARK  5 active torsions:
REMARK  status: ('A' for Active; 'I' for Inactive)
REMARK    1  A    between atoms: C2_2  and  O1_4 
REMARK    2  A    between atoms: O1_4  and  C4_5 
REMARK    3  A    between atoms: C4_5  and  C5_7 
REMARK       I    between atoms: N1_9  and  C7_10 
REMARK       I    between atoms: C7_10  and  N2_12 
REMARK    4  A    between atoms: N2_12  and  C8_14 
REMARK    5  A    between atoms: C19_25  and  C20_26 
ROOT
HETATM    1  C5  UNL     1     -31.716  28.820  94.646  1.00  0.00     0.110 C 
HETATM    2  C6  UNL     1     -30.461  28.071  95.092  1.00  0.00     0.142 C 
HETATM    3  N1  UNL     1     -30.079  27.475  93.849  1.00  0.00    -0.333 N 
HETATM    4  C7  UNL     1     -28.753  27.299  93.380  1.00  0.00     0.319 C 
HETATM    5  O3  UNL     1     -28.529  26.764  92.267  1.00  0.00    -0.247 OA
HETATM    6  N2  UNL     1     -27.683  27.731  94.182  1.00  0.00    -0.334 N 
ATOM      7  H2  UNL     1     -27.876  28.169  95.083  1.00  0.00     0.165 HD
HETATM    8  C18 UNL     1     -31.275  27.084  93.159  1.00  0.00     0.134 C 
HETATM    9  C19 UNL     1     -32.430  27.783  93.892  1.00  0.00     0.033 C 
ENDROOT
BRANCH   6  10
HETATM   10  C8  UNL     1     -26.311  27.566  93.751  1.00  0.00     0.035 C 
HETATM   11  C9  UNL     1     -25.910  26.141  93.879  1.00  0.00     0.035 C 
HETATM   12  C10 UNL     1     -24.491  25.928  93.378  1.00  0.00    -0.012 C 
HETATM   13  C11 UNL     1     -23.587  26.670  94.338  1.00  0.00     0.009 C 
HETATM   14  C15 UNL     1     -24.355  26.487  91.995  1.00  0.00     0.009 C 
HETATM   15  C12 UNL     1     -23.983  28.110  94.309  1.00  0.00    -0.012 C 
HETATM   16  C13 UNL     1     -23.727  28.672  92.927  1.00  0.00     0.009 C 
HETATM   17  C17 UNL     1     -25.400  28.388  94.673  1.00  0.00     0.035 C 
HETATM   18  C14 UNL     1     -24.648  27.968  91.985  1.00  0.00    -0.012 C 
HETATM   19  C16 UNL     1     -26.106  28.127  92.373  1.00  0.00     0.035 C 
ENDBRANCH   6  10
BRANCH   1  20
HETATM   20  C4  UNL     1     -32.410  29.517  95.696  1.00  0.00     0.265 C 
HETATM   21  O2  UNL     1     -32.757  30.719  95.740  1.00  0.00    -0.265 OA
BRANCH  20  22
HETATM   22  O1  UNL     1     -32.761  28.777  96.839  1.00  0.00    -0.316 OA
BRANCH  22  23
HETATM   23  C2  UNL     1     -33.933  29.061  97.579  1.00  0.00     0.123 C 
HETATM   24  C1  UNL     1     -35.056  28.194  97.064  1.00  0.00     0.040 C 
HETATM   25  C3  UNL     1     -33.626  28.728  99.027  1.00  0.00     0.040 C 
ENDBRANCH  22  23
ENDBRANCH  20  22
ENDBRANCH   1  20
BRANCH   9  26
HETATM   26  C20 UNL     1     -33.144  26.741  94.663  1.00  0.00     0.121 C 
HETATM   27 CL1  UNL     1     -34.595  26.269  93.703  1.00  0.00    -0.130 Cl
ENDBRANCH   9  26
TORSDOF 5
ENDMDL
MODEL 2
REMARK VINA RESULT: -5.743662168      0.763      1.770
REMARK  5 active torsions:
REMARK  status: ('A' for Active; 'I' for Inactive)
REMARK    1  A    between atoms: C2_2  and  O1_4 
REMARK    2  A    between atoms: O1_4  and  C4_5 
REMARK    3  A    between atoms: C4_5  and  C5_7 
REMARK       I    between atoms: N1_9  and  C7_10 
REMARK       I    between atoms: C7_10  and  N2_12 
REMARK    4  A    between atoms: N2_12  and  C8_14 
REMARK    5  A    between atoms: C19_25  and  C20_26 
ROOT
HETATM    1  C5  UNL     1     -31.673  28.867  95.504  1.00  0.00     0.110 C 
HETATM    2  C6  UNL     1     -30.489  27.906  95.590  1.00  0.00     0.142 C 
HETATM    3  N1  UNL     1     -30.168  27.789  94.202  1.00  0.00    -0.333 N 
HETATM    4  C7  UNL     1     -28.867  27.692  93.649  1.00  0.00     0.319 C 
HETATM    5  O3  UNL     1     -28.699  27.595  92.409  1.00  0.00    -0.247 OA
HETATM    6  N2  UNL     1     -27.757  27.706  94.512  1.00  0.00    -0.334 N 
ATOM      7  H2  UNL     1     -27.904  27.790  95.518  1.00  0.00     0.165 HD
HETATM    8  C18 UNL     1     -31.399  27.782  93.463  1.00  0.00     0.134 C 
HETATM    9  C19 UNL     1     -32.482  28.249  94.447  1.00  0.00     0.033 C 
ENDROOT
BRANCH   6  10
HETATM   10  C8  UNL     1     -26.408  27.602  93.998  1.00  0.00     0.035 C 
HETATM   11  C9  UNL     1     -26.355  28.134  92.611  1.00  0.00     0.035 C 
HETATM   12  C10 UNL     1     -24.938  28.092  92.066  1.00  0.00    -0.012 C 
HETATM   13  C11 UNL     1     -24.579  26.628  91.931  1.00  0.00     0.009 C 
HETATM   14  C15 UNL     1     -24.008  28.771  93.025  1.00  0.00     0.009 C 
HETATM   15  C12 UNL     1     -24.678  26.013  93.288  1.00  0.00    -0.012 C 
HETATM   16  C13 UNL     1     -23.649  26.644  94.201  1.00  0.00     0.009 C 
HETATM   17  C17 UNL     1     -26.012  26.121  93.941  1.00  0.00     0.035 C 
HETATM   18  C14 UNL     1     -24.024  28.079  94.367  1.00  0.00    -0.012 C 
HETATM   19  C16 UNL     1     -25.423  28.250  94.928  1.00  0.00     0.035 C 
ENDBRANCH   6  10
BRANCH   1  20
HETATM   20  C4  UNL     1     -32.295  29.177  96.764  1.00  0.00     0.265 C 
HETATM   21  O2  UNL     1     -31.792  29.163  97.910  1.00  0.00    -0.265 OA
BRANCH  20  22
HETATM   22  O1  UNL     1     -33.652  29.549  96.738  1.00  0.00    -0.316 OA
BRANCH  22  23
HETATM   23  C2  UNL     1     -34.503  29.335  97.848  1.00  0.00     0.123 C 
HETATM   24  C1  UNL     1     -35.632  30.335  97.795  1.00  0.00     0.040 C 
HETATM   25  C3  UNL     1     -35.039  27.921  97.719  1.00  0.00     0.040 C 
ENDBRANCH  22  23
ENDBRANCH  20  22
ENDBRANCH   1  20
BRANCH   9  26
HETATM   26  C20 UNL     1     -33.283  27.056  94.804  1.00  0.00     0.121 C 
HETATM   27 CL1  UNL     1     -34.118  26.508  93.303  1.00  0.00    -0.130 Cl
ENDBRANCH   9  26
TORSDOF 5
ENDMDL
MODEL 3
REMARK VINA RESULT: -5.727981431      0.133      1.436
REMARK  5 active torsions:
REMARK  status: ('A' for Active; 'I' for Inactive)
REMARK    1  A    between atoms: C2_2  and  O1_4 
REMARK    2  A    between atoms: O1_4  and  C4_5 
REMARK    3  A    between atoms: C4_5  and  C5_7 
REMARK       I    between atoms: N1_9  and  C7_10 
REMARK       I    between atoms: C7_10  and  N2_12 
REMARK    4  A    between atoms: N2_12  and  C8_14 
REMARK    5  A    between atoms: C19_25  and  C20_26 
ROOT
HETATM    1  C5  UNL     1     -31.756  28.846  94.775  1.00  0.00     0.110 C 
HETATM    2  C6  UNL     1     -30.520  28.059  95.206  1.00  0.00     0.142 C 
HETATM    3  N1  UNL     1     -30.131  27.506  93.946  1.00  0.00    -0.333 N 
HETATM    4  C7  UNL     1     -28.802  27.325  93.487  1.00  0.00     0.319 C 
HETATM    5  O3  UNL     1     -28.573  26.830  92.357  1.00  0.00    -0.247 OA
HETATM    6  N2  UNL     1     -27.735  27.709  94.318  1.00  0.00    -0.334 N 
ATOM      7  H2  UNL     1     -27.933  28.115  95.232  1.00  0.00     0.165 HD
HETATM    8  C18 UNL     1     -31.325  27.162  93.227  1.00  0.00     0.134 C 
HETATM    9  C19 UNL     1     -32.477  27.851  93.972  1.00  0.00     0.033 C 
ENDROOT
BRANCH   6  10
HETATM   10  C8  UNL     1     -26.361  27.538  93.898  1.00  0.00     0.035 C 
HETATM   11  C9  UNL     1     -25.463  28.342  94.768  1.00  0.00     0.035 C 
HETATM   12  C10 UNL     1     -24.008  28.136  94.387  1.00  0.00    -0.012 C 
HETATM   13  C11 UNL     1     -23.843  28.734  93.007  1.00  0.00     0.009 C 
HETATM   14  C15 UNL     1     -23.695  26.670  94.361  1.00  0.00     0.009 C 
HETATM   15  C12 UNL     1     -24.773  28.011  92.088  1.00  0.00    -0.012 C 
HETATM   16  C13 UNL     1     -24.359  26.557  91.999  1.00  0.00     0.009 C 
HETATM   17  C17 UNL     1     -26.212  28.067  92.465  1.00  0.00     0.035 C 
HETATM   18  C14 UNL     1     -24.560  25.956  93.351  1.00  0.00    -0.012 C 
HETATM   19  C16 UNL     1     -25.992  26.084  93.834  1.00  0.00     0.035 C 
ENDBRANCH   6  10
BRANCH   1  20
HETATM   20  C4  UNL     1     -32.452  29.514  95.842  1.00  0.00     0.265 C 
HETATM   21  O2  UNL     1     -32.744  30.727  95.947  1.00  0.00    -0.265 OA
BRANCH  20  22
HETATM   22  O1  UNL     1     -32.876  28.727  96.928  1.00  0.00    -0.316 OA
BRANCH  22  23
HETATM   23  C2  UNL     1     -34.064  29.017  97.639  1.00  0.00     0.123 C 
HETATM   24  C1  UNL     1     -35.170  28.131  97.120  1.00  0.00     0.040 C 
HETATM   25  C3  UNL     1     -33.782  28.716  99.099  1.00  0.00     0.040 C 
ENDBRANCH  22  23
ENDBRANCH  20  22
ENDBRANCH   1  20
BRANCH   9  26
HETATM   26  C20 UNL     1     -33.218  26.792  94.694  1.00  0.00     0.121 C 
HETATM   27 CL1  UNL     1     -34.570  26.266  93.624  1.00  0.00    -0.130 Cl
ENDBRANCH   9  26
TORSDOF 5
ENDMDL
MODEL 4
REMARK VINA RESULT: -5.585987002      3.156      5.132
REMARK  5 active torsions:
REMARK  status: ('A' for Active; 'I' for Inactive)
REMARK    1  A    between atoms: C2_2  and  O1_4 
REMARK    2  A    between atoms: O1_4  and  C4_5 
REMARK    3  A    between atoms: C4_5  and  C5_7 
REMARK       I    between atoms: N1_9  and  C7_10 
REMARK       I    between atoms: C7_10  and  N2_12 
REMARK    4  A    between atoms: N2_12  and  C8_14 
REMARK    5  A    between atoms: C19_25  and  C20_26 
ROOT
HETATM    1  C5  UNL     1     -34.322  27.971  98.005  1.00  0.00     0.110 C 
HETATM    2  C6  UNL     1     -34.025  27.921  96.508  1.00  0.00     0.142 C 
HETATM    3  N1  UNL     1     -33.206  29.087  96.383  1.00  0.00    -0.333 N 
HETATM    4  C7  UNL     1     -32.072  29.226  95.544  1.00  0.00     0.319 C 
HETATM    5  O3  UNL     1     -31.421  30.298  95.513  1.00  0.00    -0.247 OA
HETATM    6  N2  UNL     1     -31.683  28.141  94.738  1.00  0.00    -0.334 N 
ATOM      7  H2  UNL     1     -32.216  27.273  94.774  1.00  0.00     0.165 HD
HETATM    8  C18 UNL     1     -33.737  30.095  97.256  1.00  0.00     0.134 C 
HETATM    9  C19 UNL     1     -34.724  29.371  98.183  1.00  0.00     0.033 C 
ENDROOT
BRANCH   6  10
HETATM   10  C8  UNL     1     -30.537  28.236  93.860  1.00  0.00     0.035 C 
HETATM   11  C9  UNL     1     -30.520  29.565  93.194  1.00  0.00     0.035 C 
HETATM   12  C10 UNL     1     -29.295  29.715  92.309  1.00  0.00    -0.012 C 
HETATM   13  C11 UNL     1     -29.464  28.721  91.180  1.00  0.00     0.009 C 
HETATM   14  C15 UNL     1     -28.060  29.402  93.098  1.00  0.00     0.009 C 
HETATM   15  C12 UNL     1     -29.555  27.360  91.788  1.00  0.00    -0.012 C 
HETATM   16  C13 UNL     1     -28.250  27.032  92.482  1.00  0.00     0.009 C 
HETATM   17  C17 UNL     1     -30.665  27.171  92.762  1.00  0.00     0.035 C 
HETATM   18  C14 UNL     1     -28.102  27.987  93.620  1.00  0.00    -0.012 C 
HETATM   19  C16 UNL     1     -29.266  27.914  94.591  1.00  0.00     0.035 C 
ENDBRANCH   6  10
BRANCH   1  20
HETATM   20  C4  UNL     1     -35.194  26.932  98.485  1.00  0.00     0.265 C 
HETATM   21  O2  UNL     1     -36.367  26.671  98.135  1.00  0.00    -0.265 OA
BRANCH  20  22
HETATM   22  O1  UNL     1     -34.690  26.077  99.482  1.00  0.00    -0.316 OA
BRANCH  22  23
HETATM   23  C2  UNL     1     -35.505  25.605 100.539  1.00  0.00     0.123 C 
HETATM   24  C1  UNL     1     -35.016  24.240 100.958  1.00  0.00     0.040 C 
HETATM   25  C3  UNL     1     -35.356  26.596 101.679  1.00  0.00     0.040 C 
ENDBRANCH  22  23
ENDBRANCH  20  22
ENDBRANCH   1  20
BRANCH   9  26
HETATM   26  C20 UNL     1     -36.085  29.756  97.747  1.00  0.00     0.121 C 
HETATM   27 CL1  UNL     1     -36.289  31.507  98.123  1.00  0.00    -0.130 Cl
ENDBRANCH   9  26
TORSDOF 5
ENDMDL
MODEL 5
REMARK VINA RESULT: -5.504287283      3.149      4.926
REMARK  5 active torsions:
REMARK  status: ('A' for Active; 'I' for Inactive)
REMARK    1  A    between atoms: C2_2  and  O1_4 
REMARK    2  A    between atoms: O1_4  and  C4_5 
REMARK    3  A    between atoms: C4_5  and  C5_7 
REMARK       I    between atoms: N1_9  and  C7_10 
REMARK       I    between atoms: C7_10  and  N2_12 
REMARK    4  A    between atoms: N2_12  and  C8_14 
REMARK    5  A    between atoms: C19_25  and  C20_26 
ROOT
HETATM    1  C5  UNL     1     -34.337  27.949  98.025  1.00  0.00     0.110 C 
HETATM    2  C6  UNL     1     -34.054  27.885  96.525  1.00  0.00     0.142 C 
HETATM    3  N1  UNL     1     -33.243  29.053  96.380  1.00  0.00    -0.333 N 
HETATM    4  C7  UNL     1     -32.117  29.189  95.529  1.00  0.00     0.319 C 
HETATM    5  O3  UNL     1     -31.472  30.264  95.481  1.00  0.00    -0.247 OA
HETATM    6  N2  UNL     1     -31.729  28.098  94.732  1.00  0.00    -0.334 N 
ATOM      7  H2  UNL     1     -32.258  27.227  94.782  1.00  0.00     0.165 HD
HETATM    8  C18 UNL     1     -33.770  30.068  97.247  1.00  0.00     0.134 C 
HETATM    9  C19 UNL     1     -34.745  29.349  98.191  1.00  0.00     0.033 C 
ENDROOT
BRANCH   6  10
HETATM   10  C8  UNL     1     -30.593  28.189  93.841  1.00  0.00     0.035 C 
HETATM   11  C9  UNL     1     -30.739  27.208  92.734  1.00  0.00     0.035 C 
HETATM   12  C10 UNL     1     -29.587  27.322  91.750  1.00  0.00    -0.012 C 
HETATM   13  C11 UNL     1     -28.347  26.878  92.496  1.00  0.00     0.009 C 
HETATM   14  C15 UNL     1     -29.445  28.745  91.302  1.00  0.00     0.009 C 
HETATM   15  C12 UNL     1     -28.177  27.788  93.669  1.00  0.00    -0.012 C 
HETATM   16  C13 UNL     1     -27.924  29.197  93.177  1.00  0.00     0.009 C 
HETATM   17  C17 UNL     1     -29.323  27.822  94.620  1.00  0.00     0.035 C 
HETATM   18  C14 UNL     1     -29.162  29.651  92.476  1.00  0.00    -0.012 C 
HETATM   19  C16 UNL     1     -30.386  29.600  93.370  1.00  0.00     0.035 C 
ENDBRANCH   6  10
BRANCH   1  20
HETATM   20  C4  UNL     1     -35.199  26.911  98.524  1.00  0.00     0.265 C 
HETATM   21  O2  UNL     1     -36.368  26.629  98.175  1.00  0.00    -0.265 OA
BRANCH  20  22
HETATM   22  O1  UNL     1     -34.691  26.085  99.542  1.00  0.00    -0.316 OA
BRANCH  22  23
HETATM   23  C2  UNL     1     -35.509  25.611 100.595  1.00  0.00     0.123 C 
HETATM   24  C1  UNL     1     -35.016  24.249 101.019  1.00  0.00     0.040 C 
HETATM   25  C3  UNL     1     -35.372  26.605 101.734  1.00  0.00     0.040 C 
ENDBRANCH  22  23
ENDBRANCH  20  22
ENDBRANCH   1  20
BRANCH   9  26
HETATM   26  C20 UNL     1     -36.112  29.722  97.764  1.00  0.00     0.121 C 
HETATM   27 CL1  UNL     1     -36.321  31.477  98.120  1.00  0.00    -0.130 Cl
ENDBRANCH   9  26
TORSDOF 5
ENDMDL
