MODEL 1
REMARK VINA RESULT: -9.080375141      0.000      0.000
REMARK  6 active torsions:
REMARK  status: ('A' for Active; 'I' for Inactive)
REMARK    1  A    between atoms: O1_2  and  C2_3 
REMARK    2  A    between atoms: C2_3  and  C3_5 
REMARK    3  A    between atoms: C3_5  and  C4_6 
REMARK    4  A    between atoms: C3_5  and  N1_9 
REMARK    5  A    between atoms: C9_12  and  O3_13 
REMARK    6  A    between atoms: C9_12  and  C10_15 
ROOT
HETATM    1  N1  UNL     1     -29.471  27.452  93.777  1.00  0.00    -0.335 N 
HETATM    2  C7  UNL     1     -29.059  27.657  95.165  1.00  0.00     0.130 C 
HETATM    3  C8  UNL     1     -27.558  27.477  95.097  1.00  0.00     0.068 C 
HETATM    4  C9  UNL     1     -27.392  26.465  93.982  1.00  0.00     0.147 C 
HETATM    5  C20 UNL     1     -28.575  26.561  93.138  1.00  0.00     0.256 C 
HETATM    6  O4  UNL     1     -28.829  26.000  92.051  1.00  0.00    -0.270 OA
ENDROOT
BRANCH   4   7
HETATM    7  O3  UNL     1     -27.434  25.190  94.593  1.00  0.00    -0.379 OA
ATOM      8  H3  UNL     1     -26.880  25.244  95.363  1.00  0.00     0.211 HD
ENDBRANCH   4   7
BRANCH   4   9
HETATM    9  C10 UNL     1     -26.066  26.569  93.320  1.00  0.00     0.004 C 
HETATM   10  C11 UNL     1     -24.991  26.420  94.370  1.00  0.00     0.018 C 
HETATM   11  C12 UNL     1     -23.619  26.804  93.823  1.00  0.00    -0.010 C 
HETATM   12  C13 UNL     1     -23.690  28.160  93.203  1.00  0.00     0.009 C 
HETATM   13  C17 UNL     1     -23.315  25.742  92.764  1.00  0.00     0.048 C 
HETATM   14  C14 UNL     1     -24.638  28.127  92.027  1.00  0.00    -0.010 C 
HETATM   15  C15 UNL     1     -24.314  27.082  91.012  1.00  0.00     0.048 C 
HETATM   16  C19 UNL     1     -26.017  27.904  92.603  1.00  0.00     0.018 C 
HETATM   17  C16 UNL     1     -24.398  25.734  91.736  1.00  0.00     0.105 C 
HETATM   18  F1  UNL     1     -24.101  24.753  90.803  1.00  0.00    -0.243 F 
HETATM   19  C18 UNL     1     -25.783  25.514  92.280  1.00  0.00     0.056 C 
ENDBRANCH   4   9
BRANCH   1  20
HETATM   20  C3  UNL     1     -30.624  28.077  93.173  1.00  0.00     0.190 C 
BRANCH  20  21
HETATM   21  C2  UNL     1     -31.634  28.424  94.211  1.00  0.00     0.281 C 
HETATM   22  O2  UNL     1     -32.384  27.524  94.659  1.00  0.00    -0.263 OA
BRANCH  21  23
HETATM   23  O1  UNL     1     -31.791  29.697  94.712  1.00  0.00    -0.325 OA
HETATM   24  C1  UNL     1     -32.225  30.019  95.998  1.00  0.00     0.213 C 
ENDBRANCH  21  23
ENDBRANCH  20  21
BRANCH  20  25
HETATM   25  C4  UNL     1     -30.125  29.318  92.453  1.00  0.00     0.010 C 
HETATM   26  C5  UNL     1     -29.712  28.998  91.031  1.00  0.00     0.012 C 
HETATM   27  C6  UNL     1     -28.873  29.765  93.185  1.00  0.00     0.012 C 
ENDBRANCH  20  25
ENDBRANCH   1  20
TORSDOF 6
ENDMDL
MODEL 2
REMARK VINA RESULT: -9.051172630      0.920      1.647
REMARK  6 active torsions:
REMARK  status: ('A' for Active; 'I' for Inactive)
REMARK    1  A    between atoms: O1_2  and  C2_3 
REMARK    2  A    between atoms: C2_3  and  C3_5 
REMARK    3  A    between atoms: C3_5  and  C4_6 
REMARK    4  A    between atoms: C3_5  and  N1_9 
REMARK    5  A    between atoms: C9_12  and  O3_13 
REMARK    6  A    between atoms: C9_12  and  C10_15 
ROOT
HETATM    1  N1  UNL     1     -29.295  27.212  93.605  1.00  0.00    -0.335 N 
HETATM    2  C7  UNL     1     -28.862  27.374  94.993  1.00  0.00     0.130 C 
HETATM    3  C8  UNL     1     -27.357  27.244  94.890  1.00  0.00     0.068 C 
HETATM    4  C9  UNL     1     -27.183  26.284  93.732  1.00  0.00     0.147 C 
HETATM    5  C20 UNL     1     -28.385  26.376  92.915  1.00  0.00     0.256 C 
HETATM    6  O4  UNL     1     -28.643  25.851  91.811  1.00  0.00    -0.270 OA
ENDROOT
BRANCH   4   7
HETATM    7  O3  UNL     1     -27.174  24.984  94.292  1.00  0.00    -0.379 OA
ATOM      8  H3  UNL     1     -27.015  25.095  95.222  1.00  0.00     0.211 HD
ENDBRANCH   4   7
BRANCH   4   9
HETATM    9  C10 UNL     1     -25.874  26.455  93.051  1.00  0.00     0.004 C 
HETATM   10  C11 UNL     1     -25.635  25.259  92.160  1.00  0.00     0.018 C 
HETATM   11  C12 UNL     1     -24.195  25.217  91.655  1.00  0.00    -0.010 C 
HETATM   12  C13 UNL     1     -23.257  25.320  92.812  1.00  0.00     0.009 C 
HETATM   13  C17 UNL     1     -24.069  26.443  90.748  1.00  0.00     0.048 C 
HETATM   14  C14 UNL     1     -23.444  26.655  93.495  1.00  0.00    -0.010 C 
HETATM   15  C15 UNL     1     -23.314  27.829  92.583  1.00  0.00     0.048 C 
HETATM   16  C19 UNL     1     -24.817  26.617  94.125  1.00  0.00     0.018 C 
HETATM   17  C16 UNL     1     -24.406  27.676  91.519  1.00  0.00     0.105 C 
HETATM   18  F1  UNL     1     -24.297  28.763  90.667  1.00  0.00    -0.243 F 
HETATM   19  C18 UNL     1     -25.767  27.667  92.160  1.00  0.00     0.056 C 
ENDBRANCH   4   9
BRANCH   1  20
HETATM   20  C3  UNL     1     -30.478  27.824  93.048  1.00  0.00     0.190 C 
BRANCH  20  21
HETATM   21  C2  UNL     1     -31.523  27.990  94.096  1.00  0.00     0.281 C 
HETATM   22  O2  UNL     1     -32.220  27.000  94.426  1.00  0.00    -0.263 OA
BRANCH  21  23
HETATM   23  O1  UNL     1     -31.769  29.186  94.732  1.00  0.00    -0.325 OA
HETATM   24  C1  UNL     1     -31.487  29.474  96.067  1.00  0.00     0.213 C 
ENDBRANCH  21  23
ENDBRANCH  20  21
BRANCH  20  25
HETATM   25  C4  UNL     1     -30.052  29.167  92.479  1.00  0.00     0.010 C 
HETATM   26  C5  UNL     1     -29.787  29.071  90.990  1.00  0.00     0.012 C 
HETATM   27  C6  UNL     1     -28.730  29.515  93.139  1.00  0.00     0.012 C 
ENDBRANCH  20  25
ENDBRANCH   1  20
TORSDOF 6
ENDMDL
MODEL 3
REMARK VINA RESULT: -8.948237584      3.408      6.517
REMARK  6 active torsions:
REMARK  status: ('A' for Active; 'I' for Inactive)
REMARK    1  A    between atoms: O1_2  and  C2_3 
REMARK    2  A    between atoms: C2_3  and  C3_5 
REMARK    3  A    between atoms: C3_5  and  C4_6 
REMARK    4  A    between atoms: C3_5  and  N1_9 
REMARK    5  A    between atoms: C9_12  and  O3_13 
REMARK    6  A    between atoms: C9_12  and  C10_15 
ROOT
HETATM    1  N1  UNL     1     -24.450  27.294  92.538  1.00  0.00    -0.335 N 
HETATM    2  C7  UNL     1     -23.550  26.843  93.598  1.00  0.00     0.130 C 
HETATM    3  C8  UNL     1     -24.507  26.445  94.701  1.00  0.00     0.068 C 
HETATM    4  C9  UNL     1     -25.665  27.399  94.500  1.00  0.00     0.147 C 
HETATM    5  C20 UNL     1     -25.633  27.824  93.107  1.00  0.00     0.256 C 
HETATM    6  O4  UNL     1     -26.447  28.520  92.465  1.00  0.00    -0.270 OA
ENDROOT
BRANCH   4   7
HETATM    7  O3  UNL     1     -25.375  28.545  95.279  1.00  0.00    -0.379 OA
ATOM      8  H3  UNL     1     -25.940  28.500  96.041  1.00  0.00     0.211 HD
ENDBRANCH   4   7
BRANCH   4   9
HETATM    9  C10 UNL     1     -26.943  26.851  95.022  1.00  0.00     0.004 C 
HETATM   10  C11 UNL     1     -26.649  26.042  96.262  1.00  0.00     0.018 C 
HETATM   11  C12 UNL     1     -27.858  25.211  96.687  1.00  0.00    -0.010 C 
HETATM   12  C13 UNL     1     -28.343  24.406  95.527  1.00  0.00     0.009 C 
HETATM   13  C17 UNL     1     -28.907  26.244  97.104  1.00  0.00     0.048 C 
HETATM   14  C14 UNL     1     -28.811  25.334  94.430  1.00  0.00    -0.010 C 
HETATM   15  C15 UNL     1     -29.835  26.327  94.869  1.00  0.00     0.048 C 
HETATM   16  C19 UNL     1     -27.575  26.033  93.913  1.00  0.00     0.018 C 
HETATM   17  C16 UNL     1     -29.178  27.172  95.966  1.00  0.00     0.105 C 
HETATM   18  F1  UNL     1     -30.119  28.101  96.381  1.00  0.00    -0.243 F 
HETATM   19  C18 UNL     1     -27.967  27.882  95.429  1.00  0.00     0.056 C 
ENDBRANCH   4   9
BRANCH   1  20
HETATM   20  C3  UNL     1     -24.153  27.201  91.128  1.00  0.00     0.190 C 
BRANCH  20  21
HETATM   21  C2  UNL     1     -22.984  28.056  90.783  1.00  0.00     0.281 C 
HETATM   22  O2  UNL     1     -21.893  27.510  90.489  1.00  0.00    -0.263 OA
BRANCH  21  23
HETATM   23  O1  UNL     1     -23.035  29.432  90.769  1.00  0.00    -0.325 OA
HETATM   24  C1  UNL     1     -22.056  30.280  90.251  1.00  0.00     0.213 C 
ENDBRANCH  21  23
ENDBRANCH  20  21
BRANCH  20  25
HETATM   25  C4  UNL     1     -23.871  25.738  90.833  1.00  0.00     0.010 C 
HETATM   26  C5  UNL     1     -23.929  25.458  89.345  1.00  0.00     0.012 C 
HETATM   27  C6  UNL     1     -24.997  24.945  91.473  1.00  0.00     0.012 C 
ENDBRANCH  20  25
ENDBRANCH   1  20
TORSDOF 6
ENDMDL
MODEL 4
REMARK VINA RESULT: -8.867908273      3.112      6.435
REMARK  6 active torsions:
REMARK  status: ('A' for Active; 'I' for Inactive)
REMARK    1  A    between atoms: O1_2  and  C2_3 
REMARK    2  A    between atoms: C2_3  and  C3_5 
REMARK    3  A    between atoms: C3_5  and  C4_6 
REMARK    4  A    between atoms: C3_5  and  N1_9 
REMARK    5  A    between atoms: C9_12  and  O3_13 
REMARK    6  A    between atoms: C9_12  and  C10_15 
ROOT
HETATM    1  N1  UNL     1     -24.483  27.302  92.457  1.00  0.00    -0.335 N 
HETATM    2  C7  UNL     1     -23.600  26.911  93.554  1.00  0.00     0.130 C 
HETATM    3  C8  UNL     1     -24.575  26.513  94.641  1.00  0.00     0.068 C 
HETATM    4  C9  UNL     1     -25.756  27.423  94.381  1.00  0.00     0.147 C 
HETATM    5  C20 UNL     1     -25.698  27.809  92.977  1.00  0.00     0.256 C 
HETATM    6  O4  UNL     1     -26.515  28.460  92.293  1.00  0.00    -0.270 OA
ENDROOT
BRANCH   4   7
HETATM    7  O3  UNL     1     -25.526  28.599  95.134  1.00  0.00    -0.379 OA
ATOM      8  H3  UNL     1     -25.311  29.279  94.507  1.00  0.00     0.211 HD
ENDBRANCH   4   7
BRANCH   4   9
HETATM    9  C10 UNL     1     -27.031  26.848  94.882  1.00  0.00     0.004 C 
HETATM   10  C11 UNL     1     -28.173  27.698  94.379  1.00  0.00     0.018 C 
HETATM   11  C12 UNL     1     -29.482  27.351  95.084  1.00  0.00    -0.010 C 
HETATM   12  C13 UNL     1     -29.281  27.401  96.562  1.00  0.00     0.009 C 
HETATM   13  C17 UNL     1     -29.796  25.923  94.630  1.00  0.00     0.048 C 
HETATM   14  C14 UNL     1     -28.271  26.354  96.970  1.00  0.00    -0.010 C 
HETATM   15  C15 UNL     1     -28.608  24.974  96.513  1.00  0.00     0.048 C 
HETATM   16  C19 UNL     1     -26.947  26.800  96.395  1.00  0.00     0.018 C 
HETATM   17  C16 UNL     1     -28.659  25.022  94.983  1.00  0.00     0.105 C 
HETATM   18  F1  UNL     1     -28.967  23.744  94.547  1.00  0.00    -0.243 F 
HETATM   19  C18 UNL     1     -27.326  25.441  94.426  1.00  0.00     0.056 C 
ENDBRANCH   4   9
BRANCH   1  20
HETATM   20  C3  UNL     1     -24.143  27.180  91.059  1.00  0.00     0.190 C 
BRANCH  20  21
HETATM   21  C2  UNL     1     -22.947  28.007  90.738  1.00  0.00     0.281 C 
HETATM   22  O2  UNL     1     -21.866  27.437  90.458  1.00  0.00    -0.263 OA
BRANCH  21  23
HETATM   23  O1  UNL     1     -22.964  29.384  90.732  1.00  0.00    -0.325 OA
HETATM   24  C1  UNL     1     -21.971  30.210  90.206  1.00  0.00     0.213 C 
ENDBRANCH  21  23
ENDBRANCH  20  21
BRANCH  20  25
HETATM   25  C4  UNL     1     -23.879  25.707  90.798  1.00  0.00     0.010 C 
HETATM   26  C5  UNL     1     -23.938  25.394  89.317  1.00  0.00     0.012 C 
HETATM   27  C6  UNL     1     -25.015  24.943  91.454  1.00  0.00     0.012 C 
ENDBRANCH  20  25
ENDBRANCH   1  20
TORSDOF 6
ENDMDL
MODEL 5
REMARK VINA RESULT: -8.796919043      1.129      1.914
REMARK  6 active torsions:
REMARK  status: ('A' for Active; 'I' for Inactive)
REMARK    1  A    between atoms: O1_2  and  C2_3 
REMARK    2  A    between atoms: C2_3  and  C3_5 
REMARK    3  A    between atoms: C3_5  and  C4_6 
REMARK    4  A    between atoms: C3_5  and  N1_9 
REMARK    5  A    between atoms: C9_12  and  O3_13 
REMARK    6  A    between atoms: C9_12  and  C10_15 
ROOT
HETATM    1  N1  UNL     1     -29.473  27.231  93.828  1.00  0.00    -0.335 N 
HETATM    2  C7  UNL     1     -29.201  27.387  95.256  1.00  0.00     0.130 C 
HETATM    3  C8  UNL     1     -27.690  27.327  95.316  1.00  0.00     0.068 C 
HETATM    4  C9  UNL     1     -27.346  26.397  94.172  1.00  0.00     0.147 C 
HETATM    5  C20 UNL     1     -28.456  26.450  93.229  1.00  0.00     0.256 C 
HETATM    6  O4  UNL     1     -28.568  25.934  92.097  1.00  0.00    -0.270 OA
ENDROOT
BRANCH   4   7
HETATM    7  O3  UNL     1     -27.337  25.089  94.712  1.00  0.00    -0.379 OA
ATOM      8  H3  UNL     1     -28.239  24.790  94.704  1.00  0.00     0.211 HD
ENDBRANCH   4   7
BRANCH   4   9
HETATM    9  C10 UNL     1     -25.981  26.639  93.639  1.00  0.00     0.004 C 
HETATM   10  C11 UNL     1     -26.058  27.727  92.595  1.00  0.00     0.018 C 
HETATM   11  C12 UNL     1     -24.760  27.830  91.797  1.00  0.00    -0.010 C 
HETATM   12  C13 UNL     1     -24.397  26.485  91.261  1.00  0.00     0.009 C 
HETATM   13  C17 UNL     1     -23.720  28.304  92.815  1.00  0.00     0.048 C 
HETATM   14  C14 UNL     1     -24.134  25.538  92.408  1.00  0.00    -0.010 C 
HETATM   15  C15 UNL     1     -23.114  26.029  93.381  1.00  0.00     0.048 C 
HETATM   16  C19 UNL     1     -25.464  25.324  93.090  1.00  0.00     0.018 C 
HETATM   17  C16 UNL     1     -23.658  27.342  93.955  1.00  0.00     0.105 C 
HETATM   18  F1  UNL     1     -22.720  27.806  94.863  1.00  0.00    -0.243 F 
HETATM   19  C18 UNL     1     -24.968  27.106  94.655  1.00  0.00     0.056 C 
ENDBRANCH   4   9
BRANCH   1  20
HETATM   20  C3  UNL     1     -30.617  27.799  93.153  1.00  0.00     0.190 C 
BRANCH  20  21
HETATM   21  C2  UNL     1     -31.745  27.988  94.107  1.00  0.00     0.281 C 
HETATM   22  O2  UNL     1     -32.449  27.000  94.424  1.00  0.00    -0.263 OA
BRANCH  21  23
HETATM   23  O1  UNL     1     -32.060  29.206  94.668  1.00  0.00    -0.325 OA
HETATM   24  C1  UNL     1     -32.143  29.478  96.034  1.00  0.00     0.213 C 
ENDBRANCH  21  23
ENDBRANCH  20  21
BRANCH  20  25
HETATM   25  C4  UNL     1     -30.166  29.125  92.565  1.00  0.00     0.010 C 
HETATM   26  C5  UNL     1     -29.693  28.957  91.136  1.00  0.00     0.012 C 
HETATM   27  C6  UNL     1     -28.963  29.570  93.377  1.00  0.00     0.012 C 
ENDBRANCH  20  25
ENDBRANCH   1  20
TORSDOF 6
ENDMDL
