MODEL 1
REMARK VINA RESULT: -7.876849900      0.000      0.000
REMARK  8 active torsions:
REMARK  status: ('A' for Active; 'I' for Inactive)
REMARK    1  A    between atoms: C2_2  and  C4_4 
REMARK       I    between atoms: C4_4  and  N1_6 
REMARK    2  A    between atoms: C7_9  and  C8_10 
REMARK    3  A    between atoms: C8_10  and  C9_11 
REMARK    4  A    between atoms: C9_11  and  N2_12 
REMARK    5  A    between atoms: N3_15  and  C12_16 
REMARK    6  A    between atoms: C15_20  and  C16_21 
REMARK    7  A    between atoms: C18_28  and  S1_29 
REMARK    8  A    between atoms: S1_29  and  C19_32 
ROOT
HETATM    1  C12 UNL     1     -11.861  22.578  54.937  1.00  0.00     0.094 A 
HETATM    2  C13 UNL     1     -12.154  21.200  55.030  1.00  0.00     0.145 A 
HETATM    3  F1  UNL     1     -11.714  20.460  56.079  1.00  0.00    -0.204 F 
HETATM    4  C14 UNL     1     -12.894  20.571  54.060  1.00  0.00     0.062 A 
HETATM    5  C15 UNL     1     -13.361  21.280  52.980  1.00  0.00     0.048 A 
HETATM    6  C17 UNL     1     -13.081  22.608  52.882  1.00  0.00     0.153 A 
HETATM    7  F2  UNL     1     -13.533  23.358  51.844  1.00  0.00    -0.203 F 
HETATM    8  C18 UNL     1     -12.316  23.282  53.871  1.00  0.00     0.129 A 
ENDROOT
BRANCH   1   9
HETATM    9  N3  UNL     1     -11.130  23.041  56.077  1.00  0.00    -0.371 N 
HETATM   10  C11 UNL     1      -9.687  22.945  55.971  1.00  0.00     0.167 C 
HETATM   11  C10 UNL     1      -8.893  23.122  57.214  1.00  0.00     0.083 C 
HETATM   12  N2  UNL     1      -9.548  23.647  58.328  1.00  0.00    -0.367 N 
HETATM   13  C24 UNL     1     -10.702  24.479  58.004  1.00  0.00     0.147 C 
HETATM   14  C23 UNL     1     -11.723  23.616  57.240  1.00  0.00     0.143 C 
BRANCH  12  15
HETATM   15  C9  UNL     1      -9.632  22.997  59.542  1.00  0.00     0.086 C 
BRANCH  15  16
HETATM   16  C8  UNL     1     -10.748  22.178  59.998  1.00  0.00    -0.005 C 
BRANCH  16  17
HETATM   17  C7  UNL     1     -11.361  22.188  61.323  1.00  0.00     0.012 C 
HETATM   18  C6  UNL     1     -12.490  21.073  61.276  1.00  0.00     0.028 C 
HETATM   19  C5  UNL     1     -13.568  21.452  60.335  1.00  0.00     0.126 C 
HETATM   20  N1  UNL     1     -14.007  22.831  60.381  1.00  0.00    -0.352 N 
HETATM   21  C4  UNL     1     -15.367  23.128  60.137  1.00  0.00     0.223 C 
HETATM   22  C26 UNL     1     -13.065  23.888  60.652  1.00  0.00     0.126 C 
HETATM   23  O1  UNL     1     -16.095  22.087  59.879  1.00  0.00    -0.273 OA
HETATM   24  C25 UNL     1     -12.156  23.378  61.752  1.00  0.00     0.028 C 
BRANCH  21  25
HETATM   25  C2  UNL     1     -16.004  24.457  60.149  1.00  0.00     0.070 C 
HETATM   26  C1  UNL     1     -16.000  25.071  58.791  1.00  0.00     0.019 C 
HETATM   27  C3  UNL     1     -17.439  24.403  60.677  1.00  0.00     0.019 C 
ENDBRANCH  21  25
ENDBRANCH  16  17
ENDBRANCH  15  16
ENDBRANCH  12  15
ENDBRANCH   1   9
BRANCH   8  28
HETATM   28  S1  UNL     1     -11.916  24.929  53.649  1.00  0.00     0.188 S 
HETATM   29  O2  UNL     1     -10.397  25.059  53.734  1.00  0.00    -0.222 OA
HETATM   30  O3  UNL     1     -12.255  25.340  52.249  1.00  0.00    -0.222 OA
BRANCH  28  31
HETATM   31  C19 UNL     1     -12.629  26.116  54.708  1.00  0.00     0.058 C 
HETATM   32  C20 UNL     1     -13.779  25.682  55.539  1.00  0.00     0.031 C 
HETATM   33  C21 UNL     1     -13.214  27.209  53.769  1.00  0.00     0.031 C 
HETATM   34  C22 UNL     1     -11.593  26.893  55.520  1.00  0.00     0.031 C 
ENDBRANCH  28  31
ENDBRANCH   8  28
BRANCH   5  35
HETATM   35  C16 UNL     1     -14.148  20.610  51.948  1.00  0.00     0.123 C 
HETATM   36  N4  UNL     1     -14.900  19.617  52.265  1.00  0.00    -0.387 N 
ATOM     37  H42 UNL     1     -14.952  19.292  53.230  1.00  0.00     0.157 HD
ATOM     38  H41 UNL     1     -15.449  19.149  51.544  1.00  0.00     0.157 HD
HETATM   39  N5  UNL     1     -14.076  21.059  50.616  1.00  0.00    -0.082 NA
ENDBRANCH   5  35
TORSDOF 8
ENDMDL
MODEL 2
REMARK VINA RESULT: -7.658799799      4.573      8.749
REMARK  8 active torsions:
REMARK  status: ('A' for Active; 'I' for Inactive)
REMARK    1  A    between atoms: C2_2  and  C4_4 
REMARK       I    between atoms: C4_4  and  N1_6 
REMARK    2  A    between atoms: C7_9  and  C8_10 
REMARK    3  A    between atoms: C8_10  and  C9_11 
REMARK    4  A    between atoms: C9_11  and  N2_12 
REMARK    5  A    between atoms: N3_15  and  C12_16 
REMARK    6  A    between atoms: C15_20  and  C16_21 
REMARK    7  A    between atoms: C18_28  and  S1_29 
REMARK    8  A    between atoms: S1_29  and  C19_32 
ROOT
HETATM    1  C12 UNL     1     -12.046  24.099  54.150  1.00  0.00     0.094 A 
HETATM    2  C13 UNL     1     -12.466  23.734  52.853  1.00  0.00     0.145 A 
HETATM    3  F1  UNL     1     -12.391  24.611  51.820  1.00  0.00    -0.204 F 
HETATM    4  C14 UNL     1     -12.962  22.479  52.601  1.00  0.00     0.062 A 
HETATM    5  C15 UNL     1     -13.056  21.558  53.615  1.00  0.00     0.048 A 
HETATM    6  C17 UNL     1     -12.655  21.903  54.870  1.00  0.00     0.153 A 
HETATM    7  F2  UNL     1     -12.711  21.024  55.904  1.00  0.00    -0.203 F 
HETATM    8  C18 UNL     1     -12.140  23.194  55.157  1.00  0.00     0.129 A 
ENDROOT
BRANCH   1   9
HETATM    9  N3  UNL     1     -11.512  25.427  54.180  1.00  0.00    -0.371 N 
HETATM   10  C11 UNL     1     -12.492  26.493  54.110  1.00  0.00     0.167 C 
HETATM   11  C10 UNL     1     -11.997  27.866  53.834  1.00  0.00     0.083 C 
HETATM   12  N2  UNL     1     -10.625  28.091  53.946  1.00  0.00    -0.367 N 
HETATM   13  C24 UNL     1      -9.942  27.173  54.851  1.00  0.00     0.147 C 
HETATM   14  C23 UNL     1     -10.128  25.739  54.320  1.00  0.00     0.143 C 
BRANCH  12  15
HETATM   15  C9  UNL     1      -9.843  28.567  52.914  1.00  0.00     0.086 C 
BRANCH  15  16
HETATM   16  C8  UNL     1      -9.252  27.767  51.849  1.00  0.00    -0.005 C 
BRANCH  16  17
HETATM   17  C7  UNL     1      -9.954  27.123  50.742  1.00  0.00     0.012 C 
HETATM   18  C6  UNL     1      -9.574  25.584  50.839  1.00  0.00     0.028 C 
HETATM   19  C5  UNL     1      -8.133  25.378  50.572  1.00  0.00     0.126 C 
HETATM   20  N1  UNL     1      -7.569  26.126  49.468  1.00  0.00    -0.352 N 
HETATM   21  C4  UNL     1      -6.542  25.541  48.694  1.00  0.00     0.223 C 
HETATM   22  C26 UNL     1      -8.037  27.458  49.175  1.00  0.00     0.126 C 
HETATM   23  O1  UNL     1      -6.200  24.352  49.085  1.00  0.00    -0.273 OA
HETATM   24  C25 UNL     1      -9.542  27.428  49.339  1.00  0.00     0.028 C 
BRANCH  21  25
HETATM   25  C2  UNL     1      -5.854  26.133  47.532  1.00  0.00     0.070 C 
HETATM   26  C1  UNL     1      -4.627  26.869  47.949  1.00  0.00     0.019 C 
HETATM   27  C3  UNL     1      -5.484  25.082  46.484  1.00  0.00     0.019 C 
ENDBRANCH  21  25
ENDBRANCH  16  17
ENDBRANCH  15  16
ENDBRANCH  12  15
ENDBRANCH   1   9
BRANCH   8  28
HETATM   28  S1  UNL     1     -11.740  23.603  56.768  1.00  0.00     0.188 S 
HETATM   29  O2  UNL     1     -12.250  25.016  57.034  1.00  0.00    -0.222 OA
HETATM   30  O3  UNL     1     -12.516  22.734  57.710  1.00  0.00    -0.222 OA
BRANCH  28  31
HETATM   31  C19 UNL     1     -10.071  23.518  57.265  1.00  0.00     0.058 C 
HETATM   32  C20 UNL     1      -9.132  22.795  56.372  1.00  0.00     0.031 C 
HETATM   33  C21 UNL     1     -10.074  22.693  58.583  1.00  0.00     0.031 C 
HETATM   34  C22 UNL     1      -9.512  24.867  57.717  1.00  0.00     0.031 C 
ENDBRANCH  28  31
ENDBRANCH   8  28
BRANCH   5  35
HETATM   35  C16 UNL     1     -13.584  20.223  53.347  1.00  0.00     0.123 C 
HETATM   36  N4  UNL     1     -13.140  19.217  54.011  1.00  0.00    -0.387 N 
ATOM     37  H42 UNL     1     -12.422  19.341  54.724  1.00  0.00     0.157 HD
ATOM     38  H41 UNL     1     -13.509  18.285  53.823  1.00  0.00     0.157 HD
HETATM   39  N5  UNL     1     -14.576  20.051  52.362  1.00  0.00    -0.082 NA
ENDBRANCH   5  35
TORSDOF 8
ENDMDL
MODEL 3
REMARK VINA RESULT: -7.612186445      5.258      9.173
REMARK  8 active torsions:
REMARK  status: ('A' for Active; 'I' for Inactive)
REMARK    1  A    between atoms: C2_2  and  C4_4 
REMARK       I    between atoms: C4_4  and  N1_6 
REMARK    2  A    between atoms: C7_9  and  C8_10 
REMARK    3  A    between atoms: C8_10  and  C9_11 
REMARK    4  A    between atoms: C9_11  and  N2_12 
REMARK    5  A    between atoms: N3_15  and  C12_16 
REMARK    6  A    between atoms: C15_20  and  C16_21 
REMARK    7  A    between atoms: C18_28  and  S1_29 
REMARK    8  A    between atoms: S1_29  and  C19_32 
ROOT
HETATM    1  C12 UNL     1     -11.546  24.278  53.260  1.00  0.00     0.094 A 
HETATM    2  C13 UNL     1     -11.566  23.785  51.937  1.00  0.00     0.145 A 
HETATM    3  F1  UNL     1     -10.894  24.420  50.944  1.00  0.00    -0.204 F 
HETATM    4  C14 UNL     1     -12.267  22.648  51.620  1.00  0.00     0.062 A 
HETATM    5  C15 UNL     1     -12.962  21.972  52.593  1.00  0.00     0.048 A 
HETATM    6  C17 UNL     1     -12.950  22.442  53.871  1.00  0.00     0.153 A 
HETATM    7  F2  UNL     1     -13.606  21.802  54.873  1.00  0.00    -0.203 F 
HETATM    8  C18 UNL     1     -12.234  23.616  54.224  1.00  0.00     0.129 A 
ENDROOT
BRANCH   1   9
HETATM    9  N3  UNL     1     -10.713  25.435  53.382  1.00  0.00    -0.371 N 
HETATM   10  C11 UNL     1     -11.300  26.676  52.916  1.00  0.00     0.167 C 
HETATM   11  C10 UNL     1     -10.395  27.840  52.735  1.00  0.00     0.083 C 
HETATM   12  N2  UNL     1      -9.118  27.756  53.287  1.00  0.00    -0.367 N 
HETATM   13  C24 UNL     1      -9.020  26.851  54.429  1.00  0.00     0.147 C 
HETATM   14  C23 UNL     1      -9.409  25.437  53.960  1.00  0.00     0.143 C 
BRANCH  12  15
HETATM   15  C9  UNL     1      -7.957  27.878  52.552  1.00  0.00     0.086 C 
BRANCH  15  16
HETATM   16  C8  UNL     1      -7.833  27.691  51.112  1.00  0.00    -0.005 C 
BRANCH  16  17
HETATM   17  C7  UNL     1      -8.388  26.598  50.318  1.00  0.00     0.012 C 
HETATM   18  C6  UNL     1      -7.691  25.281  50.867  1.00  0.00     0.028 C 
HETATM   19  C5  UNL     1      -6.240  25.290  50.575  1.00  0.00     0.126 C 
HETATM   20  N1  UNL     1      -5.851  25.738  49.254  1.00  0.00    -0.352 N 
HETATM   21  C4  UNL     1      -4.727  25.150  48.632  1.00  0.00     0.223 C 
HETATM   22  C26 UNL     1      -6.590  26.783  48.592  1.00  0.00     0.126 C 
HETATM   23  O1  UNL     1      -4.140  24.244  49.352  1.00  0.00    -0.273 OA
HETATM   24  C25 UNL     1      -8.055  26.509  48.864  1.00  0.00     0.028 C 
BRANCH  21  25
HETATM   25  C2  UNL     1      -4.184  25.460  47.298  1.00  0.00     0.070 C 
HETATM   26  C1  UNL     1      -2.717  25.202  47.237  1.00  0.00     0.019 C 
HETATM   27  C3  UNL     1      -4.883  24.666  46.193  1.00  0.00     0.019 C 
ENDBRANCH  21  25
ENDBRANCH  16  17
ENDBRANCH  15  16
ENDBRANCH  12  15
ENDBRANCH   1   9
BRANCH   8  28
HETATM   28  S1  UNL     1     -12.330  24.212  55.824  1.00  0.00     0.188 S 
HETATM   29  O2  UNL     1     -12.459  25.731  55.752  1.00  0.00    -0.222 OA
HETATM   30  O3  UNL     1     -13.609  23.750  56.452  1.00  0.00    -0.222 OA
BRANCH  28  31
HETATM   31  C19 UNL     1     -11.051  23.821  56.943  1.00  0.00     0.058 C 
HETATM   32  C20 UNL     1     -10.062  22.801  56.515  1.00  0.00     0.031 C 
HETATM   33  C21 UNL     1     -11.759  23.189  58.175  1.00  0.00     0.031 C 
HETATM   34  C22 UNL     1     -10.381  25.058  57.541  1.00  0.00     0.031 C 
ENDBRANCH  28  31
ENDBRANCH   8  28
BRANCH   5  35
HETATM   35  C16 UNL     1     -13.708  20.763  52.255  1.00  0.00     0.123 C 
HETATM   36  N4  UNL     1     -13.318  19.626  52.710  1.00  0.00    -0.387 N 
ATOM     37  H42 UNL     1     -12.493  19.560  53.304  1.00  0.00     0.157 HD
ATOM     38  H41 UNL     1     -13.839  18.782  52.473  1.00  0.00     0.157 HD
HETATM   39  N5  UNL     1     -14.848  20.855  51.434  1.00  0.00    -0.082 NA
ENDBRANCH   5  35
TORSDOF 8
ENDMDL
MODEL 4
REMARK VINA RESULT: -7.588772617      2.666      4.929
REMARK  8 active torsions:
REMARK  status: ('A' for Active; 'I' for Inactive)
REMARK    1  A    between atoms: C2_2  and  C4_4 
REMARK       I    between atoms: C4_4  and  N1_6 
REMARK    2  A    between atoms: C7_9  and  C8_10 
REMARK    3  A    between atoms: C8_10  and  C9_11 
REMARK    4  A    between atoms: C9_11  and  N2_12 
REMARK    5  A    between atoms: N3_15  and  C12_16 
REMARK    6  A    between atoms: C15_20  and  C16_21 
REMARK    7  A    between atoms: C18_28  and  S1_29 
REMARK    8  A    between atoms: S1_29  and  C19_32 
ROOT
HETATM    1  C12 UNL     1     -12.799  22.643  53.167  1.00  0.00     0.094 A 
HETATM    2  C13 UNL     1     -13.715  22.266  52.160  1.00  0.00     0.145 A 
HETATM    3  F1  UNL     1     -14.103  23.146  51.202  1.00  0.00    -0.204 F 
HETATM    4  C14 UNL     1     -14.237  20.997  52.123  1.00  0.00     0.062 A 
HETATM    5  C15 UNL     1     -13.873  20.073  53.072  1.00  0.00     0.048 A 
HETATM    6  C17 UNL     1     -12.993  20.430  54.047  1.00  0.00     0.153 A 
HETATM    7  F2  UNL     1     -12.587  19.549  54.998  1.00  0.00    -0.203 F 
HETATM    8  C18 UNL     1     -12.439  21.735  54.108  1.00  0.00     0.129 A 
ENDROOT
BRANCH   1   9
HETATM    9  N3  UNL     1     -12.337  23.986  52.986  1.00  0.00    -0.371 N 
HETATM   10  C11 UNL     1     -11.066  24.119  52.303  1.00  0.00     0.167 C 
HETATM   11  C10 UNL     1     -10.394  25.443  52.352  1.00  0.00     0.083 C 
HETATM   12  N2  UNL     1     -11.146  26.531  52.793  1.00  0.00    -0.367 N 
HETATM   13  C24 UNL     1     -12.584  26.384  52.593  1.00  0.00     0.147 C 
HETATM   14  C23 UNL     1     -13.059  25.150  53.383  1.00  0.00     0.143 C 
BRANCH  12  15
HETATM   15  C9  UNL     1     -10.796  27.316  53.873  1.00  0.00     0.086 C 
BRANCH  15  16
HETATM   16  C8  UNL     1     -11.580  27.498  55.088  1.00  0.00    -0.005 C 
BRANCH  16  17
HETATM   17  C7  UNL     1     -12.586  28.527  55.337  1.00  0.00     0.012 C 
HETATM   18  C6  UNL     1     -12.414  28.926  56.864  1.00  0.00     0.028 C 
HETATM   19  C5  UNL     1     -12.771  27.795  57.749  1.00  0.00     0.126 C 
HETATM   20  N1  UNL     1     -13.962  27.050  57.394  1.00  0.00    -0.352 N 
HETATM   21  C4  UNL     1     -14.768  26.512  58.422  1.00  0.00     0.223 C 
HETATM   22  C26 UNL     1     -14.308  26.846  56.010  1.00  0.00     0.126 C 
HETATM   23  O1  UNL     1     -14.323  26.747  59.617  1.00  0.00    -0.273 OA
HETATM   24  C25 UNL     1     -14.033  28.157  55.303  1.00  0.00     0.028 C 
BRANCH  21  25
HETATM   25  C2  UNL     1     -16.013  25.739  58.265  1.00  0.00     0.070 C 
HETATM   26  C1  UNL     1     -16.035  24.558  59.173  1.00  0.00     0.019 C 
HETATM   27  C3  UNL     1     -17.257  26.594  58.515  1.00  0.00     0.019 C 
ENDBRANCH  21  25
ENDBRANCH  16  17
ENDBRANCH  15  16
ENDBRANCH  12  15
ENDBRANCH   1   9
BRANCH   8  28
HETATM   28  S1  UNL     1     -11.411  22.155  55.408  1.00  0.00     0.188 S 
HETATM   29  O2  UNL     1     -11.008  20.868  56.123  1.00  0.00    -0.222 OA
HETATM   30  O3  UNL     1     -10.127  22.708  54.870  1.00  0.00    -0.222 OA
BRANCH  28  31
HETATM   31  C19 UNL     1     -11.986  23.289  56.600  1.00  0.00     0.058 C 
HETATM   32  C20 UNL     1     -11.277  24.588  56.702  1.00  0.00     0.031 C 
HETATM   33  C21 UNL     1     -11.746  22.601  57.974  1.00  0.00     0.031 C 
HETATM   34  C22 UNL     1     -13.505  23.463  56.577  1.00  0.00     0.031 C 
ENDBRANCH  28  31
ENDBRANCH   8  28
BRANCH   5  35
HETATM   35  C16 UNL     1     -14.430  18.723  53.032  1.00  0.00     0.123 C 
HETATM   36  N4  UNL     1     -13.728  17.733  53.451  1.00  0.00    -0.387 N 
ATOM     37  H42 UNL     1     -12.785  17.879  53.810  1.00  0.00     0.157 HD
ATOM     38  H41 UNL     1     -14.117  16.790  53.423  1.00  0.00     0.157 HD
HETATM   39  N5  UNL     1     -15.732  18.522  52.536  1.00  0.00    -0.082 NA
ENDBRANCH   5  35
TORSDOF 8
ENDMDL
MODEL 5
REMARK VINA RESULT: -7.563339420      1.958      2.808
REMARK  8 active torsions:
REMARK  status: ('A' for Active; 'I' for Inactive)
REMARK    1  A    between atoms: C2_2  and  C4_4 
REMARK       I    between atoms: C4_4  and  N1_6 
REMARK    2  A    between atoms: C7_9  and  C8_10 
REMARK    3  A    between atoms: C8_10  and  C9_11 
REMARK    4  A    between atoms: C9_11  and  N2_12 
REMARK    5  A    between atoms: N3_15  and  C12_16 
REMARK    6  A    between atoms: C15_20  and  C16_21 
REMARK    7  A    between atoms: C18_28  and  S1_29 
REMARK    8  A    between atoms: S1_29  and  C19_32 
ROOT
HETATM    1  C12 UNL     1     -11.692  23.457  54.595  1.00  0.00     0.094 A 
HETATM    2  C13 UNL     1     -12.682  22.450  54.564  1.00  0.00     0.145 A 
HETATM    3  F1  UNL     1     -13.142  21.885  55.709  1.00  0.00    -0.204 F 
HETATM    4  C14 UNL     1     -13.206  22.016  53.372  1.00  0.00     0.062 A 
HETATM    5  C15 UNL     1     -12.770  22.559  52.188  1.00  0.00     0.048 A 
HETATM    6  C17 UNL     1     -11.815  23.529  52.209  1.00  0.00     0.153 A 
HETATM    7  F2  UNL     1     -11.363  24.110  51.068  1.00  0.00    -0.203 F 
HETATM    8  C18 UNL     1     -11.257  23.995  53.428  1.00  0.00     0.129 A 
ENDROOT
BRANCH   1   9
HETATM    9  N3  UNL     1     -11.328  23.800  55.936  1.00  0.00    -0.371 N 
HETATM   10  C11 UNL     1     -10.382  22.905  56.571  1.00  0.00     0.167 C 
HETATM   11  C10 UNL     1     -10.197  23.028  58.040  1.00  0.00     0.083 C 
HETATM   12  N2  UNL     1     -10.714  24.164  58.661  1.00  0.00    -0.367 N 
HETATM   13  C24 UNL     1     -10.835  25.322  57.782  1.00  0.00     0.147 C 
HETATM   14  C23 UNL     1     -11.790  24.957  56.630  1.00  0.00     0.143 C 
BRANCH  12  15
HETATM   15  C9  UNL     1     -11.639  24.121  59.684  1.00  0.00     0.086 C 
BRANCH  15  16
HETATM   16  C8  UNL     1     -13.074  24.342  59.550  1.00  0.00    -0.005 C 
BRANCH  16  17
HETATM   17  C7  UNL     1     -14.076  23.368  59.127  1.00  0.00     0.012 C 
HETATM   18  C6  UNL     1     -14.778  24.010  57.855  1.00  0.00     0.028 C 
HETATM   19  C5  UNL     1     -15.535  25.225  58.228  1.00  0.00     0.126 C 
HETATM   20  N1  UNL     1     -16.318  25.150  59.443  1.00  0.00    -0.352 N 
HETATM   21  C4  UNL     1     -17.543  25.851  59.517  1.00  0.00     0.223 C 
HETATM   22  C26 UNL     1     -15.845  24.384  60.569  1.00  0.00     0.126 C 
HETATM   23  O1  UNL     1     -17.832  26.520  58.444  1.00  0.00    -0.273 OA
HETATM   24  C25 UNL     1     -15.258  23.108  60.002  1.00  0.00     0.028 C 
BRANCH  21  25
HETATM   25  C2  UNL     1     -18.480  25.889  60.653  1.00  0.00     0.070 C 
HETATM   26  C1  UNL     1     -17.974  26.774  61.742  1.00  0.00     0.019 C 
HETATM   27  C3  UNL     1     -19.877  26.351  60.233  1.00  0.00     0.019 C 
ENDBRANCH  21  25
ENDBRANCH  16  17
ENDBRANCH  15  16
ENDBRANCH  12  15
ENDBRANCH   1   9
BRANCH   8  28
HETATM   28  S1  UNL     1      -9.994  25.147  53.390  1.00  0.00     0.188 S 
HETATM   29  O2  UNL     1      -9.017  24.810  54.512  1.00  0.00    -0.222 OA
HETATM   30  O3  UNL     1      -9.201  24.976  52.131  1.00  0.00    -0.222 OA
BRANCH  28  31
HETATM   31  C19 UNL     1     -10.399  26.839  53.503  1.00  0.00     0.058 C 
HETATM   32  C20 UNL     1     -10.042  27.542  54.760  1.00  0.00     0.031 C 
HETATM   33  C21 UNL     1     -11.953  26.896  53.449  1.00  0.00     0.031 C 
HETATM   34  C22 UNL     1      -9.993  27.636  52.263  1.00  0.00     0.031 C 
ENDBRANCH  28  31
ENDBRANCH   8  28
BRANCH   5  35
HETATM   35  C16 UNL     1     -13.328  22.095  50.920  1.00  0.00     0.123 C 
HETATM   36  N4  UNL     1     -13.131  22.778  49.850  1.00  0.00    -0.387 N 
ATOM     37  H42 UNL     1     -12.590  23.642  49.877  1.00  0.00     0.157 HD
ATOM     38  H41 UNL     1     -13.520  22.454  48.965  1.00  0.00     0.157 HD
HETATM   39  N5  UNL     1     -14.076  20.902  50.883  1.00  0.00    -0.082 NA
ENDBRANCH   5  35
TORSDOF 8
ENDMDL
