MODEL 1
REMARK VINA RESULT: -6.899800655      0.000      0.000
REMARK  10 active torsions:
REMARK  status: ('A' for Active; 'I' for Inactive)
REMARK    1  A    between atoms: C5_7  and  C6_8 
REMARK       I    between atoms: C6_8  and  N2_10 
REMARK    2  A    between atoms: N2_10  and  C7_12 
REMARK    3  A    between atoms: C7_12  and  C8_13 
REMARK    4  A    between atoms: C8_13  and  O2_14 
REMARK    5  A    between atoms: O2_14  and  C9_15 
REMARK    6  A    between atoms: C12_20  and  C13_21 
REMARK       I    between atoms: C13_21  and  N3_23 
REMARK    7  A    between atoms: N3_23  and  C14_25 
REMARK    8  A    between atoms: C15_28  and  C16_29 
REMARK    9  A    between atoms: C16_29  and  C17_30 
REMARK   10  A    between atoms: C17_30  and  C18_31 
ROOT
HETATM    1  C1  UNL     1     -13.168  19.754  53.672  1.00  0.00     0.069 C 
HETATM    2  C2  UNL     1     -13.144  21.277  53.580  1.00  0.00     0.019 C 
HETATM    3  N1  UNL     1     -13.456  21.853  52.502  1.00  0.00    -0.362 N 
ATOM      4  H1  UNL     1     -13.730  21.267  51.713  1.00  0.00     0.165 HD
HETATM    5  C3  UNL     1     -13.453  23.256  52.311  1.00  0.00     0.019 C 
HETATM    6  C4  UNL     1     -13.861  23.834  50.996  1.00  0.00     0.069 C 
HETATM    7  C5  UNL     1     -13.087  24.033  53.303  1.00  0.00     0.055 C 
HETATM    8  C11 UNL     1     -12.550  23.445  54.569  1.00  0.00     0.163 C 
HETATM    9 CL1  UNL     1     -10.792  23.802  54.671  1.00  0.00    -0.114 Cl
HETATM   10  C12 UNL     1     -12.880  22.043  54.792  1.00  0.00     0.055 C 
ENDROOT
BRANCH  10  11
HETATM   11  C13 UNL     1     -12.051  21.350  55.804  1.00  0.00     0.257 C 
HETATM   12  O3  UNL     1     -10.962  20.845  55.459  1.00  0.00    -0.267 OA
HETATM   13  N3  UNL     1     -12.403  21.209  57.169  1.00  0.00    -0.302 N 
ATOM     14  H3  UNL     1     -12.649  20.287  57.530  1.00  0.00     0.171 HD
BRANCH  13  15
HETATM   15  C14 UNL     1     -12.419  22.243  57.978  1.00  0.00     0.169 A 
HETATM   16  N4  UNL     1     -13.444  22.713  58.655  1.00  0.00    -0.325 N 
HETATM   17  C15 UNL     1     -13.315  23.754  59.413  1.00  0.00     0.089 A 
ATOM     18  H4  UNL     1     -14.351  22.252  58.581  1.00  0.00     0.169 HD
HETATM   19  N5  UNL     1     -12.076  24.321  59.465  1.00  0.00    -0.313 N 
HETATM   20  S1  UNL     1     -11.191  23.332  58.435  1.00  0.00     0.024 SA
ATOM     21  H5  UNL     1     -11.766  25.136  59.994  1.00  0.00     0.175 HD
BRANCH  17  22
HETATM   22  C16 UNL     1     -14.462  24.317  60.218  1.00  0.00     0.078 C 
BRANCH  22  23
HETATM   23  C17 UNL     1     -15.774  24.256  59.579  1.00  0.00     0.016 C 
BRANCH  23  24
HETATM   24  C18 UNL     1     -16.706  25.403  59.680  1.00  0.00    -0.051 C 
HETATM   25  C19 UNL     1     -18.030  24.963  60.319  1.00  0.00     0.014 C 
HETATM   26  C20 UNL     1     -16.928  26.231  58.482  1.00  0.00     0.014 C 
HETATM   27  C21 UNL     1     -16.100  26.352  60.764  1.00  0.00     0.014 C 
ENDBRANCH  23  24
ENDBRANCH  22  23
ENDBRANCH  17  22
ENDBRANCH  13  15
ENDBRANCH  10  11
BRANCH   7  28
HETATM   28  C6  UNL     1     -13.070  25.521  53.181  1.00  0.00     0.251 C 
HETATM   29  O1  UNL     1     -12.382  26.114  52.323  1.00  0.00    -0.268 OA
HETATM   30  N2  UNL     1     -13.837  26.353  54.037  1.00  0.00    -0.355 N 
ATOM     31  H2  UNL     1     -14.413  25.887  54.737  1.00  0.00     0.162 HD
BRANCH  30  32
HETATM   32  C7  UNL     1     -13.880  27.780  54.012  1.00  0.00     0.149 C 
BRANCH  32  33
HETATM   33  C8  UNL     1     -13.572  28.528  55.247  1.00  0.00     0.189 C 
BRANCH  33  34
HETATM   34  O2  UNL     1     -13.779  27.945  56.453  1.00  0.00    -0.374 OA
BRANCH  34  35
HETATM   35  C9  UNL     1     -12.612  27.949  57.209  1.00  0.00     0.188 C 
HETATM   36  C10 UNL     1     -11.706  26.787  56.832  1.00  0.00     0.052 C 
HETATM   37 BR1  UNL     1     -13.041  27.883  59.104  1.00  0.00    -0.062 Br
ENDBRANCH  34  35
ENDBRANCH  33  34
ENDBRANCH  32  33
ENDBRANCH  30  32
ENDBRANCH   7  28
TORSDOF 10
ENDMDL
MODEL 2
REMARK VINA RESULT: -6.708436703      3.019      5.681
REMARK  10 active torsions:
REMARK  status: ('A' for Active; 'I' for Inactive)
REMARK    1  A    between atoms: C5_7  and  C6_8 
REMARK       I    between atoms: C6_8  and  N2_10 
REMARK    2  A    between atoms: N2_10  and  C7_12 
REMARK    3  A    between atoms: C7_12  and  C8_13 
REMARK    4  A    between atoms: C8_13  and  O2_14 
REMARK    5  A    between atoms: O2_14  and  C9_15 
REMARK    6  A    between atoms: C12_20  and  C13_21 
REMARK       I    between atoms: C13_21  and  N3_23 
REMARK    7  A    between atoms: N3_23  and  C14_25 
REMARK    8  A    between atoms: C15_28  and  C16_29 
REMARK    9  A    between atoms: C16_29  and  C17_30 
REMARK   10  A    between atoms: C17_30  and  C18_31 
ROOT
HETATM    1  C1  UNL     1      -9.938  30.005  53.088  1.00  0.00     0.069 C 
HETATM    2  C2  UNL     1     -10.272  28.520  52.991  1.00  0.00     0.019 C 
HETATM    3  N1  UNL     1      -9.839  27.833  52.026  1.00  0.00    -0.362 N 
ATOM      4  H1  UNL     1      -9.257  28.303  51.333  1.00  0.00     0.165 HD
HETATM    5  C3  UNL     1     -10.103  26.454  51.838  1.00  0.00     0.019 C 
HETATM    6  C4  UNL     1      -9.520  25.733  50.668  1.00  0.00     0.069 C 
HETATM    7  C5  UNL     1     -10.864  25.829  52.704  1.00  0.00     0.055 C 
HETATM    8  C11 UNL     1     -11.554  26.585  53.795  1.00  0.00     0.163 C 
HETATM    9 CL1  UNL     1     -13.317  26.616  53.450  1.00  0.00    -0.114 Cl
HETATM   10  C12 UNL     1     -10.989  27.894  54.096  1.00  0.00     0.055 C 
ENDROOT
BRANCH  10  11
HETATM   11  C13 UNL     1     -11.869  28.802  54.867  1.00  0.00     0.257 C 
HETATM   12  O3  UNL     1     -12.526  29.674  54.262  1.00  0.00    -0.267 OA
HETATM   13  N3  UNL     1     -12.028  28.760  56.274  1.00  0.00    -0.302 N 
ATOM     14  H3  UNL     1     -11.656  29.521  56.843  1.00  0.00     0.171 HD
BRANCH  13  15
HETATM   15  C14 UNL     1     -12.647  27.761  56.859  1.00  0.00     0.169 A 
HETATM   16  N4  UNL     1     -13.944  27.560  56.937  1.00  0.00    -0.325 N 
HETATM   17  C15 UNL     1     -14.418  26.528  57.558  1.00  0.00     0.089 A 
ATOM     18  H4  UNL     1     -14.585  28.226  56.503  1.00  0.00     0.169 HD
HETATM   19  N5  UNL     1     -13.507  25.681  58.114  1.00  0.00    -0.313 N 
HETATM   20  S1  UNL     1     -12.050  26.413  57.713  1.00  0.00     0.024 SA
ATOM     21  H5  UNL     1     -13.668  24.821  58.640  1.00  0.00     0.175 HD
BRANCH  17  22
HETATM   22  C16 UNL     1     -15.899  26.252  57.658  1.00  0.00     0.078 C 
BRANCH  22  23
HETATM   23  C17 UNL     1     -16.334  25.558  58.867  1.00  0.00     0.016 C 
BRANCH  23  24
HETATM   24  C18 UNL     1     -17.379  26.152  59.732  1.00  0.00    -0.051 C 
HETATM   25  C19 UNL     1     -18.530  26.706  58.882  1.00  0.00     0.014 C 
HETATM   26  C20 UNL     1     -16.963  27.108  60.774  1.00  0.00     0.014 C 
HETATM   27  C21 UNL     1     -18.048  24.953  60.478  1.00  0.00     0.014 C 
ENDBRANCH  23  24
ENDBRANCH  22  23
ENDBRANCH  17  22
ENDBRANCH  13  15
ENDBRANCH  10  11
BRANCH   7  28
HETATM   28  C6  UNL     1     -11.177  24.373  52.580  1.00  0.00     0.251 C 
HETATM   29  O1  UNL     1     -10.592  23.503  53.258  1.00  0.00    -0.268 OA
HETATM   30  N2  UNL     1     -12.163  23.892  51.680  1.00  0.00    -0.355 N 
ATOM     31  H2  UNL     1     -12.659  24.589  51.126  1.00  0.00     0.162 HD
BRANCH  30  32
HETATM   32  C7  UNL     1     -12.527  22.527  51.477  1.00  0.00     0.149 C 
BRANCH  32  33
HETATM   33  C8  UNL     1     -13.764  22.015  52.100  1.00  0.00     0.189 C 
BRANCH  33  34
HETATM   34  O2  UNL     1     -13.755  21.645  53.404  1.00  0.00    -0.374 OA
BRANCH  34  35
HETATM   35  C9  UNL     1     -12.864  20.598  53.612  1.00  0.00     0.188 C 
HETATM   36  C10 UNL     1     -13.558  19.250  53.489  1.00  0.00     0.052 C 
HETATM   37 BR1  UNL     1     -12.023  20.768  55.357  1.00  0.00    -0.062 Br
ENDBRANCH  34  35
ENDBRANCH  33  34
ENDBRANCH  32  33
ENDBRANCH  30  32
ENDBRANCH   7  28
TORSDOF 10
ENDMDL
MODEL 3
REMARK VINA RESULT: -6.593245040      3.231      3.984
REMARK  10 active torsions:
REMARK  status: ('A' for Active; 'I' for Inactive)
REMARK    1  A    between atoms: C5_7  and  C6_8 
REMARK       I    between atoms: C6_8  and  N2_10 
REMARK    2  A    between atoms: N2_10  and  C7_12 
REMARK    3  A    between atoms: C7_12  and  C8_13 
REMARK    4  A    between atoms: C8_13  and  O2_14 
REMARK    5  A    between atoms: O2_14  and  C9_15 
REMARK    6  A    between atoms: C12_20  and  C13_21 
REMARK       I    between atoms: C13_21  and  N3_23 
REMARK    7  A    between atoms: N3_23  and  C14_25 
REMARK    8  A    between atoms: C15_28  and  C16_29 
REMARK    9  A    between atoms: C16_29  and  C17_30 
REMARK   10  A    between atoms: C17_30  and  C18_31 
ROOT
HETATM    1  C1  UNL     1     -12.010  20.445  55.019  1.00  0.00     0.069 C 
HETATM    2  C2  UNL     1     -11.929  21.862  54.457  1.00  0.00     0.019 C 
HETATM    3  N1  UNL     1     -11.624  22.049  53.248  1.00  0.00    -0.362 N 
ATOM      4  H1  UNL     1     -11.448  21.227  52.670  1.00  0.00     0.165 HD
HETATM    5  C3  UNL     1     -11.509  23.321  52.635  1.00  0.00     0.019 C 
HETATM    6  C4  UNL     1     -11.162  23.426  51.187  1.00  0.00     0.069 C 
HETATM    7  C5  UNL     1     -11.712  24.396  53.359  1.00  0.00     0.055 C 
HETATM    8  C11 UNL     1     -11.924  24.288  54.836  1.00  0.00     0.163 C 
HETATM    9 CL1  UNL     1     -10.479  24.946  55.676  1.00  0.00    -0.114 Cl
HETATM   10  C12 UNL     1     -12.334  22.973  55.310  1.00  0.00     0.055 C 
ENDROOT
BRANCH  10  11
HETATM   11  C13 UNL     1     -12.165  22.742  56.763  1.00  0.00     0.257 C 
HETATM   12  O3  UNL     1     -11.046  22.405  57.202  1.00  0.00    -0.267 OA
HETATM   13  N3  UNL     1     -13.200  22.875  57.721  1.00  0.00    -0.302 N 
ATOM     14  H3  UNL     1     -13.566  22.042  58.183  1.00  0.00     0.171 HD
BRANCH  13  15
HETATM   15  C14 UNL     1     -13.697  24.052  58.027  1.00  0.00     0.169 A 
HETATM   16  N4  UNL     1     -14.964  24.404  58.045  1.00  0.00    -0.325 N 
HETATM   17  C15 UNL     1     -15.311  25.610  58.360  1.00  0.00     0.089 A 
ATOM     18  H4  UNL     1     -15.681  23.718  57.809  1.00  0.00     0.169 HD
HETATM   19  N5  UNL     1     -14.301  26.474  58.664  1.00  0.00    -0.313 N 
HETATM   20  S1  UNL     1     -12.940  25.508  58.482  1.00  0.00     0.024 SA
ATOM     21  H5  UNL     1     -14.358  27.457  58.935  1.00  0.00     0.175 HD
BRANCH  17  22
HETATM   22  C16 UNL     1     -16.754  26.052  58.408  1.00  0.00     0.078 C 
BRANCH  22  23
HETATM   23  C17 UNL     1     -17.178  26.695  59.648  1.00  0.00     0.016 C 
BRANCH  23  24
HETATM   24  C18 UNL     1     -18.166  26.033  60.530  1.00  0.00    -0.051 C 
HETATM   25  C19 UNL     1     -17.850  24.537  60.663  1.00  0.00     0.014 C 
HETATM   26  C20 UNL     1     -19.599  26.266  60.275  1.00  0.00     0.014 C 
HETATM   27  C21 UNL     1     -17.883  26.572  61.969  1.00  0.00     0.014 C 
ENDBRANCH  23  24
ENDBRANCH  22  23
ENDBRANCH  17  22
ENDBRANCH  13  15
ENDBRANCH  10  11
BRANCH   7  28
HETATM   28  C6  UNL     1     -11.621  25.770  52.781  1.00  0.00     0.251 C 
HETATM   29  O1  UNL     1     -12.622  26.384  52.354  1.00  0.00    -0.268 OA
HETATM   30  N2  UNL     1     -10.387  26.463  52.683  1.00  0.00    -0.355 N 
ATOM     31  H2  UNL     1      -9.560  25.982  53.037  1.00  0.00     0.162 HD
BRANCH  30  32
HETATM   32  C7  UNL     1     -10.191  27.768  52.139  1.00  0.00     0.149 C 
BRANCH  32  33
HETATM   33  C8  UNL     1      -9.829  27.902  50.714  1.00  0.00     0.189 C 
BRANCH  33  34
HETATM   34  O2  UNL     1      -9.852  26.811  49.911  1.00  0.00    -0.374 OA
BRANCH  34  35
HETATM   35  C9  UNL     1      -8.582  26.537  49.414  1.00  0.00     0.188 C 
HETATM   36  C10 UNL     1      -7.877  25.483  50.252  1.00  0.00     0.052 C 
HETATM   37 BR1  UNL     1      -7.523  28.166  49.346  1.00  0.00    -0.062 Br
ENDBRANCH  34  35
ENDBRANCH  33  34
ENDBRANCH  32  33
ENDBRANCH  30  32
ENDBRANCH   7  28
TORSDOF 10
ENDMDL
MODEL 4
REMARK VINA RESULT: -6.533619125      3.078      3.852
REMARK  10 active torsions:
REMARK  status: ('A' for Active; 'I' for Inactive)
REMARK    1  A    between atoms: C5_7  and  C6_8 
REMARK       I    between atoms: C6_8  and  N2_10 
REMARK    2  A    between atoms: N2_10  and  C7_12 
REMARK    3  A    between atoms: C7_12  and  C8_13 
REMARK    4  A    between atoms: C8_13  and  O2_14 
REMARK    5  A    between atoms: O2_14  and  C9_15 
REMARK    6  A    between atoms: C12_20  and  C13_21 
REMARK       I    between atoms: C13_21  and  N3_23 
REMARK    7  A    between atoms: N3_23  and  C14_25 
REMARK    8  A    between atoms: C15_28  and  C16_29 
REMARK    9  A    between atoms: C16_29  and  C17_30 
REMARK   10  A    between atoms: C17_30  and  C18_31 
ROOT
HETATM    1  C1  UNL     1     -13.381  19.442  53.506  1.00  0.00     0.069 C 
HETATM    2  C2  UNL     1     -13.033  20.898  53.212  1.00  0.00     0.019 C 
HETATM    3  N1  UNL     1     -13.146  21.354  52.041  1.00  0.00    -0.362 N 
ATOM      4  H1  UNL     1     -13.484  20.721  51.316  1.00  0.00     0.165 HD
HETATM    5  C3  UNL     1     -12.837  22.683  51.663  1.00  0.00     0.019 C 
HETATM    6  C4  UNL     1     -13.028  23.123  50.249  1.00  0.00     0.069 C 
HETATM    7  C5  UNL     1     -12.382  23.513  52.571  1.00  0.00     0.055 C 
HETATM    8  C11 UNL     1     -12.064  23.030  53.951  1.00  0.00     0.163 C 
HETATM    9 CL1  UNL     1     -10.281  23.044  54.171  1.00  0.00    -0.114 Cl
HETATM   10  C12 UNL     1     -12.695  21.772  54.329  1.00  0.00     0.055 C 
ENDROOT
BRANCH  10  11
HETATM   11  C13 UNL     1     -12.097  21.090  55.499  1.00  0.00     0.257 C 
HETATM   12  O3  UNL     1     -11.116  20.336  55.332  1.00  0.00    -0.267 OA
HETATM   13  N3  UNL     1     -12.562  21.228  56.831  1.00  0.00    -0.302 N 
ATOM     14  H3  UNL     1     -13.017  20.437  57.287  1.00  0.00     0.171 HD
BRANCH  13  15
HETATM   15  C14 UNL     1     -12.418  22.355  57.489  1.00  0.00     0.169 A 
HETATM   16  N4  UNL     1     -13.360  23.202  57.840  1.00  0.00    -0.325 N 
HETATM   17  C15 UNL     1     -13.069  24.287  58.483  1.00  0.00     0.089 A 
ATOM     18  H4  UNL     1     -14.332  23.001  57.602  1.00  0.00     0.169 HD
HETATM   19  N5  UNL     1     -11.752  24.491  58.768  1.00  0.00    -0.313 N 
HETATM   20  S1  UNL     1     -11.030  23.129  58.102  1.00  0.00     0.024 SA
ATOM     21  H5  UNL     1     -11.316  25.271  59.260  1.00  0.00     0.175 HD
BRANCH  17  22
HETATM   22  C16 UNL     1     -14.122  25.278  58.918  1.00  0.00     0.078 C 
BRANCH  22  23
HETATM   23  C17 UNL     1     -15.502  24.807  58.847  1.00  0.00     0.016 C 
BRANCH  23  24
HETATM   24  C18 UNL     1     -16.553  25.452  59.669  1.00  0.00    -0.051 C 
HETATM   25  C19 UNL     1     -15.945  26.550  60.552  1.00  0.00     0.014 C 
HETATM   26  C20 UNL     1     -17.473  24.589  60.430  1.00  0.00     0.014 C 
HETATM   27  C21 UNL     1     -17.437  26.266  58.670  1.00  0.00     0.014 C 
ENDBRANCH  23  24
ENDBRANCH  22  23
ENDBRANCH  17  22
ENDBRANCH  13  15
ENDBRANCH  10  11
BRANCH   7  28
HETATM   28  C6  UNL     1     -12.046  24.933  52.252  1.00  0.00     0.251 C 
HETATM   29  O1  UNL     1     -12.873  25.861  52.375  1.00  0.00    -0.268 OA
HETATM   30  N2  UNL     1     -10.760  25.313  51.787  1.00  0.00    -0.355 N 
ATOM     31  H2  UNL     1     -10.068  24.571  51.690  1.00  0.00     0.162 HD
BRANCH  30  32
HETATM   32  C7  UNL     1     -10.343  26.635  51.442  1.00  0.00     0.149 C 
BRANCH  32  33
HETATM   33  C8  UNL     1      -9.676  26.859  50.144  1.00  0.00     0.189 C 
BRANCH  33  34
HETATM   34  O2  UNL     1      -9.094  25.818  49.501  1.00  0.00    -0.374 OA
BRANCH  34  35
HETATM   35  C9  UNL     1      -7.728  26.034  49.350  1.00  0.00     0.188 C 
HETATM   36  C10 UNL     1      -6.936  25.337  50.445  1.00  0.00     0.052 C 
HETATM   37 BR1  UNL     1      -7.345  27.940  49.348  1.00  0.00    -0.062 Br
ENDBRANCH  34  35
ENDBRANCH  33  34
ENDBRANCH  32  33
ENDBRANCH  30  32
ENDBRANCH   7  28
TORSDOF 10
ENDMDL
MODEL 5
REMARK VINA RESULT: -6.510458443      1.144      1.448
REMARK  10 active torsions:
REMARK  status: ('A' for Active; 'I' for Inactive)
REMARK    1  A    between atoms: C5_7  and  C6_8 
REMARK       I    between atoms: C6_8  and  N2_10 
REMARK    2  A    between atoms: N2_10  and  C7_12 
REMARK    3  A    between atoms: C7_12  and  C8_13 
REMARK    4  A    between atoms: C8_13  and  O2_14 
REMARK    5  A    between atoms: O2_14  and  C9_15 
REMARK    6  A    between atoms: C12_20  and  C13_21 
REMARK       I    between atoms: C13_21  and  N3_23 
REMARK    7  A    between atoms: N3_23  and  C14_25 
REMARK    8  A    between atoms: C15_28  and  C16_29 
REMARK    9  A    between atoms: C16_29  and  C17_30 
REMARK   10  A    between atoms: C17_30  and  C18_31 
ROOT
HETATM    1  C1  UNL     1     -12.563  20.135  54.638  1.00  0.00     0.069 C 
HETATM    2  C2  UNL     1     -12.744  21.628  54.377  1.00  0.00     0.019 C 
HETATM    3  N1  UNL     1     -12.993  22.043  53.212  1.00  0.00    -0.362 N 
ATOM      4  H1  UNL     1     -13.076  21.350  52.469  1.00  0.00     0.165 HD
HETATM    5  C3  UNL     1     -13.164  23.405  52.864  1.00  0.00     0.019 C 
HETATM    6  C4  UNL     1     -13.477  23.784  51.454  1.00  0.00     0.069 C 
HETATM    7  C5  UNL     1     -13.044  24.320  53.796  1.00  0.00     0.055 C 
HETATM    8  C11 UNL     1     -12.597  23.946  55.174  1.00  0.00     0.163 C 
HETATM    9 CL1  UNL     1     -10.937  24.580  55.435  1.00  0.00    -0.114 Cl
HETATM   10  C12 UNL     1     -12.751  22.538  55.516  1.00  0.00     0.055 C 
ENDROOT
BRANCH  10  11
HETATM   11  C13 UNL     1     -11.970  22.081  56.688  1.00  0.00     0.257 C 
HETATM   12  O3  UNL     1     -10.731  21.966  56.588  1.00  0.00    -0.267 OA
HETATM   13  N3  UNL     1     -12.531  21.755  57.948  1.00  0.00    -0.302 N 
ATOM     14  H3  UNL     1     -12.537  20.782  58.256  1.00  0.00     0.171 HD
BRANCH  13  15
HETATM   15  C14 UNL     1     -13.043  22.681  58.725  1.00  0.00     0.169 A 
HETATM   16  N4  UNL     1     -14.302  23.048  58.808  1.00  0.00    -0.325 N 
HETATM   17  C15 UNL     1     -14.665  23.989  59.619  1.00  0.00     0.089 A 
ATOM     18  H4  UNL     1     -15.002  22.585  58.227  1.00  0.00     0.169 HD
HETATM   19  N5  UNL     1     -13.680  24.563  60.366  1.00  0.00    -0.313 N 
HETATM   20  S1  UNL     1     -12.317  23.724  59.860  1.00  0.00     0.024 SA
ATOM     21  H5  UNL     1     -13.752  25.312  61.055  1.00  0.00     0.175 HD
BRANCH  17  22
HETATM   22  C16 UNL     1     -16.103  24.430  59.756  1.00  0.00     0.078 C 
BRANCH  22  23
HETATM   23  C17 UNL     1     -16.346  25.859  59.582  1.00  0.00     0.016 C 
BRANCH  23  24
HETATM   24  C18 UNL     1     -17.661  26.441  59.939  1.00  0.00    -0.051 C 
HETATM   25  C19 UNL     1     -18.441  26.820  58.673  1.00  0.00     0.014 C 
HETATM   26  C20 UNL     1     -17.700  27.517  60.945  1.00  0.00     0.014 C 
HETATM   27  C21 UNL     1     -18.505  25.262  60.522  1.00  0.00     0.014 C 
ENDBRANCH  23  24
ENDBRANCH  22  23
ENDBRANCH  17  22
ENDBRANCH  13  15
ENDBRANCH  10  11
BRANCH   7  28
HETATM   28  C6  UNL     1     -13.223  25.775  53.509  1.00  0.00     0.251 C 
HETATM   29  O1  UNL     1     -12.661  26.341  52.547  1.00  0.00    -0.268 OA
HETATM   30  N2  UNL     1     -14.045  26.604  54.315  1.00  0.00    -0.355 N 
ATOM     31  H2  UNL     1     -14.521  26.157  55.099  1.00  0.00     0.162 HD
BRANCH  30  32
HETATM   32  C7  UNL     1     -14.272  28.002  54.135  1.00  0.00     0.149 C 
BRANCH  32  33
HETATM   33  C8  UNL     1     -13.330  28.964  54.740  1.00  0.00     0.189 C 
BRANCH  33  34
HETATM   34  O2  UNL     1     -12.292  28.508  55.484  1.00  0.00    -0.374 OA
BRANCH  34  35
HETATM   35  C9  UNL     1     -12.485  28.799  56.830  1.00  0.00     0.188 C 
HETATM   36  C10 UNL     1     -11.219  29.358  57.461  1.00  0.00     0.052 C 
HETATM   37 BR1  UNL     1     -13.068  27.208  57.784  1.00  0.00    -0.062 Br
ENDBRANCH  34  35
ENDBRANCH  33  34
ENDBRANCH  32  33
ENDBRANCH  30  32
ENDBRANCH   7  28
TORSDOF 10
ENDMDL
