MODEL 1
REMARK VINA RESULT: -7.571252884      0.000      0.000
REMARK  9 active torsions:
REMARK  status: ('A' for Active; 'I' for Inactive)
REMARK    1  A    between atoms: C2_2  and  C5_5 
REMARK    2  A    between atoms: C5_5  and  C6_6 
REMARK    3  A    between atoms: C6_6  and  O1_7 
REMARK    4  A    between atoms: C6_6  and  C21_28 
REMARK    5  A    between atoms: O1_7  and  C7_8 
REMARK    6  A    between atoms: C13_17  and  C14_18 
REMARK    7  A    between atoms: N3_22  and  O3_23 
REMARK       I    between atoms: C21_28  and  N4_30 
REMARK    8  A    between atoms: N4_30  and  C22_32 
REMARK    9  A    between atoms: C22_32  and  C23_33 
ROOT
HETATM    1  C7  UNL     1     -11.128  28.225  53.064  1.00  0.00     0.158 C 
HETATM    2  C8  UNL     1     -10.988  29.479  53.911  1.00  0.00     0.064 C 
HETATM    3  C9  UNL     1     -12.100  29.381  54.900  1.00  0.00     0.278 C 
HETATM    4  N1  UNL     1     -13.015  28.357  54.374  1.00  0.00     0.119 N 
HETATM    5  C10 UNL     1     -12.135  27.396  53.804  1.00  0.00     0.263 C 
HETATM    6  C11 UNL     1     -11.437  26.535  54.811  1.00  0.00     0.141 C 
HETATM    7  C12 UNL     1     -12.369  26.028  55.851  1.00  0.00     0.224 C 
HETATM    8  O2  UNL     1     -12.107  24.937  56.402  1.00  0.00    -0.273 OA
HETATM    9  N2  UNL     1     -13.502  26.785  56.175  1.00  0.00    -0.315 N 
HETATM   10  C13 UNL     1     -14.544  26.744  57.152  1.00  0.00     0.109 C 
HETATM   11  C18 UNL     1     -15.799  27.045  56.322  1.00  0.00     0.031 C 
HETATM   12  C19 UNL     1     -15.291  27.659  55.037  1.00  0.00     0.059 C 
HETATM   13  C20 UNL     1     -13.875  27.989  55.402  1.00  0.00     0.327 C 
ENDROOT
BRANCH   1  14
HETATM   14  O1  UNL     1      -9.903  27.659  52.862  1.00  0.00    -0.369 OA
BRANCH  14  15
HETATM   15  C6  UNL     1      -9.762  27.154  51.501  1.00  0.00     0.214 C 
BRANCH  15  16
HETATM   16  C5  UNL     1      -8.439  27.639  51.024  1.00  0.00     0.050 C 
BRANCH  16  17
HETATM   17  C2  UNL     1      -8.294  28.962  50.408  1.00  0.00    -0.049 C 
HETATM   18  C1  UNL     1      -7.564  29.997  51.210  1.00  0.00     0.014 C 
HETATM   19  C3  UNL     1      -9.531  29.554  49.800  1.00  0.00     0.014 C 
HETATM   20  C4  UNL     1      -7.342  28.782  49.149  1.00  0.00     0.014 C 
ENDBRANCH  16  17
ENDBRANCH  15  16
BRANCH  15  21
HETATM   21  C21 UNL     1      -9.924  25.710  51.637  1.00  0.00     0.246 C 
HETATM   22  O4  UNL     1      -8.912  24.999  51.965  1.00  0.00    -0.271 OA
HETATM   23  N4  UNL     1     -11.141  24.975  51.445  1.00  0.00    -0.358 N 
ATOM     24  H4  UNL     1     -11.991  25.475  51.185  1.00  0.00     0.162 HD
BRANCH  23  25
HETATM   25  C22 UNL     1     -11.186  23.552  51.613  1.00  0.00     0.133 C 
BRANCH  25  26
HETATM   26  C23 UNL     1     -11.720  23.027  52.887  1.00  0.00     0.076 C 
HETATM   27  C24 UNL     1     -11.322  21.553  53.002  1.00  0.00     0.012 C 
HETATM   28  C25 UNL     1     -12.414  20.581  52.797  1.00  0.00     0.001 C 
HETATM   29  C26 UNL     1     -13.635  20.984  52.070  1.00  0.00     0.006 C 
HETATM   30  C27 UNL     1     -13.947  22.439  52.006  1.00  0.00     0.079 C 
HETATM   31  C28 UNL     1     -13.190  23.151  53.105  1.00  0.00     0.248 C 
HETATM   32  F1  UNL     1     -13.638  24.424  53.356  1.00  0.00    -0.206 F 
HETATM   33  F2  UNL     1     -13.479  22.406  54.269  1.00  0.00    -0.206 F 
ENDBRANCH  25  26
ENDBRANCH  23  25
ENDBRANCH  15  21
ENDBRANCH  14  15
ENDBRANCH   1  14
BRANCH  10  34
HETATM   34  C14 UNL     1     -14.781  25.461  57.847  1.00  0.00     0.109 C 
HETATM   35  C15 UNL     1     -16.164  25.569  58.514  1.00  0.00     0.025 C 
HETATM   36  C16 UNL     1     -15.892  26.533  59.632  1.00  0.00     0.018 C 
HETATM   37  C17 UNL     1     -14.468  26.203  60.024  1.00  0.00     0.121 C 
HETATM   38  N3  UNL     1     -13.977  25.268  59.054  1.00  0.00    -0.193 NA
BRANCH  38  39
HETATM   39  O3  UNL     1     -14.024  23.990  59.437  1.00  0.00    -0.313 OA
ATOM     40  H3  UNL     1     -14.009  23.932  60.385  1.00  0.00     0.237 HD
ENDBRANCH  38  39
ENDBRANCH  10  34
TORSDOF 9
ENDMDL
MODEL 2
REMARK VINA RESULT: -7.378041432      1.937      7.533
REMARK  9 active torsions:
REMARK  status: ('A' for Active; 'I' for Inactive)
REMARK    1  A    between atoms: C2_2  and  C5_5 
REMARK    2  A    between atoms: C5_5  and  C6_6 
REMARK    3  A    between atoms: C6_6  and  O1_7 
REMARK    4  A    between atoms: C6_6  and  C21_28 
REMARK    5  A    between atoms: O1_7  and  C7_8 
REMARK    6  A    between atoms: C13_17  and  C14_18 
REMARK    7  A    between atoms: N3_22  and  O3_23 
REMARK       I    between atoms: C21_28  and  N4_30 
REMARK    8  A    between atoms: N4_30  and  C22_32 
REMARK    9  A    between atoms: C22_32  and  C23_33 
ROOT
HETATM    1  C7  UNL     1     -12.523  27.232  56.326  1.00  0.00     0.158 C 
HETATM    2  C8  UNL     1     -12.679  28.742  56.244  1.00  0.00     0.064 C 
HETATM    3  C9  UNL     1     -11.586  29.178  55.329  1.00  0.00     0.278 C 
HETATM    4  N1  UNL     1     -10.660  28.038  55.241  1.00  0.00     0.119 N 
HETATM    5  C10 UNL     1     -11.528  26.912  55.250  1.00  0.00     0.263 C 
HETATM    6  C11 UNL     1     -12.244  26.682  53.955  1.00  0.00     0.141 C 
HETATM    7  C12 UNL     1     -11.329  26.790  52.788  1.00  0.00     0.224 C 
HETATM    8  O2  UNL     1     -11.601  26.135  51.759  1.00  0.00    -0.273 OA
HETATM    9  N2  UNL     1     -10.204  27.618  52.881  1.00  0.00    -0.315 N 
HETATM   10  C13 UNL     1      -9.180  28.094  52.006  1.00  0.00     0.109 C 
HETATM   11  C18 UNL     1      -7.910  27.940  52.854  1.00  0.00     0.031 C 
HETATM   12  C19 UNL     1      -8.395  27.803  54.280  1.00  0.00     0.059 C 
HETATM   13  C20 UNL     1      -9.818  28.258  54.157  1.00  0.00     0.327 C 
ENDROOT
BRANCH   1  14
HETATM   14  O1  UNL     1     -13.743  26.631  56.227  1.00  0.00    -0.369 OA
BRANCH  14  15
HETATM   15  C6  UNL     1     -14.046  25.832  57.409  1.00  0.00     0.214 C 
BRANCH  15  16
HETATM   16  C5  UNL     1     -15.513  25.958  57.618  1.00  0.00     0.050 C 
BRANCH  16  17
HETATM   17  C2  UNL     1     -16.098  25.880  58.961  1.00  0.00    -0.049 C 
HETATM   18  C1  UNL     1     -15.546  26.824  59.987  1.00  0.00     0.014 C 
HETATM   19  C3  UNL     1     -16.243  24.505  59.545  1.00  0.00     0.014 C 
HETATM   20  C4  UNL     1     -17.605  26.364  58.837  1.00  0.00     0.014 C 
ENDBRANCH  16  17
ENDBRANCH  15  16
BRANCH  15  21
HETATM   21  C21 UNL     1     -13.539  24.504  57.083  1.00  0.00     0.246 C 
HETATM   22  O4  UNL     1     -13.085  23.764  58.022  1.00  0.00    -0.271 OA
HETATM   23  N4  UNL     1     -13.500  23.911  55.777  1.00  0.00    -0.358 N 
ATOM     24  H4  UNL     1     -13.848  24.441  54.977  1.00  0.00     0.162 HD
BRANCH  23  25
HETATM   25  C22 UNL     1     -12.984  22.590  55.573  1.00  0.00     0.133 C 
BRANCH  25  26
HETATM   26  C23 UNL     1     -12.171  22.350  54.362  1.00  0.00     0.076 C 
HETATM   27  C24 UNL     1     -12.946  22.876  53.152  1.00  0.00     0.012 C 
HETATM   28  C25 UNL     1     -13.534  21.845  52.274  1.00  0.00     0.001 C 
HETATM   29  C26 UNL     1     -13.766  20.481  52.791  1.00  0.00     0.006 C 
HETATM   30  C27 UNL     1     -12.970  20.049  53.973  1.00  0.00     0.079 C 
HETATM   31  C28 UNL     1     -11.755  20.942  54.097  1.00  0.00     0.248 C 
HETATM   32  F1  UNL     1     -10.786  20.451  54.936  1.00  0.00    -0.206 F 
HETATM   33  F2  UNL     1     -11.183  20.937  52.806  1.00  0.00    -0.206 F 
ENDBRANCH  25  26
ENDBRANCH  23  25
ENDBRANCH  15  21
ENDBRANCH  14  15
ENDBRANCH   1  14
BRANCH  10  34
HETATM   34  C14 UNL     1      -8.954  27.352  50.748  1.00  0.00     0.109 C 
HETATM   35  C15 UNL     1      -7.563  27.766  50.235  1.00  0.00     0.025 C 
HETATM   36  C16 UNL     1      -7.809  29.174  49.778  1.00  0.00     0.018 C 
HETATM   37  C17 UNL     1      -9.233  29.120  49.269  1.00  0.00     0.121 C 
HETATM   38  N3  UNL     1      -9.748  27.827  49.614  1.00  0.00    -0.193 NA
BRANCH  38  39
HETATM   39  O3  UNL     1      -9.715  26.931  48.625  1.00  0.00    -0.313 OA
ATOM     40  H3  UNL     1      -9.664  27.372  47.786  1.00  0.00     0.237 HD
ENDBRANCH  38  39
ENDBRANCH  10  34
TORSDOF 9
ENDMDL
MODEL 3
REMARK VINA RESULT: -7.308674213      3.461      8.844
REMARK  9 active torsions:
REMARK  status: ('A' for Active; 'I' for Inactive)
REMARK    1  A    between atoms: C2_2  and  C5_5 
REMARK    2  A    between atoms: C5_5  and  C6_6 
REMARK    3  A    between atoms: C6_6  and  O1_7 
REMARK    4  A    between atoms: C6_6  and  C21_28 
REMARK    5  A    between atoms: O1_7  and  C7_8 
REMARK    6  A    between atoms: C13_17  and  C14_18 
REMARK    7  A    between atoms: N3_22  and  O3_23 
REMARK       I    between atoms: C21_28  and  N4_30 
REMARK    8  A    between atoms: N4_30  and  C22_32 
REMARK    9  A    between atoms: C22_32  and  C23_33 
ROOT
HETATM    1  C7  UNL     1      -9.281  26.188  52.010  1.00  0.00     0.158 C 
HETATM    2  C8  UNL     1      -8.324  26.343  53.181  1.00  0.00     0.064 C 
HETATM    3  C9  UNL     1      -6.971  26.181  52.576  1.00  0.00     0.278 C 
HETATM    4  N1  UNL     1      -7.194  25.583  51.251  1.00  0.00     0.119 N 
HETATM    5  C10 UNL     1      -8.388  26.214  50.806  1.00  0.00     0.263 C 
HETATM    6  C11 UNL     1      -8.197  27.629  50.351  1.00  0.00     0.141 C 
HETATM    7  C12 UNL     1      -7.013  27.772  49.464  1.00  0.00     0.224 C 
HETATM    8  O2  UNL     1      -7.020  28.684  48.610  1.00  0.00    -0.273 OA
HETATM    9  N2  UNL     1      -5.940  26.886  49.614  1.00  0.00    -0.315 N 
HETATM   10  C13 UNL     1      -4.618  26.745  49.091  1.00  0.00     0.109 C 
HETATM   11  C18 UNL     1      -4.530  25.243  48.791  1.00  0.00     0.031 C 
HETATM   12  C19 UNL     1      -5.654  24.610  49.582  1.00  0.00     0.059 C 
HETATM   13  C20 UNL     1      -6.020  25.720  50.520  1.00  0.00     0.327 C 
ENDROOT
BRANCH   1  14
HETATM   14  O1  UNL     1     -10.252  27.144  52.071  1.00  0.00    -0.369 OA
BRANCH  14  15
HETATM   15  C6  UNL     1     -11.027  27.046  53.302  1.00  0.00     0.214 C 
BRANCH  15  16
HETATM   16  C5  UNL     1     -11.641  28.385  53.503  1.00  0.00     0.050 C 
BRANCH  16  17
HETATM   17  C2  UNL     1     -12.475  28.670  54.676  1.00  0.00    -0.049 C 
HETATM   18  C1  UNL     1     -12.027  28.074  55.976  1.00  0.00     0.014 C 
HETATM   19  C3  UNL     1     -13.954  28.486  54.502  1.00  0.00     0.014 C 
HETATM   20  C4  UNL     1     -12.351  30.228  54.962  1.00  0.00     0.014 C 
ENDBRANCH  16  17
ENDBRANCH  15  16
BRANCH  15  21
HETATM   21  C21 UNL     1     -11.939  25.932  53.063  1.00  0.00     0.246 C 
HETATM   22  O4  UNL     1     -12.719  25.974  52.051  1.00  0.00    -0.271 OA
HETATM   23  N4  UNL     1     -12.052  24.747  53.864  1.00  0.00    -0.358 N 
ATOM     24  H4  UNL     1     -11.460  24.641  54.687  1.00  0.00     0.162 HD
BRANCH  23  25
HETATM   25  C22 UNL     1     -12.982  23.709  53.530  1.00  0.00     0.133 C 
BRANCH  25  26
HETATM   26  C23 UNL     1     -13.150  22.600  54.494  1.00  0.00     0.076 C 
HETATM   27  C24 UNL     1     -12.231  22.862  55.690  1.00  0.00     0.012 C 
HETATM   28  C25 UNL     1     -11.034  22.003  55.773  1.00  0.00     0.001 C 
HETATM   29  C26 UNL     1     -10.532  21.316  54.565  1.00  0.00     0.006 C 
HETATM   30  C27 UNL     1     -11.492  21.103  53.447  1.00  0.00     0.079 C 
HETATM   31  C28 UNL     1     -12.902  21.221  53.984  1.00  0.00     0.248 C 
HETATM   32  F1  UNL     1     -13.864  20.728  53.137  1.00  0.00    -0.206 F 
HETATM   33  F2  UNL     1     -12.917  20.375  55.115  1.00  0.00    -0.206 F 
ENDBRANCH  25  26
ENDBRANCH  23  25
ENDBRANCH  15  21
ENDBRANCH  14  15
ENDBRANCH   1  14
BRANCH  10  34
HETATM   34  C14 UNL     1      -4.298  27.458  47.836  1.00  0.00     0.109 C 
HETATM   35  C15 UNL     1      -2.882  27.016  47.426  1.00  0.00     0.025 C 
HETATM   36  C16 UNL     1      -2.034  27.708  48.452  1.00  0.00     0.018 C 
HETATM   37  C17 UNL     1      -2.790  28.994  48.704  1.00  0.00     0.121 C 
HETATM   38  N3  UNL     1      -4.035  28.887  48.001  1.00  0.00    -0.193 NA
BRANCH  38  39
HETATM   39  O3  UNL     1      -4.060  29.498  46.814  1.00  0.00    -0.313 OA
ATOM     40  H3  UNL     1      -3.386  30.165  46.776  1.00  0.00     0.237 HD
ENDBRANCH  38  39
ENDBRANCH  10  34
TORSDOF 9
ENDMDL
MODEL 4
REMARK VINA RESULT: -7.182039794      4.932     10.466
REMARK  9 active torsions:
REMARK  status: ('A' for Active; 'I' for Inactive)
REMARK    1  A    between atoms: C2_2  and  C5_5 
REMARK    2  A    between atoms: C5_5  and  C6_6 
REMARK    3  A    between atoms: C6_6  and  O1_7 
REMARK    4  A    between atoms: C6_6  and  C21_28 
REMARK    5  A    between atoms: O1_7  and  C7_8 
REMARK    6  A    between atoms: C13_17  and  C14_18 
REMARK    7  A    between atoms: N3_22  and  O3_23 
REMARK       I    between atoms: C21_28  and  N4_30 
REMARK    8  A    between atoms: N4_30  and  C22_32 
REMARK    9  A    between atoms: C22_32  and  C23_33 
ROOT
HETATM    1  C7  UNL     1      -6.680  27.357  49.696  1.00  0.00     0.158 C 
HETATM    2  C8  UNL     1      -6.307  28.676  49.038  1.00  0.00     0.064 C 
HETATM    3  C9  UNL     1      -5.004  28.399  48.368  1.00  0.00     0.278 C 
HETATM    4  N1  UNL     1      -4.512  27.143  48.955  1.00  0.00     0.119 N 
HETATM    5  C10 UNL     1      -5.697  26.377  49.127  1.00  0.00     0.263 C 
HETATM    6  C11 UNL     1      -6.241  25.799  47.857  1.00  0.00     0.141 C 
HETATM    7  C12 UNL     1      -5.176  25.173  47.030  1.00  0.00     0.224 C 
HETATM    8  O2  UNL     1      -5.490  24.229  46.274  1.00  0.00    -0.273 OA
HETATM    9  N2  UNL     1      -3.866  25.660  47.128  1.00  0.00    -0.315 N 
HETATM   10  C13 UNL     1      -2.621  25.453  46.460  1.00  0.00     0.109 C 
HETATM   11  C18 UNL     1      -1.622  25.370  47.623  1.00  0.00     0.031 C 
HETATM   12  C19 UNL     1      -2.338  25.977  48.809  1.00  0.00     0.059 C 
HETATM   13  C20 UNL     1      -3.489  26.667  48.142  1.00  0.00     0.327 C 
ENDROOT
BRANCH   1  14
HETATM   14  O1  UNL     1      -8.001  27.088  49.486  1.00  0.00    -0.369 OA
BRANCH  14  15
HETATM   15  C6  UNL     1      -8.753  27.079  50.736  1.00  0.00     0.214 C 
BRANCH  15  16
HETATM   16  C5  UNL     1      -9.511  28.358  50.763  1.00  0.00     0.050 C 
BRANCH  16  17
HETATM   17  C2  UNL     1      -9.538  29.200  51.964  1.00  0.00    -0.049 C 
HETATM   18  C1  UNL     1     -10.432  28.748  53.078  1.00  0.00     0.014 C 
HETATM   19  C3  UNL     1      -9.692  30.675  51.739  1.00  0.00     0.014 C 
HETATM   20  C4  UNL     1      -8.099  29.100  52.628  1.00  0.00     0.014 C 
ENDBRANCH  16  17
ENDBRANCH  15  16
BRANCH  15  21
HETATM   21  C21 UNL     1      -9.536  25.849  50.673  1.00  0.00     0.246 C 
HETATM   22  O4  UNL     1      -9.787  25.330  49.532  1.00  0.00    -0.271 OA
HETATM   23  N4  UNL     1     -10.065  25.127  51.794  1.00  0.00    -0.358 N 
ATOM     24  H4  UNL     1      -9.903  25.479  52.738  1.00  0.00     0.162 HD
BRANCH  23  25
HETATM   25  C22 UNL     1     -10.818  23.921  51.615  1.00  0.00     0.133 C 
BRANCH  25  26
HETATM   26  C23 UNL     1     -11.578  23.406  52.775  1.00  0.00     0.076 C 
HETATM   27  C24 UNL     1     -11.427  21.883  52.808  1.00  0.00     0.012 C 
HETATM   28  C25 UNL     1     -12.621  21.116  52.403  1.00  0.00     0.001 C 
HETATM   29  C26 UNL     1     -13.668  21.759  51.583  1.00  0.00     0.006 C 
HETATM   30  C27 UNL     1     -13.744  23.246  51.607  1.00  0.00     0.079 C 
HETATM   31  C28 UNL     1     -13.026  23.752  52.839  1.00  0.00     0.248 C 
HETATM   32  F1  UNL     1     -13.302  25.062  53.145  1.00  0.00    -0.206 F 
HETATM   33  F2  UNL     1     -13.566  22.988  53.897  1.00  0.00    -0.206 F 
ENDBRANCH  25  26
ENDBRANCH  23  25
ENDBRANCH  15  21
ENDBRANCH  14  15
ENDBRANCH   1  14
BRANCH  10  34
HETATM   34  C14 UNL     1      -2.466  24.215  45.667  1.00  0.00     0.109 C 
HETATM   35  C15 UNL     1      -0.954  23.953  45.547  1.00  0.00     0.025 C 
HETATM   36  C16 UNL     1      -0.528  25.037  44.600  1.00  0.00     0.018 C 
HETATM   37  C17 UNL     1      -1.728  25.181  43.690  1.00  0.00     0.121 C 
HETATM   38  N3  UNL     1      -2.769  24.365  44.244  1.00  0.00    -0.193 NA
BRANCH  38  39
HETATM   39  O3  UNL     1      -2.902  23.165  43.674  1.00  0.00    -0.313 OA
ATOM     40  H3  UNL     1      -2.815  23.240  42.731  1.00  0.00     0.237 HD
ENDBRANCH  38  39
ENDBRANCH  10  34
TORSDOF 9
ENDMDL
MODEL 5
REMARK VINA RESULT: -7.148455346      1.408      1.858
REMARK  9 active torsions:
REMARK  status: ('A' for Active; 'I' for Inactive)
REMARK    1  A    between atoms: C2_2  and  C5_5 
REMARK    2  A    between atoms: C5_5  and  C6_6 
REMARK    3  A    between atoms: C6_6  and  O1_7 
REMARK    4  A    between atoms: C6_6  and  C21_28 
REMARK    5  A    between atoms: O1_7  and  C7_8 
REMARK    6  A    between atoms: C13_17  and  C14_18 
REMARK    7  A    between atoms: N3_22  and  O3_23 
REMARK       I    between atoms: C21_28  and  N4_30 
REMARK    8  A    between atoms: N4_30  and  C22_32 
REMARK    9  A    between atoms: C22_32  and  C23_33 
ROOT
HETATM    1  C7  UNL     1     -11.688  28.035  54.753  1.00  0.00     0.158 C 
HETATM    2  C8  UNL     1     -11.377  28.920  55.950  1.00  0.00     0.064 C 
HETATM    3  C9  UNL     1     -12.361  28.497  56.987  1.00  0.00     0.278 C 
HETATM    4  N1  UNL     1     -13.388  27.722  56.273  1.00  0.00     0.119 N 
HETATM    5  C10 UNL     1     -12.638  27.010  55.297  1.00  0.00     0.263 C 
HETATM    6  C11 UNL     1     -11.867  25.850  55.848  1.00  0.00     0.141 C 
HETATM    7  C12 UNL     1     -12.689  25.023  56.769  1.00  0.00     0.224 C 
HETATM    8  O2  UNL     1     -12.419  23.807  56.877  1.00  0.00    -0.273 OA
HETATM    9  N2  UNL     1     -13.731  25.631  57.481  1.00  0.00    -0.315 N 
HETATM   10  C13 UNL     1     -14.644  25.264  58.516  1.00  0.00     0.109 C 
HETATM   11  C18 UNL     1     -15.974  25.841  58.015  1.00  0.00     0.031 C 
HETATM   12  C19 UNL     1     -15.598  26.856  56.959  1.00  0.00     0.059 C 
HETATM   13  C20 UNL     1     -14.132  27.029  57.221  1.00  0.00     0.327 C 
ENDROOT
BRANCH   1  14
HETATM   14  O1  UNL     1     -10.529  27.564  54.208  1.00  0.00    -0.369 OA
BRANCH  14  15
HETATM   15  C6  UNL     1     -10.594  27.533  52.752  1.00  0.00     0.214 C 
BRANCH  15  16
HETATM   16  C5  UNL     1      -9.216  27.834  52.278  1.00  0.00     0.050 C 
BRANCH  16  17
HETATM   17  C2  UNL     1      -8.982  28.762  51.167  1.00  0.00    -0.049 C 
HETATM   18  C1  UNL     1      -9.663  28.440  49.871  1.00  0.00     0.014 C 
HETATM   19  C3  UNL     1      -7.556  29.158  50.920  1.00  0.00     0.014 C 
HETATM   20  C4  UNL     1      -9.659  30.141  51.568  1.00  0.00     0.014 C 
ENDBRANCH  16  17
ENDBRANCH  15  16
BRANCH  15  21
HETATM   21  C21 UNL     1     -11.121  26.207  52.445  1.00  0.00     0.246 C 
HETATM   22  O4  UNL     1     -12.297  26.105  51.954  1.00  0.00    -0.271 OA
HETATM   23  N4  UNL     1     -10.434  24.961  52.632  1.00  0.00    -0.358 N 
ATOM     24  H4  UNL     1      -9.490  24.964  53.018  1.00  0.00     0.162 HD
BRANCH  23  25
HETATM   25  C22 UNL     1     -11.049  23.713  52.289  1.00  0.00     0.133 C 
BRANCH  25  26
HETATM   26  C23 UNL     1     -11.731  22.963  53.365  1.00  0.00     0.076 C 
HETATM   27  C24 UNL     1     -11.291  21.499  53.282  1.00  0.00     0.012 C 
HETATM   28  C25 UNL     1     -12.302  20.559  52.760  1.00  0.00     0.001 C 
HETATM   29  C26 UNL     1     -13.427  21.062  51.946  1.00  0.00     0.006 C 
HETATM   30  C27 UNL     1     -13.789  22.500  52.087  1.00  0.00     0.079 C 
HETATM   31  C28 UNL     1     -13.220  23.022  53.388  1.00  0.00     0.248 C 
HETATM   32  F1  UNL     1     -13.752  24.223  53.787  1.00  0.00    -0.206 F 
HETATM   33  F2  UNL     1     -13.636  22.079  54.355  1.00  0.00    -0.206 F 
ENDBRANCH  25  26
ENDBRANCH  23  25
ENDBRANCH  15  21
ENDBRANCH  14  15
ENDBRANCH   1  14
BRANCH  10  34
HETATM   34  C14 UNL     1     -14.861  23.822  58.760  1.00  0.00     0.109 C 
HETATM   35  C15 UNL     1     -16.035  23.713  59.749  1.00  0.00     0.025 C 
HETATM   36  C16 UNL     1     -15.410  24.198  61.024  1.00  0.00     0.018 C 
HETATM   37  C17 UNL     1     -13.981  23.714  60.905  1.00  0.00     0.121 C 
HETATM   38  N3  UNL     1     -13.832  23.184  59.581  1.00  0.00    -0.193 NA
BRANCH  38  39
HETATM   39  O3  UNL     1     -13.935  21.856  59.496  1.00  0.00    -0.313 OA
ATOM     40  H3  UNL     1     -13.135  21.489  59.140  1.00  0.00     0.237 HD
ENDBRANCH  38  39
ENDBRANCH  10  34
TORSDOF 9
ENDMDL
