MODEL 1
REMARK VINA RESULT: -7.392903161      0.000      0.000
REMARK  8 active torsions:
REMARK  status: ('A' for Active; 'I' for Inactive)
REMARK    1  A    between atoms: C2_2  and  C5_5 
REMARK    2  A    between atoms: C5_5  and  C6_6 
REMARK    3  A    between atoms: C6_6  and  C7_7 
REMARK    4  A    between atoms: C7_7  and  C8_8 
REMARK    5  A    between atoms: C8_8  and  N1_9 
REMARK       I    between atoms: N1_9  and  C9_11 
REMARK       I    between atoms: C9_11  and  N2_13 
REMARK    6  A    between atoms: C12_16  and  C13_17 
REMARK    7  A    between atoms: C15_19  and  C16_20 
REMARK    8  A    between atoms: C22_32  and  C23_33 
REMARK       I    between atoms: C23_33  and  N6_35 
ROOT
HETATM    1  N1  UNL     1     -11.470  25.943  53.218  1.00  0.00    -0.342 N 
ATOM      2  H1  UNL     1     -11.210  25.634  54.155  1.00  0.00     0.164 HD
HETATM    3  C9  UNL     1     -10.508  26.564  52.399  1.00  0.00     0.337 C 
HETATM    4  O1  UNL     1     -10.921  26.930  51.251  1.00  0.00    -0.245 OA
HETATM    5  N2  UNL     1      -9.185  26.771  52.810  1.00  0.00    -0.233 N 
HETATM    6  C10 UNL     1      -8.272  27.496  51.887  1.00  0.00     0.147 C 
HETATM    7  C11 UNL     1      -8.125  26.744  50.560  1.00  0.00     0.068 C 
HETATM    8  C12 UNL     1      -6.734  27.301  50.211  1.00  0.00     0.175 C 
HETATM    9  O2  UNL     1      -6.070  26.920  51.398  1.00  0.00    -0.370 OA
HETATM   10  C20 UNL     1      -6.893  27.374  52.428  1.00  0.00     0.167 C 
HETATM   11  C21 UNL     1      -7.075  26.336  53.530  1.00  0.00     0.182 C 
HETATM   12  N5  UNL     1      -8.479  26.434  53.863  1.00  0.00    -0.289 N 
HETATM   13  C22 UNL     1      -8.792  26.087  55.142  1.00  0.00     0.184 C 
ENDROOT
BRANCH   1  14
HETATM   14  C8  UNL     1     -12.852  25.733  52.738  1.00  0.00     0.124 C 
BRANCH  14  15
HETATM   15  C7  UNL     1     -13.048  24.294  52.401  1.00  0.00     0.020 C 
BRANCH  15  16
HETATM   16  C6  UNL     1     -12.507  23.370  53.477  1.00  0.00     0.002 C 
BRANCH  16  17
HETATM   17  C5  UNL     1     -13.410  22.179  53.666  1.00  0.00     0.008 C 
BRANCH  17  18
HETATM   18  C2  UNL     1     -12.551  20.940  53.918  1.00  0.00    -0.051 C 
HETATM   19  C1  UNL     1     -13.353  19.730  53.487  1.00  0.00     0.014 C 
HETATM   20  C3  UNL     1     -11.280  21.104  53.113  1.00  0.00     0.014 C 
HETATM   21  C4  UNL     1     -12.211  20.857  55.388  1.00  0.00     0.014 C 
ENDBRANCH  17  18
ENDBRANCH  16  17
ENDBRANCH  15  16
ENDBRANCH  14  15
ENDBRANCH   1  14
BRANCH  13  22
HETATM   22  C23 UNL     1      -8.671  24.612  55.385  1.00  0.00     0.260 C 
HETATM   23  O3  UNL     1      -9.355  23.848  54.693  1.00  0.00    -0.267 OA
HETATM   24  N6  UNL     1      -7.775  24.179  56.407  1.00  0.00    -0.342 N 
HETATM   25  C24 UNL     1      -6.970  25.017  57.222  1.00  0.00     0.132 C 
HETATM   26  C27 UNL     1      -7.586  22.807  56.750  1.00  0.00     0.205 C 
HETATM   27  C25 UNL     1      -5.888  24.140  57.765  1.00  0.00     0.100 C 
HETATM   28  C26 UNL     1      -6.324  22.723  57.538  1.00  0.00     0.261 C 
HETATM   29  F1  UNL     1      -5.346  21.982  56.890  1.00  0.00    -0.204 F 
HETATM   30  F2  UNL     1      -6.604  22.134  58.768  1.00  0.00    -0.204 F 
ENDBRANCH  13  22
BRANCH   8  31
HETATM   31  C13 UNL     1      -6.157  26.800  48.999  1.00  0.00     0.056 A 
HETATM   32  C14 UNL     1      -4.825  26.384  48.890  1.00  0.00     0.056 A 
HETATM   33  C15 UNL     1      -4.564  25.948  47.598  1.00  0.00     0.035 A 
HETATM   34  N3  UNL     1      -5.732  26.107  46.954  1.00  0.00    -0.304 N 
HETATM   35  N4  UNL     1      -6.660  26.605  47.781  1.00  0.00    -0.302 N 
ATOM     36  H3  UNL     1      -5.891  25.880  45.972  1.00  0.00     0.186 HD
ATOM     37  H4  UNL     1      -7.623  26.809  47.514  1.00  0.00     0.186 HD
BRANCH  33  38
HETATM   38  C16 UNL     1      -3.278  25.421  47.095  1.00  0.00    -0.007 C 
HETATM   39  C17 UNL     1      -2.370  26.577  46.738  1.00  0.00     0.021 C 
HETATM   40  C18 UNL     1      -2.579  24.607  48.152  1.00  0.00     0.021 C 
HETATM   41  C19 UNL     1      -3.444  24.607  45.828  1.00  0.00     0.021 C 
ENDBRANCH  33  38
ENDBRANCH   8  31
TORSDOF 8
ENDMDL
MODEL 2
REMARK VINA RESULT: -7.306732298      1.523      2.157
REMARK  8 active torsions:
REMARK  status: ('A' for Active; 'I' for Inactive)
REMARK    1  A    between atoms: C2_2  and  C5_5 
REMARK    2  A    between atoms: C5_5  and  C6_6 
REMARK    3  A    between atoms: C6_6  and  C7_7 
REMARK    4  A    between atoms: C7_7  and  C8_8 
REMARK    5  A    between atoms: C8_8  and  N1_9 
REMARK       I    between atoms: N1_9  and  C9_11 
REMARK       I    between atoms: C9_11  and  N2_13 
REMARK    6  A    between atoms: C12_16  and  C13_17 
REMARK    7  A    between atoms: C15_19  and  C16_20 
REMARK    8  A    between atoms: C22_32  and  C23_33 
REMARK       I    between atoms: C23_33  and  N6_35 
ROOT
HETATM    1  N1  UNL     1     -11.299  26.129  53.213  1.00  0.00    -0.342 N 
ATOM      2  H1  UNL     1     -11.015  25.902  54.166  1.00  0.00     0.164 HD
HETATM    3  C9  UNL     1     -10.373  26.725  52.335  1.00  0.00     0.337 C 
HETATM    4  O1  UNL     1     -10.814  26.985  51.169  1.00  0.00    -0.245 OA
HETATM    5  N2  UNL     1      -9.055  27.015  52.709  1.00  0.00    -0.233 N 
HETATM    6  C10 UNL     1      -8.183  27.704  51.722  1.00  0.00     0.147 C 
HETATM    7  C11 UNL     1      -8.021  26.861  50.453  1.00  0.00     0.068 C 
HETATM    8  C12 UNL     1      -6.659  27.446  50.043  1.00  0.00     0.175 C 
HETATM    9  O2  UNL     1      -5.966  27.183  51.245  1.00  0.00    -0.370 OA
HETATM   10  C20 UNL     1      -6.795  27.679  52.250  1.00  0.00     0.167 C 
HETATM   11  C21 UNL     1      -6.921  26.721  53.430  1.00  0.00     0.182 C 
HETATM   12  N5  UNL     1      -8.324  26.788  53.775  1.00  0.00    -0.289 N 
HETATM   13  C22 UNL     1      -8.607  26.526  55.081  1.00  0.00     0.184 C 
ENDROOT
BRANCH   1  14
HETATM   14  C8  UNL     1     -12.676  25.827  52.769  1.00  0.00     0.124 C 
BRANCH  14  15
HETATM   15  C7  UNL     1     -13.264  24.777  53.650  1.00  0.00     0.020 C 
BRANCH  15  16
HETATM   16  C6  UNL     1     -12.387  23.542  53.740  1.00  0.00     0.002 C 
BRANCH  16  17
HETATM   17  C5  UNL     1     -13.208  22.325  54.079  1.00  0.00     0.008 C 
BRANCH  17  18
HETATM   18  C2  UNL     1     -12.724  21.148  53.232  1.00  0.00    -0.051 C 
HETATM   19  C1  UNL     1     -11.215  21.239  53.138  1.00  0.00     0.014 C 
HETATM   20  C3  UNL     1     -13.183  19.881  53.922  1.00  0.00     0.014 C 
HETATM   21  C4  UNL     1     -13.349  21.230  51.858  1.00  0.00     0.014 C 
ENDBRANCH  17  18
ENDBRANCH  16  17
ENDBRANCH  15  16
ENDBRANCH  14  15
ENDBRANCH   1  14
BRANCH  13  22
HETATM   22  C23 UNL     1      -8.423  25.079  55.432  1.00  0.00     0.260 C 
HETATM   23  O3  UNL     1      -7.343  24.543  55.153  1.00  0.00    -0.267 OA
HETATM   24  N6  UNL     1      -9.511  24.407  56.064  1.00  0.00    -0.342 N 
HETATM   25  C24 UNL     1     -10.763  24.981  56.406  1.00  0.00     0.132 C 
HETATM   26  C27 UNL     1      -9.470  23.028  56.429  1.00  0.00     0.205 C 
HETATM   27  C25 UNL     1     -11.354  24.083  57.443  1.00  0.00     0.100 C 
HETATM   28  C26 UNL     1     -10.579  22.799  57.398  1.00  0.00     0.261 C 
HETATM   29  F1  UNL     1     -10.115  22.435  58.654  1.00  0.00    -0.204 F 
HETATM   30  F2  UNL     1     -11.402  21.791  56.904  1.00  0.00    -0.204 F 
ENDBRANCH  13  22
BRANCH   8  31
HETATM   31  C13 UNL     1      -6.075  26.878  48.863  1.00  0.00     0.056 A 
HETATM   32  C14 UNL     1      -4.731  26.499  48.770  1.00  0.00     0.056 A 
HETATM   33  C15 UNL     1      -4.467  25.980  47.510  1.00  0.00     0.035 A 
HETATM   34  N3  UNL     1      -5.645  26.055  46.869  1.00  0.00    -0.304 N 
HETATM   35  N4  UNL     1      -6.582  26.581  47.668  1.00  0.00    -0.302 N 
ATOM     36  H3  UNL     1      -5.804  25.752  45.907  1.00  0.00     0.186 HD
ATOM     37  H4  UNL     1      -7.554  26.733  47.398  1.00  0.00     0.186 HD
BRANCH  33  38
HETATM   38  C16 UNL     1      -3.168  25.461  47.031  1.00  0.00    -0.007 C 
HETATM   39  C17 UNL     1      -2.552  24.589  48.103  1.00  0.00     0.021 C 
HETATM   40  C18 UNL     1      -3.348  24.609  45.803  1.00  0.00     0.021 C 
HETATM   41  C19 UNL     1      -2.169  26.569  46.761  1.00  0.00     0.021 C 
ENDBRANCH  33  38
ENDBRANCH   8  31
TORSDOF 8
ENDMDL
MODEL 3
REMARK VINA RESULT: -7.279030566      3.739      8.879
REMARK  8 active torsions:
REMARK  status: ('A' for Active; 'I' for Inactive)
REMARK    1  A    between atoms: C2_2  and  C5_5 
REMARK    2  A    between atoms: C5_5  and  C6_6 
REMARK    3  A    between atoms: C6_6  and  C7_7 
REMARK    4  A    between atoms: C7_7  and  C8_8 
REMARK    5  A    between atoms: C8_8  and  N1_9 
REMARK       I    between atoms: N1_9  and  C9_11 
REMARK       I    between atoms: C9_11  and  N2_13 
REMARK    6  A    between atoms: C12_16  and  C13_17 
REMARK    7  A    between atoms: C15_19  and  C16_20 
REMARK    8  A    between atoms: C22_32  and  C23_33 
REMARK       I    between atoms: C23_33  and  N6_35 
ROOT
HETATM    1  N1  UNL     1      -5.006  26.874  51.717  1.00  0.00    -0.342 N 
ATOM      2  H1  UNL     1      -4.724  26.973  50.742  1.00  0.00     0.164 HD
HETATM    3  C9  UNL     1      -6.349  27.096  52.078  1.00  0.00     0.337 C 
HETATM    4  O1  UNL     1      -6.613  26.964  53.316  1.00  0.00    -0.245 OA
HETATM    5  N2  UNL     1      -7.336  27.439  51.144  1.00  0.00    -0.233 N 
HETATM    6  C10 UNL     1      -8.708  27.714  51.646  1.00  0.00     0.147 C 
HETATM    7  C11 UNL     1      -9.290  26.484  52.350  1.00  0.00     0.068 C 
HETATM    8  C12 UNL     1     -10.765  26.835  52.099  1.00  0.00     0.175 C 
HETATM    9  O2  UNL     1     -10.696  26.967  50.694  1.00  0.00    -0.370 OA
HETATM   10  C20 UNL     1      -9.609  27.810  50.469  1.00  0.00     0.167 C 
HETATM   11  C21 UNL     1      -8.711  27.316  49.340  1.00  0.00     0.182 C 
HETATM   12  N5  UNL     1      -7.374  27.556  49.838  1.00  0.00    -0.289 N 
HETATM   13  C22 UNL     1      -6.433  27.766  48.877  1.00  0.00     0.184 C 
ENDROOT
BRANCH   1  14
HETATM   14  C8  UNL     1      -4.002  26.499  52.734  1.00  0.00     0.124 C 
BRANCH  14  15
HETATM   15  C7  UNL     1      -2.646  26.491  52.114  1.00  0.00     0.020 C 
BRANCH  15  16
HETATM   16  C6  UNL     1      -2.382  25.224  51.320  1.00  0.00     0.002 C 
BRANCH  16  17
HETATM   17  C5  UNL     1      -2.494  24.007  52.200  1.00  0.00     0.008 C 
BRANCH  17  18
HETATM   18  C2  UNL     1      -3.143  22.876  51.402  1.00  0.00    -0.051 C 
HETATM   19  C1  UNL     1      -4.114  23.502  50.424  1.00  0.00     0.014 C 
HETATM   20  C3  UNL     1      -2.030  22.123  50.706  1.00  0.00     0.014 C 
HETATM   21  C4  UNL     1      -3.867  21.946  52.348  1.00  0.00     0.014 C 
ENDBRANCH  17  18
ENDBRANCH  16  17
ENDBRANCH  15  16
ENDBRANCH  14  15
ENDBRANCH   1  14
BRANCH  13  22
HETATM   22  C23 UNL     1      -6.099  26.518  48.114  1.00  0.00     0.260 C 
HETATM   23  O3  UNL     1      -7.031  25.797  47.736  1.00  0.00    -0.267 OA
HETATM   24  N6  UNL     1      -4.721  26.236  47.875  1.00  0.00    -0.342 N 
HETATM   25  C24 UNL     1      -3.622  27.034  48.285  1.00  0.00     0.132 C 
HETATM   26  C27 UNL     1      -4.272  25.072  47.182  1.00  0.00     0.205 C 
HETATM   27  C25 UNL     1      -2.474  26.623  47.421  1.00  0.00     0.100 C 
HETATM   28  C26 UNL     1      -2.859  25.322  46.779  1.00  0.00     0.261 C 
HETATM   29  F1  UNL     1      -2.702  25.362  45.401  1.00  0.00    -0.204 F 
HETATM   30  F2  UNL     1      -2.061  24.308  47.302  1.00  0.00    -0.204 F 
ENDBRANCH  13  22
BRANCH   8  31
HETATM   31  C13 UNL     1     -11.717  25.876  52.578  1.00  0.00     0.056 A 
HETATM   32  C14 UNL     1     -11.482  24.496  52.600  1.00  0.00     0.056 A 
HETATM   33  C15 UNL     1     -12.583  23.831  53.121  1.00  0.00     0.035 A 
HETATM   34  N3  UNL     1     -13.458  24.812  53.401  1.00  0.00    -0.304 N 
HETATM   35  N4  UNL     1     -12.943  26.006  53.081  1.00  0.00    -0.302 N 
ATOM     36  H3  UNL     1     -14.386  24.667  53.801  1.00  0.00     0.186 HD
ATOM     37  H4  UNL     1     -13.426  26.896  53.205  1.00  0.00     0.186 HD
BRANCH  33  38
HETATM   38  C16 UNL     1     -12.713  22.372  53.317  1.00  0.00    -0.007 C 
HETATM   39  C17 UNL     1     -11.385  21.708  53.028  1.00  0.00     0.021 C 
HETATM   40  C18 UNL     1     -13.078  22.051  54.742  1.00  0.00     0.021 C 
HETATM   41  C19 UNL     1     -13.714  21.749  52.364  1.00  0.00     0.021 C 
ENDBRANCH  33  38
ENDBRANCH   8  31
TORSDOF 8
ENDMDL
MODEL 4
REMARK VINA RESULT: -7.268950351      5.639     10.788
REMARK  8 active torsions:
REMARK  status: ('A' for Active; 'I' for Inactive)
REMARK    1  A    between atoms: C2_2  and  C5_5 
REMARK    2  A    between atoms: C5_5  and  C6_6 
REMARK    3  A    between atoms: C6_6  and  C7_7 
REMARK    4  A    between atoms: C7_7  and  C8_8 
REMARK    5  A    between atoms: C8_8  and  N1_9 
REMARK       I    between atoms: N1_9  and  C9_11 
REMARK       I    between atoms: C9_11  and  N2_13 
REMARK    6  A    between atoms: C12_16  and  C13_17 
REMARK    7  A    between atoms: C15_19  and  C16_20 
REMARK    8  A    between atoms: C22_32  and  C23_33 
REMARK       I    between atoms: C23_33  and  N6_35 
ROOT
HETATM    1  N1  UNL     1      -8.618  24.743  55.689  1.00  0.00    -0.342 N 
ATOM      2  H1  UNL     1      -8.760  24.324  54.769  1.00  0.00     0.164 HD
HETATM    3  C9  UNL     1      -9.611  25.581  56.232  1.00  0.00     0.337 C 
HETATM    4  O1  UNL     1      -9.347  26.072  57.376  1.00  0.00    -0.245 OA
HETATM    5  N2  UNL     1     -10.810  25.863  55.565  1.00  0.00    -0.233 N 
HETATM    6  C10 UNL     1     -11.759  26.813  56.204  1.00  0.00     0.147 C 
HETATM    7  C11 UNL     1     -12.218  26.293  57.569  1.00  0.00     0.068 C 
HETATM    8  C12 UNL     1     -13.561  27.042  57.585  1.00  0.00     0.175 C 
HETATM    9  O2  UNL     1     -14.067  26.558  56.358  1.00  0.00    -0.370 OA
HETATM   10  C20 UNL     1     -13.034  26.758  55.444  1.00  0.00     0.167 C 
HETATM   11  C21 UNL     1     -12.813  25.550  54.539  1.00  0.00     0.182 C 
HETATM   12  N5  UNL     1     -11.373  25.446  54.455  1.00  0.00    -0.289 N 
HETATM   13  C22 UNL     1     -10.904  24.876  53.311  1.00  0.00     0.184 C 
ENDROOT
BRANCH   1  14
HETATM   14  C8  UNL     1      -7.374  24.462  56.435  1.00  0.00     0.124 C 
BRANCH  14  15
HETATM   15  C7  UNL     1      -7.274  22.999  56.704  1.00  0.00     0.020 C 
BRANCH  15  16
HETATM   16  C6  UNL     1      -7.854  22.619  58.054  1.00  0.00     0.002 C 
BRANCH  16  17
HETATM   17  C5  UNL     1      -6.759  22.306  59.039  1.00  0.00     0.008 C 
BRANCH  17  18
HETATM   18  C2  UNL     1      -7.314  22.438  60.458  1.00  0.00    -0.051 C 
HETATM   19  C1  UNL     1      -7.040  23.851  60.929  1.00  0.00     0.014 C 
HETATM   20  C3  UNL     1      -8.795  22.131  60.389  1.00  0.00     0.014 C 
HETATM   21  C4  UNL     1      -6.632  21.435  61.358  1.00  0.00     0.014 C 
ENDBRANCH  17  18
ENDBRANCH  16  17
ENDBRANCH  15  16
ENDBRANCH  14  15
ENDBRANCH   1  14
BRANCH  13  22
HETATM   22  C23 UNL     1     -11.176  23.402  53.247  1.00  0.00     0.260 C 
HETATM   23  O3  UNL     1     -10.502  22.652  53.964  1.00  0.00    -0.267 OA
HETATM   24  N6  UNL     1     -12.198  22.955  52.357  1.00  0.00    -0.342 N 
HETATM   25  C24 UNL     1     -12.997  23.777  51.521  1.00  0.00     0.132 C 
HETATM   26  C27 UNL     1     -12.538  21.579  52.189  1.00  0.00     0.205 C 
HETATM   27  C25 UNL     1     -14.197  22.959  51.171  1.00  0.00     0.100 C 
HETATM   28  C26 UNL     1     -13.870  21.537  51.522  1.00  0.00     0.261 C 
HETATM   29  F1  UNL     1     -14.846  20.968  52.327  1.00  0.00    -0.204 F 
HETATM   30  F2  UNL     1     -13.757  20.797  50.347  1.00  0.00    -0.204 F 
ENDBRANCH  13  22
BRANCH   8  31
HETATM   31  C13 UNL     1     -14.390  26.797  58.728  1.00  0.00     0.056 A 
HETATM   32  C14 UNL     1     -15.770  26.581  58.652  1.00  0.00     0.056 A 
HETATM   33  C15 UNL     1     -16.293  26.368  59.921  1.00  0.00     0.035 A 
HETATM   34  N3  UNL     1     -15.228  26.460  60.735  1.00  0.00    -0.304 N 
HETATM   35  N4  UNL     1     -14.117  26.710  60.029  1.00  0.00    -0.302 N 
ATOM     36  H3  UNL     1     -15.260  26.354  61.749  1.00  0.00     0.186 HD
ATOM     37  H4  UNL     1     -13.187  26.820  60.434  1.00  0.00     0.186 HD
BRANCH  33  38
HETATM   38  C16 UNL     1     -17.707  26.093  60.251  1.00  0.00    -0.007 C 
HETATM   39  C17 UNL     1     -18.072  26.814  61.530  1.00  0.00     0.021 C 
HETATM   40  C18 UNL     1     -18.621  26.603  59.168  1.00  0.00     0.021 C 
HETATM   41  C19 UNL     1     -17.964  24.622  60.506  1.00  0.00     0.021 C 
ENDBRANCH  33  38
ENDBRANCH   8  31
TORSDOF 8
ENDMDL
MODEL 5
REMARK VINA RESULT: -7.266045070      3.509      6.198
REMARK  8 active torsions:
REMARK  status: ('A' for Active; 'I' for Inactive)
REMARK    1  A    between atoms: C2_2  and  C5_5 
REMARK    2  A    between atoms: C5_5  and  C6_6 
REMARK    3  A    between atoms: C6_6  and  C7_7 
REMARK    4  A    between atoms: C7_7  and  C8_8 
REMARK    5  A    between atoms: C8_8  and  N1_9 
REMARK       I    between atoms: N1_9  and  C9_11 
REMARK       I    between atoms: C9_11  and  N2_13 
REMARK    6  A    between atoms: C12_16  and  C13_17 
REMARK    7  A    between atoms: C15_19  and  C16_20 
REMARK    8  A    between atoms: C22_32  and  C23_33 
REMARK       I    between atoms: C23_33  and  N6_35 
ROOT
HETATM    1  N1  UNL     1      -8.822  28.573  49.883  1.00  0.00    -0.342 N 
ATOM      2  H1  UNL     1      -9.403  28.010  50.504  1.00  0.00     0.164 HD
HETATM    3  C9  UNL     1      -7.531  28.126  49.543  1.00  0.00     0.337 C 
HETATM    4  O1  UNL     1      -6.870  28.895  48.774  1.00  0.00    -0.245 OA
HETATM    5  N2  UNL     1      -7.001  26.917  50.014  1.00  0.00    -0.233 N 
HETATM    6  C10 UNL     1      -5.603  26.575  49.644  1.00  0.00     0.147 C 
HETATM    7  C11 UNL     1      -5.451  26.467  48.123  1.00  0.00     0.068 C 
HETATM    8  C12 UNL     1      -4.253  25.503  48.148  1.00  0.00     0.175 C 
HETATM    9  O2  UNL     1      -4.836  24.492  48.944  1.00  0.00    -0.370 OA
HETATM   10  C20 UNL     1      -5.361  25.165  50.046  1.00  0.00     0.167 C 
HETATM   11  C21 UNL     1      -6.766  24.692  50.405  1.00  0.00     0.182 C 
HETATM   12  N5  UNL     1      -7.467  25.916  50.723  1.00  0.00    -0.289 N 
HETATM   13  C22 UNL     1      -8.495  25.776  51.605  1.00  0.00     0.184 C 
ENDROOT
BRANCH   1  14
HETATM   14  C8  UNL     1      -9.345  29.849  49.350  1.00  0.00     0.124 C 
BRANCH  14  15
HETATM   15  C7  UNL     1      -9.308  30.887  50.419  1.00  0.00     0.020 C 
BRANCH  15  16
HETATM   16  C6  UNL     1      -9.651  30.322  51.786  1.00  0.00     0.002 C 
BRANCH  16  17
HETATM   17  C5  UNL     1      -9.188  31.247  52.880  1.00  0.00     0.008 C 
BRANCH  17  18
HETATM   18  C2  UNL     1     -10.306  31.393  53.913  1.00  0.00    -0.051 C 
HETATM   19  C1  UNL     1      -9.659  31.546  55.273  1.00  0.00     0.014 C 
HETATM   20  C3  UNL     1     -11.120  32.608  53.522  1.00  0.00     0.014 C 
HETATM   21  C4  UNL     1     -11.185  30.164  53.877  1.00  0.00     0.014 C 
ENDBRANCH  17  18
ENDBRANCH  16  17
ENDBRANCH  15  16
ENDBRANCH  14  15
ENDBRANCH   1  14
BRANCH  13  22
HETATM   22  C23 UNL     1      -9.674  25.065  51.008  1.00  0.00     0.260 C 
HETATM   23  O3  UNL     1      -9.842  25.138  49.784  1.00  0.00    -0.267 OA
HETATM   24  N6  UNL     1     -10.534  24.349  51.893  1.00  0.00    -0.342 N 
HETATM   25  C24 UNL     1     -10.379  24.235  53.299  1.00  0.00     0.132 C 
HETATM   26  C27 UNL     1     -11.698  23.650  51.454  1.00  0.00     0.205 C 
HETATM   27  C25 UNL     1     -11.184  23.043  53.703  1.00  0.00     0.100 C 
HETATM   28  C26 UNL     1     -12.089  22.720  52.551  1.00  0.00     0.261 C 
HETATM   29  F1  UNL     1     -11.989  21.388  52.176  1.00  0.00    -0.204 F 
HETATM   30  F2  UNL     1     -13.404  22.994  52.920  1.00  0.00    -0.204 F 
ENDBRANCH  13  22
BRANCH   8  31
HETATM   31  C13 UNL     1      -3.781  25.074  46.864  1.00  0.00     0.056 A 
HETATM   32  C14 UNL     1      -2.444  24.756  46.597  1.00  0.00     0.056 A 
HETATM   33  C15 UNL     1      -2.299  24.371  45.271  1.00  0.00     0.035 A 
HETATM   34  N3  UNL     1      -3.540  24.465  44.764  1.00  0.00    -0.304 N 
HETATM   35  N4  UNL     1      -4.402  24.876  45.703  1.00  0.00    -0.302 N 
ATOM     36  H3  UNL     1      -3.790  24.252  43.798  1.00  0.00     0.186 HD
ATOM     37  H4  UNL     1      -5.400  25.018  45.549  1.00  0.00     0.186 HD
BRANCH  33  38
HETATM   38  C16 UNL     1      -1.044  23.950  44.614  1.00  0.00    -0.007 C 
HETATM   39  C17 UNL     1      -0.487  25.105  43.812  1.00  0.00     0.021 C 
HETATM   40  C18 UNL     1      -0.006  23.565  45.635  1.00  0.00     0.021 C 
HETATM   41  C19 UNL     1      -1.260  22.817  43.631  1.00  0.00     0.021 C 
ENDBRANCH  33  38
ENDBRANCH   8  31
TORSDOF 8
ENDMDL
