MODEL 1
REMARK VINA RESULT: -7.409278116      0.000      0.000
REMARK  9 active torsions:
REMARK  status: ('A' for Active; 'I' for Inactive)
REMARK    1  A    between atoms: S1_2  and  C2_4 
REMARK    2  A    between atoms: C5_8  and  C6_9 
REMARK    3  A    between atoms: C6_9  and  C7_10 
REMARK    4  A    between atoms: C7_10  and  N2_13 
REMARK       I    between atoms: N2_13  and  C9_15 
REMARK    5  A    between atoms: C9_15  and  C10_17 
REMARK    6  A    between atoms: C18_28  and  C19_29 
REMARK       I    between atoms: N4_33  and  C22_34 
REMARK    7  A    between atoms: C22_34  and  O5_36 
REMARK    8  A    between atoms: O5_36  and  C23_37 
REMARK    9  A    between atoms: C23_37  and  C24_38 
ROOT
HETATM    1  C7  UNL     1     -13.054  21.371  52.751  1.00  0.00     0.196 C 
HETATM    2  C8  UNL     1     -14.090  20.375  52.534  1.00  0.00     0.085 C 
HETATM    3  N1  UNL     1     -14.910  19.559  52.362  1.00  0.00    -0.195 NA
ENDROOT
BRANCH   1   4
HETATM    4  C6  UNL     1     -13.552  22.751  52.396  1.00  0.00     0.081 C 
BRANCH   4   5
HETATM    5  C5  UNL     1     -12.516  23.743  52.121  1.00  0.00    -0.020 A 
HETATM    6  C4  UNL     1     -12.398  24.942  52.799  1.00  0.00     0.093 A 
HETATM    7  O2  UNL     1     -13.127  25.412  53.752  1.00  0.00    -0.320 OA
HETATM    8  C27 UNL     1     -11.402  25.882  52.517  1.00  0.00     0.029 A 
HETATM    9  C3  UNL     1     -12.735  26.575  54.148  1.00  0.00     0.164 A 
HETATM   10  C2  UNL     1     -11.622  26.921  53.373  1.00  0.00     0.067 A 
HETATM   11  C18 UNL     1     -10.471  25.633  51.524  1.00  0.00    -0.004 A 
HETATM   12  C17 UNL     1     -10.627  24.393  50.847  1.00  0.00     0.012 A 
HETATM   13  C16 UNL     1     -11.606  23.482  51.131  1.00  0.00     0.011 A 
BRANCH  10  14
HETATM   14  S1  UNL     1     -10.763  28.422  53.471  1.00  0.00     0.048 S 
HETATM   15  C1  UNL     1     -11.874  29.669  54.086  1.00  0.00     0.133 C 
HETATM   16  O1  UNL     1      -9.398  28.315  54.444  1.00  0.00    -0.253 OA
ENDBRANCH  10  14
BRANCH  11  17
HETATM   17  C19 UNL     1      -9.327  26.494  51.261  1.00  0.00     0.134 C 
HETATM   18  F1  UNL     1      -8.779  25.908  50.077  1.00  0.00    -0.237 F 
HETATM   19  C20 UNL     1      -8.125  26.343  52.129  1.00  0.00     0.069 C 
HETATM   20  C21 UNL     1      -7.084  27.411  51.983  1.00  0.00     0.131 C 
HETATM   21  N4  UNL     1      -7.285  28.097  50.742  1.00  0.00    -0.328 N 
HETATM   22  C22 UNL     1      -6.374  28.103  49.651  1.00  0.00     0.362 C 
HETATM   23  C25 UNL     1      -8.547  28.822  50.673  1.00  0.00     0.131 C 
HETATM   24  O4  UNL     1      -6.642  28.732  48.613  1.00  0.00    -0.238 OA
HETATM   25  C26 UNL     1      -9.647  27.823  50.653  1.00  0.00     0.069 C 
BRANCH  22  26
HETATM   26  O5  UNL     1      -5.199  27.411  49.749  1.00  0.00    -0.302 OA
BRANCH  26  27
HETATM   27  C23 UNL     1      -4.818  26.333  48.959  1.00  0.00     0.212 C 
BRANCH  27  28
HETATM   28  C24 UNL     1      -5.868  25.277  48.768  1.00  0.00     0.249 C 
HETATM   29  F2  UNL     1      -6.138  24.658  49.988  1.00  0.00    -0.253 F 
ENDBRANCH  27  28
ENDBRANCH  26  27
ENDBRANCH  22  26
ENDBRANCH  11  17
ENDBRANCH   4   5
ENDBRANCH   1   4
BRANCH   1  30
HETATM   30  N2  UNL     1     -12.783  21.404  54.175  1.00  0.00    -0.342 N 
HETATM   31  C9  UNL     1     -11.447  21.461  54.669  1.00  0.00     0.250 C 
HETATM   32  O3  UNL     1     -10.517  21.483  53.845  1.00  0.00    -0.271 OA
ATOM     33  H2  UNL     1     -13.561  21.386  54.834  1.00  0.00     0.163 HD
BRANCH  31  34
HETATM   34  C10 UNL     1     -11.154  21.496  56.125  1.00  0.00     0.281 C 
HETATM   35  N3  UNL     1     -12.378  21.637  56.892  1.00  0.00    -0.058 N 
HETATM   36  C11 UNL     1     -12.213  22.784  57.730  1.00  0.00     0.187 C 
ATOM     37  H32 UNL     1     -13.214  21.683  56.309  1.00  0.00     0.278 HD
ATOM     38  H31 UNL     1     -12.628  20.793  57.410  1.00  0.00     0.278 HD
HETATM   39  C12 UNL     1     -12.247  23.999  56.828  1.00  0.00     0.033 C 
HETATM   40  C15 UNL     1     -10.699  22.732  58.015  1.00  0.00     0.040 C 
HETATM   41  C13 UNL     1     -10.961  23.925  56.026  1.00  0.00     0.009 C 
HETATM   42  C14 UNL     1     -10.306  22.686  56.525  1.00  0.00     0.028 C 
ENDBRANCH  31  34
ENDBRANCH   1  30
TORSDOF 9
ENDMDL
MODEL 2
REMARK VINA RESULT: -7.083344082      2.207      8.571
REMARK  9 active torsions:
REMARK  status: ('A' for Active; 'I' for Inactive)
REMARK    1  A    between atoms: S1_2  and  C2_4 
REMARK    2  A    between atoms: C5_8  and  C6_9 
REMARK    3  A    between atoms: C6_9  and  C7_10 
REMARK    4  A    between atoms: C7_10  and  N2_13 
REMARK       I    between atoms: N2_13  and  C9_15 
REMARK    5  A    between atoms: C9_15  and  C10_17 
REMARK    6  A    between atoms: C18_28  and  C19_29 
REMARK       I    between atoms: N4_33  and  C22_34 
REMARK    7  A    between atoms: C22_34  and  O5_36 
REMARK    8  A    between atoms: O5_36  and  C23_37 
REMARK    9  A    between atoms: C23_37  and  C24_38 
ROOT
HETATM    1  C7  UNL     1      -7.719  28.389  50.234  1.00  0.00     0.196 C 
HETATM    2  C8  UNL     1      -7.542  29.831  50.269  1.00  0.00     0.085 C 
HETATM    3  N1  UNL     1      -7.380  30.989  50.302  1.00  0.00    -0.195 NA
ENDROOT
BRANCH   1   4
HETATM    4  C6  UNL     1      -9.173  28.030  50.048  1.00  0.00     0.081 C 
BRANCH   4   5
HETATM    5  C5  UNL     1      -9.703  27.044  50.985  1.00  0.00    -0.020 A 
HETATM    6  C4  UNL     1     -10.307  27.369  52.186  1.00  0.00     0.093 A 
HETATM    7  O2  UNL     1     -10.516  28.530  52.702  1.00  0.00    -0.320 OA
HETATM    8  C27 UNL     1     -10.804  26.409  53.073  1.00  0.00     0.029 A 
HETATM    9  C3  UNL     1     -11.100  28.465  53.850  1.00  0.00     0.164 A 
HETATM   10  C2  UNL     1     -11.303  27.109  54.132  1.00  0.00     0.067 A 
HETATM   11  C18 UNL     1     -10.709  25.063  52.768  1.00  0.00    -0.004 A 
HETATM   12  C17 UNL     1     -10.079  24.768  51.528  1.00  0.00     0.012 A 
HETATM   13  C16 UNL     1      -9.596  25.716  50.669  1.00  0.00     0.011 A 
BRANCH  10  14
HETATM   14  S1  UNL     1     -11.997  26.485  55.591  1.00  0.00     0.048 S 
HETATM   15  C1  UNL     1     -11.238  27.307  56.974  1.00  0.00     0.133 C 
HETATM   16  O1  UNL     1     -13.666  26.671  55.636  1.00  0.00    -0.253 OA
ENDBRANCH  10  14
BRANCH  11  17
HETATM   17  C19 UNL     1     -11.319  24.012  53.569  1.00  0.00     0.134 C 
HETATM   18  F1  UNL     1     -11.088  22.852  52.766  1.00  0.00    -0.237 F 
HETATM   19  C20 UNL     1     -12.807  23.934  53.603  1.00  0.00     0.069 C 
HETATM   20  C21 UNL     1     -13.382  23.006  54.630  1.00  0.00     0.131 C 
HETATM   21  N4  UNL     1     -12.368  22.089  55.056  1.00  0.00    -0.328 N 
HETATM   22  C22 UNL     1     -12.398  20.682  54.853  1.00  0.00     0.362 C 
HETATM   23  C25 UNL     1     -11.253  22.726  55.742  1.00  0.00     0.131 C 
HETATM   24  O4  UNL     1     -11.465  19.969  55.262  1.00  0.00    -0.238 OA
HETATM   25  C26 UNL     1     -10.519  23.555  54.749  1.00  0.00     0.069 C 
BRANCH  22  26
HETATM   26  O5  UNL     1     -13.460  20.116  54.204  1.00  0.00    -0.302 OA
BRANCH  26  27
HETATM   27  C23 UNL     1     -13.476  19.693  52.880  1.00  0.00     0.212 C 
BRANCH  27  28
HETATM   28  C24 UNL     1     -14.136  20.635  51.915  1.00  0.00     0.249 C 
HETATM   29  F2  UNL     1     -13.164  21.384  51.253  1.00  0.00    -0.253 F 
ENDBRANCH  27  28
ENDBRANCH  26  27
ENDBRANCH  22  26
ENDBRANCH  11  17
ENDBRANCH   4   5
ENDBRANCH   1   4
BRANCH   1  30
HETATM   30  N2  UNL     1      -7.038  27.902  49.051  1.00  0.00    -0.342 N 
HETATM   31  C9  UNL     1      -5.671  27.498  49.101  1.00  0.00     0.250 C 
HETATM   32  O3  UNL     1      -5.076  27.575  50.189  1.00  0.00    -0.271 OA
ATOM     33  H2  UNL     1      -7.545  27.846  48.168  1.00  0.00     0.163 HD
BRANCH  31  34
HETATM   34  C10 UNL     1      -4.961  26.997  47.896  1.00  0.00     0.281 C 
HETATM   35  N3  UNL     1      -5.898  26.416  46.952  1.00  0.00    -0.058 N 
HETATM   36  C11 UNL     1      -5.447  25.085  46.685  1.00  0.00     0.187 C 
ATOM     37  H32 UNL     1      -6.866  26.455  47.271  1.00  0.00     0.278 HD
ATOM     38  H31 UNL     1      -6.018  26.976  46.107  1.00  0.00     0.278 HD
HETATM   39  C12 UNL     1      -5.697  24.275  47.940  1.00  0.00     0.033 C 
HETATM   40  C15 UNL     1      -3.920  25.256  46.804  1.00  0.00     0.040 C 
HETATM   41  C13 UNL     1      -4.709  24.815  48.956  1.00  0.00     0.009 C 
HETATM   42  C14 UNL     1      -3.986  25.881  48.212  1.00  0.00     0.028 C 
ENDBRANCH  31  34
ENDBRANCH   1  30
TORSDOF 9
ENDMDL
MODEL 3
REMARK VINA RESULT: -6.987879106      4.421      7.906
REMARK  9 active torsions:
REMARK  status: ('A' for Active; 'I' for Inactive)
REMARK    1  A    between atoms: S1_2  and  C2_4 
REMARK    2  A    between atoms: C5_8  and  C6_9 
REMARK    3  A    between atoms: C6_9  and  C7_10 
REMARK    4  A    between atoms: C7_10  and  N2_13 
REMARK       I    between atoms: N2_13  and  C9_15 
REMARK    5  A    between atoms: C9_15  and  C10_17 
REMARK    6  A    between atoms: C18_28  and  C19_29 
REMARK       I    between atoms: N4_33  and  C22_34 
REMARK    7  A    between atoms: C22_34  and  O5_36 
REMARK    8  A    between atoms: O5_36  and  C23_37 
REMARK    9  A    between atoms: C23_37  and  C24_38 
ROOT
HETATM    1  C7  UNL     1     -12.202  26.949  59.859  1.00  0.00     0.196 C 
HETATM    2  C8  UNL     1     -11.519  27.621  60.952  1.00  0.00     0.085 C 
HETATM    3  N1  UNL     1     -10.981  28.179  61.828  1.00  0.00    -0.195 NA
ENDROOT
BRANCH   1   4
HETATM    4  C6  UNL     1     -11.576  25.605  59.579  1.00  0.00     0.081 C 
BRANCH   4   5
HETATM    5  C5  UNL     1     -11.843  25.050  58.255  1.00  0.00    -0.020 A 
HETATM    6  C4  UNL     1     -11.298  25.549  57.086  1.00  0.00     0.093 A 
HETATM    7  O2  UNL     1     -10.497  26.544  56.923  1.00  0.00    -0.320 OA
HETATM    8  C27 UNL     1     -11.570  25.006  55.827  1.00  0.00     0.029 A 
HETATM    9  C3  UNL     1     -10.195  26.740  55.685  1.00  0.00     0.164 A 
HETATM   10  C2  UNL     1     -10.871  25.768  54.938  1.00  0.00     0.067 A 
HETATM   11  C18 UNL     1     -12.414  23.916  55.705  1.00  0.00    -0.004 A 
HETATM   12  C17 UNL     1     -12.957  23.434  56.927  1.00  0.00     0.012 A 
HETATM   13  C16 UNL     1     -12.685  23.974  58.154  1.00  0.00     0.011 A 
BRANCH  10  14
HETATM   14  S1  UNL     1     -10.848  25.641  53.210  1.00  0.00     0.048 S 
HETATM   15  C1  UNL     1     -10.701  27.277  52.526  1.00  0.00     0.133 C 
HETATM   16  O1  UNL     1      -9.605  24.656  52.658  1.00  0.00    -0.253 OA
ENDBRANCH  10  14
BRANCH  11  17
HETATM   17  C19 UNL     1     -12.641  23.211  54.453  1.00  0.00     0.134 C 
HETATM   18  F1  UNL     1     -13.731  22.348  54.789  1.00  0.00    -0.237 F 
HETATM   19  C20 UNL     1     -11.667  22.154  54.060  1.00  0.00     0.069 C 
HETATM   20  C21 UNL     1     -11.801  21.639  52.658  1.00  0.00     0.131 C 
HETATM   21  N4  UNL     1     -13.100  21.975  52.157  1.00  0.00    -0.328 N 
HETATM   22  C22 UNL     1     -14.109  21.038  51.802  1.00  0.00     0.362 C 
HETATM   23  C25 UNL     1     -13.326  23.408  52.030  1.00  0.00     0.131 C 
HETATM   24  O4  UNL     1     -15.208  21.432  51.374  1.00  0.00    -0.238 OA
HETATM   25  C26 UNL     1     -13.367  23.987  53.399  1.00  0.00     0.069 C 
BRANCH  22  26
HETATM   26  O5  UNL     1     -13.864  19.700  51.934  1.00  0.00    -0.302 OA
BRANCH  26  27
HETATM   27  C23 UNL     1     -13.966  18.964  53.108  1.00  0.00     0.212 C 
BRANCH  27  28
HETATM   28  C24 UNL     1     -15.021  17.895  53.104  1.00  0.00     0.249 C 
HETATM   29  F2  UNL     1     -14.568  16.787  53.818  1.00  0.00    -0.253 F 
ENDBRANCH  27  28
ENDBRANCH  26  27
ENDBRANCH  22  26
ENDBRANCH  11  17
ENDBRANCH   4   5
ENDBRANCH   1   4
BRANCH   1  30
HETATM   30  N2  UNL     1     -13.553  26.669  60.305  1.00  0.00    -0.342 N 
HETATM   31  C9  UNL     1     -14.679  26.998  59.495  1.00  0.00     0.250 C 
HETATM   32  O3  UNL     1     -14.474  27.532  58.392  1.00  0.00    -0.271 OA
ATOM     33  H2  UNL     1     -13.700  26.230  61.214  1.00  0.00     0.163 HD
BRANCH  31  34
HETATM   34  C10 UNL     1     -16.069  26.716  59.940  1.00  0.00     0.281 C 
HETATM   35  N3  UNL     1     -16.069  25.988  61.195  1.00  0.00    -0.058 N 
HETATM   36  C11 UNL     1     -16.837  24.800  60.986  1.00  0.00     0.187 C 
ATOM     37  H32 UNL     1     -15.132  25.803  61.552  1.00  0.00     0.278 HD
ATOM     38  H31 UNL     1     -16.399  26.547  61.983  1.00  0.00     0.278 HD
HETATM   39  C12 UNL     1     -16.021  23.900  60.083  1.00  0.00     0.033 C 
HETATM   40  C15 UNL     1     -17.880  25.292  59.963  1.00  0.00     0.040 C 
HETATM   41  C13 UNL     1     -16.021  24.595  58.735  1.00  0.00     0.009 C 
HETATM   42  C14 UNL     1     -16.824  25.825  58.974  1.00  0.00     0.028 C 
ENDBRANCH  31  34
ENDBRANCH   1  30
TORSDOF 9
ENDMDL
MODEL 4
REMARK VINA RESULT: -6.773126397      1.666      2.004
REMARK  9 active torsions:
REMARK  status: ('A' for Active; 'I' for Inactive)
REMARK    1  A    between atoms: S1_2  and  C2_4 
REMARK    2  A    between atoms: C5_8  and  C6_9 
REMARK    3  A    between atoms: C6_9  and  C7_10 
REMARK    4  A    between atoms: C7_10  and  N2_13 
REMARK       I    between atoms: N2_13  and  C9_15 
REMARK    5  A    between atoms: C9_15  and  C10_17 
REMARK    6  A    between atoms: C18_28  and  C19_29 
REMARK       I    between atoms: N4_33  and  C22_34 
REMARK    7  A    between atoms: C22_34  and  O5_36 
REMARK    8  A    between atoms: O5_36  and  C23_37 
REMARK    9  A    between atoms: C23_37  and  C24_38 
ROOT
HETATM    1  C7  UNL     1     -12.777  22.601  54.003  1.00  0.00     0.196 C 
HETATM    2  C8  UNL     1     -13.391  21.383  53.500  1.00  0.00     0.085 C 
HETATM    3  N1  UNL     1     -13.874  20.392  53.110  1.00  0.00    -0.195 NA
ENDROOT
BRANCH   1   4
HETATM    4  C6  UNL     1     -13.140  23.783  53.137  1.00  0.00     0.081 C 
BRANCH   4   5
HETATM    5  C5  UNL     1     -12.013  24.528  52.584  1.00  0.00    -0.020 A 
HETATM    6  C4  UNL     1     -11.686  25.819  52.957  1.00  0.00     0.093 A 
HETATM    7  O2  UNL     1     -12.265  26.589  53.812  1.00  0.00    -0.320 OA
HETATM    8  C27 UNL     1     -10.605  26.519  52.411  1.00  0.00     0.029 A 
HETATM    9  C3  UNL     1     -11.696  27.743  53.905  1.00  0.00     0.164 A 
HETATM   10  C2  UNL     1     -10.617  27.743  53.013  1.00  0.00     0.067 A 
HETATM   11  C18 UNL     1      -9.801  25.924  51.455  1.00  0.00    -0.004 A 
HETATM   12  C17 UNL     1     -10.171  24.599  51.095  1.00  0.00     0.012 A 
HETATM   13  C16 UNL     1     -11.231  23.925  51.635  1.00  0.00     0.011 A 
BRANCH  10  14
HETATM   14  S1  UNL     1      -9.569  29.089  52.713  1.00  0.00     0.048 S 
HETATM   15  C1  UNL     1     -10.531  30.583  52.791  1.00  0.00     0.133 C 
HETATM   16  O1  UNL     1      -8.287  29.155  53.796  1.00  0.00    -0.253 OA
ENDBRANCH  10  14
BRANCH  11  17
HETATM   17  C19 UNL     1      -8.583  26.530  50.939  1.00  0.00     0.134 C 
HETATM   18  F1  UNL     1      -8.092  25.513  50.062  1.00  0.00    -0.237 F 
HETATM   19  C20 UNL     1      -7.400  26.599  51.842  1.00  0.00     0.069 C 
HETATM   20  C21 UNL     1      -6.265  27.449  51.357  1.00  0.00     0.131 C 
HETATM   21  N4  UNL     1      -6.403  27.658  49.946  1.00  0.00    -0.328 N 
HETATM   22  C22 UNL     1      -5.496  27.192  48.956  1.00  0.00     0.362 C 
HETATM   23  C25 UNL     1      -7.593  28.414  49.581  1.00  0.00     0.131 C 
HETATM   24  O4  UNL     1      -5.705  27.425  47.753  1.00  0.00    -0.238 OA
HETATM   25  C26 UNL     1      -8.780  27.573  49.884  1.00  0.00     0.069 C 
BRANCH  22  26
HETATM   26  O5  UNL     1      -4.389  26.483  49.334  1.00  0.00    -0.302 OA
BRANCH  26  27
HETATM   27  C23 UNL     1      -4.103  25.169  48.985  1.00  0.00     0.212 C 
BRANCH  27  28
HETATM   28  C24 UNL     1      -5.135  24.158  49.396  1.00  0.00     0.249 C 
HETATM   29  F2  UNL     1      -5.866  23.755  48.281  1.00  0.00    -0.253 F 
ENDBRANCH  27  28
ENDBRANCH  26  27
ENDBRANCH  22  26
ENDBRANCH  11  17
ENDBRANCH   4   5
ENDBRANCH   1   4
BRANCH   1  30
HETATM   30  N2  UNL     1     -13.359  22.870  55.302  1.00  0.00    -0.342 N 
HETATM   31  C9  UNL     1     -12.544  23.235  56.414  1.00  0.00     0.250 C 
HETATM   32  O3  UNL     1     -11.317  23.318  56.240  1.00  0.00    -0.271 OA
ATOM     33  H2  UNL     1     -14.369  22.798  55.424  1.00  0.00     0.163 HD
BRANCH  31  34
HETATM   34  C10 UNL     1     -13.128  23.514  57.752  1.00  0.00     0.281 C 
HETATM   35  N3  UNL     1     -14.578  23.505  57.691  1.00  0.00    -0.058 N 
HETATM   36  C11 UNL     1     -15.023  24.759  58.214  1.00  0.00     0.187 C 
ATOM     37  H32 UNL     1     -14.939  23.307  56.758  1.00  0.00     0.278 HD
ATOM     38  H31 UNL     1     -14.994  22.702  58.165  1.00  0.00     0.278 HD
HETATM   39  C12 UNL     1     -14.658  25.817  57.194  1.00  0.00     0.033 C 
HETATM   40  C15 UNL     1     -13.936  25.049  59.267  1.00  0.00     0.040 C 
HETATM   41  C13 UNL     1     -13.144  25.900  57.243  1.00  0.00     0.009 C 
HETATM   42  C14 UNL     1     -12.770  24.892  58.271  1.00  0.00     0.028 C 
ENDBRANCH  31  34
ENDBRANCH   1  30
TORSDOF 9
ENDMDL
MODEL 5
REMARK VINA RESULT: -6.759416082      2.627      8.927
REMARK  9 active torsions:
REMARK  status: ('A' for Active; 'I' for Inactive)
REMARK    1  A    between atoms: S1_2  and  C2_4 
REMARK    2  A    between atoms: C5_8  and  C6_9 
REMARK    3  A    between atoms: C6_9  and  C7_10 
REMARK    4  A    between atoms: C7_10  and  N2_13 
REMARK       I    between atoms: N2_13  and  C9_15 
REMARK    5  A    between atoms: C9_15  and  C10_17 
REMARK    6  A    between atoms: C18_28  and  C19_29 
REMARK       I    between atoms: N4_33  and  C22_34 
REMARK    7  A    between atoms: C22_34  and  O5_36 
REMARK    8  A    between atoms: O5_36  and  C23_37 
REMARK    9  A    between atoms: C23_37  and  C24_38 
ROOT
HETATM    1  C7  UNL     1      -6.068  27.764  49.727  1.00  0.00     0.196 C 
HETATM    2  C8  UNL     1      -5.467  29.067  49.493  1.00  0.00     0.085 C 
HETATM    3  N1  UNL     1      -4.967  30.109  49.313  1.00  0.00    -0.195 NA
ENDROOT
BRANCH   1   4
HETATM    4  C6  UNL     1      -7.536  27.778  49.379  1.00  0.00     0.081 C 
BRANCH   4   5
HETATM    5  C5  UNL     1      -8.407  27.044  50.293  1.00  0.00    -0.020 A 
HETATM    6  C4  UNL     1      -9.189  27.646  51.262  1.00  0.00     0.093 A 
HETATM    7  O2  UNL     1      -9.310  28.895  51.548  1.00  0.00    -0.320 OA
HETATM    8  C27 UNL     1     -10.013  26.924  52.131  1.00  0.00     0.029 A 
HETATM    9  C3  UNL     1     -10.126  29.104  52.525  1.00  0.00     0.164 A 
HETATM   10  C2  UNL     1     -10.604  27.854  52.936  1.00  0.00     0.067 A 
HETATM   11  C18 UNL     1     -10.077  25.544  52.047  1.00  0.00    -0.004 A 
HETATM   12  C17 UNL     1      -9.256  24.962  51.043  1.00  0.00     0.012 A 
HETATM   13  C16 UNL     1      -8.453  25.679  50.198  1.00  0.00     0.011 A 
BRANCH  10  14
HETATM   14  S1  UNL     1     -11.683  27.584  54.264  1.00  0.00     0.048 S 
HETATM   15  C1  UNL     1     -11.159  28.593  55.632  1.00  0.00     0.133 C 
HETATM   16  O1  UNL     1     -13.282  27.912  53.865  1.00  0.00    -0.253 OA
ENDBRANCH  10  14
BRANCH  11  17
HETATM   17  C19 UNL     1     -11.007  24.734  52.820  1.00  0.00     0.134 C 
HETATM   18  F1  UNL     1     -10.791  23.430  52.273  1.00  0.00    -0.237 F 
HETATM   19  C20 UNL     1     -12.459  24.842  52.503  1.00  0.00     0.069 C 
HETATM   20  C21 UNL     1     -13.385  24.188  53.483  1.00  0.00     0.131 C 
HETATM   21  N4  UNL     1     -12.647  23.246  54.270  1.00  0.00    -0.328 N 
HETATM   22  C22 UNL     1     -12.853  21.839  54.273  1.00  0.00     0.362 C 
HETATM   23  C25 UNL     1     -11.622  23.857  55.106  1.00  0.00     0.131 C 
HETATM   24  O4  UNL     1     -12.158  21.104  54.994  1.00  0.00    -0.238 OA
HETATM   25  C26 UNL     1     -10.568  24.402  54.211  1.00  0.00     0.069 C 
BRANCH  22  26
HETATM   26  O5  UNL     1     -13.823  21.298  53.475  1.00  0.00    -0.302 OA
BRANCH  26  27
HETATM   27  C23 UNL     1     -13.610  20.587  52.300  1.00  0.00     0.212 C 
BRANCH  27  28
HETATM   28  C24 UNL     1     -13.863  21.352  51.034  1.00  0.00     0.249 C 
HETATM   29  F2  UNL     1     -14.954  22.201  51.209  1.00  0.00    -0.253 F 
ENDBRANCH  27  28
ENDBRANCH  26  27
ENDBRANCH  22  26
ENDBRANCH  11  17
ENDBRANCH   4   5
ENDBRANCH   1   4
BRANCH   1  30
HETATM   30  N2  UNL     1      -5.452  26.836  48.799  1.00  0.00    -0.342 N 
HETATM   31  C9  UNL     1      -4.374  25.995  49.205  1.00  0.00     0.250 C 
HETATM   32  O3  UNL     1      -3.974  26.079  50.378  1.00  0.00    -0.271 OA
ATOM     33  H2  UNL     1      -5.796  26.783  47.841  1.00  0.00     0.163 HD
BRANCH  31  34
HETATM   34  C10 UNL     1      -3.734  25.039  48.264  1.00  0.00     0.281 C 
HETATM   35  N3  UNL     1      -2.495  24.526  48.818  1.00  0.00    -0.058 N 
HETATM   36  C11 UNL     1      -1.469  24.789  47.856  1.00  0.00     0.187 C 
ATOM     37  H32 UNL     1      -2.283  24.900  49.743  1.00  0.00     0.278 HD
ATOM     38  H31 UNL     1      -2.551  23.542  49.086  1.00  0.00     0.278 HD
HETATM   39  C12 UNL     1      -1.236  26.285  47.858  1.00  0.00     0.033 C 
HETATM   40  C15 UNL     1      -2.257  24.665  46.537  1.00  0.00     0.040 C 
HETATM   41  C13 UNL     1      -2.493  26.876  47.246  1.00  0.00     0.009 C 
HETATM   42  C14 UNL     1      -3.335  25.685  46.953  1.00  0.00     0.028 C 
ENDBRANCH  31  34
ENDBRANCH   1  30
TORSDOF 9
ENDMDL
