MODEL 1
REMARK VINA RESULT: -8.076389848      0.000      0.000
REMARK  9 active torsions:
REMARK  status: ('A' for Active; 'I' for Inactive)
REMARK    1  A    between atoms: N1_7  and  C7_8 
REMARK       I    between atoms: N2_11  and  C10_12 
REMARK       I    between atoms: C10_12  and  N3_14 
REMARK    2  A    between atoms: N3_14  and  C11_16 
REMARK    3  A    between atoms: C11_16  and  C12_17 
REMARK    4  A    between atoms: C12_17  and  C13_18 
REMARK    5  A    between atoms: N4_22  and  C17_23 
REMARK    6  A    between atoms: C17_23  and  C19_25 
REMARK    7  A    between atoms: C19_25  and  O2_26 
REMARK    8  A    between atoms: C21_31  and  C22_32 
REMARK    9  A    between atoms: C22_32  and  C23_33 
ROOT
HETATM    1  C11 UNL     1      -9.686  26.164  51.587  1.00  0.00     0.125 C 
ENDROOT
BRANCH   1   2
HETATM    2  N3  UNL     1      -8.283  26.000  51.262  1.00  0.00    -0.343 N 
HETATM    3  C10 UNL     1      -7.902  25.846  49.890  1.00  0.00     0.318 C 
HETATM    4  N2  UNL     1      -6.573  25.684  49.481  1.00  0.00    -0.334 N 
HETATM    5  O1  UNL     1      -8.809  25.856  49.013  1.00  0.00    -0.247 OA
HETATM    6  C9  UNL     1      -5.505  25.663  50.441  1.00  0.00     0.129 C 
HETATM    7  C24 UNL     1      -6.243  25.540  48.087  1.00  0.00     0.129 C 
HETATM    8  C8  UNL     1      -4.191  25.260  49.861  1.00  0.00     0.056 C 
HETATM    9  C7  UNL     1      -3.839  25.868  48.549  1.00  0.00     0.226 C 
HETATM   10  C25 UNL     1      -5.028  26.448  47.865  1.00  0.00     0.056 C 
ATOM     11  H3  UNL     1      -7.577  25.994  51.999  1.00  0.00     0.164 HD
BRANCH   9  12
HETATM   12  N1  UNL     1      -3.177  24.867  47.734  1.00  0.00     0.093 N 
HETATM   13  C6  UNL     1      -3.244  25.171  46.326  1.00  0.00     0.277 C 
HETATM   14  C4  UNL     1      -2.308  24.201  45.612  1.00  0.00     0.010 C 
HETATM   15  C3  UNL     1      -0.904  24.692  45.898  1.00  0.00     0.012 C 
HETATM   16  C5  UNL     1      -2.544  24.191  44.132  1.00  0.00     0.011 C 
HETATM   17  C2  UNL     1      -0.735  25.042  47.354  1.00  0.00     0.010 C 
HETATM   18  C1  UNL     1      -0.396  26.503  47.496  1.00  0.00     0.011 C 
HETATM   19  C26 UNL     1      -1.861  24.586  48.220  1.00  0.00     0.277 C 
ENDBRANCH   9  12
ENDBRANCH   1   2
BRANCH   1  20
HETATM   20  C12 UNL     1     -10.308  24.917  52.114  1.00  0.00     0.027 C 
BRANCH  20  21
HETATM   21  C13 UNL     1     -11.076  25.035  53.404  1.00  0.00     0.022 C 
HETATM   22  C14 UNL     1     -12.530  24.878  53.052  1.00  0.00     0.006 C 
HETATM   23  C15 UNL     1     -13.310  26.003  53.761  1.00  0.00     0.012 C 
HETATM   24  C16 UNL     1     -13.221  23.626  53.359  1.00  0.00     0.133 C 
HETATM   25  N4  UNL     1     -12.564  22.484  52.700  1.00  0.00    -0.321 N 
HETATM   26  C20 UNL     1     -11.272  22.038  53.141  1.00  0.00     0.363 C 
HETATM   27  O3  UNL     1     -11.010  20.859  52.870  1.00  0.00    -0.238 OA
HETATM   28  O4  UNL     1     -10.292  22.789  53.839  1.00  0.00    -0.298 OA
HETATM   29  C21 UNL     1     -10.632  24.047  54.439  1.00  0.00     0.140 C 
BRANCH  25  30
HETATM   30  C17 UNL     1     -13.229  21.816  51.622  1.00  0.00     0.109 C 
HETATM   31  C18 UNL     1     -13.714  22.714  50.533  1.00  0.00     0.034 C 
BRANCH  30  32
HETATM   32  C19 UNL     1     -14.297  20.838  52.024  1.00  0.00     0.189 C 
BRANCH  32  33
HETATM   33  O2  UNL     1     -13.814  19.623  52.431  1.00  0.00    -0.399 OA
ATOM     34  H2  UNL     1     -13.427  19.108  51.733  1.00  0.00     0.209 HD
ENDBRANCH  32  33
ENDBRANCH  30  32
ENDBRANCH  25  30
BRANCH  29  35
HETATM   35  C22 UNL     1      -9.675  24.548  55.432  1.00  0.00     0.069 C 
BRANCH  35  36
HETATM   36  C23 UNL     1     -10.176  24.123  56.830  1.00  0.00     0.180 C 
HETATM   37 CL1  UNL     1     -11.908  23.768  56.683  1.00  0.00    -0.108 Cl
HETATM   38 CL2  UNL     1      -9.347  22.678  57.419  1.00  0.00    -0.108 Cl
ENDBRANCH  35  36
ENDBRANCH  29  35
ENDBRANCH  20  21
ENDBRANCH   1  20
TORSDOF 9
ENDMDL
MODEL 2
REMARK VINA RESULT: -7.670293357      0.892      1.779
REMARK  9 active torsions:
REMARK  status: ('A' for Active; 'I' for Inactive)
REMARK    1  A    between atoms: N1_7  and  C7_8 
REMARK       I    between atoms: N2_11  and  C10_12 
REMARK       I    between atoms: C10_12  and  N3_14 
REMARK    2  A    between atoms: N3_14  and  C11_16 
REMARK    3  A    between atoms: C11_16  and  C12_17 
REMARK    4  A    between atoms: C12_17  and  C13_18 
REMARK    5  A    between atoms: N4_22  and  C17_23 
REMARK    6  A    between atoms: C17_23  and  C19_25 
REMARK    7  A    between atoms: C19_25  and  O2_26 
REMARK    8  A    between atoms: C21_31  and  C22_32 
REMARK    9  A    between atoms: C22_32  and  C23_33 
ROOT
HETATM    1  C11 UNL     1      -9.992  26.226  51.556  1.00  0.00     0.125 C 
ENDROOT
BRANCH   1   2
HETATM    2  N3  UNL     1      -8.954  26.079  50.554  1.00  0.00    -0.343 N 
HETATM    3  C10 UNL     1      -7.624  25.761  50.976  1.00  0.00     0.318 C 
HETATM    4  N2  UNL     1      -6.559  25.598  50.082  1.00  0.00    -0.334 N 
HETATM    5  O1  UNL     1      -7.403  25.624  52.211  1.00  0.00    -0.247 OA
HETATM    6  C9  UNL     1      -6.756  25.746  48.667  1.00  0.00     0.129 C 
HETATM    7  C24 UNL     1      -5.239  25.271  50.558  1.00  0.00     0.129 C 
HETATM    8  C8  UNL     1      -5.486  25.762  47.887  1.00  0.00     0.056 C 
HETATM    9  C7  UNL     1      -4.467  24.746  48.271  1.00  0.00     0.226 C 
HETATM   10  C25 UNL     1      -4.733  24.171  49.619  1.00  0.00     0.056 C 
ATOM     11  H3  UNL     1      -9.169  26.199  49.565  1.00  0.00     0.164 HD
BRANCH   9  12
HETATM   12  N1  UNL     1      -3.152  25.352  48.188  1.00  0.00     0.093 N 
HETATM   13  C6  UNL     1      -2.098  24.427  48.525  1.00  0.00     0.277 C 
HETATM   14  C4  UNL     1      -0.778  25.097  48.156  1.00  0.00     0.010 C 
HETATM   15  C3  UNL     1      -0.684  25.028  46.646  1.00  0.00     0.012 C 
HETATM   16  C5  UNL     1       0.393  24.385  48.763  1.00  0.00     0.011 C 
HETATM   17  C2  UNL     1      -1.989  25.421  46.001  1.00  0.00     0.010 C 
HETATM   18  C1  UNL     1      -2.537  24.267  45.203  1.00  0.00     0.011 C 
HETATM   19  C26 UNL     1      -2.969  26.035  46.945  1.00  0.00     0.277 C 
ENDBRANCH   9  12
ENDBRANCH   1   2
BRANCH   1  20
HETATM   20  C12 UNL     1     -10.404  24.927  52.158  1.00  0.00     0.027 C 
BRANCH  20  21
HETATM   21  C13 UNL     1     -11.126  24.990  53.478  1.00  0.00     0.022 C 
HETATM   22  C14 UNL     1     -12.589  24.815  53.174  1.00  0.00     0.006 C 
HETATM   23  C15 UNL     1     -13.363  25.903  53.945  1.00  0.00     0.012 C 
HETATM   24  C16 UNL     1     -13.244  23.541  53.467  1.00  0.00     0.133 C 
HETATM   25  N4  UNL     1     -12.592  22.433  52.749  1.00  0.00    -0.321 N 
HETATM   26  C20 UNL     1     -11.276  21.999  53.129  1.00  0.00     0.363 C 
HETATM   27  O3  UNL     1     -11.003  20.834  52.811  1.00  0.00    -0.238 OA
HETATM   28  O4  UNL     1     -10.285  22.747  53.813  1.00  0.00    -0.298 OA
HETATM   29  C21 UNL     1     -10.626  23.980  54.465  1.00  0.00     0.140 C 
BRANCH  25  30
HETATM   30  C17 UNL     1     -13.284  21.786  51.674  1.00  0.00     0.109 C 
HETATM   31  C18 UNL     1     -13.831  22.708  50.637  1.00  0.00     0.034 C 
BRANCH  30  32
HETATM   32  C19 UNL     1     -14.312  20.770  52.084  1.00  0.00     0.189 C 
BRANCH  32  33
HETATM   33  O2  UNL     1     -13.785  19.560  52.449  1.00  0.00    -0.399 OA
ATOM     34  H2  UNL     1     -12.887  19.429  52.168  1.00  0.00     0.209 HD
ENDBRANCH  32  33
ENDBRANCH  30  32
ENDBRANCH  25  30
BRANCH  29  35
HETATM   35  C22 UNL     1      -9.643  24.469  55.438  1.00  0.00     0.069 C 
BRANCH  35  36
HETATM   36  C23 UNL     1     -10.128  24.062  56.847  1.00  0.00     0.180 C 
HETATM   37 CL1  UNL     1     -11.820  23.551  56.695  1.00  0.00    -0.108 Cl
HETATM   38 CL2  UNL     1      -9.186  22.722  57.510  1.00  0.00    -0.108 Cl
ENDBRANCH  35  36
ENDBRANCH  29  35
ENDBRANCH  20  21
ENDBRANCH   1  20
TORSDOF 9
ENDMDL
MODEL 3
REMARK VINA RESULT: -7.400236916      1.047      1.194
REMARK  9 active torsions:
REMARK  status: ('A' for Active; 'I' for Inactive)
REMARK    1  A    between atoms: N1_7  and  C7_8 
REMARK       I    between atoms: N2_11  and  C10_12 
REMARK       I    between atoms: C10_12  and  N3_14 
REMARK    2  A    between atoms: N3_14  and  C11_16 
REMARK    3  A    between atoms: C11_16  and  C12_17 
REMARK    4  A    between atoms: C12_17  and  C13_18 
REMARK    5  A    between atoms: N4_22  and  C17_23 
REMARK    6  A    between atoms: C17_23  and  C19_25 
REMARK    7  A    between atoms: C19_25  and  O2_26 
REMARK    8  A    between atoms: C21_31  and  C22_32 
REMARK    9  A    between atoms: C22_32  and  C23_33 
ROOT
HETATM    1  C11 UNL     1     -10.363  26.607  51.648  1.00  0.00     0.125 C 
ENDROOT
BRANCH   1   2
HETATM    2  N3  UNL     1      -8.953  26.441  51.356  1.00  0.00    -0.343 N 
HETATM    3  C10 UNL     1      -8.549  26.182  50.007  1.00  0.00     0.318 C 
HETATM    4  N2  UNL     1      -7.212  26.010  49.631  1.00  0.00    -0.334 N 
HETATM    5  O1  UNL     1      -9.443  26.104  49.120  1.00  0.00    -0.247 OA
HETATM    6  C9  UNL     1      -6.158  26.087  50.603  1.00  0.00     0.129 C 
HETATM    7  C24 UNL     1      -6.859  25.758  48.257  1.00  0.00     0.129 C 
HETATM    8  C8  UNL     1      -4.829  25.661  50.076  1.00  0.00     0.056 C 
HETATM    9  C7  UNL     1      -4.468  26.166  48.723  1.00  0.00     0.226 C 
HETATM   10  C25 UNL     1      -5.656  26.666  47.978  1.00  0.00     0.056 C 
ATOM     11  H3  UNL     1      -8.258  26.509  52.100  1.00  0.00     0.164 HD
BRANCH   9  12
HETATM   12  N1  UNL     1      -3.777  25.113  48.003  1.00  0.00     0.093 N 
HETATM   13  C6  UNL     1      -3.718  25.364  46.584  1.00  0.00     0.277 C 
HETATM   14  C4  UNL     1      -2.762  24.337  45.986  1.00  0.00     0.010 C 
HETATM   15  C3  UNL     1      -1.369  24.792  46.369  1.00  0.00     0.012 C 
HETATM   16  C5  UNL     1      -2.876  24.277  44.493  1.00  0.00     0.011 C 
HETATM   17  C2  UNL     1      -1.307  25.193  47.821  1.00  0.00     0.010 C 
HETATM   18  C1  UNL     1      -0.930  26.647  47.938  1.00  0.00     0.011 C 
HETATM   19  C26 UNL     1      -2.517  24.808  48.606  1.00  0.00     0.277 C 
ENDBRANCH   9  12
ENDBRANCH   1   2
BRANCH   1  20
HETATM   20  C12 UNL     1     -10.997  25.363  52.167  1.00  0.00     0.027 C 
BRANCH  20  21
HETATM   21  C13 UNL     1     -11.324  25.331  53.637  1.00  0.00     0.022 C 
HETATM   22  C14 UNL     1     -12.799  25.056  53.741  1.00  0.00     0.006 C 
HETATM   23  C15 UNL     1     -13.394  26.058  54.751  1.00  0.00     0.012 C 
HETATM   24  C16 UNL     1     -13.264  23.728  54.139  1.00  0.00     0.133 C 
HETATM   25  N4  UNL     1     -12.769  22.695  53.214  1.00  0.00    -0.321 N 
HETATM   26  C20 UNL     1     -11.375  22.350  53.192  1.00  0.00     0.363 C 
HETATM   27  O3  UNL     1     -11.128  21.219  52.753  1.00  0.00    -0.238 OA
HETATM   28  O4  UNL     1     -10.282  23.149  53.613  1.00  0.00    -0.298 OA
HETATM   29  C21 UNL     1     -10.505  24.332  54.395  1.00  0.00     0.140 C 
BRANCH  25  30
HETATM   30  C17 UNL     1     -13.691  22.031  52.342  1.00  0.00     0.109 C 
HETATM   31  C18 UNL     1     -13.671  20.542  52.425  1.00  0.00     0.034 C 
BRANCH  30  32
HETATM   32  C19 UNL     1     -13.673  22.487  50.910  1.00  0.00     0.189 C 
BRANCH  32  33
HETATM   33  O2  UNL     1     -14.150  23.757  50.723  1.00  0.00    -0.399 OA
ATOM     34  H2  UNL     1     -13.640  24.276  50.113  1.00  0.00     0.209 HD
ENDBRANCH  32  33
ENDBRANCH  30  32
ENDBRANCH  25  30
BRANCH  29  35
HETATM   35  C22 UNL     1      -9.322  24.863  55.081  1.00  0.00     0.069 C 
BRANCH  35  36
HETATM   36  C23 UNL     1      -9.237  24.189  56.469  1.00  0.00     0.180 C 
HETATM   37 CL1  UNL     1     -10.885  23.723  56.930  1.00  0.00    -0.108 Cl
HETATM   38 CL2  UNL     1      -8.223  22.743  56.442  1.00  0.00    -0.108 Cl
ENDBRANCH  35  36
ENDBRANCH  29  35
ENDBRANCH  20  21
ENDBRANCH   1  20
TORSDOF 9
ENDMDL
MODEL 4
REMARK VINA RESULT: -7.328512187      0.906      1.014
REMARK  9 active torsions:
REMARK  status: ('A' for Active; 'I' for Inactive)
REMARK    1  A    between atoms: N1_7  and  C7_8 
REMARK       I    between atoms: N2_11  and  C10_12 
REMARK       I    between atoms: C10_12  and  N3_14 
REMARK    2  A    between atoms: N3_14  and  C11_16 
REMARK    3  A    between atoms: C11_16  and  C12_17 
REMARK    4  A    between atoms: C12_17  and  C13_18 
REMARK    5  A    between atoms: N4_22  and  C17_23 
REMARK    6  A    between atoms: C17_23  and  C19_25 
REMARK    7  A    between atoms: C19_25  and  O2_26 
REMARK    8  A    between atoms: C21_31  and  C22_32 
REMARK    9  A    between atoms: C22_32  and  C23_33 
ROOT
HETATM    1  C11 UNL     1     -10.061  26.282  52.412  1.00  0.00     0.125 C 
ENDROOT
BRANCH   1   2
HETATM    2  N3  UNL     1      -8.669  26.158  52.026  1.00  0.00    -0.343 N 
HETATM    3  C10 UNL     1      -8.345  26.008  50.640  1.00  0.00     0.318 C 
HETATM    4  N2  UNL     1      -7.031  25.883  50.173  1.00  0.00    -0.334 N 
HETATM    5  O1  UNL     1      -9.289  25.985  49.803  1.00  0.00    -0.247 OA
HETATM    6  C9  UNL     1      -5.921  25.900  51.084  1.00  0.00     0.129 C 
HETATM    7  C24 UNL     1      -6.758  25.741  48.766  1.00  0.00     0.129 C 
HETATM    8  C8  UNL     1      -4.623  25.533  50.449  1.00  0.00     0.056 C 
HETATM    9  C7  UNL     1      -4.347  26.145  49.119  1.00  0.00     0.226 C 
HETATM   10  C25 UNL     1      -5.582  26.684  48.486  1.00  0.00     0.056 C 
ATOM     11  H3  UNL     1      -7.932  26.178  52.731  1.00  0.00     0.164 HD
BRANCH   9  12
HETATM   12  N1  UNL     1      -3.691  25.159  48.281  1.00  0.00     0.093 N 
HETATM   13  C6  UNL     1      -3.220  25.720  47.039  1.00  0.00     0.277 C 
HETATM   14  C4  UNL     1      -2.340  24.665  46.375  1.00  0.00     0.010 C 
HETATM   15  C3  UNL     1      -1.037  24.665  47.149  1.00  0.00     0.012 C 
HETATM   16  C5  UNL     1      -2.069  24.993  44.939  1.00  0.00     0.011 C 
HETATM   17  C2  UNL     1      -1.286  24.681  48.635  1.00  0.00     0.010 C 
HETATM   18  C1  UNL     1      -0.700  25.929  49.242  1.00  0.00     0.011 C 
HETATM   19  C26 UNL     1      -2.707  24.424  49.013  1.00  0.00     0.277 C 
ENDBRANCH   9  12
ENDBRANCH   1   2
BRANCH   1  20
HETATM   20  C12 UNL     1     -10.703  24.968  52.693  1.00  0.00     0.027 C 
BRANCH  20  21
HETATM   21  C13 UNL     1     -11.315  24.790  54.058  1.00  0.00     0.022 C 
HETATM   22  C14 UNL     1     -12.778  24.521  53.839  1.00  0.00     0.006 C 
HETATM   23  C15 UNL     1     -13.572  25.421  54.806  1.00  0.00     0.012 C 
HETATM   24  C16 UNL     1     -13.299  23.163  54.000  1.00  0.00     0.133 C 
HETATM   25  N4  UNL     1     -12.619  22.224  53.091  1.00  0.00    -0.321 N 
HETATM   26  C20 UNL     1     -11.244  21.870  53.313  1.00  0.00     0.363 C 
HETATM   27  O3  UNL     1     -10.903  20.787  52.819  1.00  0.00    -0.238 OA
HETATM   28  O4  UNL     1     -10.265  22.611  54.020  1.00  0.00    -0.298 OA
HETATM   29  C21 UNL     1     -10.652  23.711  54.858  1.00  0.00     0.140 C 
BRANCH  25  30
HETATM   30  C17 UNL     1     -13.342  21.661  51.991  1.00  0.00     0.109 C 
HETATM   31  C18 UNL     1     -13.999  22.658  51.098  1.00  0.00     0.034 C 
BRANCH  30  32
HETATM   32  C19 UNL     1     -14.290  20.548  52.340  1.00  0.00     0.189 C 
BRANCH  32  33
HETATM   33  O2  UNL     1     -13.671  19.367  52.652  1.00  0.00    -0.399 OA
ATOM     34  H2  UNL     1     -12.979  19.123  52.049  1.00  0.00     0.209 HD
ENDBRANCH  32  33
ENDBRANCH  30  32
ENDBRANCH  25  30
BRANCH  29  35
HETATM   35  C22 UNL     1      -9.634  24.159  55.816  1.00  0.00     0.069 C 
BRANCH  35  36
HETATM   36  C23 UNL     1     -10.234  24.040  57.235  1.00  0.00     0.180 C 
HETATM   37 CL1  UNL     1     -10.751  25.665  57.725  1.00  0.00    -0.108 Cl
HETATM   38 CL2  UNL     1     -11.632  22.961  57.275  1.00  0.00    -0.108 Cl
ENDBRANCH  35  36
ENDBRANCH  29  35
ENDBRANCH  20  21
ENDBRANCH   1  20
TORSDOF 9
ENDMDL
MODEL 5
REMARK VINA RESULT: -7.162892960      5.289     11.922
REMARK  9 active torsions:
REMARK  status: ('A' for Active; 'I' for Inactive)
REMARK    1  A    between atoms: N1_7  and  C7_8 
REMARK       I    between atoms: N2_11  and  C10_12 
REMARK       I    between atoms: C10_12  and  N3_14 
REMARK    2  A    between atoms: N3_14  and  C11_16 
REMARK    3  A    between atoms: C11_16  and  C12_17 
REMARK    4  A    between atoms: C12_17  and  C13_18 
REMARK    5  A    between atoms: N4_22  and  C17_23 
REMARK    6  A    between atoms: C17_23  and  C19_25 
REMARK    7  A    between atoms: C19_25  and  O2_26 
REMARK    8  A    between atoms: C21_31  and  C22_32 
REMARK    9  A    between atoms: C22_32  and  C23_33 
ROOT
HETATM    1  C11 UNL     1     -11.726  27.653  53.608  1.00  0.00     0.125 C 
ENDROOT
BRANCH   1   2
HETATM    2  N3  UNL     1     -12.142  27.498  54.988  1.00  0.00    -0.343 N 
HETATM    3  C10 UNL     1     -13.524  27.257  55.273  1.00  0.00     0.318 C 
HETATM    4  N2  UNL     1     -14.017  27.092  56.573  1.00  0.00    -0.334 N 
HETATM    5  O1  UNL     1     -14.332  27.192  54.307  1.00  0.00    -0.247 OA
HETATM    6  C9  UNL     1     -13.139  27.160  57.707  1.00  0.00     0.129 C 
HETATM    7  C24 UNL     1     -15.416  26.845  56.806  1.00  0.00     0.129 C 
HETATM    8  C8  UNL     1     -13.855  27.188  59.015  1.00  0.00     0.056 C 
HETATM    9  C7  UNL     1     -14.991  26.236  59.161  1.00  0.00     0.226 C 
HETATM   10  C25 UNL     1     -15.459  25.720  57.845  1.00  0.00     0.056 C 
ATOM     11  H3  UNL     1     -11.460  27.559  55.744  1.00  0.00     0.164 HD
BRANCH   9  12
HETATM   12  N1  UNL     1     -16.054  26.890  59.899  1.00  0.00     0.093 N 
HETATM   13  C6  UNL     1     -17.340  26.279  59.669  1.00  0.00     0.277 C 
HETATM   14  C4  UNL     1     -18.311  26.882  60.680  1.00  0.00     0.010 C 
HETATM   15  C3  UNL     1     -17.975  26.242  62.011  1.00  0.00     0.012 C 
HETATM   16  C5  UNL     1     -19.736  26.583  60.326  1.00  0.00     0.011 C 
HETATM   17  C2  UNL     1     -16.486  26.220  62.245  1.00  0.00     0.010 C 
HETATM   18  C1  UNL     1     -16.004  24.798  62.366  1.00  0.00     0.011 C 
HETATM   19  C26 UNL     1     -15.710  27.051  61.278  1.00  0.00     0.277 C 
ENDBRANCH   9  12
ENDBRANCH   1   2
BRANCH   1  20
HETATM   20  C12 UNL     1     -11.602  26.353  52.891  1.00  0.00     0.027 C 
BRANCH  20  21
HETATM   21  C13 UNL     1     -10.324  25.585  53.096  1.00  0.00     0.022 C 
HETATM   22  C14 UNL     1     -10.638  24.482  54.069  1.00  0.00     0.006 C 
HETATM   23  C15 UNL     1      -9.530  24.471  55.141  1.00  0.00     0.012 C 
HETATM   24  C16 UNL     1     -10.777  23.108  53.590  1.00  0.00     0.133 C 
HETATM   25  N4  UNL     1     -11.839  23.006  52.575  1.00  0.00    -0.321 N 
HETATM   26  C20 UNL     1     -11.655  23.586  51.273  1.00  0.00     0.363 C 
HETATM   27  O3  UNL     1     -12.352  23.086  50.380  1.00  0.00    -0.238 OA
HETATM   28  O4  UNL     1     -10.780  24.643  50.915  1.00  0.00    -0.298 OA
HETATM   29  C21 UNL     1      -9.744  25.065  51.816  1.00  0.00     0.140 C 
BRANCH  25  30
HETATM   30  C17 UNL     1     -13.054  22.317  52.893  1.00  0.00     0.109 C 
HETATM   31  C18 UNL     1     -13.456  22.388  54.328  1.00  0.00     0.034 C 
BRANCH  30  32
HETATM   32  C19 UNL     1     -13.156  20.910  52.376  1.00  0.00     0.189 C 
BRANCH  32  33
HETATM   33  O2  UNL     1     -14.058  20.754  51.359  1.00  0.00    -0.399 OA
ATOM     34  H2  UNL     1     -13.712  20.965  50.500  1.00  0.00     0.209 HD
ENDBRANCH  32  33
ENDBRANCH  30  32
ENDBRANCH  25  30
BRANCH  29  35
HETATM   35  C22 UNL     1      -8.684  25.882  51.215  1.00  0.00     0.069 C 
BRANCH  35  36
HETATM   36  C23 UNL     1      -9.083  26.174  49.751  1.00  0.00     0.180 C 
HETATM   37 CL1  UNL     1      -9.891  27.753  49.731  1.00  0.00    -0.108 Cl
HETATM   38 CL2  UNL     1      -7.678  26.239  48.682  1.00  0.00    -0.108 Cl
ENDBRANCH  35  36
ENDBRANCH  29  35
ENDBRANCH  20  21
ENDBRANCH   1  20
TORSDOF 9
ENDMDL
