MODEL 1
REMARK VINA RESULT: -7.542809422      0.000      0.000
REMARK  5 active torsions:
REMARK  status: ('A' for Active; 'I' for Inactive)
REMARK    1  A    between atoms: N1_1  and  C1_5 
REMARK    2  A    between atoms: N2_9  and  C5_10 
REMARK    3  A    between atoms: C5_10  and  C6_11 
REMARK    4  A    between atoms: C6_11  and  N3_12 
REMARK    5  A    between atoms: C9_15  and  N4_16 
ROOT
HETATM    1  N3  UNL     1     184.587  25.934 525.161  1.00  0.00     0.090 N 
HETATM    2  C7  UNL     1     184.220  26.563 523.937  1.00  0.00     0.274 C 
HETATM    3  C8  UNL     1     183.375  27.807 524.154  1.00  0.00     0.056 C 
HETATM    4  C9  UNL     1     182.589  27.590 525.409  1.00  0.00     0.095 C 
HETATM    5  C16 UNL     1     182.240  26.169 525.607  1.00  0.00     0.056 C 
HETATM    6  C17 UNL     1     183.518  25.435 525.967  1.00  0.00     0.274 C 
ENDROOT
BRANCH   1   7
HETATM    7  C6  UNL     1     185.663  24.974 525.023  1.00  0.00     0.302 C 
BRANCH   7   8
HETATM    8  C5  UNL     1     186.831  25.242 525.888  1.00  0.00     0.302 C 
BRANCH   8   9
HETATM    9  N2  UNL     1     186.638  26.470 526.630  1.00  0.00     0.092 N 
HETATM   10  C4  UNL     1     187.510  27.523 526.085  1.00  0.00     0.272 C 
HETATM   11  C3  UNL     1     186.901  28.832 526.585  1.00  0.00     0.032 C 
HETATM   12  C2  UNL     1     187.128  28.859 528.078  1.00  0.00     0.036 C 
HETATM   13  C1  UNL     1     186.787  27.591 528.777  1.00  0.00     0.211 C 
HETATM   14  C18 UNL     1     187.061  26.332 528.010  1.00  0.00     0.305 C 
BRANCH  13  15
HETATM   15  N1  UNL     1     187.636  27.522 529.979  1.00  0.00    -0.073 N 
ATOM     16  H13 UNL     1     187.466  26.688 530.541  1.00  0.00     0.274 HD
ATOM     17  H12 UNL     1     188.616  27.338 529.767  1.00  0.00     0.274 HD
ATOM     18  H11 UNL     1     187.492  28.389 530.494  1.00  0.00     0.274 HD
ENDBRANCH  13  15
ENDBRANCH   8   9
ENDBRANCH   7   8
ENDBRANCH   1   7
BRANCH   4  19
HETATM   19  N4  UNL     1     181.464  28.529 525.578  1.00  0.00    -0.326 N 
HETATM   20  C10 UNL     1     180.167  27.949 525.608  1.00  0.00     0.068 C 
HETATM   21  C11 UNL     1     179.038  28.332 524.737  1.00  0.00     0.056 C 
HETATM   22  C12 UNL     1     178.593  29.826 524.861  1.00  0.00     0.085 C 
HETATM   23  C13 UNL     1     179.712  30.580 525.244  1.00  0.00    -0.174 C 
HETATM   24  C14 UNL     1     180.979  31.081 525.646  1.00  0.00     0.183 C 
HETATM   25  C15 UNL     1     181.959  29.884 525.692  1.00  0.00     0.234 C 
HETATM   26  O1  UNL     1     183.136  30.153 525.825  1.00  0.00    -0.272 OA
ENDBRANCH   4  19
TORSDOF 5
ENDMDL
MODEL 2
REMARK VINA RESULT: -7.244530670      1.215      2.072
REMARK  5 active torsions:
REMARK  status: ('A' for Active; 'I' for Inactive)
REMARK    1  A    between atoms: N1_1  and  C1_5 
REMARK    2  A    between atoms: N2_9  and  C5_10 
REMARK    3  A    between atoms: C5_10  and  C6_11 
REMARK    4  A    between atoms: C6_11  and  N3_12 
REMARK    5  A    between atoms: C9_15  and  N4_16 
ROOT
HETATM    1  N3  UNL     1     184.415  25.703 524.667  1.00  0.00     0.090 N 
HETATM    2  C7  UNL     1     183.823  25.878 525.950  1.00  0.00     0.274 C 
HETATM    3  C8  UNL     1     182.463  26.552 525.876  1.00  0.00     0.056 C 
HETATM    4  C9  UNL     1     182.489  27.459 524.686  1.00  0.00     0.095 C 
HETATM    5  C16 UNL     1     183.832  28.021 524.444  1.00  0.00     0.056 C 
HETATM    6  C17 UNL     1     184.709  26.893 523.933  1.00  0.00     0.274 C 
ENDROOT
BRANCH   1   7
HETATM    7  C6  UNL     1     185.521  24.767 524.658  1.00  0.00     0.302 C 
BRANCH   7   8
HETATM    8  C5  UNL     1     186.333  24.773 525.893  1.00  0.00     0.302 C 
BRANCH   8   9
HETATM    9  N2  UNL     1     186.324  26.090 526.495  1.00  0.00     0.092 N 
HETATM   10  C4  UNL     1     187.449  26.884 525.974  1.00  0.00     0.272 C 
HETATM   11  C3  UNL     1     187.079  28.334 526.277  1.00  0.00     0.032 C 
HETATM   12  C2  UNL     1     187.149  28.481 527.779  1.00  0.00     0.036 C 
HETATM   13  C1  UNL     1     186.479  27.391 528.538  1.00  0.00     0.211 C 
HETATM   14  C18 UNL     1     186.562  26.026 527.924  1.00  0.00     0.305 C 
BRANCH  13  15
HETATM   15  N1  UNL     1     187.163  27.289 529.838  1.00  0.00    -0.073 N 
ATOM     16  H13 UNL     1     187.180  26.339 530.208  1.00  0.00     0.274 HD
ATOM     17  H12 UNL     1     188.172  27.421 529.771  1.00  0.00     0.274 HD
ATOM     18  H11 UNL     1     186.713  27.956 530.464  1.00  0.00     0.274 HD
ENDBRANCH  13  15
ENDBRANCH   8   9
ENDBRANCH   7   8
ENDBRANCH   1   7
BRANCH   4  19
HETATM   19  N4  UNL     1     181.395  28.448 524.667  1.00  0.00    -0.326 N 
HETATM   20  C10 UNL     1     181.783  29.809 524.809  1.00  0.00     0.068 C 
HETATM   21  C11 UNL     1     181.259  30.747 525.821  1.00  0.00     0.056 C 
HETATM   22  C12 UNL     1     179.715  30.984 525.758  1.00  0.00     0.085 C 
HETATM   23  C13 UNL     1     179.121  29.827 525.230  1.00  0.00    -0.174 C 
HETATM   24  C14 UNL     1     178.799  28.565 524.664  1.00  0.00     0.183 C 
HETATM   25  C15 UNL     1     180.123  27.782 524.489  1.00  0.00     0.234 C 
HETATM   26  O1  UNL     1     180.022  26.606 524.201  1.00  0.00    -0.272 OA
ENDBRANCH   4  19
TORSDOF 5
ENDMDL
MODEL 3
REMARK VINA RESULT: -7.076703828      1.283      1.693
REMARK  5 active torsions:
REMARK  status: ('A' for Active; 'I' for Inactive)
REMARK    1  A    between atoms: N1_1  and  C1_5 
REMARK    2  A    between atoms: N2_9  and  C5_10 
REMARK    3  A    between atoms: C5_10  and  C6_11 
REMARK    4  A    between atoms: C6_11  and  N3_12 
REMARK    5  A    between atoms: C9_15  and  N4_16 
ROOT
HETATM    1  N3  UNL     1     184.485  25.896 525.146  1.00  0.00     0.090 N 
HETATM    2  C7  UNL     1     184.160  26.618 523.962  1.00  0.00     0.274 C 
HETATM    3  C8  UNL     1     183.249  27.803 524.235  1.00  0.00     0.056 C 
HETATM    4  C9  UNL     1     182.403  27.441 525.415  1.00  0.00     0.095 C 
HETATM    5  C16 UNL     1     182.107  25.996 525.466  1.00  0.00     0.056 C 
HETATM    6  C17 UNL     1     183.395  25.284 525.837  1.00  0.00     0.274 C 
ENDROOT
BRANCH   1   7
HETATM    7  C6  UNL     1     185.609  24.996 524.990  1.00  0.00     0.302 C 
BRANCH   7   8
HETATM    8  C5  UNL     1     186.752  25.291 525.879  1.00  0.00     0.302 C 
BRANCH   8   9
HETATM    9  N2  UNL     1     186.502  26.500 526.636  1.00  0.00     0.092 N 
HETATM   10  C4  UNL     1     187.274  27.615 526.063  1.00  0.00     0.272 C 
HETATM   11  C3  UNL     1     186.595  28.875 526.595  1.00  0.00     0.032 C 
HETATM   12  C2  UNL     1     186.880  28.913 528.078  1.00  0.00     0.036 C 
HETATM   13  C1  UNL     1     186.659  27.622 528.782  1.00  0.00     0.211 C 
HETATM   14  C18 UNL     1     186.990  26.389 527.997  1.00  0.00     0.305 C 
BRANCH  13  15
HETATM   15  N1  UNL     1     187.558  27.609 529.948  1.00  0.00    -0.073 N 
ATOM     16  H13 UNL     1     188.497  27.947 529.734  1.00  0.00     0.274 HD
ATOM     17  H12 UNL     1     187.322  28.316 530.644  1.00  0.00     0.274 HD
ATOM     18  H11 UNL     1     187.548  26.660 530.321  1.00  0.00     0.274 HD
ENDBRANCH  13  15
ENDBRANCH   8   9
ENDBRANCH   7   8
ENDBRANCH   1   7
BRANCH   4  19
HETATM   19  N4  UNL     1     181.229  28.315 525.597  1.00  0.00    -0.326 N 
HETATM   20  C10 UNL     1     181.316  29.267 526.649  1.00  0.00     0.068 C 
HETATM   21  C11 UNL     1     180.339  29.423 527.745  1.00  0.00     0.056 C 
HETATM   22  C12 UNL     1     178.886  29.769 527.283  1.00  0.00     0.085 C 
HETATM   23  C13 UNL     1     178.701  29.230 526.000  1.00  0.00    -0.174 C 
HETATM   24  C14 UNL     1     178.799  28.611 524.726  1.00  0.00     0.183 C 
HETATM   25  C15 UNL     1     180.216  28.001 524.611  1.00  0.00     0.234 C 
HETATM   26  O1  UNL     1     180.413  27.261 523.668  1.00  0.00    -0.272 OA
ENDBRANCH   4  19
TORSDOF 5
ENDMDL
MODEL 4
REMARK VINA RESULT: -7.001268068      0.873      1.339
REMARK  5 active torsions:
REMARK  status: ('A' for Active; 'I' for Inactive)
REMARK    1  A    between atoms: N1_1  and  C1_5 
REMARK    2  A    between atoms: N2_9  and  C5_10 
REMARK    3  A    between atoms: C5_10  and  C6_11 
REMARK    4  A    between atoms: C6_11  and  N3_12 
REMARK    5  A    between atoms: C9_15  and  N4_16 
ROOT
HETATM    1  N3  UNL     1     184.706  25.864 525.387  1.00  0.00     0.090 N 
HETATM    2  C7  UNL     1     184.448  26.530 524.155  1.00  0.00     0.274 C 
HETATM    3  C8  UNL     1     183.619  27.791 524.338  1.00  0.00     0.056 C 
HETATM    4  C9  UNL     1     182.736  27.566 525.525  1.00  0.00     0.095 C 
HETATM    5  C16 UNL     1     182.338  26.151 525.661  1.00  0.00     0.056 C 
HETATM    6  C17 UNL     1     183.568  25.375 526.098  1.00  0.00     0.274 C 
ENDROOT
BRANCH   1   7
HETATM    7  C6  UNL     1     185.766  24.880 525.306  1.00  0.00     0.302 C 
BRANCH   7   8
HETATM    8  C5  UNL     1     187.126  25.435 525.470  1.00  0.00     0.302 C 
BRANCH   8   9
HETATM    9  N2  UNL     1     187.198  26.246 526.667  1.00  0.00     0.092 N 
HETATM   10  C4  UNL     1     186.042  25.960 527.533  1.00  0.00     0.272 C 
HETATM   11  C3  UNL     1     186.451  26.470 528.913  1.00  0.00     0.032 C 
HETATM   12  C2  UNL     1     186.506  27.976 528.806  1.00  0.00     0.036 C 
HETATM   13  C1  UNL     1     187.224  28.484 527.607  1.00  0.00     0.211 C 
HETATM   14  C18 UNL     1     187.076  27.659 526.363  1.00  0.00     0.305 C 
BRANCH  13  15
HETATM   15  N1  UNL     1     186.647  29.800 527.286  1.00  0.00    -0.073 N 
ATOM     16  H13 UNL     1     187.170  30.304 526.570  1.00  0.00     0.274 HD
ATOM     17  H12 UNL     1     185.763  29.738 526.781  1.00  0.00     0.274 HD
ATOM     18  H11 UNL     1     186.573  30.314 528.164  1.00  0.00     0.274 HD
ENDBRANCH  13  15
ENDBRANCH   8   9
ENDBRANCH   7   8
ENDBRANCH   1   7
BRANCH   4  19
HETATM   19  N4  UNL     1     181.625  28.529 525.632  1.00  0.00    -0.326 N 
HETATM   20  C10 UNL     1     180.317  27.973 525.653  1.00  0.00     0.068 C 
HETATM   21  C11 UNL     1     179.215  28.343 524.742  1.00  0.00     0.056 C 
HETATM   22  C12 UNL     1     178.794  29.848 524.800  1.00  0.00     0.085 C 
HETATM   23  C13 UNL     1     179.918  30.597 525.180  1.00  0.00    -0.174 C 
HETATM   24  C14 UNL     1     181.184  31.090 525.593  1.00  0.00     0.183 C 
HETATM   25  C15 UNL     1     182.142  29.880 525.707  1.00  0.00     0.234 C 
HETATM   26  O1  UNL     1     183.320  30.133 525.857  1.00  0.00    -0.272 OA
ENDBRANCH   4  19
TORSDOF 5
ENDMDL
MODEL 5
REMARK VINA RESULT: -6.548479878      2.507      6.810
REMARK  5 active torsions:
REMARK  status: ('A' for Active; 'I' for Inactive)
REMARK    1  A    between atoms: N1_1  and  C1_5 
REMARK    2  A    between atoms: N2_9  and  C5_10 
REMARK    3  A    between atoms: C5_10  and  C6_11 
REMARK    4  A    between atoms: C6_11  and  N3_12 
REMARK    5  A    between atoms: C9_15  and  N4_16 
ROOT
HETATM    1  N3  UNL     1     182.676  29.944 524.501  1.00  0.00     0.090 N 
HETATM    2  C7  UNL     1     183.246  29.671 525.777  1.00  0.00     0.274 C 
HETATM    3  C8  UNL     1     184.323  28.601 525.716  1.00  0.00     0.056 C 
HETATM    4  C9  UNL     1     183.959  27.676 524.597  1.00  0.00     0.095 C 
HETATM    5  C16 UNL     1     182.497  27.550 524.434  1.00  0.00     0.056 C 
HETATM    6  C17 UNL     1     181.991  28.863 523.865  1.00  0.00     0.274 C 
ENDROOT
BRANCH   1   7
HETATM    7  C6  UNL     1     181.917  31.177 524.452  1.00  0.00     0.302 C 
BRANCH   7   8
HETATM    8  C5  UNL     1     180.502  31.035 524.853  1.00  0.00     0.302 C 
BRANCH   8   9
HETATM    9  N2  UNL     1     180.404  30.338 526.119  1.00  0.00     0.092 N 
HETATM   10  C4  UNL     1     179.588  29.124 525.957  1.00  0.00     0.272 C 
HETATM   11  C3  UNL     1     179.940  28.252 527.160  1.00  0.00     0.032 C 
HETATM   12  C2  UNL     1     179.373  28.955 528.371  1.00  0.00     0.036 C 
HETATM   13  C1  UNL     1     179.660  30.414 528.427  1.00  0.00     0.211 C 
HETATM   14  C18 UNL     1     179.688  31.122 527.107  1.00  0.00     0.305 C 
BRANCH  13  15
HETATM   15  N1  UNL     1     178.567  31.036 529.194  1.00  0.00    -0.073 N 
ATOM     16  H13 UNL     1     178.780  31.987 529.496  1.00  0.00     0.274 HD
ATOM     17  H12 UNL     1     177.753  31.261 528.621  1.00  0.00     0.274 HD
ATOM     18  H11 UNL     1     178.352  30.408 529.968  1.00  0.00     0.274 HD
ENDBRANCH  13  15
ENDBRANCH   8   9
ENDBRANCH   7   8
ENDBRANCH   1   7
BRANCH   4  19
HETATM   19  N4  UNL     1     184.688  26.394 524.623  1.00  0.00    -0.326 N 
HETATM   20  C10 UNL     1     184.684  25.699 525.863  1.00  0.00     0.068 C 
HETATM   21  C11 UNL     1     185.885  25.240 526.589  1.00  0.00     0.056 C 
HETATM   22  C12 UNL     1     186.784  24.234 525.798  1.00  0.00     0.085 C 
HETATM   23  C13 UNL     1     186.623  24.494 524.429  1.00  0.00    -0.174 C 
HETATM   24  C14 UNL     1     186.257  24.954 523.135  1.00  0.00     0.183 C 
HETATM   25  C15 UNL     1     185.254  26.117 523.319  1.00  0.00     0.234 C 
HETATM   26  O1  UNL     1     184.984  26.763 522.326  1.00  0.00    -0.272 OA
ENDBRANCH   4  19
TORSDOF 5
ENDMDL
