MODEL 1
REMARK VINA RESULT: -8.724414197      0.000      0.000
REMARK  4 active torsions:
REMARK  status: ('A' for Active; 'I' for Inactive)
REMARK    1  A    between atoms: C3_5  and  C4_6 
REMARK    2  A    between atoms: C4_6  and  N2_7 
REMARK       I    between atoms: N3_14  and  C11_15 
REMARK    3  A    between atoms: C11_15  and  C12_17 
REMARK    4  A    between atoms: C12_17  and  C13_18 
ROOT
HETATM    1  N2  UNL     1     181.250  28.650 525.218  1.00  0.00     0.095 N 
HETATM    2  C5  UNL     1     181.220  27.815 524.044  1.00  0.00     0.273 C 
HETATM    3  C6  UNL     1     182.401  26.878 524.054  1.00  0.00     0.041 C 
HETATM    4  C7  UNL     1     183.162  26.897 525.341  1.00  0.00    -0.021 C 
HETATM    5  C8  UNL     1     183.975  25.623 525.438  1.00  0.00     0.013 C 
HETATM    6  C9  UNL     1     184.894  25.432 524.272  1.00  0.00     0.021 C 
HETATM    7  C10 UNL     1     185.871  26.572 524.211  1.00  0.00     0.126 C 
HETATM    8  N3  UNL     1     185.522  27.548 525.223  1.00  0.00    -0.351 N 
HETATM    9  C11 UNL     1     186.504  27.997 526.126  1.00  0.00     0.226 C 
HETATM   10  O1  UNL     1     187.657  27.543 526.068  1.00  0.00    -0.273 OA
HETATM   11  C14 UNL     1     184.183  28.048 525.316  1.00  0.00     0.135 C 
HETATM   12  C15 UNL     1     182.300  26.983 526.562  1.00  0.00     0.041 C 
HETATM   13  C16 UNL     1     181.059  27.815 526.362  1.00  0.00     0.273 C 
ENDROOT
BRANCH   1  14
HETATM   14  C4  UNL     1     180.379  29.776 525.158  1.00  0.00     0.349 C 
BRANCH  14  15
HETATM   15  C3  UNL     1     180.035  30.355 526.454  1.00  0.00     0.126 A 
HETATM   16  N1  UNL     1     179.351  29.753 527.432  1.00  0.00    -0.332 N 
HETATM   17  C2  UNL     1     179.224  30.588 528.475  1.00  0.00     0.093 A 
ATOM     18  H1  UNL     1     178.982  28.804 527.391  1.00  0.00     0.168 HD
HETATM   19  C1  UNL     1     178.531  30.285 529.735  1.00  0.00     0.090 C 
HETATM   20  N5  UNL     1     179.856  31.738 528.114  1.00  0.00    -0.288 N 
HETATM   21  N4  UNL     1     180.339  31.581 526.892  1.00  0.00    -0.286 N 
ATOM     22  H5  UNL     1     179.941  32.578 528.687  1.00  0.00     0.188 HD
ATOM     23  H4  UNL     1     180.862  32.283 526.368  1.00  0.00     0.188 HD
ENDBRANCH  14  15
ENDBRANCH   1  14
BRANCH   9  24
HETATM   24  C12 UNL     1     186.154  29.014 527.146  1.00  0.00     0.172 C 
BRANCH  24  25
HETATM   25  C13 UNL     1     186.840  28.686 528.437  1.00  0.00     0.240 C 
HETATM   26  O2  UNL     1     186.307  27.889 529.185  1.00  0.00    -0.306 OA
ENDBRANCH  24  25
ENDBRANCH   9  24
TORSDOF 4
ENDMDL
MODEL 2
REMARK VINA RESULT: -8.411749193      2.321      3.617
REMARK  4 active torsions:
REMARK  status: ('A' for Active; 'I' for Inactive)
REMARK    1  A    between atoms: C3_5  and  C4_6 
REMARK    2  A    between atoms: C4_6  and  N2_7 
REMARK       I    between atoms: N3_14  and  C11_15 
REMARK    3  A    between atoms: C11_15  and  C12_17 
REMARK    4  A    between atoms: C12_17  and  C13_18 
ROOT
HETATM    1  N2  UNL     1     182.616  28.571 525.378  1.00  0.00     0.095 N 
HETATM    2  C5  UNL     1     182.332  27.628 526.429  1.00  0.00     0.273 C 
HETATM    3  C6  UNL     1     183.471  26.648 526.556  1.00  0.00     0.041 C 
HETATM    4  C7  UNL     1     184.665  27.016 525.735  1.00  0.00    -0.021 C 
HETATM    5  C8  UNL     1     185.873  26.293 526.293  1.00  0.00     0.013 C 
HETATM    6  C9  UNL     1     185.690  24.809 526.337  1.00  0.00     0.021 C 
HETATM    7  C10 UNL     1     185.470  24.287 524.946  1.00  0.00     0.126 C 
HETATM    8  N3  UNL     1     185.379  25.407 524.031  1.00  0.00    -0.351 N 
HETATM    9  C11 UNL     1     186.185  25.431 522.877  1.00  0.00     0.226 C 
HETATM   10  O1  UNL     1     186.984  24.508 522.657  1.00  0.00    -0.273 OA
HETATM   11  C14 UNL     1     184.484  26.492 524.300  1.00  0.00     0.135 C 
HETATM   12  C15 UNL     1     184.973  28.482 525.726  1.00  0.00     0.041 C 
HETATM   13  C16 UNL     1     183.744  29.353 525.774  1.00  0.00     0.273 C 
ENDROOT
BRANCH   1  14
HETATM   14  C4  UNL     1     181.489  29.334 524.957  1.00  0.00     0.349 C 
BRANCH  14  15
HETATM   15  C3  UNL     1     180.789  30.038 526.028  1.00  0.00     0.126 A 
HETATM   16  N1  UNL     1     180.100  29.474 527.024  1.00  0.00    -0.332 N 
HETATM   17  C2  UNL     1     179.592  30.428 527.820  1.00  0.00     0.093 A 
ATOM     18  H1  UNL     1     179.979  28.470 527.160  1.00  0.00     0.168 HD
HETATM   19  C1  UNL     1     178.773  30.198 529.019  1.00  0.00     0.090 C 
HETATM   20  N5  UNL     1     179.990  31.614 527.284  1.00  0.00    -0.288 N 
HETATM   21  N4  UNL     1     180.710  31.361 526.203  1.00  0.00    -0.286 N 
ATOM     22  H5  UNL     1     179.769  32.539 527.652  1.00  0.00     0.188 HD
ATOM     23  H4  UNL     1     181.138  32.064 525.601  1.00  0.00     0.188 HD
ENDBRANCH  14  15
ENDBRANCH   1  14
BRANCH   9  24
HETATM   24  C12 UNL     1     186.075  26.564 521.927  1.00  0.00     0.172 C 
BRANCH  24  25
HETATM   25  C13 UNL     1     185.471  26.085 520.643  1.00  0.00     0.240 C 
HETATM   26  O2  UNL     1     185.086  26.918 519.843  1.00  0.00    -0.306 OA
ENDBRANCH  24  25
ENDBRANCH   9  24
TORSDOF 4
ENDMDL
MODEL 3
REMARK VINA RESULT: -7.869904487      1.648      2.993
REMARK  4 active torsions:
REMARK  status: ('A' for Active; 'I' for Inactive)
REMARK    1  A    between atoms: C3_5  and  C4_6 
REMARK    2  A    between atoms: C4_6  and  N2_7 
REMARK       I    between atoms: N3_14  and  C11_15 
REMARK    3  A    between atoms: C11_15  and  C12_17 
REMARK    4  A    between atoms: C12_17  and  C13_18 
ROOT
HETATM    1  N2  UNL     1     181.967  29.042 525.296  1.00  0.00     0.095 N 
HETATM    2  C5  UNL     1     182.759  30.179 525.686  1.00  0.00     0.273 C 
HETATM    3  C6  UNL     1     184.189  29.754 525.906  1.00  0.00     0.041 C 
HETATM    4  C7  UNL     1     184.464  28.351 525.470  1.00  0.00    -0.021 C 
HETATM    5  C8  UNL     1     185.957  28.195 525.265  1.00  0.00     0.013 C 
HETATM    6  C9  UNL     1     186.749  28.543 526.487  1.00  0.00     0.021 C 
HETATM    7  C10 UNL     1     186.363  27.627 527.613  1.00  0.00     0.126 C 
HETATM    8  N3  UNL     1     185.259  26.792 527.185  1.00  0.00    -0.351 N 
HETATM    9  C11 UNL     1     185.343  25.395 527.335  1.00  0.00     0.226 C 
HETATM   10  O1  UNL     1     186.367  24.881 527.812  1.00  0.00    -0.273 OA
HETATM   11  C14 UNL     1     184.090  27.379 526.601  1.00  0.00     0.135 C 
HETATM   12  C15 UNL     1     183.785  27.962 524.193  1.00  0.00     0.041 C 
HETATM   13  C16 UNL     1     182.428  28.595 524.019  1.00  0.00     0.273 C 
ENDROOT
BRANCH   1  14
HETATM   14  C4  UNL     1     180.560  29.253 525.373  1.00  0.00     0.349 C 
BRANCH  14  15
HETATM   15  C3  UNL     1     180.116  30.003 526.545  1.00  0.00     0.126 A 
HETATM   16  N1  UNL     1     179.512  29.496 527.624  1.00  0.00    -0.332 N 
HETATM   17  C2  UNL     1     179.249  30.480 528.498  1.00  0.00     0.093 A 
ATOM     18  H1  UNL     1     179.286  28.511 527.762  1.00  0.00     0.168 HD
HETATM   19  C1  UNL     1     178.588  30.313 529.801  1.00  0.00     0.090 C 
HETATM   20  N5  UNL     1     179.711  31.624 527.926  1.00  0.00    -0.288 N 
HETATM   21  N4  UNL     1     180.231  31.319 526.748  1.00  0.00    -0.286 N 
ATOM     22  H5  UNL     1     179.664  32.558 528.335  1.00  0.00     0.188 HD
ATOM     23  H4  UNL     1     180.653  31.983 526.099  1.00  0.00     0.188 HD
ENDBRANCH  14  15
ENDBRANCH   1  14
BRANCH   9  24
HETATM   24  C12 UNL     1     184.204  24.541 526.921  1.00  0.00     0.172 C 
BRANCH  24  25
HETATM   25  C13 UNL     1     184.030  24.623 525.435  1.00  0.00     0.240 C 
HETATM   26  O2  UNL     1     185.028  24.682 524.741  1.00  0.00    -0.306 OA
ENDBRANCH  24  25
ENDBRANCH   9  24
TORSDOF 4
ENDMDL
MODEL 4
REMARK VINA RESULT: -7.823449979      0.816      1.111
REMARK  4 active torsions:
REMARK  status: ('A' for Active; 'I' for Inactive)
REMARK    1  A    between atoms: C3_5  and  C4_6 
REMARK    2  A    between atoms: C4_6  and  N2_7 
REMARK       I    between atoms: N3_14  and  C11_15 
REMARK    3  A    between atoms: C11_15  and  C12_17 
REMARK    4  A    between atoms: C12_17  and  C13_18 
ROOT
HETATM    1  N2  UNL     1     181.588  28.934 525.356  1.00  0.00     0.095 N 
HETATM    2  C5  UNL     1     181.713  28.556 523.971  1.00  0.00     0.273 C 
HETATM    3  C6  UNL     1     182.883  27.619 523.802  1.00  0.00     0.041 C 
HETATM    4  C7  UNL     1     183.468  27.161 525.099  1.00  0.00    -0.021 C 
HETATM    5  C8  UNL     1     184.261  25.895 524.848  1.00  0.00     0.013 C 
HETATM    6  C9  UNL     1     185.326  26.075 523.813  1.00  0.00     0.021 C 
HETATM    7  C10 UNL     1     186.303  27.121 524.272  1.00  0.00     0.126 C 
HETATM    8  N3  UNL     1     185.822  27.704 525.508  1.00  0.00    -0.351 N 
HETATM    9  C11 UNL     1     186.677  27.771 526.625  1.00  0.00     0.226 C 
HETATM   10  O1  UNL     1     187.827  27.312 526.556  1.00  0.00    -0.273 OA
HETATM   11  C14 UNL     1     184.483  28.202 525.602  1.00  0.00     0.135 C 
HETATM   12  C15 UNL     1     182.452  26.861 526.158  1.00  0.00     0.041 C 
HETATM   13  C16 UNL     1     181.248  27.766 526.107  1.00  0.00     0.273 C 
ENDROOT
BRANCH   1  14
HETATM   14  C4  UNL     1     180.732  30.050 525.582  1.00  0.00     0.349 C 
BRANCH  14  15
HETATM   15  C3  UNL     1     179.908  29.958 526.785  1.00  0.00     0.126 A 
HETATM   16  N1  UNL     1     180.171  30.525 527.966  1.00  0.00    -0.332 N 
HETATM   17  C2  UNL     1     179.195  30.225 528.838  1.00  0.00     0.093 A 
ATOM     18  H1  UNL     1     180.988  31.099 528.174  1.00  0.00     0.168 HD
HETATM   19  C1  UNL     1     179.133  30.664 530.240  1.00  0.00     0.090 C 
HETATM   20  N5  UNL     1     178.310  29.446 528.158  1.00  0.00    -0.288 N 
HETATM   21  N4  UNL     1     178.755  29.295 526.921  1.00  0.00    -0.286 N 
ATOM     22  H5  UNL     1     177.451  29.048 528.536  1.00  0.00     0.188 HD
ATOM     23  H4  UNL     1     178.292  28.759 526.188  1.00  0.00     0.188 HD
ENDBRANCH  14  15
ENDBRANCH   1  14
BRANCH   9  24
HETATM   24  C12 UNL     1     186.195  28.390 527.883  1.00  0.00     0.172 C 
BRANCH  24  25
HETATM   25  C13 UNL     1     186.445  27.459 529.029  1.00  0.00     0.240 C 
HETATM   26  O2  UNL     1     187.415  27.664 529.735  1.00  0.00    -0.306 OA
ENDBRANCH  24  25
ENDBRANCH   9  24
TORSDOF 4
ENDMDL
MODEL 5
REMARK VINA RESULT: -7.635964621      2.721      4.046
REMARK  4 active torsions:
REMARK  status: ('A' for Active; 'I' for Inactive)
REMARK    1  A    between atoms: C3_5  and  C4_6 
REMARK    2  A    between atoms: C4_6  and  N2_7 
REMARK       I    between atoms: N3_14  and  C11_15 
REMARK    3  A    between atoms: C11_15  and  C12_17 
REMARK    4  A    between atoms: C12_17  and  C13_18 
ROOT
HETATM    1  N2  UNL     1     183.950  29.405 525.801  1.00  0.00     0.095 N 
HETATM    2  C5  UNL     1     183.218  28.613 526.756  1.00  0.00     0.273 C 
HETATM    3  C6  UNL     1     183.800  27.224 526.819  1.00  0.00     0.041 C 
HETATM    4  C7  UNL     1     185.081  27.082 526.063  1.00  0.00    -0.021 C 
HETATM    5  C8  UNL     1     185.813  25.861 526.580  1.00  0.00     0.013 C 
HETATM    6  C9  UNL     1     184.994  24.612 526.487  1.00  0.00     0.021 C 
HETATM    7  C10 UNL     1     184.652  24.342 525.049  1.00  0.00     0.126 C 
HETATM    8  N3  UNL     1     185.117  25.448 524.237  1.00  0.00    -0.351 N 
HETATM    9  C11 UNL     1     185.920  25.194 523.109  1.00  0.00     0.226 C 
HETATM   10  O1  UNL     1     186.243  24.031 522.824  1.00  0.00    -0.273 OA
HETATM   11  C14 UNL     1     184.775  26.795 524.583  1.00  0.00     0.135 C 
HETATM   12  C15 UNL     1     186.002  28.256 526.192  1.00  0.00     0.041 C 
HETATM   13  C16 UNL     1     185.281  29.576 526.291  1.00  0.00     0.273 C 
ENDROOT
BRANCH   1  14
HETATM   14  C4  UNL     1     183.301  30.616 525.424  1.00  0.00     0.349 C 
BRANCH  14  15
HETATM   15  C3  UNL     1     181.845  30.595 525.543  1.00  0.00     0.126 A 
HETATM   16  N1  UNL     1     181.026  29.664 525.044  1.00  0.00    -0.332 N 
HETATM   17  C2  UNL     1     179.755  29.971 525.347  1.00  0.00     0.093 A 
ATOM     18  H1  UNL     1     181.322  28.845 524.513  1.00  0.00     0.168 HD
HETATM   19  C1  UNL     1     178.571  29.187 524.967  1.00  0.00     0.090 C 
HETATM   20  N5  UNL     1     179.808  31.131 526.056  1.00  0.00    -0.288 N 
HETATM   21  N4  UNL     1     181.076  31.493 526.165  1.00  0.00    -0.286 N 
ATOM     22  H5  UNL     1     179.008  31.635 526.438  1.00  0.00     0.188 HD
ATOM     23  H4  UNL     1     181.413  32.326 526.648  1.00  0.00     0.188 HD
ENDBRANCH  14  15
ENDBRANCH   1  14
BRANCH   9  24
HETATM   24  C12 UNL     1     186.376  26.323 522.263  1.00  0.00     0.172 C 
BRANCH  24  25
HETATM   25  C13 UNL     1     185.921  26.108 520.852  1.00  0.00     0.240 C 
HETATM   26  O2  UNL     1     185.154  26.918 520.365  1.00  0.00    -0.306 OA
ENDBRANCH  24  25
ENDBRANCH   9  24
TORSDOF 4
ENDMDL
