MODEL 1
REMARK VINA RESULT: -7.397885329      0.000      0.000
REMARK  4 active torsions:
REMARK  status: ('A' for Active; 'I' for Inactive)
REMARK    1  A    between atoms: C2_3  and  N2_4 
REMARK       I    between atoms: N2_4  and  C3_6 
REMARK    2  A    between atoms: C3_6  and  C4_8 
REMARK    3  A    between atoms: C4_8  and  N3_9 
REMARK    4  A    between atoms: N4_17  and  C11_18 
ROOT
HETATM    1  N1  UNL     1     181.994  26.010 526.399  1.00  0.00    -0.195 NA
HETATM    2  C1  UNL     1     182.363  26.884 525.742  1.00  0.00     0.091 C 
HETATM    3  C2  UNL     1     182.858  27.990 524.905  1.00  0.00     0.128 C 
HETATM    4  C9  UNL     1     181.841  28.329 523.837  1.00  0.00     0.067 C 
HETATM    5  C10 UNL     1     180.597  28.953 524.455  1.00  0.00     0.126 C 
HETATM    6  N4  UNL     1     180.919  29.783 525.558  1.00  0.00    -0.388 N 
HETATM    7  C16 UNL     1     182.240  30.236 525.642  1.00  0.00     0.062 C 
HETATM    8  C17 UNL     1     183.213  29.125 525.814  1.00  0.00     0.091 C 
ENDROOT
BRANCH   3   9
HETATM    9  N2  UNL     1     184.069  27.517 524.241  1.00  0.00    -0.337 N 
HETATM   10  C3  UNL     1     185.296  27.289 524.916  1.00  0.00     0.236 C 
HETATM   11  O1  UNL     1     185.472  27.465 526.155  1.00  0.00    -0.272 OA
ATOM     12  H2  UNL     1     184.031  27.342 523.237  1.00  0.00     0.164 HD
BRANCH  10  13
HETATM   13  C4  UNL     1     186.452  26.805 524.077  1.00  0.00     0.228 C 
BRANCH  13  14
HETATM   14  N3  UNL     1     186.027  25.728 523.214  1.00  0.00    -0.343 N 
HETATM   15  C5  UNL     1     185.863  24.336 523.645  1.00  0.00     0.127 C 
HETATM   16  C6  UNL     1     185.939  23.512 522.394  1.00  0.00     0.029 C 
HETATM   17  C7  UNL     1     185.806  24.455 521.232  1.00  0.00     0.104 C 
HETATM   18  C8  UNL     1     185.697  25.786 521.850  1.00  0.00     0.220 C 
HETATM   19  O2  UNL     1     185.354  26.825 521.232  1.00  0.00    -0.273 OA
ENDBRANCH  13  14
ENDBRANCH  10  13
ENDBRANCH   3   9
BRANCH   6  20
HETATM   20  C11 UNL     1     179.973  30.058 526.528  1.00  0.00     0.083 C 
HETATM   21  C12 UNL     1     180.137  31.324 527.328  1.00  0.00     0.025 C 
HETATM   22  C13 UNL     1     179.176  31.122 528.501  1.00  0.00     0.002 C 
HETATM   23  C14 UNL     1     178.773  29.677 528.500  1.00  0.00     0.002 C 
HETATM   24  C15 UNL     1     179.841  29.036 527.641  1.00  0.00     0.025 C 
ENDBRANCH   6  20
TORSDOF 4
ENDMDL
MODEL 2
REMARK VINA RESULT: -7.107251367      2.159      7.424
REMARK  4 active torsions:
REMARK  status: ('A' for Active; 'I' for Inactive)
REMARK    1  A    between atoms: C2_3  and  N2_4 
REMARK       I    between atoms: N2_4  and  C3_6 
REMARK    2  A    between atoms: C3_6  and  C4_8 
REMARK    3  A    between atoms: C4_8  and  N3_9 
REMARK    4  A    between atoms: N4_17  and  C11_18 
ROOT
HETATM    1  N1  UNL     1     181.993  24.962 526.197  1.00  0.00    -0.195 NA
HETATM    2  C1  UNL     1     182.147  26.066 525.901  1.00  0.00     0.091 C 
HETATM    3  C2  UNL     1     182.318  27.479 525.521  1.00  0.00     0.128 C 
HETATM    4  C9  UNL     1     183.506  28.072 526.247  1.00  0.00     0.067 C 
HETATM    5  C10 UNL     1     184.806  27.466 525.739  1.00  0.00     0.126 C 
HETATM    6  N4  UNL     1     184.757  27.207 524.347  1.00  0.00    -0.388 N 
HETATM    7  C16 UNL     1     183.785  27.894 523.612  1.00  0.00     0.062 C 
HETATM    8  C17 UNL     1     182.402  27.542 524.028  1.00  0.00     0.091 C 
ENDROOT
BRANCH   3   9
HETATM    9  N2  UNL     1     181.121  28.190 525.959  1.00  0.00    -0.337 N 
HETATM   10  C3  UNL     1     179.916  28.234 525.210  1.00  0.00     0.236 C 
HETATM   11  O1  UNL     1     179.748  27.665 524.094  1.00  0.00    -0.272 OA
ATOM     12  H2  UNL     1     181.151  28.682 526.852  1.00  0.00     0.164 HD
BRANCH  10  13
HETATM   13  C4  UNL     1     178.773  29.017 525.807  1.00  0.00     0.228 C 
BRANCH  13  14
HETATM   14  N3  UNL     1     179.215  29.722 526.987  1.00  0.00    -0.343 N 
HETATM   15  C5  UNL     1     178.887  29.326 528.360  1.00  0.00     0.127 C 
HETATM   16  C6  UNL     1     179.070  30.559 529.194  1.00  0.00     0.029 C 
HETATM   17  C7  UNL     1     179.821  31.554 528.356  1.00  0.00     0.104 C 
HETATM   18  C8  UNL     1     180.010  30.878 527.063  1.00  0.00     0.220 C 
HETATM   19  O2  UNL     1     180.780  31.286 526.159  1.00  0.00    -0.273 OA
ENDBRANCH  13  14
ENDBRANCH  10  13
ENDBRANCH   3   9
BRANCH   6  20
HETATM   20  C11 UNL     1     185.593  26.262 523.779  1.00  0.00     0.083 C 
HETATM   21  C12 UNL     1     185.732  26.261 522.280  1.00  0.00     0.025 C 
HETATM   22  C13 UNL     1     186.398  24.913 521.993  1.00  0.00     0.002 C 
HETATM   23  C14 UNL     1     186.311  24.100 523.250  1.00  0.00     0.002 C 
HETATM   24  C15 UNL     1     185.228  24.811 524.031  1.00  0.00     0.025 C 
ENDBRANCH   6  20
TORSDOF 4
ENDMDL
MODEL 3
REMARK VINA RESULT: -6.878628826      1.052      1.323
REMARK  4 active torsions:
REMARK  status: ('A' for Active; 'I' for Inactive)
REMARK    1  A    between atoms: C2_3  and  N2_4 
REMARK       I    between atoms: N2_4  and  C3_6 
REMARK    2  A    between atoms: C3_6  and  C4_8 
REMARK    3  A    between atoms: C4_8  and  N3_9 
REMARK    4  A    between atoms: N4_17  and  C11_18 
ROOT
HETATM    1  N1  UNL     1     182.231  26.077 526.195  1.00  0.00    -0.195 NA
HETATM    2  C1  UNL     1     182.584  26.988 525.582  1.00  0.00     0.091 C 
HETATM    3  C2  UNL     1     183.061  28.142 524.801  1.00  0.00     0.128 C 
HETATM    4  C9  UNL     1     182.061  28.485 523.718  1.00  0.00     0.067 C 
HETATM    5  C10 UNL     1     180.780  29.041 524.323  1.00  0.00     0.126 C 
HETATM    6  N4  UNL     1     181.040  29.839 525.465  1.00  0.00    -0.388 N 
HETATM    7  C16 UNL     1     182.341  30.335 525.603  1.00  0.00     0.062 C 
HETATM    8  C17 UNL     1     183.349  29.254 525.761  1.00  0.00     0.091 C 
ENDROOT
BRANCH   3   9
HETATM    9  N2  UNL     1     184.306  27.740 524.155  1.00  0.00    -0.337 N 
HETATM   10  C3  UNL     1     185.508  27.478 524.861  1.00  0.00     0.236 C 
HETATM   11  O1  UNL     1     185.631  27.561 526.116  1.00  0.00    -0.272 OA
ATOM     12  H2  UNL     1     184.312  27.641 523.139  1.00  0.00     0.164 HD
BRANCH  10  13
HETATM   13  C4  UNL     1     186.707  27.076 524.038  1.00  0.00     0.228 C 
BRANCH  13  14
HETATM   14  N3  UNL     1     186.444  25.835 523.348  1.00  0.00    -0.343 N 
HETATM   15  C5  UNL     1     186.411  25.687 521.890  1.00  0.00     0.127 C 
HETATM   16  C6  UNL     1     185.613  24.446 521.624  1.00  0.00     0.029 C 
HETATM   17  C7  UNL     1     185.486  23.712 522.929  1.00  0.00     0.104 C 
HETATM   18  C8  UNL     1     186.178  24.572 523.903  1.00  0.00     0.220 C 
HETATM   19  O2  UNL     1     186.486  24.214 525.067  1.00  0.00    -0.273 OA
ENDBRANCH  13  14
ENDBRANCH  10  13
ENDBRANCH   3   9
BRANCH   6  20
HETATM   20  C11 UNL     1     180.058  30.042 526.417  1.00  0.00     0.083 C 
HETATM   21  C12 UNL     1     180.134  31.300 527.243  1.00  0.00     0.025 C 
HETATM   22  C13 UNL     1     179.159  31.022 528.390  1.00  0.00     0.002 C 
HETATM   23  C14 UNL     1     178.838  29.557 528.353  1.00  0.00     0.002 C 
HETATM   24  C15 UNL     1     179.959  28.993 527.508  1.00  0.00     0.025 C 
ENDBRANCH   6  20
TORSDOF 4
ENDMDL
MODEL 4
REMARK VINA RESULT: -6.493928969      2.103      7.314
REMARK  4 active torsions:
REMARK  status: ('A' for Active; 'I' for Inactive)
REMARK    1  A    between atoms: C2_3  and  N2_4 
REMARK       I    between atoms: N2_4  and  C3_6 
REMARK    2  A    between atoms: C3_6  and  C4_8 
REMARK    3  A    between atoms: C4_8  and  N3_9 
REMARK    4  A    between atoms: N4_17  and  C11_18 
ROOT
HETATM    1  N1  UNL     1     182.174  28.367 522.700  1.00  0.00    -0.195 NA
HETATM    2  C1  UNL     1     182.496  28.356 523.808  1.00  0.00     0.091 C 
HETATM    3  C2  UNL     1     182.900  28.367 525.225  1.00  0.00     0.128 C 
HETATM    4  C9  UNL     1     182.606  27.025 525.859  1.00  0.00     0.067 C 
HETATM    5  C10 UNL     1     183.521  25.949 525.295  1.00  0.00     0.126 C 
HETATM    6  N4  UNL     1     184.820  26.450 525.029  1.00  0.00    -0.388 N 
HETATM    7  C16 UNL     1     185.185  27.632 525.681  1.00  0.00     0.062 C 
HETATM    8  C17 UNL     1     184.335  28.786 525.285  1.00  0.00     0.091 C 
ENDROOT
BRANCH   3   9
HETATM    9  N2  UNL     1     182.083  29.373 525.896  1.00  0.00    -0.337 N 
HETATM   10  C3  UNL     1     181.745  30.624 525.318  1.00  0.00     0.236 C 
HETATM   11  O1  UNL     1     182.108  30.999 524.167  1.00  0.00    -0.272 OA
ATOM     12  H2  UNL     1     181.737  29.166 526.833  1.00  0.00     0.164 HD
BRANCH  10  13
HETATM   13  C4  UNL     1     180.896  31.550 526.152  1.00  0.00     0.228 C 
BRANCH  13  14
HETATM   14  N3  UNL     1     179.962  30.790 526.948  1.00  0.00    -0.343 N 
HETATM   15  C5  UNL     1     179.553  31.145 528.311  1.00  0.00     0.127 C 
HETATM   16  C6  UNL     1     179.038  29.878 528.925  1.00  0.00     0.029 C 
HETATM   17  C7  UNL     1     178.842  28.891 527.808  1.00  0.00     0.104 C 
HETATM   18  C8  UNL     1     179.285  29.609 526.602  1.00  0.00     0.220 C 
HETATM   19  O2  UNL     1     179.078  29.211 525.429  1.00  0.00    -0.273 OA
ENDBRANCH  13  14
ENDBRANCH  10  13
ENDBRANCH   3   9
BRANCH   6  20
HETATM   20  C11 UNL     1     185.641  25.820 524.111  1.00  0.00     0.083 C 
HETATM   21  C12 UNL     1     185.820  26.476 522.767  1.00  0.00     0.025 C 
HETATM   22  C13 UNL     1     186.451  25.368 521.921  1.00  0.00     0.002 C 
HETATM   23  C14 UNL     1     186.305  24.087 522.687  1.00  0.00     0.002 C 
HETATM   24  C15 UNL     1     185.224  24.423 523.691  1.00  0.00     0.025 C 
ENDBRANCH   6  20
TORSDOF 4
ENDMDL
MODEL 5
REMARK VINA RESULT: -6.419510023      1.582      2.212
REMARK  4 active torsions:
REMARK  status: ('A' for Active; 'I' for Inactive)
REMARK    1  A    between atoms: C2_3  and  N2_4 
REMARK       I    between atoms: N2_4  and  C3_6 
REMARK    2  A    between atoms: C3_6  and  C4_8 
REMARK    3  A    between atoms: C4_8  and  N3_9 
REMARK    4  A    between atoms: N4_17  and  C11_18 
ROOT
HETATM    1  N1  UNL     1     184.543  28.545 527.166  1.00  0.00    -0.195 NA
HETATM    2  C1  UNL     1     184.045  27.889 526.358  1.00  0.00     0.091 C 
HETATM    3  C2  UNL     1     183.432  27.051 525.314  1.00  0.00     0.128 C 
HETATM    4  C9  UNL     1     182.428  26.102 525.932  1.00  0.00     0.067 C 
HETATM    5  C10 UNL     1     181.218  26.863 526.455  1.00  0.00     0.126 C 
HETATM    6  N4  UNL     1     180.886  27.960 525.622  1.00  0.00    -0.388 N 
HETATM    7  C16 UNL     1     181.384  27.931 524.315  1.00  0.00     0.062 C 
HETATM    8  C17 UNL     1     182.869  27.964 524.270  1.00  0.00     0.091 C 
ENDROOT
BRANCH   3   9
HETATM    9  N2  UNL     1     184.500  26.254 524.720  1.00  0.00    -0.337 N 
HETATM   10  C3  UNL     1     185.369  25.421 525.472  1.00  0.00     0.236 C 
HETATM   11  O1  UNL     1     185.312  25.277 526.726  1.00  0.00    -0.272 OA
ATOM     12  H2  UNL     1     184.630  26.298 523.709  1.00  0.00     0.164 HD
BRANCH  10  13
HETATM   13  C4  UNL     1     186.424  24.667 524.700  1.00  0.00     0.228 C 
BRANCH  13  14
HETATM   14  N3  UNL     1     186.349  25.000 523.298  1.00  0.00    -0.343 N 
HETATM   15  C5  UNL     1     186.686  26.313 522.738  1.00  0.00     0.127 C 
HETATM   16  C6  UNL     1     185.987  26.382 521.413  1.00  0.00     0.029 C 
HETATM   17  C7  UNL     1     185.537  24.989 521.075  1.00  0.00     0.104 C 
HETATM   18  C8  UNL     1     185.957  24.177 522.229  1.00  0.00     0.220 C 
HETATM   19  O2  UNL     1     185.961  22.921 522.243  1.00  0.00    -0.273 OA
ENDBRANCH  13  14
ENDBRANCH  10  13
ENDBRANCH   3   9
BRANCH   6  20
HETATM   20  C11 UNL     1     180.165  29.029 526.122  1.00  0.00     0.083 C 
HETATM   21  C12 UNL     1     180.691  30.415 525.857  1.00  0.00     0.025 C 
HETATM   22  C13 UNL     1     179.891  31.283 526.830  1.00  0.00     0.002 C 
HETATM   23  C14 UNL     1     179.214  30.357 527.797  1.00  0.00     0.002 C 
HETATM   24  C15 UNL     1     179.998  29.073 527.630  1.00  0.00     0.025 C 
ENDBRANCH   6  20
TORSDOF 4
ENDMDL
