MODEL 1
REMARK VINA RESULT: -6.777027653      0.000      0.000
REMARK  8 active torsions:
REMARK  status: ('A' for Active; 'I' for Inactive)
REMARK    1  A    between atoms: N1_2  and  C2_5 
REMARK    2  A    between atoms: C2_5  and  C3_6 
REMARK    3  A    between atoms: C6_9  and  C7_10 
REMARK    4  A    between atoms: C7_10  and  N2_11 
REMARK       I    between atoms: N2_11  and  C8_13 
REMARK    5  A    between atoms: C8_13  and  C9_15 
REMARK    6  A    between atoms: C9_15  and  C10_16 
REMARK    7  A    between atoms: C13_19  and  C14_20 
REMARK    8  A    between atoms: C14_20  and  N3_21 
ROOT
HETATM    1  N2  UNL     1      38.855  -7.223  20.781  1.00  0.00    -0.361 N 
ATOM      2  H2  UNL     1      38.129  -7.936  20.712  1.00  0.00     0.162 HD
HETATM    3  C8  UNL     1      39.721  -7.203  21.892  1.00  0.00     0.218 C 
HETATM    4  O1  UNL     1      40.613  -6.350  21.989  1.00  0.00    -0.274 OA
ENDROOT
BRANCH   3   5
HETATM    5  C9  UNL     1      39.542  -8.230  22.948  1.00  0.00     0.117 C 
BRANCH   5   6
HETATM    6  C10 UNL     1      38.563  -7.684  23.955  1.00  0.00     0.056 C 
HETATM    7  C11 UNL     1      39.146  -6.749  24.960  1.00  0.00     0.016 C 
HETATM    8  C12 UNL     1      39.794  -7.511  26.054  1.00  0.00     0.008 C 
HETATM    9  C13 UNL     1      38.880  -7.980  27.163  1.00  0.00     0.021 C 
HETATM   10  C20 UNL     1      37.695  -8.744  26.613  1.00  0.00     0.080 C 
HETATM   11  S1  UNL     1      37.849  -9.086  24.851  1.00  0.00    -0.163 SA
BRANCH   9  12
HETATM   12  C14 UNL     1      38.398  -6.821  27.945  1.00  0.00     0.242 C 
BRANCH  12  13
HETATM   13  N3  UNL     1      38.940  -6.576  29.222  1.00  0.00    -0.070 N 
HETATM   14  C15 UNL     1      39.126  -7.835  29.916  1.00  0.00     0.272 C 
HETATM   15  C16 UNL     1      37.992  -5.814  30.052  1.00  0.00     0.237 C 
HETATM   16  C17 UNL     1      38.850  -5.343  31.175  1.00  0.00     0.029 C 
HETATM   17  C18 UNL     1      40.147  -4.996  30.528  1.00  0.00     0.029 C 
HETATM   18  C19 UNL     1      40.168  -5.853  29.279  1.00  0.00     0.237 C 
ENDBRANCH  12  13
ENDBRANCH   9  12
ENDBRANCH   5   6
ENDBRANCH   3   5
BRANCH   1  19
HETATM   19  C7  UNL     1      38.998  -6.233  19.742  1.00  0.00     0.127 C 
BRANCH  19  20
HETATM   20  C6  UNL     1      39.155  -6.920  18.413  1.00  0.00     0.003 C 
HETATM   21  C5  UNL     1      39.800  -8.282  18.560  1.00  0.00     0.007 C 
HETATM   22  C4  UNL     1      41.012  -8.333  17.689  1.00  0.00     0.007 C 
HETATM   23  C3  UNL     1      42.054  -7.324  18.067  1.00  0.00     0.011 C 
HETATM   24  C22 UNL     1      41.445  -5.950  18.049  1.00  0.00     0.007 C 
HETATM   25  C21 UNL     1      40.027  -5.998  17.570  1.00  0.00     0.007 C 
BRANCH  23  26
HETATM   26  C2  UNL     1      42.644  -7.646  19.425  1.00  0.00     0.236 C 
BRANCH  26  27
HETATM   27  N1  UNL     1      42.949  -6.468  20.182  1.00  0.00    -0.079 N 
HETATM   28  C1  UNL     1      44.339  -6.287  20.460  1.00  0.00     0.267 C 
ATOM     29  H12 UNL     1      42.408  -6.451  21.046  1.00  0.00     0.276 HD
ATOM     30  H11 UNL     1      42.568  -5.641  19.721  1.00  0.00     0.276 HD
ENDBRANCH  26  27
ENDBRANCH  23  26
ENDBRANCH  19  20
ENDBRANCH   1  19
TORSDOF 8
ENDMDL
MODEL 2
REMARK VINA RESULT: -6.713626000      5.141      8.748
REMARK  8 active torsions:
REMARK  status: ('A' for Active; 'I' for Inactive)
REMARK    1  A    between atoms: N1_2  and  C2_5 
REMARK    2  A    between atoms: C2_5  and  C3_6 
REMARK    3  A    between atoms: C6_9  and  C7_10 
REMARK    4  A    between atoms: C7_10  and  N2_11 
REMARK       I    between atoms: N2_11  and  C8_13 
REMARK    5  A    between atoms: C8_13  and  C9_15 
REMARK    6  A    between atoms: C9_15  and  C10_16 
REMARK    7  A    between atoms: C13_19  and  C14_20 
REMARK    8  A    between atoms: C14_20  and  N3_21 
ROOT
HETATM    1  N2  UNL     1      41.877  -6.264  21.642  1.00  0.00    -0.361 N 
ATOM      2  H2  UNL     1      42.458  -5.435  21.771  1.00  0.00     0.162 HD
HETATM    3  C8  UNL     1      42.204  -7.463  22.305  1.00  0.00     0.218 C 
HETATM    4  O1  UNL     1      41.506  -8.477  22.167  1.00  0.00    -0.274 OA
ENDROOT
BRANCH   3   5
HETATM    5  C9  UNL     1      43.404  -7.487  23.178  1.00  0.00     0.117 C 
BRANCH   5   6
HETATM    6  C10 UNL     1      44.615  -7.347  22.292  1.00  0.00     0.056 C 
HETATM    7  C11 UNL     1      44.784  -8.428  21.278  1.00  0.00     0.016 C 
HETATM    8  C12 UNL     1      45.418  -9.616  21.898  1.00  0.00     0.008 C 
HETATM    9  C13 UNL     1      46.926  -9.591  21.983  1.00  0.00     0.021 C 
HETATM   10  C20 UNL     1      47.419  -8.323  22.644  1.00  0.00     0.080 C 
HETATM   11  S1  UNL     1      46.081  -7.347  23.354  1.00  0.00    -0.163 SA
BRANCH   9  12
HETATM   12  C14 UNL     1      47.511  -9.700  20.629  1.00  0.00     0.242 C 
BRANCH  12  13
HETATM   13  N3  UNL     1      48.056 -10.929  20.208  1.00  0.00    -0.070 N 
HETATM   14  C15 UNL     1      49.488 -10.924  20.434  1.00  0.00     0.272 C 
HETATM   15  C16 UNL     1      47.893 -11.099  18.755  1.00  0.00     0.237 C 
HETATM   16  C17 UNL     1      48.169 -12.551  18.566  1.00  0.00     0.029 C 
HETATM   17  C18 UNL     1      47.537 -13.204  19.746  1.00  0.00     0.029 C 
HETATM   18  C19 UNL     1      47.519 -12.113  20.797  1.00  0.00     0.237 C 
ENDBRANCH  12  13
ENDBRANCH   9  12
ENDBRANCH   5   6
ENDBRANCH   3   5
BRANCH   1  19
HETATM   19  C7  UNL     1      40.722  -6.211  20.780  1.00  0.00     0.127 C 
BRANCH  19  20
HETATM   20  C6  UNL     1      41.073  -5.472  19.517  1.00  0.00     0.003 C 
HETATM   21  C5  UNL     1      39.988  -5.611  18.470  1.00  0.00     0.007 C 
HETATM   22  C4  UNL     1      40.596  -6.160  17.221  1.00  0.00     0.007 C 
HETATM   23  C3  UNL     1      41.189  -7.525  17.405  1.00  0.00     0.011 C 
HETATM   24  C22 UNL     1      42.202  -7.482  18.515  1.00  0.00     0.007 C 
HETATM   25  C21 UNL     1      42.378  -6.086  19.026  1.00  0.00     0.007 C 
BRANCH  23  26
HETATM   26  C2  UNL     1      40.107  -8.547  17.688  1.00  0.00     0.236 C 
BRANCH  26  27
HETATM   27  N1  UNL     1      40.205  -9.697  16.839  1.00  0.00    -0.079 N 
HETATM   28  C1  UNL     1      40.934  -9.478  15.630  1.00  0.00     0.267 C 
ATOM     29  H12 UNL     1      39.277 -10.066  16.633  1.00  0.00     0.276 HD
ATOM     30  H11 UNL     1      40.597 -10.485  17.353  1.00  0.00     0.276 HD
ENDBRANCH  26  27
ENDBRANCH  23  26
ENDBRANCH  19  20
ENDBRANCH   1  19
TORSDOF 8
ENDMDL
MODEL 3
REMARK VINA RESULT: -6.696925855      3.794      5.325
REMARK  8 active torsions:
REMARK  status: ('A' for Active; 'I' for Inactive)
REMARK    1  A    between atoms: N1_2  and  C2_5 
REMARK    2  A    between atoms: C2_5  and  C3_6 
REMARK    3  A    between atoms: C6_9  and  C7_10 
REMARK    4  A    between atoms: C7_10  and  N2_11 
REMARK       I    between atoms: N2_11  and  C8_13 
REMARK    5  A    between atoms: C8_13  and  C9_15 
REMARK    6  A    between atoms: C9_15  and  C10_16 
REMARK    7  A    between atoms: C13_19  and  C14_20 
REMARK    8  A    between atoms: C14_20  and  N3_21 
ROOT
HETATM    1  N2  UNL     1      41.839  -4.947  20.921  1.00  0.00    -0.361 N 
ATOM      2  H2  UNL     1      41.750  -5.045  21.932  1.00  0.00     0.162 HD
HETATM    3  C8  UNL     1      42.973  -5.456  20.260  1.00  0.00     0.218 C 
HETATM    4  O1  UNL     1      43.094  -5.353  19.031  1.00  0.00    -0.274 OA
ENDROOT
BRANCH   3   5
HETATM    5  C9  UNL     1      44.025  -6.123  21.066  1.00  0.00     0.117 C 
BRANCH   5   6
HETATM    6  C10 UNL     1      43.782  -7.609  20.995  1.00  0.00     0.056 C 
HETATM    7  C11 UNL     1      42.490  -8.066  21.584  1.00  0.00     0.016 C 
HETATM    8  C12 UNL     1      42.614  -8.191  23.056  1.00  0.00     0.008 C 
HETATM    9  C13 UNL     1      43.195  -9.492  23.561  1.00  0.00     0.021 C 
HETATM   10  C20 UNL     1      44.514  -9.804  22.890  1.00  0.00     0.080 C 
HETATM   11  S1  UNL     1      45.122  -8.433  21.890  1.00  0.00    -0.163 SA
BRANCH   9  12
HETATM   12  C14 UNL     1      42.244 -10.599  23.316  1.00  0.00     0.242 C 
BRANCH  12  13
HETATM   13  N3  UNL     1      41.139 -10.762  24.174  1.00  0.00    -0.070 N 
HETATM   14  C15 UNL     1      40.745 -12.157  24.192  1.00  0.00     0.272 C 
HETATM   15  C16 UNL     1      39.967 -10.036  23.657  1.00  0.00     0.237 C 
HETATM   16  C17 UNL     1      39.055 -10.012  24.835  1.00  0.00     0.029 C 
HETATM   17  C18 UNL     1      39.959  -9.791  25.998  1.00  0.00     0.029 C 
HETATM   18  C19 UNL     1      41.295 -10.329  25.524  1.00  0.00     0.237 C 
ENDBRANCH  12  13
ENDBRANCH   9  12
ENDBRANCH   5   6
ENDBRANCH   3   5
BRANCH   1  19
HETATM   19  C7  UNL     1      40.804  -4.285  20.166  1.00  0.00     0.127 C 
BRANCH  19  20
HETATM   20  C6  UNL     1      39.474  -4.917  20.477  1.00  0.00     0.003 C 
HETATM   21  C5  UNL     1      39.633  -6.339  20.974  1.00  0.00     0.007 C 
HETATM   22  C4  UNL     1      38.818  -7.242  20.108  1.00  0.00     0.007 C 
HETATM   23  C3  UNL     1      39.257  -7.239  18.674  1.00  0.00     0.011 C 
HETATM   24  C22 UNL     1      39.229  -5.830  18.149  1.00  0.00     0.007 C 
HETATM   25  C21 UNL     1      38.684  -4.886  19.175  1.00  0.00     0.007 C 
BRANCH  23  26
HETATM   26  C2  UNL     1      40.636  -7.850  18.534  1.00  0.00     0.236 C 
BRANCH  26  27
HETATM   27  N1  UNL     1      41.391  -7.258  17.470  1.00  0.00    -0.079 N 
HETATM   28  C1  UNL     1      41.456  -8.049  16.281  1.00  0.00     0.267 C 
ATOM     29  H12 UNL     1      42.329  -7.019  17.789  1.00  0.00     0.276 HD
ATOM     30  H11 UNL     1      41.036  -6.326  17.258  1.00  0.00     0.276 HD
ENDBRANCH  26  27
ENDBRANCH  23  26
ENDBRANCH  19  20
ENDBRANCH   1  19
TORSDOF 8
ENDMDL
MODEL 4
REMARK VINA RESULT: -6.689769675      3.141      4.685
REMARK  8 active torsions:
REMARK  status: ('A' for Active; 'I' for Inactive)
REMARK    1  A    between atoms: N1_2  and  C2_5 
REMARK    2  A    between atoms: C2_5  and  C3_6 
REMARK    3  A    between atoms: C6_9  and  C7_10 
REMARK    4  A    between atoms: C7_10  and  N2_11 
REMARK       I    between atoms: N2_11  and  C8_13 
REMARK    5  A    between atoms: C8_13  and  C9_15 
REMARK    6  A    between atoms: C9_15  and  C10_16 
REMARK    7  A    between atoms: C13_19  and  C14_20 
REMARK    8  A    between atoms: C14_20  and  N3_21 
ROOT
HETATM    1  N2  UNL     1      42.826  -5.525  20.697  1.00  0.00    -0.361 N 
ATOM      2  H2  UNL     1      42.682  -4.876  21.471  1.00  0.00     0.162 HD
HETATM    3  C8  UNL     1      43.817  -6.521  20.788  1.00  0.00     0.218 C 
HETATM    4  O1  UNL     1      44.001  -7.323  19.861  1.00  0.00    -0.274 OA
ENDROOT
BRANCH   3   5
HETATM    5  C9  UNL     1      44.640  -6.594  22.020  1.00  0.00     0.117 C 
BRANCH   5   6
HETATM    6  C10 UNL     1      44.279  -7.869  22.737  1.00  0.00     0.056 C 
HETATM    7  C11 UNL     1      42.840  -8.255  22.651  1.00  0.00     0.016 C 
HETATM    8  C12 UNL     1      42.049  -7.506  23.657  1.00  0.00     0.008 C 
HETATM    9  C13 UNL     1      42.026  -8.093  25.049  1.00  0.00     0.021 C 
HETATM   10  C20 UNL     1      43.425  -8.351  25.562  1.00  0.00     0.080 C 
HETATM   11  S1  UNL     1      44.695  -7.659  24.486  1.00  0.00    -0.163 SA
BRANCH   9  12
HETATM   12  C14 UNL     1      41.260  -9.359  25.051  1.00  0.00     0.242 C 
BRANCH  12  13
HETATM   13  N3  UNL     1      39.901  -9.343  25.426  1.00  0.00    -0.070 N 
HETATM   14  C15 UNL     1      39.627 -10.477  26.286  1.00  0.00     0.272 C 
HETATM   15  C16 UNL     1      39.036  -9.531  24.250  1.00  0.00     0.237 C 
HETATM   16  C17 UNL     1      37.698  -9.122  24.763  1.00  0.00     0.029 C 
HETATM   17  C18 UNL     1      37.982  -7.954  25.644  1.00  0.00     0.029 C 
HETATM   18  C19 UNL     1      39.420  -8.168  26.074  1.00  0.00     0.237 C 
ENDBRANCH  12  13
ENDBRANCH   9  12
ENDBRANCH   5   6
ENDBRANCH   3   5
BRANCH   1  19
HETATM   19  C7  UNL     1      42.016  -5.423  19.508  1.00  0.00     0.127 C 
BRANCH  19  20
HETATM   20  C6  UNL     1      40.564  -5.566  19.877  1.00  0.00     0.003 C 
HETATM   21  C5  UNL     1      40.250  -6.958  20.383  1.00  0.00     0.007 C 
HETATM   22  C4  UNL     1      39.143  -7.527  19.558  1.00  0.00     0.007 C 
HETATM   23  C3  UNL     1      39.500  -7.670  18.109  1.00  0.00     0.011 C 
HETATM   24  C22 UNL     1      39.932  -6.334  17.570  1.00  0.00     0.007 C 
HETATM   25  C21 UNL     1      39.781  -5.264  18.605  1.00  0.00     0.007 C 
BRANCH  23  26
HETATM   26  C2  UNL     1      40.582  -8.714  17.923  1.00  0.00     0.236 C 
BRANCH  26  27
HETATM   27  N1  UNL     1      40.260  -9.659  16.896  1.00  0.00    -0.079 N 
HETATM   28  C1  UNL     1      40.951  -9.450  15.662  1.00  0.00     0.267 C 
ATOM     29  H12 UNL     1      39.252  -9.683  16.739  1.00  0.00     0.276 HD
ATOM     30  H11 UNL     1      40.408 -10.611  17.230  1.00  0.00     0.276 HD
ENDBRANCH  26  27
ENDBRANCH  23  26
ENDBRANCH  19  20
ENDBRANCH   1  19
TORSDOF 8
ENDMDL
MODEL 5
REMARK VINA RESULT: -6.682401904      1.292      1.872
REMARK  8 active torsions:
REMARK  status: ('A' for Active; 'I' for Inactive)
REMARK    1  A    between atoms: N1_2  and  C2_5 
REMARK    2  A    between atoms: C2_5  and  C3_6 
REMARK    3  A    between atoms: C6_9  and  C7_10 
REMARK    4  A    between atoms: C7_10  and  N2_11 
REMARK       I    between atoms: N2_11  and  C8_13 
REMARK    5  A    between atoms: C8_13  and  C9_15 
REMARK    6  A    between atoms: C9_15  and  C10_16 
REMARK    7  A    between atoms: C13_19  and  C14_20 
REMARK    8  A    between atoms: C14_20  and  N3_21 
ROOT
HETATM    1  N2  UNL     1      40.239  -8.464  20.594  1.00  0.00    -0.361 N 
ATOM      2  H2  UNL     1      41.005  -9.097  20.823  1.00  0.00     0.162 HD
HETATM    3  C8  UNL     1      39.609  -7.722  21.612  1.00  0.00     0.218 C 
HETATM    4  O1  UNL     1      38.683  -6.942  21.351  1.00  0.00    -0.274 OA
ENDROOT
BRANCH   3   5
HETATM    5  C9  UNL     1      40.078  -7.893  23.009  1.00  0.00     0.117 C 
BRANCH   5   6
HETATM    6  C10 UNL     1      39.055  -7.258  23.916  1.00  0.00     0.056 C 
HETATM    7  C11 UNL     1      39.621  -6.459  25.042  1.00  0.00     0.016 C 
HETATM    8  C12 UNL     1      40.006  -7.353  26.160  1.00  0.00     0.008 C 
HETATM    9  C13 UNL     1      38.897  -7.735  27.113  1.00  0.00     0.021 C 
HETATM   10  C20 UNL     1      37.705  -8.298  26.372  1.00  0.00     0.080 C 
HETATM   11  S1  UNL     1      38.045  -8.582  24.626  1.00  0.00    -0.163 SA
BRANCH   9  12
HETATM   12  C14 UNL     1      38.477  -6.554  27.898  1.00  0.00     0.242 C 
BRANCH  12  13
HETATM   13  N3  UNL     1      38.929  -6.409  29.225  1.00  0.00    -0.070 N 
HETATM   14  C15 UNL     1      38.939  -7.705  29.874  1.00  0.00     0.272 C 
HETATM   15  C16 UNL     1      37.988  -5.592  30.008  1.00  0.00     0.237 C 
HETATM   16  C17 UNL     1      38.788  -5.246  31.217  1.00  0.00     0.029 C 
HETATM   17  C18 UNL     1      40.161  -5.001  30.694  1.00  0.00     0.029 C 
HETATM   18  C19 UNL     1      40.209  -5.809  29.413  1.00  0.00     0.237 C 
ENDBRANCH  12  13
ENDBRANCH   9  12
ENDBRANCH   5   6
ENDBRANCH   3   5
BRANCH   1  19
HETATM   19  C7  UNL     1      39.799  -8.326  19.228  1.00  0.00     0.127 C 
BRANCH  19  20
HETATM   20  C6  UNL     1      40.977  -7.992  18.353  1.00  0.00     0.003 C 
HETATM   21  C5  UNL     1      42.178  -7.566  19.171  1.00  0.00     0.007 C 
HETATM   22  C4  UNL     1      42.623  -6.219  18.701  1.00  0.00     0.007 C 
HETATM   23  C3  UNL     1      41.581  -5.157  18.885  1.00  0.00     0.011 C 
HETATM   24  C22 UNL     1      40.317  -5.573  18.185  1.00  0.00     0.007 C 
HETATM   25  C21 UNL     1      40.512  -6.860  17.445  1.00  0.00     0.007 C 
BRANCH  23  26
HETATM   26  C2  UNL     1      41.334  -4.896  20.357  1.00  0.00     0.236 C 
BRANCH  26  27
HETATM   27  N1  UNL     1      40.049  -4.312  20.601  1.00  0.00    -0.079 N 
HETATM   28  C1  UNL     1      39.927  -3.657  21.866  1.00  0.00     0.267 C 
ATOM     29  H12 UNL     1      39.314  -5.011  20.490  1.00  0.00     0.276 HD
ATOM     30  H11 UNL     1      39.799  -3.674  19.845  1.00  0.00     0.276 HD
ENDBRANCH  26  27
ENDBRANCH  23  26
ENDBRANCH  19  20
ENDBRANCH   1  19
TORSDOF 8
ENDMDL
