MODEL 1
REMARK VINA RESULT: -7.963673376      0.000      0.000
REMARK  8 active torsions:
REMARK  status: ('A' for Active; 'I' for Inactive)
REMARK    1  A    between atoms: C2_2  and  C3_3 
REMARK    2  A    between atoms: C2_2  and  N1_10 
REMARK    3  A    between atoms: C3_3  and  C4_4 
REMARK    4  A    between atoms: C4_4  and  C5_5 
REMARK       I    between atoms: N1_10  and  C10_12 
REMARK       I    between atoms: C10_12  and  N2_14 
REMARK    5  A    between atoms: N3_17  and  C13_18 
REMARK    6  A    between atoms: C13_18  and  C14_19 
REMARK    7  A    between atoms: C14_19  and  N4_20 
REMARK    8  A    between atoms: N4_20  and  C15_23 
ROOT
HETATM    1  N1  UNL     1      39.075  -5.379  20.417  1.00  0.00    -0.339 N 
ATOM      2  H1  UNL     1      39.475  -4.635  20.989  1.00  0.00     0.164 HD
HETATM    3  C10 UNL     1      39.054  -6.704  20.921  1.00  0.00     0.319 C 
HETATM    4  O1  UNL     1      38.549  -7.581  20.158  1.00  0.00    -0.247 OA
HETATM    5  N2  UNL     1      39.548  -7.088  22.186  1.00  0.00    -0.325 N 
HETATM    6  C11 UNL     1      39.467  -8.478  22.571  1.00  0.00     0.172 C 
HETATM    7  C12 UNL     1      40.123  -8.785  23.860  1.00  0.00     0.083 C 
HETATM    8  N3  UNL     1      40.281  -7.763  24.809  1.00  0.00    -0.369 N 
HETATM    9  C23 UNL     1      39.776  -6.497  24.483  1.00  0.00     0.083 C 
HETATM   10  C24 UNL     1      40.112  -6.081  23.060  1.00  0.00     0.172 C 
ENDROOT
BRANCH   1  11
HETATM   11  C2  UNL     1      38.543  -5.054  19.106  1.00  0.00     0.082 C 
HETATM   12  C1  UNL     1      37.855  -3.697  19.126  1.00  0.00     0.032 C 
BRANCH  11  13
HETATM   13  C3  UNL     1      39.615  -4.981  18.042  1.00  0.00     0.025 C 
BRANCH  13  14
HETATM   14  C4  UNL     1      40.861  -5.630  18.596  1.00  0.00     0.006 C 
BRANCH  14  15
HETATM   15  C5  UNL     1      41.485  -6.580  17.593  1.00  0.00    -0.014 C 
HETATM   16  C6  UNL     1      40.733  -7.891  17.610  1.00  0.00     0.004 C 
HETATM   17  C7  UNL     1      41.170  -8.524  16.302  1.00  0.00     0.000 C 
HETATM   18  C8  UNL     1      41.321  -7.365  15.356  1.00  0.00     0.000 C 
HETATM   19  C9  UNL     1      41.272  -6.102  16.176  1.00  0.00     0.004 C 
ENDBRANCH  14  15
ENDBRANCH  13  14
ENDBRANCH  11  13
ENDBRANCH   1  11
BRANCH   8  20
HETATM   20  C13 UNL     1      41.412  -7.864  25.652  1.00  0.00     0.154 C 
BRANCH  20  21
HETATM   21  C14 UNL     1      42.662  -8.408  25.028  1.00  0.00     0.253 C 
BRANCH  21  22
HETATM   22  N4  UNL     1      43.367  -7.429  24.236  1.00  0.00    -0.069 N 
ATOM     23  H42 UNL     1      42.851  -6.553  24.159  1.00  0.00     0.277 HD
ATOM     24  H41 UNL     1      44.193  -7.069  24.714  1.00  0.00     0.277 HD
BRANCH  22  25
HETATM   25  C15 UNL     1      43.680  -7.981  22.964  1.00  0.00     0.194 C 
HETATM   26  C16 UNL     1      45.143  -7.916  22.583  1.00  0.00     0.017 C 
HETATM   27  C17 UNL     1      45.327  -6.419  22.463  1.00  0.00     0.011 C 
HETATM   28  C21 UNL     1      45.089  -8.459  21.169  1.00  0.00     0.011 C 
HETATM   29  C18 UNL     1      44.053  -6.023  21.722  1.00  0.00    -0.007 C 
HETATM   30  C19 UNL     1      44.204  -6.352  20.231  1.00  0.00     0.010 C 
HETATM   31  C22 UNL     1      43.116  -7.189  21.806  1.00  0.00     0.025 C 
HETATM   32  C20 UNL     1      43.844  -7.789  20.631  1.00  0.00    -0.007 C 
ENDBRANCH  22  25
ENDBRANCH  21  22
ENDBRANCH  20  21
ENDBRANCH   8  20
TORSDOF 8
ENDMDL
MODEL 2
REMARK VINA RESULT: -7.882974814      1.853      4.879
REMARK  8 active torsions:
REMARK  status: ('A' for Active; 'I' for Inactive)
REMARK    1  A    between atoms: C2_2  and  C3_3 
REMARK    2  A    between atoms: C2_2  and  N1_10 
REMARK    3  A    between atoms: C3_3  and  C4_4 
REMARK    4  A    between atoms: C4_4  and  C5_5 
REMARK       I    between atoms: N1_10  and  C10_12 
REMARK       I    between atoms: C10_12  and  N2_14 
REMARK    5  A    between atoms: N3_17  and  C13_18 
REMARK    6  A    between atoms: C13_18  and  C14_19 
REMARK    7  A    between atoms: C14_19  and  N4_20 
REMARK    8  A    between atoms: N4_20  and  C15_23 
ROOT
HETATM    1  N1  UNL     1      42.037  -6.811  18.669  1.00  0.00    -0.339 N 
ATOM      2  H1  UNL     1      41.702  -7.731  18.956  1.00  0.00     0.164 HD
HETATM    3  C10 UNL     1      43.051  -6.177  19.430  1.00  0.00     0.319 C 
HETATM    4  O1  UNL     1      43.418  -5.034  19.022  1.00  0.00    -0.247 OA
HETATM    5  N2  UNL     1      43.655  -6.731  20.579  1.00  0.00    -0.325 N 
HETATM    6  C11 UNL     1      44.676  -5.969  21.261  1.00  0.00     0.172 C 
HETATM    7  C12 UNL     1      45.151  -6.590  22.518  1.00  0.00     0.083 C 
HETATM    8  N3  UNL     1      45.026  -7.977  22.686  1.00  0.00    -0.369 N 
HETATM    9  C23 UNL     1      44.473  -8.709  21.626  1.00  0.00     0.083 C 
HETATM   10  C24 UNL     1      43.243  -8.042  21.033  1.00  0.00     0.172 C 
ENDROOT
BRANCH   1  11
HETATM   11  C2  UNL     1      41.463  -6.185  17.492  1.00  0.00     0.082 C 
HETATM   12  C1  UNL     1      41.409  -7.169  16.332  1.00  0.00     0.032 C 
BRANCH  11  13
HETATM   13  C3  UNL     1      40.048  -5.703  17.718  1.00  0.00     0.025 C 
BRANCH  13  14
HETATM   14  C4  UNL     1      39.608  -6.186  19.080  1.00  0.00     0.006 C 
BRANCH  14  15
HETATM   15  C5  UNL     1      38.930  -5.082  19.868  1.00  0.00    -0.014 C 
HETATM   16  C6  UNL     1      39.980  -4.171  20.460  1.00  0.00     0.004 C 
HETATM   17  C7  UNL     1      39.171  -2.936  20.806  1.00  0.00     0.000 C 
HETATM   18  C8  UNL     1      38.137  -2.846  19.718  1.00  0.00     0.000 C 
HETATM   19  C9  UNL     1      38.165  -4.148  18.959  1.00  0.00     0.004 C 
ENDBRANCH  14  15
ENDBRANCH  13  14
ENDBRANCH  11  13
ENDBRANCH   1  11
BRANCH   8  20
HETATM   20  C13 UNL     1      44.841  -8.431  24.013  1.00  0.00     0.154 C 
BRANCH  20  21
HETATM   21  C14 UNL     1      43.726  -7.793  24.786  1.00  0.00     0.253 C 
BRANCH  21  22
HETATM   22  N4  UNL     1      42.474  -8.498  24.650  1.00  0.00    -0.069 N 
ATOM     23  H42 UNL     1      42.436  -9.054  23.796  1.00  0.00     0.277 HD
ATOM     24  H41 UNL     1      42.385  -9.259  25.323  1.00  0.00     0.277 HD
BRANCH  22  25
HETATM   25  C15 UNL     1      41.396  -7.575  24.738  1.00  0.00     0.194 C 
HETATM   26  C16 UNL     1      40.112  -8.146  25.298  1.00  0.00     0.017 C 
HETATM   27  C17 UNL     1      39.752  -9.129  24.206  1.00  0.00     0.011 C 
HETATM   28  C21 UNL     1      39.182  -6.959  25.135  1.00  0.00     0.011 C 
HETATM   29  C18 UNL     1      40.053  -8.307  22.956  1.00  0.00    -0.007 C 
HETATM   30  C19 UNL     1      38.906  -7.318  22.706  1.00  0.00     0.010 C 
HETATM   31  C22 UNL     1      40.870  -7.130  23.393  1.00  0.00     0.025 C 
HETATM   32  C20 UNL     1      39.583  -6.443  23.770  1.00  0.00    -0.007 C 
ENDBRANCH  22  25
ENDBRANCH  21  22
ENDBRANCH  20  21
ENDBRANCH   8  20
TORSDOF 8
ENDMDL
MODEL 3
REMARK VINA RESULT: -7.764616094      1.873      4.960
REMARK  8 active torsions:
REMARK  status: ('A' for Active; 'I' for Inactive)
REMARK    1  A    between atoms: C2_2  and  C3_3 
REMARK    2  A    between atoms: C2_2  and  N1_10 
REMARK    3  A    between atoms: C3_3  and  C4_4 
REMARK    4  A    between atoms: C4_4  and  C5_5 
REMARK       I    between atoms: N1_10  and  C10_12 
REMARK       I    between atoms: C10_12  and  N2_14 
REMARK    5  A    between atoms: N3_17  and  C13_18 
REMARK    6  A    between atoms: C13_18  and  C14_19 
REMARK    7  A    between atoms: C14_19  and  N4_20 
REMARK    8  A    between atoms: N4_20  and  C15_23 
ROOT
HETATM    1  N1  UNL     1      41.991  -6.830  18.774  1.00  0.00    -0.339 N 
ATOM      2  H1  UNL     1      41.595  -7.709  19.108  1.00  0.00     0.164 HD
HETATM    3  C10 UNL     1      43.012  -6.200  19.530  1.00  0.00     0.319 C 
HETATM    4  O1  UNL     1      43.457  -5.110  19.062  1.00  0.00    -0.247 OA
HETATM    5  N2  UNL     1      43.544  -6.705  20.736  1.00  0.00    -0.325 N 
HETATM    6  C11 UNL     1      44.581  -5.955  21.405  1.00  0.00     0.172 C 
HETATM    7  C12 UNL     1      44.975  -6.513  22.718  1.00  0.00     0.083 C 
HETATM    8  N3  UNL     1      44.767  -7.877  22.972  1.00  0.00    -0.369 N 
HETATM    9  C23 UNL     1      44.212  -8.649  21.942  1.00  0.00     0.083 C 
HETATM   10  C24 UNL     1      43.042  -7.958  21.259  1.00  0.00     0.172 C 
ENDROOT
BRANCH   1  11
HETATM   11  C2  UNL     1      41.495  -6.256  17.536  1.00  0.00     0.082 C 
HETATM   12  C1  UNL     1      41.408  -7.317  16.448  1.00  0.00     0.032 C 
BRANCH  11  13
HETATM   13  C3  UNL     1      40.110  -5.667  17.679  1.00  0.00     0.025 C 
BRANCH  13  14
HETATM   14  C4  UNL     1      39.505  -6.215  18.950  1.00  0.00     0.006 C 
BRANCH  14  15
HETATM   15  C5  UNL     1      38.862  -5.118  19.777  1.00  0.00    -0.014 C 
HETATM   16  C6  UNL     1      39.940  -4.266  20.405  1.00  0.00     0.004 C 
HETATM   17  C7  UNL     1      39.172  -3.018  20.794  1.00  0.00     0.000 C 
HETATM   18  C8  UNL     1      38.147  -2.852  19.707  1.00  0.00     0.000 C 
HETATM   19  C9  UNL     1      38.133  -4.125  18.900  1.00  0.00     0.004 C 
ENDBRANCH  14  15
ENDBRANCH  13  14
ENDBRANCH  11  13
ENDBRANCH   1  11
BRANCH   8  20
HETATM   20  C13 UNL     1      44.511  -8.228  24.319  1.00  0.00     0.154 C 
BRANCH  20  21
HETATM   21  C14 UNL     1      43.158  -8.804  24.611  1.00  0.00     0.253 C 
BRANCH  21  22
HETATM   22  N4  UNL     1      42.154  -7.793  24.839  1.00  0.00    -0.069 N 
ATOM     23  H42 UNL     1      41.949  -7.670  25.830  1.00  0.00     0.277 HD
ATOM     24  H41 UNL     1      42.502  -6.854  24.646  1.00  0.00     0.277 HD
BRANCH  22  25
HETATM   25  C15 UNL     1      40.989  -8.099  24.083  1.00  0.00     0.194 C 
HETATM   26  C16 UNL     1      40.262  -6.899  23.518  1.00  0.00     0.017 C 
HETATM   27  C17 UNL     1      39.789  -6.240  24.795  1.00  0.00     0.011 C 
HETATM   28  C21 UNL     1      39.049  -7.569  22.903  1.00  0.00     0.011 C 
HETATM   29  C18 UNL     1      39.311  -7.450  25.593  1.00  0.00    -0.007 C 
HETATM   30  C19 UNL     1      37.931  -7.887  25.083  1.00  0.00     0.010 C 
HETATM   31  C22 UNL     1      39.862  -8.667  24.914  1.00  0.00     0.025 C 
HETATM   32  C20 UNL     1      38.699  -8.595  23.958  1.00  0.00    -0.007 C 
ENDBRANCH  22  25
ENDBRANCH  21  22
ENDBRANCH  20  21
ENDBRANCH   8  20
TORSDOF 8
ENDMDL
MODEL 4
REMARK VINA RESULT: -7.528208893      3.296      4.707
REMARK  8 active torsions:
REMARK  status: ('A' for Active; 'I' for Inactive)
REMARK    1  A    between atoms: C2_2  and  C3_3 
REMARK    2  A    between atoms: C2_2  and  N1_10 
REMARK    3  A    between atoms: C3_3  and  C4_4 
REMARK    4  A    between atoms: C4_4  and  C5_5 
REMARK       I    between atoms: N1_10  and  C10_12 
REMARK       I    between atoms: C10_12  and  N2_14 
REMARK    5  A    between atoms: N3_17  and  C13_18 
REMARK    6  A    between atoms: C13_18  and  C14_19 
REMARK    7  A    between atoms: C14_19  and  N4_20 
REMARK    8  A    between atoms: N4_20  and  C15_23 
ROOT
HETATM    1  N1  UNL     1      41.129  -5.576  20.212  1.00  0.00    -0.339 N 
ATOM      2  H1  UNL     1      41.851  -4.911  19.934  1.00  0.00     0.164 HD
HETATM    3  C10 UNL     1      41.497  -6.722  20.962  1.00  0.00     0.319 C 
HETATM    4  O1  UNL     1      40.554  -7.510  21.271  1.00  0.00    -0.247 OA
HETATM    5  N2  UNL     1      42.814  -7.023  21.371  1.00  0.00    -0.325 N 
HETATM    6  C11 UNL     1      43.047  -8.231  22.129  1.00  0.00     0.172 C 
HETATM    7  C12 UNL     1      44.475  -8.508  22.397  1.00  0.00     0.083 C 
HETATM    8  N3  UNL     1      45.389  -7.443  22.402  1.00  0.00    -0.369 N 
HETATM    9  C23 UNL     1      44.883  -6.156  22.175  1.00  0.00     0.083 C 
HETATM   10  C24 UNL     1      43.886  -6.113  21.028  1.00  0.00     0.172 C 
ENDROOT
BRANCH   1  11
HETATM   11  C2  UNL     1      39.751  -5.326  19.831  1.00  0.00     0.082 C 
HETATM   12  C1  UNL     1      39.433  -3.839  19.910  1.00  0.00     0.032 C 
BRANCH  11  13
HETATM   13  C3  UNL     1      39.450  -5.758  18.413  1.00  0.00     0.025 C 
BRANCH  13  14
HETATM   14  C4  UNL     1      40.748  -5.744  17.641  1.00  0.00     0.006 C 
BRANCH  14  15
HETATM   15  C5  UNL     1      41.132  -7.134  17.174  1.00  0.00    -0.014 C 
HETATM   16  C6  UNL     1      40.061  -8.117  17.590  1.00  0.00     0.004 C 
HETATM   17  C7  UNL     1      40.357  -9.306  16.697  1.00  0.00     0.000 C 
HETATM   18  C8  UNL     1      40.838  -8.699  15.409  1.00  0.00     0.000 C 
HETATM   19  C9  UNL     1      41.097  -7.237  15.666  1.00  0.00     0.004 C 
ENDBRANCH  14  15
ENDBRANCH  13  14
ENDBRANCH  11  13
ENDBRANCH   1  11
BRANCH   8  20
HETATM   20  C13 UNL     1      46.709  -7.752  21.996  1.00  0.00     0.154 C 
BRANCH  20  21
HETATM   21  C14 UNL     1      46.897  -9.053  21.275  1.00  0.00     0.253 C 
BRANCH  21  22
HETATM   22  N4  UNL     1      47.859  -8.968  20.203  1.00  0.00    -0.069 N 
ATOM     23  H42 UNL     1      47.414  -8.825  19.297  1.00  0.00     0.277 HD
ATOM     24  H41 UNL     1      48.399  -8.103  20.238  1.00  0.00     0.277 HD
BRANCH  22  25
HETATM   25  C15 UNL     1      48.692 -10.120  20.218  1.00  0.00     0.194 C 
HETATM   26  C16 UNL     1      49.756 -10.152  19.142  1.00  0.00     0.017 C 
HETATM   27  C17 UNL     1      48.890 -10.259  17.906  1.00  0.00     0.011 C 
HETATM   28  C21 UNL     1      50.348 -11.528  19.375  1.00  0.00     0.011 C 
HETATM   29  C18 UNL     1      47.853 -11.283  18.358  1.00  0.00    -0.007 C 
HETATM   30  C19 UNL     1      48.460 -12.692  18.286  1.00  0.00     0.010 C 
HETATM   31  C22 UNL     1      47.967 -11.394  19.848  1.00  0.00     0.025 C 
HETATM   32  C20 UNL     1      49.108 -12.354  19.636  1.00  0.00    -0.007 C 
ENDBRANCH  22  25
ENDBRANCH  21  22
ENDBRANCH  20  21
ENDBRANCH   8  20
TORSDOF 8
ENDMDL
MODEL 5
REMARK VINA RESULT: -7.464236854      1.938      5.114
REMARK  8 active torsions:
REMARK  status: ('A' for Active; 'I' for Inactive)
REMARK    1  A    between atoms: C2_2  and  C3_3 
REMARK    2  A    between atoms: C2_2  and  N1_10 
REMARK    3  A    between atoms: C3_3  and  C4_4 
REMARK    4  A    between atoms: C4_4  and  C5_5 
REMARK       I    between atoms: N1_10  and  C10_12 
REMARK       I    between atoms: C10_12  and  N2_14 
REMARK    5  A    between atoms: N3_17  and  C13_18 
REMARK    6  A    between atoms: C13_18  and  C14_19 
REMARK    7  A    between atoms: C14_19  and  N4_20 
REMARK    8  A    between atoms: N4_20  and  C15_23 
ROOT
HETATM    1  N1  UNL     1      41.522  -6.520  19.151  1.00  0.00    -0.339 N 
ATOM      2  H1  UNL     1      41.004  -7.326  19.502  1.00  0.00     0.164 HD
HETATM    3  C10 UNL     1      42.676  -6.083  19.848  1.00  0.00     0.319 C 
HETATM    4  O1  UNL     1      43.270  -5.074  19.362  1.00  0.00    -0.247 OA
HETATM    5  N2  UNL     1      43.184  -6.691  21.017  1.00  0.00    -0.325 N 
HETATM    6  C11 UNL     1      44.370  -6.136  21.628  1.00  0.00     0.172 C 
HETATM    7  C12 UNL     1      44.741  -6.774  22.910  1.00  0.00     0.083 C 
HETATM    8  N3  UNL     1      44.321  -8.088  23.167  1.00  0.00    -0.369 N 
HETATM    9  C23 UNL     1      43.586  -8.738  22.167  1.00  0.00     0.083 C 
HETATM   10  C24 UNL     1      42.511  -7.851  21.560  1.00  0.00     0.172 C 
ENDROOT
BRANCH   1  11
HETATM   11  C2  UNL     1      41.058  -5.850  17.949  1.00  0.00     0.082 C 
HETATM   12  C1  UNL     1      41.487  -6.618  16.706  1.00  0.00     0.032 C 
BRANCH  11  13
HETATM   13  C3  UNL     1      39.552  -5.735  17.889  1.00  0.00     0.025 C 
BRANCH  13  14
HETATM   14  C4  UNL     1      39.064  -5.341  19.263  1.00  0.00     0.006 C 
BRANCH  14  15
HETATM   15  C5  UNL     1      39.146  -3.842  19.473  1.00  0.00    -0.014 C 
HETATM   16  C6  UNL     1      37.757  -3.249  19.397  1.00  0.00     0.004 C 
HETATM   17  C7  UNL     1      37.955  -1.894  20.049  1.00  0.00     0.000 C 
HETATM   18  C8  UNL     1      38.979  -2.138  21.122  1.00  0.00     0.000 C 
HETATM   19  C9  UNL     1      39.564  -3.507  20.886  1.00  0.00     0.004 C 
ENDBRANCH  14  15
ENDBRANCH  13  14
ENDBRANCH  11  13
ENDBRANCH   1  11
BRANCH   8  20
HETATM   20  C13 UNL     1      44.088  -8.414  24.524  1.00  0.00     0.154 C 
BRANCH  20  21
HETATM   21  C14 UNL     1      43.131  -7.531  25.267  1.00  0.00     0.253 C 
BRANCH  21  22
HETATM   22  N4  UNL     1      41.976  -8.243  25.758  1.00  0.00    -0.069 N 
ATOM     23  H42 UNL     1      42.215  -9.173  26.102  1.00  0.00     0.277 HD
ATOM     24  H41 UNL     1      41.625  -7.852  26.632  1.00  0.00     0.277 HD
BRANCH  22  25
HETATM   25  C15 UNL     1      40.976  -8.284  24.749  1.00  0.00     0.194 C 
HETATM   26  C16 UNL     1      40.270  -6.970  24.497  1.00  0.00     0.017 C 
HETATM   27  C17 UNL     1      39.548  -6.792  25.815  1.00  0.00     0.011 C 
HETATM   28  C21 UNL     1      39.225  -7.402  23.487  1.00  0.00     0.011 C 
HETATM   29  C18 UNL     1      39.031  -8.206  26.063  1.00  0.00    -0.007 C 
HETATM   30  C19 UNL     1      37.787  -8.455  25.198  1.00  0.00     0.010 C 
HETATM   31  C22 UNL     1      39.769  -9.113  25.127  1.00  0.00     0.025 C 
HETATM   32  C20 UNL     1      38.778  -8.729  24.058  1.00  0.00    -0.007 C 
ENDBRANCH  22  25
ENDBRANCH  21  22
ENDBRANCH  20  21
ENDBRANCH   8  20
TORSDOF 8
ENDMDL
