MODEL 1
REMARK VINA RESULT: -8.303978713      0.000      0.000
REMARK  8 active torsions:
REMARK  status: ('A' for Active; 'I' for Inactive)
REMARK    1  A    between atoms: C2_2  and  C3_3 
REMARK    2  A    between atoms: C3_3  and  C4_4 
REMARK    3  A    between atoms: C4_4  and  C5_5 
REMARK    4  A    between atoms: C5_5  and  C6_6 
REMARK    5  A    between atoms: C8_8  and  C9_9 
REMARK       I    between atoms: C9_9  and  N1_11 
REMARK    6  A    between atoms: N1_11  and  C10_13 
REMARK    7  A    between atoms: C16_20  and  C17_21 
REMARK       I    between atoms: C17_21  and  N3_23 
REMARK    8  A    between atoms: N3_23  and  C18_25 
ROOT
HETATM    1  C6  UNL     1      38.480  -4.518  19.495  1.00  0.00     0.009 C 
HETATM    2  C7  UNL     1      38.900  -5.012  20.807  1.00  0.00    -0.009 C 
HETATM    3  C8  UNL     1      39.302  -6.236  21.030  1.00  0.00     0.019 C 
HETATM    4  C16 UNL     1      39.379  -7.244  19.970  1.00  0.00     0.116 C 
HETATM    5  C23 UNL     1      38.754  -6.782  18.671  1.00  0.00     0.020 C 
HETATM    6  C24 UNL     1      39.098  -5.325  18.404  1.00  0.00     0.009 C 
ENDROOT
BRANCH   3   7
HETATM    7  C9  UNL     1      39.702  -6.645  22.370  1.00  0.00     0.248 C 
HETATM    8  O1  UNL     1      40.937  -6.612  22.720  1.00  0.00    -0.268 OA
HETATM    9  N1  UNL     1      38.796  -7.096  23.358  1.00  0.00    -0.352 N 
ATOM     10  H1  UNL     1      37.799  -7.149  23.150  1.00  0.00     0.163 HD
BRANCH   9  11
HETATM   11  C10 UNL     1      39.285  -7.485  24.668  1.00  0.00     0.087 C 
HETATM   12  C11 UNL     1      38.296  -7.051  25.717  1.00  0.00     0.044 C 
HETATM   13  C12 UNL     1      37.407  -8.138  26.202  1.00  0.00     0.118 C 
HETATM   14  N2  UNL     1      37.108  -9.153  25.263  1.00  0.00    -0.416 N 
HETATM   15  C13 UNL     1      36.042 -10.025  25.607  1.00  0.00     0.143 C 
HETATM   16  C14 UNL     1      38.199  -9.722  24.566  1.00  0.00     0.118 C 
HETATM   17  C15 UNL     1      39.500  -8.981  24.746  1.00  0.00     0.044 C 
ENDBRANCH   9  11
ENDBRANCH   3   7
BRANCH   4  18
HETATM   18  C17 UNL     1      40.771  -7.662  19.702  1.00  0.00     0.226 C 
HETATM   19  O2  UNL     1      40.997  -8.762  19.163  1.00  0.00    -0.273 OA
HETATM   20  N3  UNL     1      41.847  -6.821  20.055  1.00  0.00    -0.356 N 
ATOM     21  H3  UNL     1      41.640  -5.925  20.496  1.00  0.00     0.162 HD
BRANCH  20  22
HETATM   22  C18 UNL     1      43.238  -7.173  19.819  1.00  0.00     0.084 C 
HETATM   23  C19 UNL     1      43.721  -7.971  20.996  1.00  0.00     0.025 C 
HETATM   24  C20 UNL     1      44.580  -7.061  21.840  1.00  0.00     0.002 C 
HETATM   25  C21 UNL     1      44.182  -5.677  21.374  1.00  0.00     0.002 C 
HETATM   26  C22 UNL     1      44.011  -5.858  19.883  1.00  0.00     0.025 C 
ENDBRANCH  20  22
ENDBRANCH   4  18
BRANCH   1  27
HETATM   27  C5  UNL     1      38.809  -3.041  19.351  1.00  0.00     0.008 C 
BRANCH  27  28
HETATM   28  C4  UNL     1      37.669  -2.232  19.895  1.00  0.00     0.001 C 
BRANCH  28  29
HETATM   29  C3  UNL     1      38.143  -1.109  20.793  1.00  0.00    -0.000 C 
BRANCH  29  30
HETATM   30  C2  UNL     1      39.562  -1.290  21.252  1.00  0.00    -0.005 C 
HETATM   31  C1  UNL     1      39.543  -1.822  22.670  1.00  0.00     0.005 C 
ENDBRANCH  29  30
ENDBRANCH  28  29
ENDBRANCH  27  28
ENDBRANCH   1  27
TORSDOF 8
ENDMDL
MODEL 2
REMARK VINA RESULT: -7.963323404      1.383      1.845
REMARK  8 active torsions:
REMARK  status: ('A' for Active; 'I' for Inactive)
REMARK    1  A    between atoms: C2_2  and  C3_3 
REMARK    2  A    between atoms: C3_3  and  C4_4 
REMARK    3  A    between atoms: C4_4  and  C5_5 
REMARK    4  A    between atoms: C5_5  and  C6_6 
REMARK    5  A    between atoms: C8_8  and  C9_9 
REMARK       I    between atoms: C9_9  and  N1_11 
REMARK    6  A    between atoms: N1_11  and  C10_13 
REMARK    7  A    between atoms: C16_20  and  C17_21 
REMARK       I    between atoms: C17_21  and  N3_23 
REMARK    8  A    between atoms: N3_23  and  C18_25 
ROOT
HETATM    1  C6  UNL     1      38.453  -4.996  19.208  1.00  0.00     0.009 C 
HETATM    2  C7  UNL     1      38.831  -5.424  20.556  1.00  0.00    -0.009 C 
HETATM    3  C8  UNL     1      39.300  -6.610  20.841  1.00  0.00     0.019 C 
HETATM    4  C16 UNL     1      39.501  -7.641  19.819  1.00  0.00     0.116 C 
HETATM    5  C23 UNL     1      38.920  -7.260  18.475  1.00  0.00     0.020 C 
HETATM    6  C24 UNL     1      39.182  -5.792  18.179  1.00  0.00     0.009 C 
ENDROOT
BRANCH   3   7
HETATM    7  C9  UNL     1      39.650  -6.953  22.212  1.00  0.00     0.248 C 
HETATM    8  O1  UNL     1      40.256  -6.104  22.962  1.00  0.00    -0.268 OA
HETATM    9  N1  UNL     1      39.363  -8.204  22.809  1.00  0.00    -0.352 N 
ATOM     10  H1  UNL     1      38.884  -8.926  22.273  1.00  0.00     0.163 HD
BRANCH   9  11
HETATM   11  C10 UNL     1      39.752  -8.457  24.184  1.00  0.00     0.087 C 
HETATM   12  C11 UNL     1      38.910  -9.576  24.740  1.00  0.00     0.044 C 
HETATM   13  C12 UNL     1      39.590 -10.897  24.758  1.00  0.00     0.118 C 
HETATM   14  N2  UNL     1      40.543 -11.112  23.734  1.00  0.00    -0.416 N 
HETATM   15  C13 UNL     1      40.978 -12.452  23.560  1.00  0.00     0.143 C 
HETATM   16  C14 UNL     1      41.508 -10.097  23.535  1.00  0.00     0.118 C 
HETATM   17  C15 UNL     1      41.219  -8.817  24.278  1.00  0.00     0.044 C 
ENDBRANCH   9  11
ENDBRANCH   3   7
BRANCH   4  18
HETATM   18  C17 UNL     1      40.930  -7.973  19.640  1.00  0.00     0.226 C 
HETATM   19  O2  UNL     1      41.266  -8.859  18.832  1.00  0.00    -0.273 OA
HETATM   20  N3  UNL     1      41.917  -7.291  20.382  1.00  0.00    -0.356 N 
ATOM     21  H3  UNL     1      41.620  -6.569  21.039  1.00  0.00     0.162 HD
BRANCH  20  22
HETATM   22  C18 UNL     1      43.339  -7.569  20.253  1.00  0.00     0.084 C 
HETATM   23  C19 UNL     1      43.836  -8.068  21.579  1.00  0.00     0.025 C 
HETATM   24  C20 UNL     1      44.592  -6.938  22.234  1.00  0.00     0.002 C 
HETATM   25  C21 UNL     1      44.109  -5.715  21.484  1.00  0.00     0.002 C 
HETATM   26  C22 UNL     1      44.008  -6.210  20.060  1.00  0.00     0.025 C 
ENDBRANCH  20  22
ENDBRANCH   4  18
BRANCH   1  27
HETATM   27  C5  UNL     1      38.692  -3.506  19.034  1.00  0.00     0.008 C 
BRANCH  27  28
HETATM   28  C4  UNL     1      37.607  -2.752  19.742  1.00  0.00     0.001 C 
BRANCH  28  29
HETATM   29  C3  UNL     1      38.145  -1.566  20.516  1.00  0.00    -0.000 C 
BRANCH  29  30
HETATM   30  C2  UNL     1      39.541  -1.789  21.026  1.00  0.00    -0.005 C 
HETATM   31  C1  UNL     1      39.460  -2.219  22.475  1.00  0.00     0.005 C 
ENDBRANCH  29  30
ENDBRANCH  28  29
ENDBRANCH  27  28
ENDBRANCH   1  27
TORSDOF 8
ENDMDL
MODEL 3
REMARK VINA RESULT: -7.910740818      1.274      1.655
REMARK  8 active torsions:
REMARK  status: ('A' for Active; 'I' for Inactive)
REMARK    1  A    between atoms: C2_2  and  C3_3 
REMARK    2  A    between atoms: C3_3  and  C4_4 
REMARK    3  A    between atoms: C4_4  and  C5_5 
REMARK    4  A    between atoms: C5_5  and  C6_6 
REMARK    5  A    between atoms: C8_8  and  C9_9 
REMARK       I    between atoms: C9_9  and  N1_11 
REMARK    6  A    between atoms: N1_11  and  C10_13 
REMARK    7  A    between atoms: C16_20  and  C17_21 
REMARK       I    between atoms: C17_21  and  N3_23 
REMARK    8  A    between atoms: N3_23  and  C18_25 
ROOT
HETATM    1  C6  UNL     1      38.538  -5.316  19.266  1.00  0.00     0.009 C 
HETATM    2  C7  UNL     1      38.914  -6.100  20.444  1.00  0.00    -0.009 C 
HETATM    3  C8  UNL     1      39.593  -7.215  20.391  1.00  0.00     0.019 C 
HETATM    4  C16 UNL     1      40.057  -7.794  19.127  1.00  0.00     0.116 C 
HETATM    5  C23 UNL     1      39.492  -7.088  17.914  1.00  0.00     0.020 C 
HETATM    6  C24 UNL     1      39.471  -5.584  18.135  1.00  0.00     0.009 C 
ENDROOT
BRANCH   3   7
HETATM    7  C9  UNL     1      39.924  -7.934  21.614  1.00  0.00     0.248 C 
HETATM    8  O1  UNL     1      40.437  -9.110  21.561  1.00  0.00    -0.268 OA
HETATM    9  N1  UNL     1      39.714  -7.414  22.913  1.00  0.00    -0.352 N 
ATOM     10  H1  UNL     1      39.310  -6.486  23.032  1.00  0.00     0.163 HD
BRANCH   9  11
HETATM   11  C10 UNL     1      40.073  -8.203  24.077  1.00  0.00     0.087 C 
HETATM   12  C11 UNL     1      40.532  -7.284  25.179  1.00  0.00     0.044 C 
HETATM   13  C12 UNL     1      39.501  -7.016  26.214  1.00  0.00     0.118 C 
HETATM   14  N2  UNL     1      38.159  -7.042  25.768  1.00  0.00    -0.416 N 
HETATM   15  C13 UNL     1      37.195  -6.504  26.661  1.00  0.00     0.143 C 
HETATM   16  C14 UNL     1      37.762  -8.160  24.997  1.00  0.00     0.118 C 
HETATM   17  C15 UNL     1      38.903  -9.038  24.551  1.00  0.00     0.044 C 
ENDBRANCH   9  11
ENDBRANCH   3   7
BRANCH   4  18
HETATM   18  C17 UNL     1      41.532  -7.798  19.027  1.00  0.00     0.226 C 
HETATM   19  O2  UNL     1      42.079  -8.004  17.928  1.00  0.00    -0.273 OA
HETATM   20  N3  UNL     1      42.323  -7.572  20.173  1.00  0.00    -0.356 N 
ATOM     21  H3  UNL     1      41.854  -7.407  21.063  1.00  0.00     0.162 HD
BRANCH  20  22
HETATM   22  C18 UNL     1      43.777  -7.564  20.143  1.00  0.00     0.084 C 
HETATM   23  C19 UNL     1      44.271  -8.080  21.464  1.00  0.00     0.025 C 
HETATM   24  C20 UNL     1      44.746  -6.892  22.265  1.00  0.00     0.002 C 
HETATM   25  C21 UNL     1      44.085  -5.719  21.573  1.00  0.00     0.002 C 
HETATM   26  C22 UNL     1      44.179  -6.092  20.112  1.00  0.00     0.025 C 
ENDBRANCH  20  22
ENDBRANCH   4  18
BRANCH   1  27
HETATM   27  C5  UNL     1      38.484  -3.835  19.606  1.00  0.00     0.008 C 
BRANCH  27  28
HETATM   28  C4  UNL     1      39.612  -3.507  20.537  1.00  0.00     0.001 C 
BRANCH  28  29
HETATM   29  C3  UNL     1      39.241  -2.420  21.524  1.00  0.00    -0.000 C 
BRANCH  29  30
HETATM   30  C2  UNL     1      39.070  -1.076  20.873  1.00  0.00    -0.005 C 
HETATM   31  C1  UNL     1      37.593  -0.741  20.847  1.00  0.00     0.005 C 
ENDBRANCH  29  30
ENDBRANCH  28  29
ENDBRANCH  27  28
ENDBRANCH   1  27
TORSDOF 8
ENDMDL
MODEL 4
REMARK VINA RESULT: -7.880390116      2.014      4.937
REMARK  8 active torsions:
REMARK  status: ('A' for Active; 'I' for Inactive)
REMARK    1  A    between atoms: C2_2  and  C3_3 
REMARK    2  A    between atoms: C3_3  and  C4_4 
REMARK    3  A    between atoms: C4_4  and  C5_5 
REMARK    4  A    between atoms: C5_5  and  C6_6 
REMARK    5  A    between atoms: C8_8  and  C9_9 
REMARK       I    between atoms: C9_9  and  N1_11 
REMARK    6  A    between atoms: N1_11  and  C10_13 
REMARK    7  A    between atoms: C16_20  and  C17_21 
REMARK       I    between atoms: C17_21  and  N3_23 
REMARK    8  A    between atoms: N3_23  and  C18_25 
ROOT
HETATM    1  C6  UNL     1      42.236  -7.059  17.755  1.00  0.00     0.009 C 
HETATM    2  C7  UNL     1      42.509  -7.633  19.074  1.00  0.00    -0.009 C 
HETATM    3  C8  UNL     1      42.589  -6.930  20.173  1.00  0.00     0.019 C 
HETATM    4  C16 UNL     1      42.406  -5.477  20.191  1.00  0.00     0.116 C 
HETATM    5  C23 UNL     1      42.328  -4.875  18.805  1.00  0.00     0.020 C 
HETATM    6  C24 UNL     1      41.508  -5.764  17.884  1.00  0.00     0.009 C 
ENDROOT
BRANCH   3   7
HETATM    7  C9  UNL     1      42.866  -7.583  21.445  1.00  0.00     0.248 C 
HETATM    8  O1  UNL     1      43.999  -7.423  22.027  1.00  0.00    -0.268 OA
HETATM    9  N1  UNL     1      41.942  -8.418  22.118  1.00  0.00    -0.352 N 
ATOM     10  H1  UNL     1      41.022  -8.590  21.714  1.00  0.00     0.163 HD
BRANCH   9  11
HETATM   11  C10 UNL     1      42.306  -9.029  23.383  1.00  0.00     0.087 C 
HETATM   12  C11 UNL     1      41.892  -8.120  24.511  1.00  0.00     0.044 C 
HETATM   13  C12 UNL     1      40.624  -8.515  25.177  1.00  0.00     0.118 C 
HETATM   14  N2  UNL     1      39.677  -9.171  24.356  1.00  0.00    -0.416 N 
HETATM   15  C13 UNL     1      38.366  -9.288  24.888  1.00  0.00     0.143 C 
HETATM   16  C14 UNL     1      40.148 -10.252  23.575  1.00  0.00     0.118 C 
HETATM   17  C15 UNL     1      41.649 -10.383  23.542  1.00  0.00     0.044 C 
ENDBRANCH   9  11
ENDBRANCH   3   7
BRANCH   4  18
HETATM   18  C17 UNL     1      41.199  -5.079  20.947  1.00  0.00     0.226 C 
HETATM   19  O2  UNL     1      40.795  -5.786  21.889  1.00  0.00    -0.273 OA
HETATM   20  N3  UNL     1      40.501  -3.902  20.605  1.00  0.00    -0.356 N 
ATOM     21  H3  UNL     1      40.849  -3.338  19.830  1.00  0.00     0.162 HD
BRANCH  20  22
HETATM   22  C18 UNL     1      39.309  -3.455  21.307  1.00  0.00     0.084 C 
HETATM   23  C19 UNL     1      38.425  -2.749  20.319  1.00  0.00     0.025 C 
HETATM   24  C20 UNL     1      38.561  -1.267  20.569  1.00  0.00     0.002 C 
HETATM   25  C21 UNL     1      39.846  -1.163  21.361  1.00  0.00     0.002 C 
HETATM   26  C22 UNL     1      39.781  -2.369  22.270  1.00  0.00     0.025 C 
ENDBRANCH  20  22
ENDBRANCH   4  18
BRANCH   1  27
HETATM   27  C5  UNL     1      41.471  -8.046  16.891  1.00  0.00     0.008 C 
BRANCH  27  28
HETATM   28  C4  UNL     1      40.032  -7.630  16.832  1.00  0.00     0.001 C 
BRANCH  28  29
HETATM   29  C3  UNL     1      39.135  -8.560  17.622  1.00  0.00    -0.000 C 
BRANCH  29  30
HETATM   30  C2  UNL     1      39.266  -8.374  19.107  1.00  0.00    -0.005 C 
HETATM   31  C1  UNL     1      38.670  -7.032  19.477  1.00  0.00     0.005 C 
ENDBRANCH  29  30
ENDBRANCH  28  29
ENDBRANCH  27  28
ENDBRANCH   1  27
TORSDOF 8
ENDMDL
MODEL 5
REMARK VINA RESULT: -7.863438845      2.120      5.069
REMARK  8 active torsions:
REMARK  status: ('A' for Active; 'I' for Inactive)
REMARK    1  A    between atoms: C2_2  and  C3_3 
REMARK    2  A    between atoms: C3_3  and  C4_4 
REMARK    3  A    between atoms: C4_4  and  C5_5 
REMARK    4  A    between atoms: C5_5  and  C6_6 
REMARK    5  A    between atoms: C8_8  and  C9_9 
REMARK       I    between atoms: C9_9  and  N1_11 
REMARK    6  A    between atoms: N1_11  and  C10_13 
REMARK    7  A    between atoms: C16_20  and  C17_21 
REMARK       I    between atoms: C17_21  and  N3_23 
REMARK    8  A    between atoms: N3_23  and  C18_25 
ROOT
HETATM    1  C6  UNL     1      40.700  -7.556  18.540  1.00  0.00     0.009 C 
HETATM    2  C7  UNL     1      41.029  -7.890  19.926  1.00  0.00    -0.009 C 
HETATM    3  C8  UNL     1      41.345  -7.004  20.835  1.00  0.00     0.019 C 
HETATM    4  C16 UNL     1      41.395  -5.569  20.549  1.00  0.00     0.116 C 
HETATM    5  C23 UNL     1      41.253  -5.256  19.075  1.00  0.00     0.020 C 
HETATM    6  C24 UNL     1      40.203  -6.153  18.439  1.00  0.00     0.009 C 
ENDROOT
BRANCH   3   7
HETATM    7  C9  UNL     1      41.660  -7.425  22.193  1.00  0.00     0.248 C 
HETATM    8  O1  UNL     1      42.857  -7.318  22.648  1.00  0.00    -0.268 OA
HETATM    9  N1  UNL     1      40.709  -7.967  23.090  1.00  0.00    -0.352 N 
ATOM     10  H1  UNL     1      39.739  -8.081  22.797  1.00  0.00     0.163 HD
BRANCH   9  11
HETATM   11  C10 UNL     1      41.115  -8.360  24.427  1.00  0.00     0.087 C 
HETATM   12  C11 UNL     1      40.506  -7.415  25.430  1.00  0.00     0.044 C 
HETATM   13  C12 UNL     1      39.295  -7.945  26.107  1.00  0.00     0.118 C 
HETATM   14  N2  UNL     1      38.508  -8.842  25.347  1.00  0.00    -0.416 N 
HETATM   15  C13 UNL     1      37.213  -9.122  25.858  1.00  0.00     0.143 C 
HETATM   16  C14 UNL     1      39.187  -9.907  24.710  1.00  0.00     0.118 C 
HETATM   17  C15 UNL     1      40.689  -9.780  24.729  1.00  0.00     0.044 C 
ENDBRANCH   9  11
ENDBRANCH   3   7
BRANCH   4  18
HETATM   18  C17 UNL     1      40.360  -4.819  21.292  1.00  0.00     0.226 C 
HETATM   19  O2  UNL     1      39.755  -5.363  22.234  1.00  0.00    -0.273 OA
HETATM   20  N3  UNL     1      40.055  -3.488  20.938  1.00  0.00    -0.356 N 
ATOM     21  H3  UNL     1      40.562  -3.062  20.163  1.00  0.00     0.162 HD
BRANCH  20  22
HETATM   22  C18 UNL     1      39.049  -2.695  21.628  1.00  0.00     0.084 C 
HETATM   23  C19 UNL     1      38.246  -1.961  20.592  1.00  0.00     0.025 C 
HETATM   24  C20 UNL     1      38.708  -0.524  20.595  1.00  0.00     0.002 C 
HETATM   25  C21 UNL     1      40.053  -0.593  21.286  1.00  0.00     0.002 C 
HETATM   26  C22 UNL     1      39.822  -1.612  22.377  1.00  0.00     0.025 C 
ENDBRANCH  20  22
ENDBRANCH   4  18
BRANCH   1  27
HETATM   27  C5  UNL     1      39.694  -8.546  17.976  1.00  0.00     0.008 C 
BRANCH  27  28
HETATM   28  C4  UNL     1      40.329  -9.292  16.841  1.00  0.00     0.001 C 
BRANCH  28  29
HETATM   29  C3  UNL     1      41.405  -8.479  16.153  1.00  0.00    -0.000 C 
BRANCH  29  30
HETATM   30  C2  UNL     1      40.853  -7.537  15.120  1.00  0.00    -0.005 C 
HETATM   31  C1  UNL     1      41.516  -6.187  15.299  1.00  0.00     0.005 C 
ENDBRANCH  29  30
ENDBRANCH  28  29
ENDBRANCH  27  28
ENDBRANCH   1  27
TORSDOF 8
ENDMDL
