MODEL 1
REMARK VINA RESULT: -9.139633128      0.000      0.000
REMARK  8 active torsions:
REMARK  status: ('A' for Active; 'I' for Inactive)
REMARK    1  A    between atoms: C1_2  and  C2_3 
REMARK    2  A    between atoms: C1_2  and  C10_14 
REMARK    3  A    between atoms: C2_3  and  C3_4 
REMARK    4  A    between atoms: C3_4  and  N1_5 
REMARK       I    between atoms: N1_5  and  C4_7 
REMARK    5  A    between atoms: C4_7  and  C5_9 
REMARK    6  A    between atoms: C10_14  and  N2_15 
REMARK       I    between atoms: N2_15  and  C11_16 
REMARK    7  A    between atoms: N2_15  and  C18_26 
REMARK       I    between atoms: C11_16  and  N3_18 
REMARK    8  A    between atoms: N3_18  and  C12_20 
ROOT
HETATM    1  N2  UNL     1      41.468  -7.915  19.331  1.00  0.00    -0.302 N 
HETATM    2  C11 UNL     1      42.506  -7.774  20.254  1.00  0.00     0.323 C 
HETATM    3  O3  UNL     1      42.275  -8.073  21.476  1.00  0.00    -0.247 OA
HETATM    4  N3  UNL     1      43.792  -7.317  19.874  1.00  0.00    -0.338 N 
ATOM      5  H3  UNL     1      43.978  -7.081  18.898  1.00  0.00     0.164 HD
ENDROOT
BRANCH   1   6
HETATM    6  C10 UNL     1      40.207  -8.411  19.807  1.00  0.00     0.146 C 
BRANCH   6   7
HETATM    7  C1  UNL     1      39.272  -7.477  20.395  1.00  0.00     0.166 C 
HETATM    8  O1  UNL     1      38.679  -6.723  19.605  1.00  0.00    -0.292 OA
BRANCH   7   9
HETATM    9  C2  UNL     1      38.951  -7.319  21.817  1.00  0.00     0.104 C 
BRANCH   9  10
HETATM   10  C3  UNL     1      39.771  -6.188  22.455  1.00  0.00     0.130 C 
BRANCH  10  11
HETATM   11  N1  UNL     1      39.330  -4.918  21.886  1.00  0.00    -0.360 N 
HETATM   12  C4  UNL     1      40.203  -4.154  21.092  1.00  0.00     0.221 C 
HETATM   13  O2  UNL     1      41.386  -4.580  20.874  1.00  0.00    -0.273 OA
ATOM     14  H1  UNL     1      38.384  -4.583  22.065  1.00  0.00     0.162 HD
BRANCH  12  15
HETATM   15  C5  UNL     1      39.752  -2.863  20.513  1.00  0.00     0.078 C 
HETATM   16  C6  UNL     1      39.336  -1.874  21.567  1.00  0.00     0.014 C 
HETATM   17  C7  UNL     1      38.364  -0.984  20.834  1.00  0.00     0.001 C 
HETATM   18  C8  UNL     1      37.545  -2.013  20.046  1.00  0.00     0.001 C 
HETATM   19  C9  UNL     1      38.607  -2.997  19.566  1.00  0.00     0.014 C 
ENDBRANCH  12  15
ENDBRANCH  10  11
ENDBRANCH   9  10
ENDBRANCH   7   9
ENDBRANCH   6   7
ENDBRANCH   1   6
BRANCH   1  20
HETATM   20  C18 UNL     1      41.642  -7.525  17.978  1.00  0.00     0.094 C 
HETATM   21  C19 UNL     1      41.268  -6.060  17.735  1.00  0.00     0.026 C 
HETATM   22  C20 UNL     1      41.450  -6.013  16.208  1.00  0.00     0.002 C 
HETATM   23  C21 UNL     1      41.068  -7.369  15.711  1.00  0.00     0.002 C 
HETATM   24  C22 UNL     1      40.734  -8.177  16.967  1.00  0.00     0.026 C 
ENDBRANCH   1  20
BRANCH   4  25
HETATM   25  C12 UNL     1      44.863  -7.182  20.879  1.00  0.00     0.086 C 
HETATM   26  C13 UNL     1      45.072  -8.517  21.556  1.00  0.00     0.025 C 
HETATM   27  C14 UNL     1      46.461  -8.468  22.202  1.00  0.00     0.002 C 
HETATM   28  C15 UNL     1      46.653  -7.089  22.754  1.00  0.00     0.000 C 
HETATM   29  C16 UNL     1      45.367  -6.403  23.122  1.00  0.00     0.002 C 
HETATM   30  C17 UNL     1      44.462  -6.189  21.946  1.00  0.00     0.025 C 
ENDBRANCH   4  25
TORSDOF 8
ENDMDL
MODEL 2
REMARK VINA RESULT: -8.935847213      1.990      5.999
REMARK  8 active torsions:
REMARK  status: ('A' for Active; 'I' for Inactive)
REMARK    1  A    between atoms: C1_2  and  C2_3 
REMARK    2  A    between atoms: C1_2  and  C10_14 
REMARK    3  A    between atoms: C2_3  and  C3_4 
REMARK    4  A    between atoms: C3_4  and  N1_5 
REMARK       I    between atoms: N1_5  and  C4_7 
REMARK    5  A    between atoms: C4_7  and  C5_9 
REMARK    6  A    between atoms: C10_14  and  N2_15 
REMARK       I    between atoms: N2_15  and  C11_16 
REMARK    7  A    between atoms: N2_15  and  C18_26 
REMARK       I    between atoms: C11_16  and  N3_18 
REMARK    8  A    between atoms: N3_18  and  C12_20 
ROOT
HETATM    1  N2  UNL     1      38.892  -5.462  20.122  1.00  0.00    -0.302 N 
HETATM    2  C11 UNL     1      39.057  -6.465  21.078  1.00  0.00     0.323 C 
HETATM    3  O3  UNL     1      39.203  -7.669  20.674  1.00  0.00    -0.247 OA
HETATM    4  N3  UNL     1      39.068  -6.184  22.466  1.00  0.00    -0.338 N 
ATOM      5  H3  UNL     1      38.953  -5.224  22.791  1.00  0.00     0.164 HD
ENDROOT
BRANCH   1   6
HETATM    6  C10 UNL     1      38.921  -5.840  18.737  1.00  0.00     0.146 C 
BRANCH   6   7
HETATM    7  C1  UNL     1      40.198  -6.139  18.126  1.00  0.00     0.166 C 
HETATM    8  O1  UNL     1      41.066  -5.253  18.205  1.00  0.00    -0.292 OA
BRANCH   7   9
HETATM    9  C2  UNL     1      40.577  -7.366  17.420  1.00  0.00     0.104 C 
BRANCH   9  10
HETATM   10  C3  UNL     1      41.845  -7.991  18.021  1.00  0.00     0.130 C 
BRANCH  10  11
HETATM   11  N1  UNL     1      41.712  -8.004  19.474  1.00  0.00    -0.360 N 
HETATM   12  C4  UNL     1      42.759  -7.538  20.288  1.00  0.00     0.221 C 
HETATM   13  O2  UNL     1      43.829  -7.103  19.744  1.00  0.00    -0.273 OA
ATOM     14  H1  UNL     1      40.855  -8.353  19.902  1.00  0.00     0.162 HD
BRANCH  12  15
HETATM   15  C5  UNL     1      42.620  -7.550  21.767  1.00  0.00     0.078 C 
HETATM   16  C6  UNL     1      43.895  -7.168  22.466  1.00  0.00     0.014 C 
HETATM   17  C7  UNL     1      43.763  -7.841  23.809  1.00  0.00     0.001 C 
HETATM   18  C8  UNL     1      43.213  -9.215  23.406  1.00  0.00     0.001 C 
HETATM   19  C9  UNL     1      42.201  -8.871  22.319  1.00  0.00     0.014 C 
ENDBRANCH  12  15
ENDBRANCH  10  11
ENDBRANCH   9  10
ENDBRANCH   7   9
ENDBRANCH   6   7
ENDBRANCH   1   6
BRANCH   1  20
HETATM   20  C18 UNL     1      38.647  -4.119  20.513  1.00  0.00     0.094 C 
HETATM   21  C19 UNL     1      37.965  -3.302  19.413  1.00  0.00     0.026 C 
HETATM   22  C20 UNL     1      37.963  -1.924  20.099  1.00  0.00     0.002 C 
HETATM   23  C21 UNL     1      39.206  -1.881  20.927  1.00  0.00     0.002 C 
HETATM   24  C22 UNL     1      39.859  -3.252  20.742  1.00  0.00     0.026 C 
ENDBRANCH   1  20
BRANCH   4  25
HETATM   25  C12 UNL     1      39.245  -7.273  23.447  1.00  0.00     0.086 C 
HETATM   26  C13 UNL     1      37.900  -7.616  24.046  1.00  0.00     0.025 C 
HETATM   27  C14 UNL     1      38.036  -9.016  24.655  1.00  0.00     0.002 C 
HETATM   28  C15 UNL     1      39.398  -9.108  25.273  1.00  0.00     0.000 C 
HETATM   29  C16 UNL     1      39.950  -7.781  25.713  1.00  0.00     0.002 C 
HETATM   30  C17 UNL     1      40.144  -6.824  24.576  1.00  0.00     0.025 C 
ENDBRANCH   4  25
TORSDOF 8
ENDMDL
MODEL 3
REMARK VINA RESULT: -8.854969734      2.063      6.010
REMARK  8 active torsions:
REMARK  status: ('A' for Active; 'I' for Inactive)
REMARK    1  A    between atoms: C1_2  and  C2_3 
REMARK    2  A    between atoms: C1_2  and  C10_14 
REMARK    3  A    between atoms: C2_3  and  C3_4 
REMARK    4  A    between atoms: C3_4  and  N1_5 
REMARK       I    between atoms: N1_5  and  C4_7 
REMARK    5  A    between atoms: C4_7  and  C5_9 
REMARK    6  A    between atoms: C10_14  and  N2_15 
REMARK       I    between atoms: N2_15  and  C11_16 
REMARK    7  A    between atoms: N2_15  and  C18_26 
REMARK       I    between atoms: C11_16  and  N3_18 
REMARK    8  A    between atoms: N3_18  and  C12_20 
ROOT
HETATM    1  N2  UNL     1      40.485  -5.194  21.489  1.00  0.00    -0.302 N 
HETATM    2  C11 UNL     1      40.351  -6.226  22.418  1.00  0.00     0.323 C 
HETATM    3  O3  UNL     1      41.411  -6.701  22.954  1.00  0.00    -0.247 OA
HETATM    4  N3  UNL     1      39.086  -6.751  22.780  1.00  0.00    -0.338 N 
ATOM      5  H3  UNL     1      38.239  -6.372  22.355  1.00  0.00     0.164 HD
ENDROOT
BRANCH   1   6
HETATM    6  C10 UNL     1      41.808  -4.709  21.207  1.00  0.00     0.146 C 
BRANCH   6   7
HETATM    7  C1  UNL     1      42.598  -5.392  20.207  1.00  0.00     0.166 C 
HETATM    8  O1  UNL     1      42.386  -5.072  19.025  1.00  0.00    -0.292 OA
BRANCH   7   9
HETATM    9  C2  UNL     1      43.616  -6.423  20.433  1.00  0.00     0.104 C 
BRANCH   9  10
HETATM   10  C3  UNL     1      43.046  -7.833  20.213  1.00  0.00     0.130 C 
BRANCH  10  11
HETATM   11  N1  UNL     1      42.369  -7.864  18.921  1.00  0.00    -0.360 N 
HETATM   12  C4  UNL     1      41.028  -8.275  18.830  1.00  0.00     0.221 C 
HETATM   13  O2  UNL     1      40.407  -8.623  19.889  1.00  0.00    -0.273 OA
ATOM     14  H1  UNL     1      42.872  -7.585  18.078  1.00  0.00     0.162 HD
BRANCH  12  15
HETATM   15  C5  UNL     1      40.341  -8.304  17.514  1.00  0.00     0.078 C 
HETATM   16  C6  UNL     1      40.718  -9.508  16.695  1.00  0.00     0.014 C 
HETATM   17  C7  UNL     1      40.482  -9.045  15.280  1.00  0.00     0.001 C 
HETATM   18  C8  UNL     1      41.078  -7.633  15.319  1.00  0.00     0.001 C 
HETATM   19  C9  UNL     1      40.609  -7.103  16.670  1.00  0.00     0.014 C 
ENDBRANCH  12  15
ENDBRANCH  10  11
ENDBRANCH   9  10
ENDBRANCH   7   9
ENDBRANCH   6   7
ENDBRANCH   1   6
BRANCH   1  20
HETATM   20  C18 UNL     1      39.352  -4.681  20.805  1.00  0.00     0.094 C 
HETATM   21  C19 UNL     1      39.217  -5.245  19.387  1.00  0.00     0.026 C 
HETATM   22  C20 UNL     1      38.009  -4.418  18.912  1.00  0.00     0.002 C 
HETATM   23  C21 UNL     1      38.132  -3.092  19.589  1.00  0.00     0.002 C 
HETATM   24  C22 UNL     1      39.370  -3.210  20.479  1.00  0.00     0.026 C 
ENDBRANCH   1  20
BRANCH   4  25
HETATM   25  C12 UNL     1      38.985  -7.843  23.767  1.00  0.00     0.086 C 
HETATM   26  C13 UNL     1      39.324  -9.150  23.089  1.00  0.00     0.025 C 
HETATM   27  C14 UNL     1      39.682 -10.141  24.201  1.00  0.00     0.002 C 
HETATM   28  C15 UNL     1      38.755  -9.885  25.349  1.00  0.00     0.000 C 
HETATM   29  C16 UNL     1      37.434  -9.299  24.936  1.00  0.00     0.002 C 
HETATM   30  C17 UNL     1      37.570  -7.954  24.286  1.00  0.00     0.025 C 
ENDBRANCH   4  25
TORSDOF 8
ENDMDL
MODEL 4
REMARK VINA RESULT: -8.784953183      1.435      4.655
REMARK  8 active torsions:
REMARK  status: ('A' for Active; 'I' for Inactive)
REMARK    1  A    between atoms: C1_2  and  C2_3 
REMARK    2  A    between atoms: C1_2  and  C10_14 
REMARK    3  A    between atoms: C2_3  and  C3_4 
REMARK    4  A    between atoms: C3_4  and  N1_5 
REMARK       I    between atoms: N1_5  and  C4_7 
REMARK    5  A    between atoms: C4_7  and  C5_9 
REMARK    6  A    between atoms: C10_14  and  N2_15 
REMARK       I    between atoms: N2_15  and  C11_16 
REMARK    7  A    between atoms: N2_15  and  C18_26 
REMARK       I    between atoms: C11_16  and  N3_18 
REMARK    8  A    between atoms: N3_18  and  C12_20 
ROOT
HETATM    1  N2  UNL     1      42.189  -8.090  21.354  1.00  0.00    -0.302 N 
HETATM    2  C11 UNL     1      41.605  -8.044  20.088  1.00  0.00     0.323 C 
HETATM    3  O3  UNL     1      40.607  -8.808  19.852  1.00  0.00    -0.247 OA
HETATM    4  N3  UNL     1      42.084  -7.181  19.071  1.00  0.00    -0.338 N 
ATOM      5  H3  UNL     1      42.880  -6.570  19.258  1.00  0.00     0.164 HD
ENDROOT
BRANCH   1   6
HETATM    6  C10 UNL     1      41.617  -8.978  22.328  1.00  0.00     0.146 C 
BRANCH   6   7
HETATM    7  C1  UNL     1      40.423  -8.561  23.030  1.00  0.00     0.166 C 
HETATM    8  O1  UNL     1      39.719  -9.469  23.503  1.00  0.00    -0.292 OA
BRANCH   7   9
HETATM    9  C2  UNL     1      39.951  -7.189  23.239  1.00  0.00     0.104 C 
BRANCH   9  10
HETATM   10  C3  UNL     1      38.923  -6.781  22.173  1.00  0.00     0.130 C 
BRANCH  10  11
HETATM   11  N1  UNL     1      39.136  -5.376  21.837  1.00  0.00    -0.360 N 
HETATM   12  C4  UNL     1      38.999  -4.935  20.510  1.00  0.00     0.221 C 
HETATM   13  O2  UNL     1      38.689  -5.774  19.599  1.00  0.00    -0.273 OA
ATOM     14  H1  UNL     1      39.385  -4.712  22.569  1.00  0.00     0.162 HD
BRANCH  12  15
HETATM   15  C5  UNL     1      39.214  -3.505  20.170  1.00  0.00     0.078 C 
HETATM   16  C6  UNL     1      39.513  -2.665  21.382  1.00  0.00     0.014 C 
HETATM   17  C7  UNL     1      39.060  -1.290  20.963  1.00  0.00     0.001 C 
HETATM   18  C8  UNL     1      37.732  -1.606  20.265  1.00  0.00     0.001 C 
HETATM   19  C9  UNL     1      38.055  -2.871  19.477  1.00  0.00     0.014 C 
ENDBRANCH  12  15
ENDBRANCH  10  11
ENDBRANCH   9  10
ENDBRANCH   7   9
ENDBRANCH   6   7
ENDBRANCH   1   6
BRANCH   1  20
HETATM   20  C18 UNL     1      43.348  -7.324  21.648  1.00  0.00     0.094 C 
HETATM   21  C19 UNL     1      44.629  -7.963  21.105  1.00  0.00     0.026 C 
HETATM   22  C20 UNL     1      45.657  -6.976  21.686  1.00  0.00     0.002 C 
HETATM   23  C21 UNL     1      45.092  -6.522  22.992  1.00  0.00     0.002 C 
HETATM   24  C22 UNL     1      43.730  -7.212  23.101  1.00  0.00     0.026 C 
ENDBRANCH   1  20
BRANCH   4  25
HETATM   25  C12 UNL     1      41.439  -7.161  17.744  1.00  0.00     0.086 C 
HETATM   26  C13 UNL     1      42.020  -8.272  16.900  1.00  0.00     0.025 C 
HETATM   27  C14 UNL     1      41.023  -8.527  15.764  1.00  0.00     0.002 C 
HETATM   28  C15 UNL     1      40.480  -7.198  15.334  1.00  0.00     0.000 C 
HETATM   29  C16 UNL     1      41.423  -6.054  15.583  1.00  0.00     0.002 C 
HETATM   30  C17 UNL     1      41.728  -5.855  17.038  1.00  0.00     0.025 C 
ENDBRANCH   4  25
TORSDOF 8
ENDMDL
MODEL 5
REMARK VINA RESULT: -8.761505801      1.654      4.777
REMARK  8 active torsions:
REMARK  status: ('A' for Active; 'I' for Inactive)
REMARK    1  A    between atoms: C1_2  and  C2_3 
REMARK    2  A    between atoms: C1_2  and  C10_14 
REMARK    3  A    between atoms: C2_3  and  C3_4 
REMARK    4  A    between atoms: C3_4  and  N1_5 
REMARK       I    between atoms: N1_5  and  C4_7 
REMARK    5  A    between atoms: C4_7  and  C5_9 
REMARK    6  A    between atoms: C10_14  and  N2_15 
REMARK       I    between atoms: N2_15  and  C11_16 
REMARK    7  A    between atoms: N2_15  and  C18_26 
REMARK       I    between atoms: C11_16  and  N3_18 
REMARK    8  A    between atoms: N3_18  and  C12_20 
ROOT
HETATM    1  N2  UNL     1      41.926  -8.253  21.272  1.00  0.00    -0.302 N 
HETATM    2  C11 UNL     1      41.346  -8.179  20.005  1.00  0.00     0.323 C 
HETATM    3  O3  UNL     1      40.184  -8.686  19.840  1.00  0.00    -0.247 OA
HETATM    4  N3  UNL     1      42.005  -7.562  18.913  1.00  0.00    -0.338 N 
ATOM      5  H3  UNL     1      42.931  -7.155  19.044  1.00  0.00     0.164 HD
ENDROOT
BRANCH   1   6
HETATM    6  C10 UNL     1      41.170  -8.874  22.324  1.00  0.00     0.146 C 
BRANCH   6   7
HETATM    7  C1  UNL     1      40.286  -8.053  23.121  1.00  0.00     0.166 C 
HETATM    8  O1  UNL     1      39.070  -8.295  23.020  1.00  0.00    -0.292 OA
BRANCH   7   9
HETATM    9  C2  UNL     1      40.663  -6.965  24.029  1.00  0.00     0.104 C 
BRANCH   9  10
HETATM   10  C3  UNL     1      39.740  -5.749  23.863  1.00  0.00     0.130 C 
BRANCH  10  11
HETATM   11  N1  UNL     1      39.673  -5.407  22.446  1.00  0.00    -0.360 N 
HETATM   12  C4  UNL     1      39.663  -4.061  22.040  1.00  0.00     0.221 C 
HETATM   13  O2  UNL     1      39.711  -3.140  22.922  1.00  0.00    -0.273 OA
ATOM     14  H1  UNL     1      39.635  -6.148  21.746  1.00  0.00     0.162 HD
BRANCH  12  15
HETATM   15  C5  UNL     1      39.597  -3.715  20.597  1.00  0.00     0.078 C 
HETATM   16  C6  UNL     1      38.280  -3.100  20.213  1.00  0.00     0.014 C 
HETATM   17  C7  UNL     1      38.166  -3.426  18.746  1.00  0.00     0.001 C 
HETATM   18  C8  UNL     1      38.636  -4.886  18.722  1.00  0.00     0.001 C 
HETATM   19  C9  UNL     1      39.814  -4.879  19.689  1.00  0.00     0.014 C 
ENDBRANCH  12  15
ENDBRANCH  10  11
ENDBRANCH   9  10
ENDBRANCH   7   9
ENDBRANCH   6   7
ENDBRANCH   1   6
BRANCH   1  20
HETATM   20  C18 UNL     1      43.245  -7.777  21.496  1.00  0.00     0.094 C 
HETATM   21  C19 UNL     1      43.841  -8.296  22.808  1.00  0.00     0.026 C 
HETATM   22  C20 UNL     1      45.170  -7.520  22.794  1.00  0.00     0.002 C 
HETATM   23  C21 UNL     1      44.871  -6.214  22.132  1.00  0.00     0.002 C 
HETATM   24  C22 UNL     1      43.397  -6.297  21.731  1.00  0.00     0.026 C 
ENDBRANCH   1  20
BRANCH   4  25
HETATM   25  C12 UNL     1      41.358  -7.504  17.588  1.00  0.00     0.086 C 
HETATM   26  C13 UNL     1      41.927  -8.600  16.716  1.00  0.00     0.025 C 
HETATM   27  C14 UNL     1      40.927  -8.818  15.576  1.00  0.00     0.002 C 
HETATM   28  C15 UNL     1      40.396  -7.474  15.179  1.00  0.00     0.000 C 
HETATM   29  C16 UNL     1      41.350  -6.345  15.454  1.00  0.00     0.002 C 
HETATM   30  C17 UNL     1      41.659  -6.185  16.913  1.00  0.00     0.025 C 
ENDBRANCH   4  25
TORSDOF 8
ENDMDL
