MODEL 1
REMARK VINA RESULT: -7.410104846      0.000      0.000
REMARK  9 active torsions:
REMARK  status: ('A' for Active; 'I' for Inactive)
REMARK    1  A    between atoms: C2_2  and  C3_3 
REMARK    2  A    between atoms: C3_3  and  N1_4 
REMARK    3  A    between atoms: C6_7  and  N2_8 
REMARK       I    between atoms: N2_8  and  C7_9 
REMARK    4  A    between atoms: C7_9  and  C8_11 
REMARK    5  A    between atoms: C8_11  and  C9_12 
REMARK    6  A    between atoms: C14_18  and  C15_19 
REMARK    7  A    between atoms: C15_19  and  C16_20 
REMARK    8  A    between atoms: C18_22  and  C20_24 
REMARK    9  A    between atoms: C20_24  and  O2_25 
ROOT
HETATM    1  C9  UNL     1      41.654  -5.629  19.595  1.00  0.00     0.001 C 
HETATM    2  C10 UNL     1      42.548  -6.654  19.037  1.00  0.00     0.012 C 
HETATM    3  C11 UNL     1      42.186  -7.178  17.666  1.00  0.00     0.017 C 
HETATM    4  C12 UNL     1      41.361  -6.272  16.829  1.00  0.00     0.278 C 
HETATM    5  N3  UNL     1      40.033  -6.632  17.224  1.00  0.00     0.100 N 
HETATM    6  C13 UNL     1      39.518  -5.898  18.304  1.00  0.00     0.278 C 
HETATM    7  C14 UNL     1      40.193  -6.001  19.633  1.00  0.00     0.018 C 
HETATM    8  C18 UNL     1      39.975  -8.048  17.255  1.00  0.00     0.177 C 
HETATM    9  C19 UNL     1      38.793  -8.654  17.892  1.00  0.00     0.051 C 
HETATM   10  C21 UNL     1      41.302  -8.418  17.862  1.00  0.00     0.050 C 
ENDROOT
BRANCH   1  11
HETATM   11  C8  UNL     1      42.147  -5.118  20.904  1.00  0.00     0.123 C 
BRANCH  11  12
HETATM   12  C7  UNL     1      43.080  -6.038  21.647  1.00  0.00     0.287 C 
HETATM   13  N2  UNL     1      42.449  -7.080  22.296  1.00  0.00    -0.409 NA
HETATM   14  O1  UNL     1      44.306  -5.845  21.647  1.00  0.00    -0.258 OA
BRANCH  13  15
HETATM   15  C6  UNL     1      41.822  -8.121  22.943  1.00  0.00     0.170 C 
HETATM   16  C5  UNL     1      41.369  -7.771  24.360  1.00  0.00     0.069 C 
HETATM   17  C4  UNL     1      40.072  -7.054  24.423  1.00  0.00     0.276 C 
HETATM   18  N1  UNL     1      39.023  -7.639  23.564  1.00  0.00     0.091 N 
HETATM   19  C23 UNL     1      39.516  -8.985  23.178  1.00  0.00     0.276 C 
HETATM   20  C22 UNL     1      40.632  -8.742  22.215  1.00  0.00     0.069 C 
BRANCH  18  21
HETATM   21  C3  UNL     1      37.804  -7.805  24.352  1.00  0.00     0.299 C 
BRANCH  21  22
HETATM   22  C2  UNL     1      37.713  -9.177  24.873  1.00  0.00    -0.007 C 
HETATM   23  C1  UNL     1      36.699  -9.743  25.476  1.00  0.00     0.008 C 
ENDBRANCH  21  22
ENDBRANCH  18  21
ENDBRANCH  13  15
ENDBRANCH  11  12
ENDBRANCH   1  11
BRANCH   7  24
HETATM   24  C15 UNL     1      39.530  -4.994  20.552  1.00  0.00     0.006 C 
BRANCH  24  25
HETATM   25  C16 UNL     1      38.715  -3.951  19.815  1.00  0.00    -0.004 C 
HETATM   26  C17 UNL     1      39.000  -2.642  20.570  1.00  0.00     0.005 C 
ENDBRANCH  24  25
ENDBRANCH   7  24
BRANCH   8  27
HETATM   27  C20 UNL     1      40.011  -8.632  15.828  1.00  0.00     0.205 C 
BRANCH  27  28
HETATM   28  O2  UNL     1      40.656  -9.879  15.838  1.00  0.00    -0.398 OA
ATOM     29  H2  UNL     1      40.463 -10.349  15.035  1.00  0.00     0.209 HD
ENDBRANCH  27  28
ENDBRANCH   8  27
TORSDOF 9
ENDMDL
MODEL 2
REMARK VINA RESULT: -7.381034261      1.728      2.866
REMARK  9 active torsions:
REMARK  status: ('A' for Active; 'I' for Inactive)
REMARK    1  A    between atoms: C2_2  and  C3_3 
REMARK    2  A    between atoms: C3_3  and  N1_4 
REMARK    3  A    between atoms: C6_7  and  N2_8 
REMARK       I    between atoms: N2_8  and  C7_9 
REMARK    4  A    between atoms: C7_9  and  C8_11 
REMARK    5  A    between atoms: C8_11  and  C9_12 
REMARK    6  A    between atoms: C14_18  and  C15_19 
REMARK    7  A    between atoms: C15_19  and  C16_20 
REMARK    8  A    between atoms: C18_22  and  C20_24 
REMARK    9  A    between atoms: C20_24  and  O2_25 
ROOT
HETATM    1  C9  UNL     1      40.496  -5.807  19.943  1.00  0.00     0.001 C 
HETATM    2  C10 UNL     1      39.211  -6.167  19.326  1.00  0.00     0.012 C 
HETATM    3  C11 UNL     1      39.137  -7.537  18.692  1.00  0.00     0.017 C 
HETATM    4  C12 UNL     1      40.099  -8.539  19.214  1.00  0.00     0.278 C 
HETATM    5  N3  UNL     1      41.243  -8.311  18.384  1.00  0.00     0.100 N 
HETATM    6  C13 UNL     1      42.154  -7.364  18.879  1.00  0.00     0.278 C 
HETATM    7  C14 UNL     1      41.702  -5.950  19.048  1.00  0.00     0.018 C 
HETATM    8  C18 UNL     1      40.776  -8.195  17.050  1.00  0.00     0.177 C 
HETATM    9  C19 UNL     1      41.732  -7.692  16.049  1.00  0.00     0.051 C 
HETATM   10  C21 UNL     1      39.517  -7.387  17.213  1.00  0.00     0.050 C 
ENDROOT
BRANCH   1  11
HETATM   11  C8  UNL     1      40.436  -4.479  20.612  1.00  0.00     0.123 C 
BRANCH  11  12
HETATM   12  C7  UNL     1      40.014  -4.503  22.059  1.00  0.00     0.287 C 
HETATM   13  N2  UNL     1      40.159  -5.732  22.670  1.00  0.00    -0.409 NA
HETATM   14  O1  UNL     1      39.582  -3.481  22.617  1.00  0.00    -0.258 OA
BRANCH  13  15
HETATM   15  C6  UNL     1      40.304  -6.955  23.283  1.00  0.00     0.170 C 
HETATM   16  C5  UNL     1      40.286  -6.877  24.809  1.00  0.00     0.069 C 
HETATM   17  C4  UNL     1      38.925  -6.831  25.398  1.00  0.00     0.276 C 
HETATM   18  N1  UNL     1      37.989  -7.814  24.817  1.00  0.00     0.091 N 
HETATM   19  C23 UNL     1      38.827  -8.780  24.064  1.00  0.00     0.276 C 
HETATM   20  C22 UNL     1      39.312  -8.037  22.862  1.00  0.00     0.069 C 
BRANCH  18  21
HETATM   21  C3  UNL     1      37.323  -8.532  25.901  1.00  0.00     0.299 C 
BRANCH  21  22
HETATM   22  C2  UNL     1      36.757  -9.796  25.407  1.00  0.00    -0.007 C 
HETATM   23  C1  UNL     1      35.520 -10.214  25.496  1.00  0.00     0.008 C 
ENDBRANCH  21  22
ENDBRANCH  18  21
ENDBRANCH  13  15
ENDBRANCH  11  12
ENDBRANCH   1  11
BRANCH   7  24
HETATM   24  C15 UNL     1      42.824  -5.201  19.738  1.00  0.00     0.006 C 
BRANCH  24  25
HETATM   25  C16 UNL     1      44.041  -6.060  20.017  1.00  0.00    -0.004 C 
HETATM   26  C17 UNL     1      44.209  -5.998  21.545  1.00  0.00     0.005 C 
ENDBRANCH  24  25
ENDBRANCH   7  24
BRANCH   8  27
HETATM   27  C20 UNL     1      40.306  -9.562  16.511  1.00  0.00     0.205 C 
BRANCH  27  28
HETATM   28  O2  UNL     1      41.009  -9.881  15.339  1.00  0.00    -0.398 OA
ATOM     29  H2  UNL     1      41.519  -9.132  15.054  1.00  0.00     0.209 HD
ENDBRANCH  27  28
ENDBRANCH   8  27
TORSDOF 9
ENDMDL
MODEL 3
REMARK VINA RESULT: -7.257882317      2.065      3.834
REMARK  9 active torsions:
REMARK  status: ('A' for Active; 'I' for Inactive)
REMARK    1  A    between atoms: C2_2  and  C3_3 
REMARK    2  A    between atoms: C3_3  and  N1_4 
REMARK    3  A    between atoms: C6_7  and  N2_8 
REMARK       I    between atoms: N2_8  and  C7_9 
REMARK    4  A    between atoms: C7_9  and  C8_11 
REMARK    5  A    between atoms: C8_11  and  C9_12 
REMARK    6  A    between atoms: C14_18  and  C15_19 
REMARK    7  A    between atoms: C15_19  and  C16_20 
REMARK    8  A    between atoms: C18_22  and  C20_24 
REMARK    9  A    between atoms: C20_24  and  O2_25 
ROOT
HETATM    1  C9  UNL     1      40.565  -5.532  20.192  1.00  0.00     0.001 C 
HETATM    2  C10 UNL     1      39.333  -5.558  19.390  1.00  0.00     0.012 C 
HETATM    3  C11 UNL     1      39.023  -6.859  18.687  1.00  0.00     0.017 C 
HETATM    4  C12 UNL     1      39.632  -8.073  19.286  1.00  0.00     0.278 C 
HETATM    5  N3  UNL     1      40.904  -8.120  18.630  1.00  0.00     0.100 N 
HETATM    6  C13 UNL     1      41.935  -7.432  19.289  1.00  0.00     0.278 C 
HETATM    7  C14 UNL     1      41.816  -5.952  19.464  1.00  0.00     0.018 C 
HETATM    8  C18 UNL     1      40.674  -7.876  17.253  1.00  0.00     0.177 C 
HETATM    9  C19 UNL     1      41.856  -7.608  16.416  1.00  0.00     0.051 C 
HETATM   10  C21 UNL     1      39.636  -6.786  17.282  1.00  0.00     0.050 C 
ENDROOT
BRANCH   1  11
HETATM   11  C8  UNL     1      40.731  -4.239  20.910  1.00  0.00     0.123 C 
BRANCH  11  12
HETATM   12  C7  UNL     1      39.981  -4.122  22.212  1.00  0.00     0.287 C 
HETATM   13  N2  UNL     1      39.820  -5.318  22.882  1.00  0.00    -0.409 NA
HETATM   14  O1  UNL     1      39.565  -3.023  22.616  1.00  0.00    -0.258 OA
BRANCH  13  15
HETATM   15  C6  UNL     1      39.660  -6.509  23.553  1.00  0.00     0.170 C 
HETATM   16  C5  UNL     1      40.163  -7.720  22.769  1.00  0.00     0.069 C 
HETATM   17  C4  UNL     1      41.625  -7.948  22.876  1.00  0.00     0.276 C 
HETATM   18  N1  UNL     1      42.147  -7.840  24.253  1.00  0.00     0.091 N 
HETATM   19  C23 UNL     1      40.961  -7.885  25.144  1.00  0.00     0.276 C 
HETATM   20  C22 UNL     1      40.266  -6.576  24.952  1.00  0.00     0.069 C 
BRANCH  18  21
HETATM   21  C3  UNL     1      42.979  -9.007  24.535  1.00  0.00     0.299 C 
BRANCH  21  22
HETATM   22  C2  UNL     1      43.547  -9.545  23.290  1.00  0.00    -0.007 C 
HETATM   23  C1  UNL     1      44.793  -9.857  23.042  1.00  0.00     0.008 C 
ENDBRANCH  21  22
ENDBRANCH  18  21
ENDBRANCH  13  15
ENDBRANCH  11  12
ENDBRANCH   1  11
BRANCH   7  24
HETATM   24  C15 UNL     1      42.975  -5.510  20.334  1.00  0.00     0.006 C 
BRANCH  24  25
HETATM   25  C16 UNL     1      44.096  -6.527  20.409  1.00  0.00    -0.004 C 
HETATM   26  C17 UNL     1      44.745  -6.279  21.781  1.00  0.00     0.005 C 
ENDBRANCH  24  25
ENDBRANCH   7  24
BRANCH   8  27
HETATM   27  C20 UNL     1      39.972  -9.079  16.590  1.00  0.00     0.205 C 
BRANCH  27  28
HETATM   28  O2  UNL     1      40.731 -10.243  16.785  1.00  0.00    -0.398 OA
ATOM     29  H2  UNL     1      40.881 -10.379  17.713  1.00  0.00     0.209 HD
ENDBRANCH  27  28
ENDBRANCH   8  27
TORSDOF 9
ENDMDL
MODEL 4
REMARK VINA RESULT: -7.238179330      2.025      3.774
REMARK  9 active torsions:
REMARK  status: ('A' for Active; 'I' for Inactive)
REMARK    1  A    between atoms: C2_2  and  C3_3 
REMARK    2  A    between atoms: C3_3  and  N1_4 
REMARK    3  A    between atoms: C6_7  and  N2_8 
REMARK       I    between atoms: N2_8  and  C7_9 
REMARK    4  A    between atoms: C7_9  and  C8_11 
REMARK    5  A    between atoms: C8_11  and  C9_12 
REMARK    6  A    between atoms: C14_18  and  C15_19 
REMARK    7  A    between atoms: C15_19  and  C16_20 
REMARK    8  A    between atoms: C18_22  and  C20_24 
REMARK    9  A    between atoms: C20_24  and  O2_25 
ROOT
HETATM    1  C9  UNL     1      40.553  -5.719  20.007  1.00  0.00     0.001 C 
HETATM    2  C10 UNL     1      39.283  -5.970  19.310  1.00  0.00     0.012 C 
HETATM    3  C11 UNL     1      39.131  -7.332  18.673  1.00  0.00     0.017 C 
HETATM    4  C12 UNL     1      39.969  -8.410  19.254  1.00  0.00     0.278 C 
HETATM    5  N3  UNL     1      41.178  -8.285  18.497  1.00  0.00     0.100 N 
HETATM    6  C13 UNL     1      42.134  -7.417  19.049  1.00  0.00     0.278 C 
HETATM    7  C14 UNL     1      41.795  -5.968  19.190  1.00  0.00     0.018 C 
HETATM    8  C18 UNL     1      40.806  -8.137  17.137  1.00  0.00     0.177 C 
HETATM    9  C19 UNL     1      41.863  -7.723  16.198  1.00  0.00     0.051 C 
HETATM   10  C21 UNL     1      39.614  -7.223  17.221  1.00  0.00     0.050 C 
ENDROOT
BRANCH   1  11
HETATM   11  C8  UNL     1      40.566  -4.387  20.671  1.00  0.00     0.123 C 
BRANCH  11  12
HETATM   12  C7  UNL     1      39.968  -4.349  22.054  1.00  0.00     0.287 C 
HETATM   13  N2  UNL     1      39.845  -5.587  22.652  1.00  0.00    -0.409 NA
HETATM   14  O1  UNL     1      39.634  -3.274  22.579  1.00  0.00    -0.258 OA
BRANCH  13  15
HETATM   15  C6  UNL     1      39.722  -6.820  23.250  1.00  0.00     0.170 C 
HETATM   16  C5  UNL     1      40.809  -7.810  22.832  1.00  0.00     0.069 C 
HETATM   17  C4  UNL     1      42.083  -7.662  23.578  1.00  0.00     0.276 C 
HETATM   18  N1  UNL     1      41.908  -7.513  25.036  1.00  0.00     0.091 N 
HETATM   19  C23 UNL     1      40.509  -7.918  25.323  1.00  0.00     0.276 C 
HETATM   20  C22 UNL     1      39.655  -6.820  24.776  1.00  0.00     0.069 C 
BRANCH  18  21
HETATM   21  C3  UNL     1      42.805  -8.444  25.718  1.00  0.00     0.299 C 
BRANCH  21  22
HETATM   22  C2  UNL     1      44.054  -7.767  26.099  1.00  0.00    -0.007 C 
HETATM   23  C1  UNL     1      44.208  -6.532  26.506  1.00  0.00     0.008 C 
ENDBRANCH  21  22
ENDBRANCH  18  21
ENDBRANCH  13  15
ENDBRANCH  11  12
ENDBRANCH   1  11
BRANCH   7  24
HETATM   24  C15 UNL     1      42.933  -5.315  19.948  1.00  0.00     0.006 C 
BRANCH  24  25
HETATM   25  C16 UNL     1      44.135  -6.219  20.130  1.00  0.00    -0.004 C 
HETATM   26  C17 UNL     1      44.555  -6.005  21.595  1.00  0.00     0.005 C 
ENDBRANCH  24  25
ENDBRANCH   7  24
BRANCH   8  27
HETATM   27  C20 UNL     1      40.256  -9.461  16.570  1.00  0.00     0.205 C 
BRANCH  27  28
HETATM   28  O2  UNL     1      41.011  -9.854  15.454  1.00  0.00    -0.398 OA
ATOM     29  H2  UNL     1      41.244 -10.772  15.527  1.00  0.00     0.209 HD
ENDBRANCH  27  28
ENDBRANCH   8  27
TORSDOF 9
ENDMDL
MODEL 5
REMARK VINA RESULT: -7.232159070      2.297      5.046
REMARK  9 active torsions:
REMARK  status: ('A' for Active; 'I' for Inactive)
REMARK    1  A    between atoms: C2_2  and  C3_3 
REMARK    2  A    between atoms: C3_3  and  N1_4 
REMARK    3  A    between atoms: C6_7  and  N2_8 
REMARK       I    between atoms: N2_8  and  C7_9 
REMARK    4  A    between atoms: C7_9  and  C8_11 
REMARK    5  A    between atoms: C8_11  and  C9_12 
REMARK    6  A    between atoms: C14_18  and  C15_19 
REMARK    7  A    between atoms: C15_19  and  C16_20 
REMARK    8  A    between atoms: C18_22  and  C20_24 
REMARK    9  A    between atoms: C20_24  and  O2_25 
ROOT
HETATM    1  C9  UNL     1      40.761  -8.240  20.416  1.00  0.00     0.001 C 
HETATM    2  C10 UNL     1      39.430  -8.063  19.815  1.00  0.00     0.012 C 
HETATM    3  C11 UNL     1      39.344  -8.260  18.319  1.00  0.00     0.017 C 
HETATM    4  C12 UNL     1      40.402  -9.111  17.721  1.00  0.00     0.278 C 
HETATM    5  N3  UNL     1      41.433  -8.155  17.450  1.00  0.00     0.100 N 
HETATM    6  C13 UNL     1      42.352  -7.965  18.494  1.00  0.00     0.278 C 
HETATM    7  C14 UNL     1      41.861  -7.418  19.795  1.00  0.00     0.018 C 
HETATM    8  C18 UNL     1      40.812  -7.028  16.856  1.00  0.00     0.177 C 
HETATM    9  C19 UNL     1      41.625  -5.806  16.733  1.00  0.00     0.051 C 
HETATM   10  C21 UNL     1      39.546  -6.890  17.658  1.00  0.00     0.050 C 
ENDROOT
BRANCH   1  11
HETATM   11  C8  UNL     1      40.720  -8.112  21.899  1.00  0.00     0.123 C 
BRANCH  11  12
HETATM   12  C7  UNL     1      39.811  -7.034  22.430  1.00  0.00     0.287 C 
HETATM   13  N2  UNL     1      40.169  -5.756  22.051  1.00  0.00    -0.409 NA
HETATM   14  O1  UNL     1      38.831  -7.313  23.139  1.00  0.00    -0.258 OA
BRANCH  13  15
HETATM   15  C6  UNL     1      40.523  -4.480  21.674  1.00  0.00     0.170 C 
HETATM   16  C5  UNL     1      40.359  -4.221  20.177  1.00  0.00     0.069 C 
HETATM   17  C4  UNL     1      38.976  -3.874  19.769  1.00  0.00     0.276 C 
HETATM   18  N1  UNL     1      38.326  -2.878  20.645  1.00  0.00     0.091 N 
HETATM   19  C23 UNL     1      39.414  -2.279  21.458  1.00  0.00     0.276 C 
HETATM   20  C22 UNL     1      39.827  -3.344  22.421  1.00  0.00     0.069 C 
BRANCH  18  21
HETATM   21  C3  UNL     1      37.742  -1.828  19.814  1.00  0.00     0.299 C 
BRANCH  21  22
HETATM   22  C2  UNL     1      37.532  -0.606  20.606  1.00  0.00    -0.007 C 
HETATM   23  C1  UNL     1      36.474  -0.267  21.297  1.00  0.00     0.008 C 
ENDBRANCH  21  22
ENDBRANCH  18  21
ENDBRANCH  13  15
ENDBRANCH  11  12
ENDBRANCH   1  11
BRANCH   7  24
HETATM   24  C15 UNL     1      43.022  -7.470  20.769  1.00  0.00     0.006 C 
BRANCH  24  25
HETATM   25  C16 UNL     1      44.011  -6.337  20.590  1.00  0.00    -0.004 C 
HETATM   26  C17 UNL     1      45.311  -6.863  21.220  1.00  0.00     0.005 C 
ENDBRANCH  24  25
ENDBRANCH   7  24
BRANCH   8  27
HETATM   27  C20 UNL     1      40.343  -7.349  15.422  1.00  0.00     0.205 C 
BRANCH  27  28
HETATM   28  O2  UNL     1      41.008  -8.490  14.946  1.00  0.00    -0.398 OA
ATOM     29  H2  UNL     1      40.501  -8.893  14.251  1.00  0.00     0.209 HD
ENDBRANCH  27  28
ENDBRANCH   8  27
TORSDOF 9
ENDMDL
