MODEL 1
REMARK VINA RESULT: -7.671419108      0.000      0.000
REMARK  13 active torsions:
REMARK  status: ('A' for Active; 'I' for Inactive)
REMARK    1  A    between atoms: N1_1  and  C1_5 
REMARK    2  A    between atoms: C1_5  and  O1_6 
REMARK    3  A    between atoms: C1_5  and  C2_8 
REMARK    4  A    between atoms: C2_8  and  C3_9 
REMARK    5  A    between atoms: C2_8  and  C11_20 
REMARK       I    between atoms: C3_9  and  N2_11 
REMARK    6  A    between atoms: N2_11  and  C4_13 
REMARK    7  A    between atoms: C11_20  and  O4_22 
REMARK    8  A    between atoms: O4_22  and  C12_23 
REMARK    9  A    between atoms: C13_24  and  N3_25 
REMARK   10  A    between atoms: C15_30  and  N4_31 
REMARK   11  A    between atoms: C16_35  and  O5_36 
REMARK   12  A    between atoms: C17_38  and  O6_39 
REMARK   13  A    between atoms: O6_39  and  C18_40 
ROOT
HETATM    1  C12 UNL     1       1.835  25.099  12.856  1.00  0.00     0.193 C 
HETATM    2  C13 UNL     1       1.055  25.699  11.704  1.00  0.00     0.217 C 
HETATM    3  C14 UNL     1      -0.374  25.844  12.147  1.00  0.00     0.071 C 
HETATM    4  C15 UNL     1      -0.419  26.939  13.186  1.00  0.00     0.216 C 
HETATM    5  C16 UNL     1       0.693  26.772  14.189  1.00  0.00     0.180 C 
HETATM    6  C17 UNL     1       1.168  25.328  14.180  1.00  0.00     0.184 C 
ENDROOT
BRANCH   1   7
HETATM    7  O4  UNL     1       2.105  23.734  12.597  1.00  0.00    -0.310 OA
BRANCH   7   8
HETATM    8  C11 UNL     1       3.256  23.327  11.940  1.00  0.00     0.277 C 
HETATM    9  O3  UNL     1       3.766  24.143  11.120  1.00  0.00    -0.264 OA
BRANCH   8  10
HETATM   10  C2  UNL     1       3.850  22.009  12.190  1.00  0.00     0.233 C 
BRANCH  10  11
HETATM   11  C1  UNL     1       5.043  22.188  13.130  1.00  0.00     0.339 C 
BRANCH  11  12
HETATM   12  N1  UNL     1       5.064  23.584  13.526  1.00  0.00    -0.052 N 
ATOM     13  H13 UNL     1       6.015  23.912  13.696  1.00  0.00     0.277 HD
ATOM     14  H12 UNL     1       4.823  24.199  12.748  1.00  0.00     0.277 HD
ATOM     15  H11 UNL     1       4.461  23.746  14.333  1.00  0.00     0.277 HD
ENDBRANCH  11  12
BRANCH  11  16
HETATM   16  O1  UNL     1       6.233  21.827  12.501  1.00  0.00    -0.369 OA
ATOM     17  H1  UNL     1       6.093  21.657  11.576  1.00  0.00     0.212 HD
ENDBRANCH  11  16
ENDBRANCH  10  11
BRANCH  10  18
HETATM   18  C3  UNL     1       4.276  21.321  10.958  1.00  0.00     0.236 C 
HETATM   19  O2  UNL     1       4.373  20.074  10.911  1.00  0.00    -0.272 OA
HETATM   20  N2  UNL     1       4.596  22.040   9.776  1.00  0.00    -0.356 N 
ATOM     21  H2  UNL     1       4.525  23.058   9.790  1.00  0.00     0.162 HD
BRANCH  20  22
HETATM   22  C4  UNL     1       5.017  21.394   8.553  1.00  0.00     0.084 C 
HETATM   23  C5  UNL     1       3.817  21.118   7.682  1.00  0.00     0.025 C 
HETATM   24  C6  UNL     1       3.449  22.313   6.829  1.00  0.00     0.002 C 
HETATM   25  C7  UNL     1       3.982  22.172   5.420  1.00  0.00     0.000 C 
HETATM   26  C8  UNL     1       5.463  22.510   5.452  1.00  0.00     0.000 C 
HETATM   27  C9  UNL     1       6.213  21.642   6.442  1.00  0.00     0.002 C 
HETATM   28  C10 UNL     1       6.070  22.206   7.825  1.00  0.00     0.025 C 
ENDBRANCH  20  22
ENDBRANCH  10  18
ENDBRANCH   8  10
ENDBRANCH   7   8
ENDBRANCH   1   7
BRANCH   2  29
HETATM   29  N3  UNL     1       1.588  27.019  11.445  1.00  0.00    -0.072 N 
ATOM     30  H33 UNL     1       2.074  27.414  12.249  1.00  0.00     0.274 HD
ATOM     31  H32 UNL     1       2.378  27.006  10.800  1.00  0.00     0.274 HD
ATOM     32  H31 UNL     1       0.822  27.608  11.119  1.00  0.00     0.274 HD
ENDBRANCH   2  29
BRANCH   6  33
HETATM   33  O6  UNL     1       2.123  25.100  15.160  1.00  0.00    -0.375 OA
BRANCH  33  34
HETATM   34  C18 UNL     1       1.948  23.979  15.902  1.00  0.00     0.125 C 
HETATM   35  C19 UNL     1       1.287  24.412  17.222  1.00  0.00     0.059 C 
HETATM   36  C20 UNL     1       1.763  23.572  18.385  1.00  0.00     0.235 C 
HETATM   37  N5  UNL     1       3.137  23.866  18.659  1.00  0.00    -0.075 N 
HETATM   38  C21 UNL     1       3.933  23.978  17.442  1.00  0.00     0.235 C 
ATOM     39  H52 UNL     1       3.226  24.703  19.236  1.00  0.00     0.277 HD
ATOM     40  H51 UNL     1       3.538  23.183  19.300  1.00  0.00     0.277 HD
HETATM   41  C22 UNL     1       3.220  23.281  16.303  1.00  0.00     0.059 C 
ENDBRANCH  33  34
ENDBRANCH   6  33
BRANCH   5  42
HETATM   42  O5  UNL     1       0.109  27.082  15.443  1.00  0.00    -0.391 OA
ATOM     43  H5  UNL     1       0.117  26.266  15.929  1.00  0.00     0.210 HD
ENDBRANCH   5  42
BRANCH   4  44
HETATM   44  N4  UNL     1      -1.733  26.799  13.838  1.00  0.00    -0.072 N 
ATOM     45  H43 UNL     1      -2.520  27.040  13.236  1.00  0.00     0.274 HD
ATOM     46  H42 UNL     1      -2.008  25.831  14.008  1.00  0.00     0.274 HD
ATOM     47  H41 UNL     1      -1.673  27.365  14.685  1.00  0.00     0.274 HD
ENDBRANCH   4  44
TORSDOF 13
ENDMDL
MODEL 2
REMARK VINA RESULT: -7.425362938      1.237      1.447
REMARK  13 active torsions:
REMARK  status: ('A' for Active; 'I' for Inactive)
REMARK    1  A    between atoms: N1_1  and  C1_5 
REMARK    2  A    between atoms: C1_5  and  O1_6 
REMARK    3  A    between atoms: C1_5  and  C2_8 
REMARK    4  A    between atoms: C2_8  and  C3_9 
REMARK    5  A    between atoms: C2_8  and  C11_20 
REMARK       I    between atoms: C3_9  and  N2_11 
REMARK    6  A    between atoms: N2_11  and  C4_13 
REMARK    7  A    between atoms: C11_20  and  O4_22 
REMARK    8  A    between atoms: O4_22  and  C12_23 
REMARK    9  A    between atoms: C13_24  and  N3_25 
REMARK   10  A    between atoms: C15_30  and  N4_31 
REMARK   11  A    between atoms: C16_35  and  O5_36 
REMARK   12  A    between atoms: C17_38  and  O6_39 
REMARK   13  A    between atoms: O6_39  and  C18_40 
ROOT
HETATM    1  C12 UNL     1       2.003  24.641  11.788  1.00  0.00     0.193 C 
HETATM    2  C13 UNL     1       1.047  25.282  10.802  1.00  0.00     0.217 C 
HETATM    3  C14 UNL     1      -0.269  25.477  11.501  1.00  0.00     0.071 C 
HETATM    4  C15 UNL     1      -0.078  26.561  12.534  1.00  0.00     0.216 C 
HETATM    5  C16 UNL     1       1.192  26.343  13.314  1.00  0.00     0.180 C 
HETATM    6  C17 UNL     1       1.601  24.882  13.213  1.00  0.00     0.184 C 
ENDROOT
BRANCH   1   7
HETATM    7  O4  UNL     1       2.166  23.269  11.479  1.00  0.00    -0.310 OA
BRANCH   7   8
HETATM    8  C11 UNL     1       3.107  22.834  10.557  1.00  0.00     0.277 C 
HETATM    9  O3  UNL     1       3.125  23.419   9.437  1.00  0.00    -0.264 OA
BRANCH   8  10
HETATM   10  C2  UNL     1       4.035  21.743  10.875  1.00  0.00     0.233 C 
BRANCH  10  11
HETATM   11  C1  UNL     1       4.947  22.203  12.014  1.00  0.00     0.339 C 
BRANCH  11  12
HETATM   12  N1  UNL     1       5.081  23.643  11.893  1.00  0.00    -0.052 N 
ATOM     13  H13 UNL     1       5.191  24.088  12.805  1.00  0.00     0.277 HD
ATOM     14  H12 UNL     1       5.977  23.904  11.483  1.00  0.00     0.277 HD
ATOM     15  H11 UNL     1       4.299  24.043  11.374  1.00  0.00     0.277 HD
ENDBRANCH  11  12
BRANCH  11  16
HETATM   16  O1  UNL     1       6.190  21.576  11.942  1.00  0.00    -0.369 OA
ATOM     17  H1  UNL     1       6.894  22.213  11.941  1.00  0.00     0.212 HD
ENDBRANCH  11  16
ENDBRANCH  10  11
BRANCH  10  18
HETATM   18  C3  UNL     1       4.845  21.315   9.721  1.00  0.00     0.236 C 
HETATM   19  O2  UNL     1       5.072  20.103   9.501  1.00  0.00    -0.272 OA
HETATM   20  N2  UNL     1       5.402  22.254   8.812  1.00  0.00    -0.356 N 
ATOM     21  H2  UNL     1       5.230  23.246   8.971  1.00  0.00     0.162 HD
BRANCH  20  22
HETATM   22  C4  UNL     1       6.200  21.864   7.671  1.00  0.00     0.084 C 
HETATM   23  C5  UNL     1       5.320  21.737   6.453  1.00  0.00     0.025 C 
HETATM   24  C6  UNL     1       5.119  23.066   5.757  1.00  0.00     0.002 C 
HETATM   25  C7  UNL     1       6.039  23.210   4.564  1.00  0.00     0.000 C 
HETATM   26  C8  UNL     1       7.421  23.566   5.088  1.00  0.00     0.000 C 
HETATM   27  C9  UNL     1       7.922  22.540   6.083  1.00  0.00     0.002 C 
HETATM   28  C10 UNL     1       7.351  22.824   7.441  1.00  0.00     0.025 C 
ENDBRANCH  20  22
ENDBRANCH  10  18
ENDBRANCH   8  10
ENDBRANCH   7   8
ENDBRANCH   1   7
BRANCH   2  29
HETATM   29  N3  UNL     1       1.573  26.584  10.452  1.00  0.00    -0.072 N 
ATOM     30  H33 UNL     1       2.206  26.957  11.160  1.00  0.00     0.274 HD
ATOM     31  H32 UNL     1       2.240  26.546   9.680  1.00  0.00     0.274 HD
ATOM     32  H31 UNL     1       0.785  27.201  10.263  1.00  0.00     0.274 HD
ENDBRANCH   2  29
BRANCH   6  33
HETATM   33  O6  UNL     1       2.711  24.608  13.998  1.00  0.00    -0.375 OA
BRANCH  33  34
HETATM   34  C18 UNL     1       2.563  23.602  14.895  1.00  0.00     0.125 C 
HETATM   35  C19 UNL     1       2.027  24.233  16.193  1.00  0.00     0.059 C 
HETATM   36  C20 UNL     1       2.571  23.534  17.417  1.00  0.00     0.235 C 
HETATM   37  N5  UNL     1       3.972  23.803  17.542  1.00  0.00    -0.075 N 
HETATM   38  C21 UNL     1       4.668  23.720  16.262  1.00  0.00     0.235 C 
ATOM     39  H52 UNL     1       4.135  24.703  17.993  1.00  0.00     0.277 HD
ATOM     40  H51 UNL     1       4.404  23.193  18.236  1.00  0.00     0.277 HD
HETATM   41  C22 UNL     1       3.841  22.910  15.286  1.00  0.00     0.059 C 
ENDBRANCH  33  34
ENDBRANCH   6  33
BRANCH   5  42
HETATM   42  O5  UNL     1       0.862  26.662  14.655  1.00  0.00    -0.391 OA
ATOM     43  H5  UNL     1       1.460  27.359  14.898  1.00  0.00     0.210 HD
ENDBRANCH   5  42
BRANCH   4  44
HETATM   44  N4  UNL     1      -1.254  26.464  13.418  1.00  0.00    -0.072 N 
ATOM     45  H43 UNL     1      -1.982  25.841  13.068  1.00  0.00     0.274 HD
ATOM     46  H42 UNL     1      -1.076  25.961  14.287  1.00  0.00     0.274 HD
ATOM     47  H41 UNL     1      -1.565  27.426  13.555  1.00  0.00     0.274 HD
ENDBRANCH   4  44
TORSDOF 13
ENDMDL
MODEL 3
REMARK VINA RESULT: -7.331163033      2.455      4.227
REMARK  13 active torsions:
REMARK  status: ('A' for Active; 'I' for Inactive)
REMARK    1  A    between atoms: N1_1  and  C1_5 
REMARK    2  A    between atoms: C1_5  and  O1_6 
REMARK    3  A    between atoms: C1_5  and  C2_8 
REMARK    4  A    between atoms: C2_8  and  C3_9 
REMARK    5  A    between atoms: C2_8  and  C11_20 
REMARK       I    between atoms: C3_9  and  N2_11 
REMARK    6  A    between atoms: N2_11  and  C4_13 
REMARK    7  A    between atoms: C11_20  and  O4_22 
REMARK    8  A    between atoms: O4_22  and  C12_23 
REMARK    9  A    between atoms: C13_24  and  N3_25 
REMARK   10  A    between atoms: C15_30  and  N4_31 
REMARK   11  A    between atoms: C16_35  and  O5_36 
REMARK   12  A    between atoms: C17_38  and  O6_39 
REMARK   13  A    between atoms: O6_39  and  C18_40 
ROOT
HETATM    1  C12 UNL     1       0.313  25.404  15.052  1.00  0.00     0.193 C 
HETATM    2  C13 UNL     1      -0.482  26.684  15.215  1.00  0.00     0.217 C 
HETATM    3  C14 UNL     1      -1.471  26.470  16.326  1.00  0.00     0.071 C 
HETATM    4  C15 UNL     1      -0.693  26.393  17.618  1.00  0.00     0.216 C 
HETATM    5  C16 UNL     1       0.512  25.502  17.467  1.00  0.00     0.180 C 
HETATM    6  C17 UNL     1       0.299  24.560  16.292  1.00  0.00     0.184 C 
ENDROOT
BRANCH   1   7
HETATM    7  O4  UNL     1      -0.125  24.708  13.899  1.00  0.00    -0.310 OA
BRANCH   7   8
HETATM    8  C11 UNL     1       0.337  25.029  12.632  1.00  0.00     0.277 C 
HETATM    9  O3  UNL     1      -0.192  24.421  11.658  1.00  0.00    -0.264 OA
BRANCH   8  10
HETATM   10  C2  UNL     1       1.393  26.029  12.437  1.00  0.00     0.233 C 
BRANCH  10  11
HETATM   11  C1  UNL     1       0.794  27.224  11.695  1.00  0.00     0.339 C 
BRANCH  11  12
HETATM   12  N1  UNL     1      -0.633  27.215  11.960  1.00  0.00    -0.052 N 
ATOM     13  H13 UNL     1      -1.104  27.999  11.508  1.00  0.00     0.277 HD
ATOM     14  H12 UNL     1      -1.101  26.451  11.473  1.00  0.00     0.277 HD
ATOM     15  H11 UNL     1      -0.820  27.193  12.962  1.00  0.00     0.277 HD
ENDBRANCH  11  12
BRANCH  11  16
HETATM   16  O1  UNL     1       1.051  27.143  10.328  1.00  0.00    -0.369 OA
ATOM     17  H1  UNL     1       1.762  26.539  10.148  1.00  0.00     0.212 HD
ENDBRANCH  11  16
ENDBRANCH  10  11
BRANCH  10  18
HETATM   18  C3  UNL     1       2.558  25.508  11.699  1.00  0.00     0.236 C 
HETATM   19  O2  UNL     1       3.603  26.186  11.573  1.00  0.00    -0.272 OA
HETATM   20  N2  UNL     1       2.545  24.221  11.100  1.00  0.00    -0.356 N 
ATOM     21  H2  UNL     1       1.704  23.650  11.189  1.00  0.00     0.162 HD
BRANCH  20  22
HETATM   22  C4  UNL     1       3.670  23.683  10.369  1.00  0.00     0.084 C 
HETATM   23  C5  UNL     1       4.548  22.884  11.301  1.00  0.00     0.025 C 
HETATM   24  C6  UNL     1       4.065  21.457  11.449  1.00  0.00     0.002 C 
HETATM   25  C7  UNL     1       4.853  20.512  10.569  1.00  0.00     0.000 C 
HETATM   26  C8  UNL     1       4.330  20.659   9.150  1.00  0.00     0.000 C 
HETATM   27  C9  UNL     1       4.408  22.095   8.672  1.00  0.00     0.002 C 
HETATM   28  C10 UNL     1       3.222  22.866   9.174  1.00  0.00     0.025 C 
ENDBRANCH  20  22
ENDBRANCH  10  18
ENDBRANCH   8  10
ENDBRANCH   7   8
ENDBRANCH   1   7
BRANCH   2  29
HETATM   29  N3  UNL     1       0.435  27.729  15.617  1.00  0.00    -0.072 N 
ATOM     30  H33 UNL     1       0.895  27.532  16.506  1.00  0.00     0.274 HD
ATOM     31  H32 UNL     1       1.273  27.765  15.035  1.00  0.00     0.274 HD
ATOM     32  H31 UNL     1      -0.078  28.610  15.625  1.00  0.00     0.274 HD
ENDBRANCH   2  29
BRANCH   6  33
HETATM   33  O6  UNL     1       1.339  23.649  16.174  1.00  0.00    -0.375 OA
BRANCH  33  34
HETATM   34  C18 UNL     1       2.559  24.180  15.914  1.00  0.00     0.125 C 
HETATM   35  C19 UNL     1       3.133  23.417  14.707  1.00  0.00     0.059 C 
HETATM   36  C20 UNL     1       4.633  23.261  14.809  1.00  0.00     0.235 C 
HETATM   37  N5  UNL     1       4.951  22.362  15.877  1.00  0.00    -0.075 N 
HETATM   38  C21 UNL     1       4.142  22.605  17.066  1.00  0.00     0.235 C 
ATOM     39  H52 UNL     1       4.878  21.390  15.573  1.00  0.00     0.277 HD
ATOM     40  H51 UNL     1       5.946  22.389  16.097  1.00  0.00     0.277 HD
HETATM   41  C22 UNL     1       3.571  24.006  17.014  1.00  0.00     0.059 C 
ENDBRANCH  33  34
ENDBRANCH   6  33
BRANCH   5  42
HETATM   42  O5  UNL     1       0.578  24.762  18.675  1.00  0.00    -0.391 OA
ATOM     43  H5  UNL     1       1.505  24.630  18.834  1.00  0.00     0.210 HD
ENDBRANCH   5  42
BRANCH   4  44
HETATM   44  N4  UNL     1      -1.636  25.831  18.603  1.00  0.00    -0.072 N 
ATOM     45  H43 UNL     1      -2.581  25.701  18.242  1.00  0.00     0.274 HD
ATOM     46  H42 UNL     1      -1.460  24.852  18.830  1.00  0.00     0.274 HD
ATOM     47  H41 UNL     1      -1.584  26.456  19.408  1.00  0.00     0.274 HD
ENDBRANCH   4  44
TORSDOF 13
ENDMDL
MODEL 4
REMARK VINA RESULT: -7.217804572      1.940      2.954
REMARK  13 active torsions:
REMARK  status: ('A' for Active; 'I' for Inactive)
REMARK    1  A    between atoms: N1_1  and  C1_5 
REMARK    2  A    between atoms: C1_5  and  O1_6 
REMARK    3  A    between atoms: C1_5  and  C2_8 
REMARK    4  A    between atoms: C2_8  and  C3_9 
REMARK    5  A    between atoms: C2_8  and  C11_20 
REMARK       I    between atoms: C3_9  and  N2_11 
REMARK    6  A    between atoms: N2_11  and  C4_13 
REMARK    7  A    between atoms: C11_20  and  O4_22 
REMARK    8  A    between atoms: O4_22  and  C12_23 
REMARK    9  A    between atoms: C13_24  and  N3_25 
REMARK   10  A    between atoms: C15_30  and  N4_31 
REMARK   11  A    between atoms: C16_35  and  O5_36 
REMARK   12  A    between atoms: C17_38  and  O6_39 
REMARK   13  A    between atoms: O6_39  and  C18_40 
ROOT
HETATM    1  C12 UNL     1       1.491  25.465  13.773  1.00  0.00     0.193 C 
HETATM    2  C13 UNL     1       1.554  25.527  12.260  1.00  0.00     0.217 C 
HETATM    3  C14 UNL     1       0.157  25.750  11.752  1.00  0.00     0.071 C 
HETATM    4  C15 UNL     1      -0.243  27.157  12.127  1.00  0.00     0.216 C 
HETATM    5  C16 UNL     1       0.121  27.455  13.558  1.00  0.00     0.180 C 
HETATM    6  C17 UNL     1       0.274  26.150  14.323  1.00  0.00     0.184 C 
ENDROOT
BRANCH   1   7
HETATM    7  O4  UNL     1       1.619  24.123  14.206  1.00  0.00    -0.310 OA
BRANCH   7   8
HETATM    8  C11 UNL     1       2.692  23.703  14.978  1.00  0.00     0.277 C 
HETATM    9  O3  UNL     1       2.704  24.066  16.188  1.00  0.00    -0.264 OA
BRANCH   8  10
HETATM   10  C2  UNL     1       3.760  22.875  14.408  1.00  0.00     0.233 C 
BRANCH  10  11
HETATM   11  C1  UNL     1       4.992  22.991  15.308  1.00  0.00     0.339 C 
BRANCH  11  12
HETATM   12  N1  UNL     1       6.073  22.290  14.638  1.00  0.00    -0.052 N 
ATOM     13  H13 UNL     1       6.883  22.895  14.498  1.00  0.00     0.277 HD
ATOM     14  H12 UNL     1       6.501  21.593  15.245  1.00  0.00     0.277 HD
ATOM     15  H11 UNL     1       5.756  21.880  13.760  1.00  0.00     0.277 HD
ENDBRANCH  11  12
BRANCH  11  16
HETATM   16  O1  UNL     1       4.744  22.445  16.566  1.00  0.00    -0.369 OA
ATOM     17  H1  UNL     1       4.865  23.094  17.249  1.00  0.00     0.212 HD
ENDBRANCH  11  16
ENDBRANCH  10  11
BRANCH  10  18
HETATM   18  C3  UNL     1       4.109  23.248  13.025  1.00  0.00     0.236 C 
HETATM   19  O2  UNL     1       4.922  24.169  12.787  1.00  0.00    -0.272 OA
HETATM   20  N2  UNL     1       3.538  22.582  11.908  1.00  0.00    -0.356 N 
ATOM     21  H2  UNL     1       2.872  21.829  12.077  1.00  0.00     0.162 HD
BRANCH  20  22
HETATM   22  C4  UNL     1       3.860  22.926  10.540  1.00  0.00     0.084 C 
HETATM   23  C5  UNL     1       5.096  22.179  10.105  1.00  0.00     0.025 C 
HETATM   24  C6  UNL     1       4.771  20.792   9.595  1.00  0.00     0.002 C 
HETATM   25  C7  UNL     1       4.722  20.755   8.083  1.00  0.00     0.000 C 
HETATM   26  C8  UNL     1       3.391  21.348   7.650  1.00  0.00     0.000 C 
HETATM   27  C9  UNL     1       3.198  22.747   8.201  1.00  0.00     0.002 C 
HETATM   28  C10 UNL     1       2.689  22.674   9.611  1.00  0.00     0.025 C 
ENDBRANCH  20  22
ENDBRANCH  10  18
ENDBRANCH   8  10
ENDBRANCH   7   8
ENDBRANCH   1   7
BRANCH   2  29
HETATM   29  N3  UNL     1       2.360  26.672  11.894  1.00  0.00    -0.072 N 
ATOM     30  H33 UNL     1       1.811  27.426  11.481  1.00  0.00     0.274 HD
ATOM     31  H32 UNL     1       2.707  27.185  12.705  1.00  0.00     0.274 HD
ATOM     32  H31 UNL     1       3.107  26.347  11.282  1.00  0.00     0.274 HD
ENDBRANCH   2  29
BRANCH   6  33
HETATM   33  O6  UNL     1       0.511  26.373  15.671  1.00  0.00    -0.375 OA
BRANCH  33  34
HETATM   34  C18 UNL     1      -0.553  26.195  16.492  1.00  0.00     0.125 C 
HETATM   35  C19 UNL     1      -0.377  27.165  17.673  1.00  0.00     0.059 C 
HETATM   36  C20 UNL     1      -0.901  26.575  18.962  1.00  0.00     0.235 C 
HETATM   37  N5  UNL     1      -0.059  25.493  19.372  1.00  0.00    -0.075 N 
HETATM   38  C21 UNL     1       0.322  24.633  18.256  1.00  0.00     0.235 C 
ATOM     39  H52 UNL     1       0.763  25.834  19.871  1.00  0.00     0.277 HD
ATOM     40  H51 UNL     1      -0.491  24.953  20.121  1.00  0.00     0.277 HD
HETATM   41  C22 UNL     1      -0.651  24.826  17.112  1.00  0.00     0.059 C 
ENDBRANCH  33  34
ENDBRANCH   6  33
BRANCH   5  42
HETATM   42  O5  UNL     1      -0.975  28.192  14.073  1.00  0.00    -0.391 OA
ATOM     43  H5  UNL     1      -1.606  28.227  13.363  1.00  0.00     0.210 HD
ENDBRANCH   5  42
BRANCH   4  44
HETATM   44  N4  UNL     1      -1.705  27.205  11.942  1.00  0.00    -0.072 N 
ATOM     45  H43 UNL     1      -2.225  26.647  12.620  1.00  0.00     0.274 HD
ATOM     46  H42 UNL     1      -2.122  28.104  12.184  1.00  0.00     0.274 HD
ATOM     47  H41 UNL     1      -1.860  26.927  10.973  1.00  0.00     0.274 HD
ENDBRANCH   4  44
TORSDOF 13
ENDMDL
MODEL 5
REMARK VINA RESULT: -7.051258479      2.334      7.629
REMARK  13 active torsions:
REMARK  status: ('A' for Active; 'I' for Inactive)
REMARK    1  A    between atoms: N1_1  and  C1_5 
REMARK    2  A    between atoms: C1_5  and  O1_6 
REMARK    3  A    between atoms: C1_5  and  C2_8 
REMARK    4  A    between atoms: C2_8  and  C3_9 
REMARK    5  A    between atoms: C2_8  and  C11_20 
REMARK       I    between atoms: C3_9  and  N2_11 
REMARK    6  A    between atoms: N2_11  and  C4_13 
REMARK    7  A    between atoms: C11_20  and  O4_22 
REMARK    8  A    between atoms: O4_22  and  C12_23 
REMARK    9  A    between atoms: C13_24  and  N3_25 
REMARK   10  A    between atoms: C15_30  and  N4_31 
REMARK   11  A    between atoms: C16_35  and  O5_36 
REMARK   12  A    between atoms: C17_38  and  O6_39 
REMARK   13  A    between atoms: O6_39  and  C18_40 
ROOT
HETATM    1  C12 UNL     1       3.438  22.228   9.928  1.00  0.00     0.193 C 
HETATM    2  C13 UNL     1       3.760  22.033   8.460  1.00  0.00     0.217 C 
HETATM    3  C14 UNL     1       5.170  22.502   8.235  1.00  0.00     0.071 C 
HETATM    4  C15 UNL     1       6.090  21.515   8.913  1.00  0.00     0.216 C 
HETATM    5  C16 UNL     1       5.594  21.180  10.295  1.00  0.00     0.180 C 
HETATM    6  C17 UNL     1       4.670  22.286  10.781  1.00  0.00     0.184 C 
ENDROOT
BRANCH   1   7
HETATM    7  O4  UNL     1       2.594  23.354  10.090  1.00  0.00    -0.310 OA
BRANCH   7   8
HETATM    8  C11 UNL     1       1.214  23.255   9.988  1.00  0.00     0.277 C 
HETATM    9  O3  UNL     1       0.748  22.876   8.876  1.00  0.00    -0.264 OA
BRANCH   8  10
HETATM   10  C2  UNL     1       0.342  23.578  11.123  1.00  0.00     0.233 C 
BRANCH  10  11
HETATM   11  C1  UNL     1      -1.111  23.421  10.674  1.00  0.00     0.339 C 
BRANCH  11  12
HETATM   12  N1  UNL     1      -1.428  24.579   9.857  1.00  0.00    -0.052 N 
ATOM     13  H13 UNL     1      -2.390  24.888  10.000  1.00  0.00     0.277 HD
ATOM     14  H12 UNL     1      -0.945  25.415  10.186  1.00  0.00     0.277 HD
ATOM     15  H11 UNL     1      -1.236  24.397   8.872  1.00  0.00     0.277 HD
ENDBRANCH  11  12
BRANCH  11  16
HETATM   16  O1  UNL     1      -1.966  23.332  11.770  1.00  0.00    -0.369 OA
ATOM     17  H1  UNL     1      -2.281  22.443  11.887  1.00  0.00     0.212 HD
ENDBRANCH  11  16
ENDBRANCH  10  11
BRANCH  10  18
HETATM   18  C3  UNL     1       0.563  24.934  11.657  1.00  0.00     0.236 C 
HETATM   19  O2  UNL     1       1.192  25.795  11.002  1.00  0.00    -0.272 OA
HETATM   20  N2  UNL     1       0.074  25.320  12.933  1.00  0.00    -0.356 N 
ATOM     21  H2  UNL     1      -0.442  24.634  13.486  1.00  0.00     0.162 HD
BRANCH  20  22
HETATM   22  C4  UNL     1       0.274  26.642  13.484  1.00  0.00     0.084 C 
HETATM   23  C5  UNL     1      -0.871  27.539  13.085  1.00  0.00     0.025 C 
HETATM   24  C6  UNL     1      -2.047  27.412  14.029  1.00  0.00     0.002 C 
HETATM   25  C7  UNL     1      -2.067  28.535  15.043  1.00  0.00     0.000 C 
HETATM   26  C8  UNL     1      -1.033  28.212  16.109  1.00  0.00     0.000 C 
HETATM   27  C9  UNL     1       0.342  28.001  15.507  1.00  0.00     0.002 C 
HETATM   28  C10 UNL     1       0.462  26.598  14.988  1.00  0.00     0.025 C 
ENDBRANCH  20  22
ENDBRANCH  10  18
ENDBRANCH   8  10
ENDBRANCH   7   8
ENDBRANCH   1   7
BRANCH   2  29
HETATM   29  N3  UNL     1       3.701  20.615   8.177  1.00  0.00    -0.072 N 
ATOM     30  H33 UNL     1       4.441  20.088   8.639  1.00  0.00     0.274 HD
ATOM     31  H32 UNL     1       2.907  20.156   8.624  1.00  0.00     0.274 HD
ATOM     32  H31 UNL     1       3.706  20.497   7.164  1.00  0.00     0.274 HD
ENDBRANCH   2  29
BRANCH   6  33
HETATM   33  O6  UNL     1       4.266  22.074  12.091  1.00  0.00    -0.375 OA
BRANCH  33  34
HETATM   34  C18 UNL     1       4.722  22.970  13.000  1.00  0.00     0.125 C 
HETATM   35  C19 UNL     1       4.991  22.194  14.301  1.00  0.00     0.059 C 
HETATM   36  C20 UNL     1       4.687  23.030  15.522  1.00  0.00     0.235 C 
HETATM   37  N5  UNL     1       3.275  23.242  15.619  1.00  0.00    -0.075 N 
HETATM   38  C21 UNL     1       2.671  23.556  14.329  1.00  0.00     0.235 C 
ATOM     39  H52 UNL     1       2.812  22.446  16.059  1.00  0.00     0.277 HD
ATOM     40  H51 UNL     1       3.057  23.959  16.311  1.00  0.00     0.277 HD
HETATM   41  C22 UNL     1       3.739  24.047  13.375  1.00  0.00     0.059 C 
ENDBRANCH  33  34
ENDBRANCH   6  33
BRANCH   5  42
HETATM   42  O5  UNL     1       6.757  21.131  11.104  1.00  0.00    -0.391 OA
ATOM     43  H5  UNL     1       7.372  20.593  10.621  1.00  0.00     0.210 HD
ENDBRANCH   5  42
BRANCH   4  44
HETATM   44  N4  UNL     1       7.399  22.192   8.980  1.00  0.00    -0.072 N 
ATOM     45  H43 UNL     1       7.500  22.959   8.317  1.00  0.00     0.274 HD
ATOM     46  H42 UNL     1       7.532  22.748   9.825  1.00  0.00     0.274 HD
ATOM     47  H41 UNL     1       8.089  21.450   8.862  1.00  0.00     0.274 HD
ENDBRANCH   4  44
TORSDOF 13
ENDMDL
