MODEL 1
REMARK VINA RESULT: -7.860966392      0.000      0.000
REMARK  13 active torsions:
REMARK  status: ('A' for Active; 'I' for Inactive)
REMARK    1  A    between atoms: C1_2  and  C2_3 
REMARK    2  A    between atoms: C4_5  and  O2_6 
REMARK    3  A    between atoms: O2_6  and  C5_7 
REMARK    4  A    between atoms: C6_9  and  C7_10 
REMARK    5  A    between atoms: C7_10  and  O4_11 
REMARK    6  A    between atoms: C8_13  and  O5_14 
REMARK    7  A    between atoms: C9_16  and  O6_17 
REMARK    8  A    between atoms: C10_19  and  O7_20 
REMARK    9  A    between atoms: C11_22  and  C12_23 
REMARK   10  A    between atoms: C12_23  and  O8_24 
REMARK   11  A    between atoms: C13_26  and  O9_27 
REMARK   12  A    between atoms: O9_27  and  C14_28 
REMARK   13  A    between atoms: C22_36  and  O10_37 
ROOT
HETATM    1  C2  UNL     1       0.554  24.275  10.915  1.00  0.00     0.081 C 
HETATM    2  C3  UNL     1       1.230  23.468   9.877  1.00  0.00     0.046 C 
HETATM    3  C4  UNL     1       2.460  22.728  10.341  1.00  0.00     0.134 C 
HETATM    4  C11 UNL     1       2.800  22.784  11.762  1.00  0.00     0.070 C 
HETATM    5  C13 UNL     1       2.433  24.014  12.528  1.00  0.00     0.160 C 
HETATM    6  C22 UNL     1       1.648  25.009  11.662  1.00  0.00     0.158 C 
ENDROOT
BRANCH   3   7
HETATM    7  O2  UNL     1       3.476  23.181   9.479  1.00  0.00    -0.353 OA
BRANCH   7   8
HETATM    8  C5  UNL     1       3.893  22.209   8.566  1.00  0.00     0.292 C 
HETATM    9  O3  UNL     1       3.389  22.662   7.338  1.00  0.00    -0.348 OA
HETATM   10  C6  UNL     1       3.950  22.047   6.241  1.00  0.00     0.179 C 
HETATM   11  C8  UNL     1       5.406  22.544   6.223  1.00  0.00     0.180 C 
HETATM   12  C9  UNL     1       6.084  21.830   7.339  1.00  0.00     0.183 C 
HETATM   13  C10 UNL     1       5.339  21.964   8.624  1.00  0.00     0.204 C 
BRANCH  10  14
HETATM   14  C7  UNL     1       3.257  22.565   5.011  1.00  0.00     0.198 C 
BRANCH  14  15
HETATM   15  O4  UNL     1       1.902  22.749   5.358  1.00  0.00    -0.398 OA
ATOM     16  H4  UNL     1       1.606  23.523   4.894  1.00  0.00     0.209 HD
ENDBRANCH  14  15
ENDBRANCH  10  14
BRANCH  11  17
HETATM   17  O5  UNL     1       5.974  22.288   4.988  1.00  0.00    -0.390 OA
ATOM     18  H5  UNL     1       6.455  23.051   4.690  1.00  0.00     0.210 HD
ENDBRANCH  11  17
BRANCH  12  19
HETATM   19  O6  UNL     1       7.356  22.371   7.524  1.00  0.00    -0.390 OA
ATOM     20  H6  UNL     1       7.812  21.876   8.195  1.00  0.00     0.210 HD
ENDBRANCH  12  19
BRANCH  13  21
HETATM   21  O7  UNL     1       5.550  20.729   9.301  1.00  0.00    -0.388 OA
ATOM     22  H7  UNL     1       6.485  20.554   9.310  1.00  0.00     0.210 HD
ENDBRANCH  13  21
ENDBRANCH   7   8
ENDBRANCH   3   7
BRANCH   4  23
HETATM   23  C12 UNL     1       4.288  22.545  11.938  1.00  0.00     0.174 C 
BRANCH  23  24
HETATM   24  O8  UNL     1       5.022  23.740  11.726  1.00  0.00    -0.400 OA
ATOM     25  H8  UNL     1       4.642  24.463  12.210  1.00  0.00     0.209 HD
ENDBRANCH  23  24
ENDBRANCH   4  23
BRANCH   1  26
HETATM   26  C1  UNL     1      -0.324  23.503  11.814  1.00  0.00     0.238 C 
HETATM   27  O1  UNL     1      -1.315  22.971  11.342  1.00  0.00    -0.306 OA
ENDBRANCH   1  26
BRANCH   5  28
HETATM   28  O9  UNL     1       1.561  23.700  13.530  1.00  0.00    -0.377 OA
BRANCH  28  29
HETATM   29  C14 UNL     1       1.938  23.700  14.807  1.00  0.00     0.122 C 
HETATM   30  C15 UNL     1       1.389  24.912  15.519  1.00  0.00     0.032 C 
HETATM   31  C16 UNL     1       1.536  24.673  16.998  1.00  0.00     0.007 C 
HETATM   32  C17 UNL     1       2.320  23.460  17.350  1.00  0.00    -0.010 C 
HETATM   33  C18 UNL     1       3.262  23.785  18.513  1.00  0.00     0.005 C 
HETATM   34  C20 UNL     1       3.578  23.268  16.536  1.00  0.00    -0.008 C 
HETATM   35  C19 UNL     1       4.241  24.259  17.433  1.00  0.00     0.005 C 
HETATM   36  C21 UNL     1       3.412  23.664  15.095  1.00  0.00     0.037 C 
ENDBRANCH  28  29
ENDBRANCH   5  28
BRANCH   6  37
HETATM   37  O10 UNL     1       2.445  25.649  10.736  1.00  0.00    -0.392 OA
ATOM     38  H10 UNL     1       3.334  25.329  10.840  1.00  0.00     0.210 HD
ENDBRANCH   6  37
TORSDOF 13
ENDMDL
MODEL 2
REMARK VINA RESULT: -7.431622129      1.456      2.143
REMARK  13 active torsions:
REMARK  status: ('A' for Active; 'I' for Inactive)
REMARK    1  A    between atoms: C1_2  and  C2_3 
REMARK    2  A    between atoms: C4_5  and  O2_6 
REMARK    3  A    between atoms: O2_6  and  C5_7 
REMARK    4  A    between atoms: C6_9  and  C7_10 
REMARK    5  A    between atoms: C7_10  and  O4_11 
REMARK    6  A    between atoms: C8_13  and  O5_14 
REMARK    7  A    between atoms: C9_16  and  O6_17 
REMARK    8  A    between atoms: C10_19  and  O7_20 
REMARK    9  A    between atoms: C11_22  and  C12_23 
REMARK   10  A    between atoms: C12_23  and  O8_24 
REMARK   11  A    between atoms: C13_26  and  O9_27 
REMARK   12  A    between atoms: O9_27  and  C14_28 
REMARK   13  A    between atoms: C22_36  and  O10_37 
ROOT
HETATM    1  C2  UNL     1       0.591  24.133  10.487  1.00  0.00     0.081 C 
HETATM    2  C3  UNL     1       1.598  23.262   9.842  1.00  0.00     0.046 C 
HETATM    3  C4  UNL     1       2.651  22.706  10.768  1.00  0.00     0.134 C 
HETATM    4  C11 UNL     1       2.521  22.978  12.199  1.00  0.00     0.070 C 
HETATM    5  C13 UNL     1       1.873  24.258  12.618  1.00  0.00     0.160 C 
HETATM    6  C22 UNL     1       1.358  25.055  11.412  1.00  0.00     0.158 C 
ENDROOT
BRANCH   3   7
HETATM    7  O2  UNL     1       3.866  23.134  10.200  1.00  0.00    -0.353 OA
BRANCH   7   8
HETATM    8  C5  UNL     1       4.558  22.108   9.550  1.00  0.00     0.292 C 
HETATM    9  O3  UNL     1       4.168  22.235   8.209  1.00  0.00    -0.348 OA
HETATM   10  C6  UNL     1       4.969  21.549   7.325  1.00  0.00     0.179 C 
HETATM   11  C8  UNL     1       6.315  22.294   7.366  1.00  0.00     0.180 C 
HETATM   12  C9  UNL     1       6.933  21.927   8.669  1.00  0.00     0.183 C 
HETATM   13  C10 UNL     1       6.001  22.149   9.813  1.00  0.00     0.204 C 
BRANCH  10  14
HETATM   14  C7  UNL     1       4.383  21.702   5.948  1.00  0.00     0.198 C 
BRANCH  14  15
HETATM   15  O4  UNL     1       4.886  20.636   5.175  1.00  0.00    -0.398 OA
ATOM     16  H4  UNL     1       5.126  21.001   4.331  1.00  0.00     0.209 HD
ENDBRANCH  14  15
ENDBRANCH  10  14
BRANCH  11  17
HETATM   17  O5  UNL     1       7.085  21.931   6.276  1.00  0.00    -0.390 OA
ATOM     18  H5  UNL     1       8.005  21.943   6.513  1.00  0.00     0.210 HD
ENDBRANCH  11  17
BRANCH  12  19
HETATM   19  O6  UNL     1       8.063  22.718   8.879  1.00  0.00    -0.390 OA
ATOM     20  H6  UNL     1       7.905  23.300   9.613  1.00  0.00     0.210 HD
ENDBRANCH  12  19
BRANCH  13  21
HETATM   21  O7  UNL     1       6.310  21.114  10.742  1.00  0.00    -0.388 OA
ATOM     22  H7  UNL     1       6.829  21.493  11.443  1.00  0.00     0.210 HD
ENDBRANCH  13  21
ENDBRANCH   7   8
ENDBRANCH   3   7
BRANCH   4  23
HETATM   23  C12 UNL     1       3.887  22.901  12.856  1.00  0.00     0.174 C 
BRANCH  23  24
HETATM   24  O8  UNL     1       4.611  24.105  12.662  1.00  0.00    -0.400 OA
ATOM     25  H8  UNL     1       5.544  23.962  12.772  1.00  0.00     0.209 HD
ENDBRANCH  23  24
ENDBRANCH   4  23
BRANCH   1  26
HETATM   26  C1  UNL     1      -0.488  23.406  11.181  1.00  0.00     0.238 C 
HETATM   27  O1  UNL     1      -0.924  22.388  10.670  1.00  0.00    -0.306 OA
ENDBRANCH   1  26
BRANCH   5  28
HETATM   28  O9  UNL     1       0.745  23.998  13.340  1.00  0.00    -0.377 OA
BRANCH  28  29
HETATM   29  C14 UNL     1       0.543  24.545  14.538  1.00  0.00     0.122 C 
HETATM   30  C15 UNL     1       1.530  24.000  15.540  1.00  0.00     0.032 C 
HETATM   31  C16 UNL     1       1.493  24.898  16.747  1.00  0.00     0.007 C 
HETATM   32  C17 UNL     1       0.411  25.918  16.721  1.00  0.00    -0.010 C 
HETATM   33  C18 UNL     1      -0.232  26.011  18.108  1.00  0.00     0.005 C 
HETATM   34  C20 UNL     1      -0.930  25.399  16.260  1.00  0.00    -0.008 C 
HETATM   35  C19 UNL     1      -1.131  24.863  17.637  1.00  0.00     0.005 C 
HETATM   36  C21 UNL     1      -0.820  24.391  15.149  1.00  0.00     0.037 C 
ENDBRANCH  28  29
ENDBRANCH   5  28
BRANCH   6  37
HETATM   37  O10 UNL     1       2.377  25.639  10.688  1.00  0.00    -0.392 OA
ATOM     38  H10 UNL     1       2.356  26.575  10.850  1.00  0.00     0.210 HD
ENDBRANCH   6  37
TORSDOF 13
ENDMDL
MODEL 3
REMARK VINA RESULT: -7.373809294      1.865      2.375
REMARK  13 active torsions:
REMARK  status: ('A' for Active; 'I' for Inactive)
REMARK    1  A    between atoms: C1_2  and  C2_3 
REMARK    2  A    between atoms: C4_5  and  O2_6 
REMARK    3  A    between atoms: O2_6  and  C5_7 
REMARK    4  A    between atoms: C6_9  and  C7_10 
REMARK    5  A    between atoms: C7_10  and  O4_11 
REMARK    6  A    between atoms: C8_13  and  O5_14 
REMARK    7  A    between atoms: C9_16  and  O6_17 
REMARK    8  A    between atoms: C10_19  and  O7_20 
REMARK    9  A    between atoms: C11_22  and  C12_23 
REMARK   10  A    between atoms: C12_23  and  O8_24 
REMARK   11  A    between atoms: C13_26  and  O9_27 
REMARK   12  A    between atoms: O9_27  and  C14_28 
REMARK   13  A    between atoms: C22_36  and  O10_37 
ROOT
HETATM    1  C2  UNL     1       0.593  24.083  10.518  1.00  0.00     0.081 C 
HETATM    2  C3  UNL     1       1.638  23.171  10.006  1.00  0.00     0.046 C 
HETATM    3  C4  UNL     1       2.716  22.812  10.998  1.00  0.00     0.134 C 
HETATM    4  C11 UNL     1       2.574  23.294  12.372  1.00  0.00     0.070 C 
HETATM    5  C13 UNL     1       1.869  24.592  12.595  1.00  0.00     0.160 C 
HETATM    6  C22 UNL     1       1.316  25.171  11.285  1.00  0.00     0.158 C 
ENDROOT
BRANCH   3   7
HETATM    7  O2  UNL     1       3.909  23.203  10.362  1.00  0.00    -0.353 OA
BRANCH   7   8
HETATM    8  C5  UNL     1       4.546  22.150   9.697  1.00  0.00     0.292 C 
HETATM    9  O3  UNL     1       4.133  22.295   8.365  1.00  0.00    -0.348 OA
HETATM   10  C6  UNL     1       4.887  21.578   7.464  1.00  0.00     0.179 C 
HETATM   11  C8  UNL     1       6.263  22.268   7.477  1.00  0.00     0.180 C 
HETATM   12  C9  UNL     1       6.893  21.874   8.768  1.00  0.00     0.183 C 
HETATM   13  C10 UNL     1       5.995  22.132   9.930  1.00  0.00     0.204 C 
BRANCH  10  14
HETATM   14  C7  UNL     1       4.280  21.757   6.100  1.00  0.00     0.198 C 
BRANCH  14  15
HETATM   15  O4  UNL     1       4.773  20.707   5.298  1.00  0.00    -0.398 OA
ATOM     16  H4  UNL     1       4.020  20.196   5.026  1.00  0.00     0.209 HD
ENDBRANCH  14  15
ENDBRANCH  10  14
BRANCH  11  17
HETATM   17  O5  UNL     1       6.995  21.876   6.372  1.00  0.00    -0.390 OA
ATOM     18  H5  UNL     1       7.205  22.634   5.839  1.00  0.00     0.210 HD
ENDBRANCH  11  17
BRANCH  12  19
HETATM   19  O6  UNL     1       8.058  22.618   8.954  1.00  0.00    -0.390 OA
ATOM     20  H6  UNL     1       7.881  23.530   8.757  1.00  0.00     0.210 HD
ENDBRANCH  12  19
BRANCH  13  21
HETATM   21  O7  UNL     1       6.280  21.084  10.852  1.00  0.00    -0.388 OA
ATOM     22  H7  UNL     1       7.183  20.818  10.725  1.00  0.00     0.210 HD
ENDBRANCH  13  21
ENDBRANCH   7   8
ENDBRANCH   3   7
BRANCH   4  23
HETATM   23  C12 UNL     1       3.943  23.381  13.022  1.00  0.00     0.174 C 
BRANCH  23  24
HETATM   24  O8  UNL     1       4.535  22.098  13.133  1.00  0.00    -0.400 OA
ATOM     25  H8  UNL     1       5.035  22.023  13.938  1.00  0.00     0.209 HD
ENDBRANCH  23  24
ENDBRANCH   4  23
BRANCH   1  26
HETATM   26  C1  UNL     1      -0.452  23.424  11.323  1.00  0.00     0.238 C 
HETATM   27  O1  UNL     1      -1.133  22.561  10.795  1.00  0.00    -0.306 OA
ENDBRANCH   1  26
BRANCH   5  28
HETATM   28  O9  UNL     1       0.754  24.395  13.357  1.00  0.00    -0.377 OA
BRANCH  28  29
HETATM   29  C14 UNL     1       0.556  25.068  14.489  1.00  0.00     0.122 C 
HETATM   30  C15 UNL     1      -0.460  24.361  15.352  1.00  0.00     0.032 C 
HETATM   31  C16 UNL     1      -0.371  24.953  16.734  1.00  0.00     0.007 C 
HETATM   32  C17 UNL     1       0.508  26.149  16.834  1.00  0.00    -0.010 C 
HETATM   33  C18 UNL     1      -0.169  27.202  17.716  1.00  0.00     0.005 C 
HETATM   34  C20 UNL     1       0.341  27.147  15.713  1.00  0.00    -0.008 C 
HETATM   35  C19 UNL     1      -0.862  27.663  16.429  1.00  0.00     0.005 C 
HETATM   36  C21 UNL     1       0.106  26.496  14.377  1.00  0.00     0.037 C 
ENDBRANCH  28  29
ENDBRANCH   5  28
BRANCH   6  37
HETATM   37  O10 UNL     1       2.307  25.682  10.473  1.00  0.00    -0.392 OA
ATOM     38  H10 UNL     1       3.132  25.621  10.939  1.00  0.00     0.210 HD
ENDBRANCH   6  37
TORSDOF 13
ENDMDL
MODEL 4
REMARK VINA RESULT: -7.322026366      2.275      8.815
REMARK  13 active torsions:
REMARK  status: ('A' for Active; 'I' for Inactive)
REMARK    1  A    between atoms: C1_2  and  C2_3 
REMARK    2  A    between atoms: C4_5  and  O2_6 
REMARK    3  A    between atoms: O2_6  and  C5_7 
REMARK    4  A    between atoms: C6_9  and  C7_10 
REMARK    5  A    between atoms: C7_10  and  O4_11 
REMARK    6  A    between atoms: C8_13  and  O5_14 
REMARK    7  A    between atoms: C9_16  and  O6_17 
REMARK    8  A    between atoms: C10_19  and  O7_20 
REMARK    9  A    between atoms: C11_22  and  C12_23 
REMARK   10  A    between atoms: C12_23  and  O8_24 
REMARK   11  A    between atoms: C13_26  and  O9_27 
REMARK   12  A    between atoms: O9_27  and  C14_28 
REMARK   13  A    between atoms: C22_36  and  O10_37 
ROOT
HETATM    1  C2  UNL     1       4.827  23.263  12.656  1.00  0.00     0.081 C 
HETATM    2  C3  UNL     1       3.838  23.570  13.712  1.00  0.00     0.046 C 
HETATM    3  C4  UNL     1       2.403  23.621  13.249  1.00  0.00     0.134 C 
HETATM    4  C11 UNL     1       2.115  23.263  11.861  1.00  0.00     0.070 C 
HETATM    5  C13 UNL     1       3.158  23.543  10.829  1.00  0.00     0.160 C 
HETATM    6  C22 UNL     1       4.442  24.104  11.456  1.00  0.00     0.158 C 
ENDROOT
BRANCH   3   7
HETATM    7  O2  UNL     1       1.970  24.907  13.623  1.00  0.00    -0.353 OA
BRANCH   7   8
HETATM    8  C5  UNL     1       0.861  24.886  14.473  1.00  0.00     0.292 C 
HETATM    9  O3  UNL     1       1.364  24.358  15.670  1.00  0.00    -0.348 OA
HETATM   10  C6  UNL     1       0.540  24.548  16.756  1.00  0.00     0.179 C 
HETATM   11  C8  UNL     1       0.576  26.066  17.006  1.00  0.00     0.180 C 
HETATM   12  C9  UNL     1      -0.235  26.668  15.913  1.00  0.00     0.183 C 
HETATM   13  C10 UNL     1       0.199  26.193  14.567  1.00  0.00     0.204 C 
BRANCH  10  14
HETATM   14  C7  UNL     1       1.161  23.859  17.940  1.00  0.00     0.198 C 
BRANCH  14  15
HETATM   15  O4  UNL     1       2.444  24.421  18.107  1.00  0.00    -0.398 OA
ATOM     16  H4  UNL     1       3.003  23.729  18.441  1.00  0.00     0.209 HD
ENDBRANCH  14  15
ENDBRANCH  10  14
BRANCH  11  17
HETATM   17  O5  UNL     1       0.083  26.346  18.267  1.00  0.00    -0.390 OA
ATOM     18  H5  UNL     1      -0.316  27.209  18.274  1.00  0.00     0.210 HD
ENDBRANCH  11  17
BRANCH  12  19
HETATM   19  O6  UNL     1      -0.089  28.055  15.944  1.00  0.00    -0.390 OA
ATOM     20  H6  UNL     1      -0.924  28.462  15.743  1.00  0.00     0.210 HD
ENDBRANCH  12  19
BRANCH  13  21
HETATM   21  O7  UNL     1      -0.997  26.138  13.795  1.00  0.00    -0.388 OA
ATOM     22  H7  UNL     1      -1.623  26.742  14.178  1.00  0.00     0.210 HD
ENDBRANCH  13  21
ENDBRANCH   7   8
ENDBRANCH   3   7
BRANCH   4  23
HETATM   23  C12 UNL     1       0.825  23.930  11.423  1.00  0.00     0.174 C 
BRANCH  23  24
HETATM   24  O8  UNL     1       1.070  25.238  10.935  1.00  0.00    -0.400 OA
ATOM     25  H8  UNL     1       1.008  25.265   9.987  1.00  0.00     0.209 HD
ENDBRANCH  23  24
ENDBRANCH   4  23
BRANCH   1  26
HETATM   26  C1  UNL     1       4.945  21.831  12.327  1.00  0.00     0.238 C 
HETATM   27  O1  UNL     1       6.014  21.416  11.913  1.00  0.00    -0.306 OA
ENDBRANCH   1  26
BRANCH   5  28
HETATM   28  O9  UNL     1       3.566  22.379  10.245  1.00  0.00    -0.377 OA
BRANCH  28  29
HETATM   29  C14 UNL     1       3.828  22.307   8.942  1.00  0.00     0.122 C 
HETATM   30  C15 UNL     1       2.587  21.923   8.174  1.00  0.00     0.032 C 
HETATM   31  C16 UNL     1       2.847  22.209   6.719  1.00  0.00     0.007 C 
HETATM   32  C17 UNL     1       4.251  22.590   6.410  1.00  0.00    -0.010 C 
HETATM   33  C18 UNL     1       4.696  21.884   5.126  1.00  0.00     0.005 C 
HETATM   34  C20 UNL     1       5.297  21.747   7.100  1.00  0.00    -0.008 C 
HETATM   35  C19 UNL     1       5.082  20.717   6.042  1.00  0.00     0.005 C 
HETATM   36  C21 UNL     1       4.913  21.367   8.503  1.00  0.00     0.037 C 
ENDBRANCH  28  29
ENDBRANCH   5  28
BRANCH   6  37
HETATM   37  O10 UNL     1       4.299  25.411  11.876  1.00  0.00    -0.392 OA
ATOM     38  H10 UNL     1       4.832  25.961  11.315  1.00  0.00     0.210 HD
ENDBRANCH   6  37
TORSDOF 13
ENDMDL
MODEL 5
REMARK VINA RESULT: -7.216934691      2.358      3.772
REMARK  13 active torsions:
REMARK  status: ('A' for Active; 'I' for Inactive)
REMARK    1  A    between atoms: C1_2  and  C2_3 
REMARK    2  A    between atoms: C4_5  and  O2_6 
REMARK    3  A    between atoms: O2_6  and  C5_7 
REMARK    4  A    between atoms: C6_9  and  C7_10 
REMARK    5  A    between atoms: C7_10  and  O4_11 
REMARK    6  A    between atoms: C8_13  and  O5_14 
REMARK    7  A    between atoms: C9_16  and  O6_17 
REMARK    8  A    between atoms: C10_19  and  O7_20 
REMARK    9  A    between atoms: C11_22  and  C12_23 
REMARK   10  A    between atoms: C12_23  and  O8_24 
REMARK   11  A    between atoms: C13_26  and  O9_27 
REMARK   12  A    between atoms: O9_27  and  C14_28 
REMARK   13  A    between atoms: C22_36  and  O10_37 
ROOT
HETATM    1  C2  UNL     1       3.893  24.792  12.054  1.00  0.00     0.081 C 
HETATM    2  C3  UNL     1       4.144  23.780  11.005  1.00  0.00     0.046 C 
HETATM    3  C4  UNL     1       2.910  23.250  10.319  1.00  0.00     0.134 C 
HETATM    4  C11 UNL     1       1.621  23.848  10.663  1.00  0.00     0.070 C 
HETATM    5  C13 UNL     1       1.437  24.380  12.048  1.00  0.00     0.160 C 
HETATM    6  C22 UNL     1       2.728  24.275  12.872  1.00  0.00     0.158 C 
ENDROOT
BRANCH   3   7
HETATM    7  O2  UNL     1       2.981  21.859  10.518  1.00  0.00    -0.353 OA
BRANCH   7   8
HETATM    8  C5  UNL     1       3.748  21.205   9.549  1.00  0.00     0.292 C 
HETATM    9  O3  UNL     1       3.379  21.829   8.349  1.00  0.00    -0.348 OA
HETATM   10  C6  UNL     1       4.239  21.585   7.303  1.00  0.00     0.179 C 
HETATM   11  C8  UNL     1       5.535  22.318   7.690  1.00  0.00     0.180 C 
HETATM   12  C9  UNL     1       6.148  21.500   8.772  1.00  0.00     0.183 C 
HETATM   13  C10 UNL     1       5.181  21.209   9.869  1.00  0.00     0.204 C 
BRANCH  10  14
HETATM   14  C7  UNL     1       3.674  22.238   6.072  1.00  0.00     0.198 C 
BRANCH  14  15
HETATM   15  O4  UNL     1       4.292  21.617   4.966  1.00  0.00    -0.398 OA
ATOM     16  H4  UNL     1       4.063  22.133   4.202  1.00  0.00     0.209 HD
ENDBRANCH  14  15
ENDBRANCH  10  14
BRANCH  11  17
HETATM   17  O5  UNL     1       6.349  22.451   6.580  1.00  0.00    -0.390 OA
ATOM     18  H5  UNL     1       6.873  23.240   6.656  1.00  0.00     0.210 HD
ENDBRANCH  11  17
BRANCH  12  19
HETATM   19  O6  UNL     1       7.222  22.199   9.322  1.00  0.00    -0.390 OA
ATOM     20  H6  UNL     1       8.031  21.879   8.941  1.00  0.00     0.210 HD
ENDBRANCH  12  19
BRANCH  13  21
HETATM   21  O7  UNL     1       5.533  19.909  10.333  1.00  0.00    -0.388 OA
ATOM     22  H7  UNL     1       5.922  19.999  11.195  1.00  0.00     0.210 HD
ENDBRANCH  13  21
ENDBRANCH   7   8
ENDBRANCH   3   7
BRANCH   4  23
HETATM   23  C12 UNL     1       0.510  22.852  10.388  1.00  0.00     0.174 C 
BRANCH  23  24
HETATM   24  O8  UNL     1       0.513  22.450   9.028  1.00  0.00    -0.400 OA
ATOM     25  H8  UNL     1      -0.348  22.552   8.641  1.00  0.00     0.209 HD
ENDBRANCH  23  24
ENDBRANCH   4  23
BRANCH   1  26
HETATM   26  C1  UNL     1       3.664  26.156  11.543  1.00  0.00     0.238 C 
HETATM   27  O1  UNL     1       4.530  26.996  11.721  1.00  0.00    -0.306 OA
ENDBRANCH   1  26
BRANCH   5  28
HETATM   28  O9  UNL     1       1.188  25.720  12.006  1.00  0.00    -0.377 OA
BRANCH  28  29
HETATM   29  C14 UNL     1       0.321  26.294  12.840  1.00  0.00     0.122 C 
HETATM   30  C15 UNL     1      -0.206  27.578  12.250  1.00  0.00     0.032 C 
HETATM   31  C16 UNL     1      -1.419  27.979  13.048  1.00  0.00     0.007 C 
HETATM   32  C17 UNL     1      -1.653  27.156  14.264  1.00  0.00    -0.010 C 
HETATM   33  C18 UNL     1      -2.057  28.071  15.424  1.00  0.00     0.005 C 
HETATM   34  C20 UNL     1      -0.412  26.868  15.076  1.00  0.00    -0.008 C 
HETATM   35  C19 UNL     1      -0.553  28.230  15.668  1.00  0.00     0.005 C 
HETATM   36  C21 UNL     1       0.803  26.622  14.224  1.00  0.00     0.037 C 
ENDBRANCH  28  29
ENDBRANCH   5  28
BRANCH   6  37
HETATM   37  O10 UNL     1       3.012  22.979  13.251  1.00  0.00    -0.392 OA
ATOM     38  H10 UNL     1       3.189  22.474  12.466  1.00  0.00     0.210 HD
ENDBRANCH   6  37
TORSDOF 13
ENDMDL
