MODEL 1
REMARK VINA RESULT: -7.303995298      0.000      0.000
REMARK  11 active torsions:
REMARK  status: ('A' for Active; 'I' for Inactive)
REMARK    1  A    between atoms: C1_2  and  C2_4 
REMARK    2  A    between atoms: C2_4  and  N1_5 
REMARK    3  A    between atoms: N1_5  and  C3_7 
REMARK    4  A    between atoms: C6_11  and  O4_12 
REMARK    5  A    between atoms: C7_14  and  O5_15 
REMARK    6  A    between atoms: C8_17  and  O6_18 
REMARK    7  A    between atoms: O6_18  and  C9_19 
REMARK    8  A    between atoms: C12_22  and  O7_23 
REMARK    9  A    between atoms: O7_23  and  C13_24 
REMARK   10  A    between atoms: C19_31  and  O9_32 
REMARK   11  A    between atoms: C21_35  and  O10_36 
ROOT
HETATM    1  C9  UNL     1       0.146  25.372  14.237  1.00  0.00     0.151 C 
HETATM    2  C10 UNL     1       0.407  24.157  13.401  1.00  0.00     0.047 C 
HETATM    3  C11 UNL     1       1.238  24.352  12.192  1.00  0.00     0.080 C 
HETATM    4  C12 UNL     1       2.694  23.908  12.444  1.00  0.00     0.267 C 
HETATM    5  O8  UNL     1       3.482  25.017  12.116  1.00  0.00    -0.358 OA
HETATM    6  C18 UNL     1       2.795  25.685  11.103  1.00  0.00     0.209 C 
HETATM    7  C19 UNL     1       1.347  25.696  11.593  1.00  0.00     0.090 C 
HETATM    8  C20 UNL     1       1.212  26.783  12.586  1.00  0.00     0.075 C 
HETATM    9  C21 UNL     1      -0.069  26.587  13.371  1.00  0.00     0.150 C 
ENDROOT
BRANCH   1  10
HETATM   10  O6  UNL     1       1.090  25.503  15.213  1.00  0.00    -0.373 OA
BRANCH  10  11
HETATM   11  C8  UNL     1       0.816  24.967  16.428  1.00  0.00     0.177 C 
HETATM   12  C3  UNL     1       2.040  24.414  17.098  1.00  0.00     0.132 C 
HETATM   13  C4  UNL     1       1.587  23.607  18.314  1.00  0.00     0.195 C 
HETATM   14  O3  UNL     1       0.202  23.505  18.257  1.00  0.00    -0.386 OA
HETATM   15  C5  UNL     1      -0.434  24.454  19.047  1.00  0.00     0.201 C 
HETATM   16  C6  UNL     1      -0.887  25.608  18.158  1.00  0.00     0.173 C 
HETATM   17  C7  UNL     1       0.333  26.079  17.395  1.00  0.00     0.180 C 
BRANCH  12  18
HETATM   18  N1  UNL     1       2.842  23.637  16.211  1.00  0.00    -0.403 N 
ATOM     19  H1  UNL     1       2.460  23.263  15.342  1.00  0.00     0.154 HD
BRANCH  18  20
HETATM   20  C2  UNL     1       4.192  23.404  16.583  1.00  0.00     0.228 C 
BRANCH  20  21
HETATM   21  C1  UNL     1       4.900  22.594  15.605  1.00  0.00     0.190 C 
HETATM   22  O1  UNL     1       5.068  21.373  15.691  1.00  0.00    -0.647 OA
HETATM   23  O2  UNL     1       5.418  23.299  14.488  1.00  0.00    -0.647 OA
ENDBRANCH  20  21
ENDBRANCH  18  20
ENDBRANCH  12  18
BRANCH  16  24
HETATM   24  O4  UNL     1      -1.814  25.064  17.254  1.00  0.00    -0.391 OA
ATOM     25  H4  UNL     1      -1.537  25.344  16.389  1.00  0.00     0.210 HD
ENDBRANCH  16  24
BRANCH  17  26
HETATM   26  O5  UNL     1       0.185  27.290  16.774  1.00  0.00    -0.390 OA
ATOM     27  H5  UNL     1       0.922  27.881  16.876  1.00  0.00     0.210 HD
ENDBRANCH  17  26
ENDBRANCH  10  11
ENDBRANCH   1  10
BRANCH   9  28
HETATM   28  O10 UNL     1      -1.069  26.316  12.404  1.00  0.00    -0.393 OA
ATOM     29  H10 UNL     1      -1.846  25.976  12.832  1.00  0.00     0.210 HD
ENDBRANCH   9  28
BRANCH   4  30
HETATM   30  O7  UNL     1       2.917  22.831  11.655  1.00  0.00    -0.356 OA
BRANCH  30  31
HETATM   31  C13 UNL     1       4.143  22.565  11.170  1.00  0.00     0.124 C 
HETATM   32  C14 UNL     1       4.720  21.241  11.636  1.00  0.00     0.032 C 
HETATM   33  C15 UNL     1       5.004  20.427  10.399  1.00  0.00     0.002 C 
HETATM   34  C16 UNL     1       4.151  21.048   9.338  1.00  0.00     0.002 C 
HETATM   35  C17 UNL     1       4.264  22.533   9.670  1.00  0.00     0.032 C 
ENDBRANCH  30  31
ENDBRANCH   4  30
BRANCH   7  36
HETATM   36  O9  UNL     1       0.562  25.874  10.456  1.00  0.00    -0.387 OA
ATOM     37  H9  UNL     1       0.870  26.561   9.878  1.00  0.00     0.210 HD
ENDBRANCH   7  36
TORSDOF 11
ENDMDL
MODEL 2
REMARK VINA RESULT: -7.131467676      1.609      6.387
REMARK  11 active torsions:
REMARK  status: ('A' for Active; 'I' for Inactive)
REMARK    1  A    between atoms: C1_2  and  C2_4 
REMARK    2  A    between atoms: C2_4  and  N1_5 
REMARK    3  A    between atoms: N1_5  and  C3_7 
REMARK    4  A    between atoms: C6_11  and  O4_12 
REMARK    5  A    between atoms: C7_14  and  O5_15 
REMARK    6  A    between atoms: C8_17  and  O6_18 
REMARK    7  A    between atoms: O6_18  and  C9_19 
REMARK    8  A    between atoms: C12_22  and  O7_23 
REMARK    9  A    between atoms: O7_23  and  C13_24 
REMARK   10  A    between atoms: C19_31  and  O9_32 
REMARK   11  A    between atoms: C21_35  and  O10_36 
ROOT
HETATM    1  C9  UNL     1       2.165  25.432  11.679  1.00  0.00     0.151 C 
HETATM    2  C10 UNL     1       1.998  26.330  12.865  1.00  0.00     0.047 C 
HETATM    3  C11 UNL     1       0.612  26.717  13.211  1.00  0.00     0.080 C 
HETATM    4  C12 UNL     1       0.075  25.864  14.380  1.00  0.00     0.267 C 
HETATM    5  O8  UNL     1      -1.115  25.298  13.909  1.00  0.00    -0.358 OA
HETATM    6  C18 UNL     1      -1.647  26.223  13.012  1.00  0.00     0.209 C 
HETATM    7  C19 UNL     1      -0.440  26.656  12.180  1.00  0.00     0.090 C 
HETATM    8  C20 UNL     1      -0.191  25.611  11.163  1.00  0.00     0.075 C 
HETATM    9  C21 UNL     1       1.196  25.797  10.584  1.00  0.00     0.150 C 
ENDROOT
BRANCH   1  10
HETATM   10  O6  UNL     1       2.161  24.121  12.057  1.00  0.00    -0.373 OA
BRANCH  10  11
HETATM   11  C8  UNL     1       3.187  23.343  11.634  1.00  0.00     0.177 C 
HETATM   12  C3  UNL     1       3.893  22.661  12.771  1.00  0.00     0.132 C 
HETATM   13  C4  UNL     1       5.175  22.037  12.223  1.00  0.00     0.195 C 
HETATM   14  O3  UNL     1       5.335  22.487  10.918  1.00  0.00    -0.386 OA
HETATM   15  C5  UNL     1       4.868  21.575   9.980  1.00  0.00     0.201 C 
HETATM   16  C6  UNL     1       3.476  22.007   9.529  1.00  0.00     0.173 C 
HETATM   17  C7  UNL     1       2.640  22.169  10.780  1.00  0.00     0.180 C 
BRANCH  12  18
HETATM   18  N1  UNL     1       4.153  23.546  13.859  1.00  0.00    -0.403 N 
ATOM     19  H1  UNL     1       4.840  24.295  13.780  1.00  0.00     0.154 HD
BRANCH  18  20
HETATM   20  C2  UNL     1       3.418  23.343  15.058  1.00  0.00     0.228 C 
BRANCH  20  21
HETATM   21  C1  UNL     1       4.271  22.942  16.164  1.00  0.00     0.190 C 
HETATM   22  O1  UNL     1       4.361  23.547  17.238  1.00  0.00    -0.647 OA
HETATM   23  O2  UNL     1       5.036  21.767  15.951  1.00  0.00    -0.647 OA
ENDBRANCH  20  21
ENDBRANCH  18  20
ENDBRANCH  12  18
BRANCH  16  24
HETATM   24  O4  UNL     1       3.635  23.260   8.914  1.00  0.00    -0.391 OA
ATOM     25  H4  UNL     1       2.791  23.479   8.538  1.00  0.00     0.210 HD
ENDBRANCH  16  24
BRANCH  17  26
HETATM   26  O5  UNL     1       1.293  22.264  10.558  1.00  0.00    -0.390 OA
ATOM     27  H5  UNL     1       1.032  22.989  10.002  1.00  0.00     0.210 HD
ENDBRANCH  17  26
ENDBRANCH  10  11
ENDBRANCH   1  10
BRANCH   9  28
HETATM   28  O10 UNL     1       1.303  27.180  10.290  1.00  0.00    -0.393 OA
ATOM     29  H10 UNL     1       0.443  27.535  10.097  1.00  0.00     0.210 HD
ENDBRANCH   9  28
BRANCH   4  30
HETATM   30  O7  UNL     1      -0.099  26.701  15.428  1.00  0.00    -0.356 OA
BRANCH  30  31
HETATM   31  C13 UNL     1       0.498  26.469  16.612  1.00  0.00     0.124 C 
HETATM   32  C14 UNL     1      -0.285  26.974  17.810  1.00  0.00     0.032 C 
HETATM   33  C15 UNL     1      -0.549  25.781  18.694  1.00  0.00     0.002 C 
HETATM   34  C16 UNL     1      -0.383  24.600  17.790  1.00  0.00     0.002 C 
HETATM   35  C17 UNL     1       0.800  25.028  16.925  1.00  0.00     0.032 C 
ENDBRANCH  30  31
ENDBRANCH   4  30
BRANCH   7  36
HETATM   36  O9  UNL     1      -0.775  27.896  11.639  1.00  0.00    -0.387 OA
ATOM     37  H9  UNL     1      -1.706  28.015  11.496  1.00  0.00     0.210 HD
ENDBRANCH   7  36
TORSDOF 11
ENDMDL
MODEL 3
REMARK VINA RESULT: -7.067503861      0.779      1.086
REMARK  11 active torsions:
REMARK  status: ('A' for Active; 'I' for Inactive)
REMARK    1  A    between atoms: C1_2  and  C2_4 
REMARK    2  A    between atoms: C2_4  and  N1_5 
REMARK    3  A    between atoms: N1_5  and  C3_7 
REMARK    4  A    between atoms: C6_11  and  O4_12 
REMARK    5  A    between atoms: C7_14  and  O5_15 
REMARK    6  A    between atoms: C8_17  and  O6_18 
REMARK    7  A    between atoms: O6_18  and  C9_19 
REMARK    8  A    between atoms: C12_22  and  O7_23 
REMARK    9  A    between atoms: O7_23  and  C13_24 
REMARK   10  A    between atoms: C19_31  and  O9_32 
REMARK   11  A    between atoms: C21_35  and  O10_36 
ROOT
HETATM    1  C9  UNL     1       0.108  24.762  14.089  1.00  0.00     0.151 C 
HETATM    2  C10 UNL     1       0.878  23.926  13.114  1.00  0.00     0.047 C 
HETATM    3  C11 UNL     1       1.371  24.613  11.899  1.00  0.00     0.080 C 
HETATM    4  C12 UNL     1       2.865  24.976  12.039  1.00  0.00     0.267 C 
HETATM    5  O8  UNL     1       2.935  26.354  11.802  1.00  0.00    -0.358 OA
HETATM    6  C18 UNL     1       1.910  26.637  10.899  1.00  0.00     0.209 C 
HETATM    7  C19 UNL     1       0.717  25.855  11.448  1.00  0.00     0.090 C 
HETATM    8  C20 UNL     1       0.135  26.638  12.561  1.00  0.00     0.075 C 
HETATM    9  C21 UNL     1      -0.782  25.746  13.372  1.00  0.00     0.150 C 
ENDROOT
BRANCH   1  10
HETATM   10  O6  UNL     1       0.936  25.296  15.032  1.00  0.00    -0.373 OA
BRANCH  10  11
HETATM   11  C8  UNL     1       0.790  24.867  16.310  1.00  0.00     0.177 C 
HETATM   12  C3  UNL     1       2.096  24.460  16.929  1.00  0.00     0.132 C 
HETATM   13  C4  UNL     1       1.792  23.751  18.248  1.00  0.00     0.195 C 
HETATM   14  O3  UNL     1       0.418  23.558  18.312  1.00  0.00    -0.386 OA
HETATM   15  C5  UNL     1      -0.223  24.540  19.059  1.00  0.00     0.201 C 
HETATM   16  C6  UNL     1      -0.819  25.569  18.104  1.00  0.00     0.173 C 
HETATM   17  C7  UNL     1       0.304  26.037  17.205  1.00  0.00     0.180 C 
BRANCH  12  18
HETATM   18  N1  UNL     1       2.882  23.650  16.057  1.00  0.00    -0.403 N 
ATOM     19  H1  UNL     1       2.525  23.345  15.151  1.00  0.00     0.154 HD
BRANCH  18  20
HETATM   20  C2  UNL     1       4.182  23.283  16.497  1.00  0.00     0.228 C 
BRANCH  20  21
HETATM   21  C1  UNL     1       4.895  22.492  15.508  1.00  0.00     0.190 C 
HETATM   22  O1  UNL     1       5.315  21.345  15.694  1.00  0.00    -0.647 OA
HETATM   23  O2  UNL     1       5.101  23.123  14.254  1.00  0.00    -0.647 OA
ENDBRANCH  20  21
ENDBRANCH  18  20
ENDBRANCH  12  18
BRANCH  16  24
HETATM   24  O4  UNL     1      -1.771  24.882  17.333  1.00  0.00    -0.391 OA
ATOM     25  H4  UNL     1      -1.509  24.995  16.426  1.00  0.00     0.210 HD
ENDBRANCH  16  24
BRANCH  17  26
HETATM   26  O5  UNL     1       0.028  27.169  16.486  1.00  0.00    -0.390 OA
ATOM     27  H5  UNL     1       0.790  27.607  16.126  1.00  0.00     0.210 HD
ENDBRANCH  17  26
ENDBRANCH  10  11
ENDBRANCH   1  10
BRANCH   9  28
HETATM   28  O10 UNL     1      -1.586  25.064  12.425  1.00  0.00    -0.393 OA
ATOM     29  H10 UNL     1      -1.632  24.141  12.648  1.00  0.00     0.210 HD
ENDBRANCH   9  28
BRANCH   4  30
HETATM   30  O7  UNL     1       3.535  24.234  11.127  1.00  0.00    -0.356 OA
BRANCH  30  31
HETATM   31  C13 UNL     1       3.054  23.052  10.701  1.00  0.00     0.124 C 
HETATM   32  C14 UNL     1       2.997  22.915   9.191  1.00  0.00     0.032 C 
HETATM   33  C15 UNL     1       3.838  21.716   8.829  1.00  0.00     0.002 C 
HETATM   34  C16 UNL     1       4.732  21.515  10.011  1.00  0.00     0.002 C 
HETATM   35  C17 UNL     1       3.796  21.830  11.174  1.00  0.00     0.032 C 
ENDBRANCH  30  31
ENDBRANCH   4  30
BRANCH   7  36
HETATM   36  O9  UNL     1      -0.151  25.679  10.372  1.00  0.00    -0.387 OA
ATOM     37  H9  UNL     1      -1.057  25.878  10.571  1.00  0.00     0.210 HD
ENDBRANCH   7  36
TORSDOF 11
ENDMDL
MODEL 4
REMARK VINA RESULT: -6.985086511      1.660      2.168
REMARK  11 active torsions:
REMARK  status: ('A' for Active; 'I' for Inactive)
REMARK    1  A    between atoms: C1_2  and  C2_4 
REMARK    2  A    between atoms: C2_4  and  N1_5 
REMARK    3  A    between atoms: N1_5  and  C3_7 
REMARK    4  A    between atoms: C6_11  and  O4_12 
REMARK    5  A    between atoms: C7_14  and  O5_15 
REMARK    6  A    between atoms: C8_17  and  O6_18 
REMARK    7  A    between atoms: O6_18  and  C9_19 
REMARK    8  A    between atoms: C12_22  and  O7_23 
REMARK    9  A    between atoms: O7_23  and  C13_24 
REMARK   10  A    between atoms: C19_31  and  O9_32 
REMARK   11  A    between atoms: C21_35  and  O10_36 
ROOT
HETATM    1  C9  UNL     1       0.207  24.471  14.216  1.00  0.00     0.151 C 
HETATM    2  C10 UNL     1       1.216  23.756  13.371  1.00  0.00     0.047 C 
HETATM    3  C11 UNL     1       1.553  24.382  12.073  1.00  0.00     0.080 C 
HETATM    4  C12 UNL     1       2.883  25.159  12.163  1.00  0.00     0.267 C 
HETATM    5  O8  UNL     1       2.584  26.458  11.735  1.00  0.00    -0.358 OA
HETATM    6  C18 UNL     1       1.559  26.322  10.799  1.00  0.00     0.209 C 
HETATM    7  C19 UNL     1       0.603  25.323  11.449  1.00  0.00     0.090 C 
HETATM    8  C20 UNL     1      -0.216  26.057  12.439  1.00  0.00     0.075 C 
HETATM    9  C21 UNL     1      -0.887  25.065  13.366  1.00  0.00     0.150 C 
ENDROOT
BRANCH   1  10
HETATM   10  O6  UNL     1       0.819  25.335  15.077  1.00  0.00    -0.373 OA
BRANCH  10  11
HETATM   11  C8  UNL     1       0.164  25.647  16.223  1.00  0.00     0.177 C 
HETATM   12  C3  UNL     1       0.936  25.248  17.448  1.00  0.00     0.132 C 
HETATM   13  C4  UNL     1       0.011  25.393  18.655  1.00  0.00     0.195 C 
HETATM   14  O3  UNL     1      -1.268  25.650  18.174  1.00  0.00    -0.386 OA
HETATM   15  C5  UNL     1      -1.575  27.005  18.177  1.00  0.00     0.201 C 
HETATM   16  C6  UNL     1      -1.373  27.555  16.768  1.00  0.00     0.173 C 
HETATM   17  C7  UNL     1       0.034  27.187  16.351  1.00  0.00     0.180 C 
BRANCH  12  18
HETATM   18  N1  UNL     1       1.477  23.932  17.346  1.00  0.00    -0.403 N 
ATOM     19  H1  UNL     1       1.206  23.306  16.588  1.00  0.00     0.154 HD
BRANCH  18  20
HETATM   20  C2  UNL     1       2.409  23.529  18.339  1.00  0.00     0.228 C 
BRANCH  20  21
HETATM   21  C1  UNL     1       3.782  23.808  17.951  1.00  0.00     0.190 C 
HETATM   22  O1  UNL     1       4.231  23.674  16.808  1.00  0.00    -0.647 OA
HETATM   23  O2  UNL     1       4.630  24.263  18.993  1.00  0.00    -0.647 OA
ENDBRANCH  20  21
ENDBRANCH  18  20
ENDBRANCH  12  18
BRANCH  16  24
HETATM   24  O4  UNL     1      -2.289  26.875  15.948  1.00  0.00    -0.391 OA
ATOM     25  H4  UNL     1      -1.940  26.000  15.830  1.00  0.00     0.210 HD
ENDBRANCH  16  24
BRANCH  17  26
HETATM   26  O5  UNL     1       0.493  27.847  15.243  1.00  0.00    -0.390 OA
ATOM     27  H5  UNL     1       1.313  27.517  14.895  1.00  0.00     0.210 HD
ENDBRANCH  17  26
ENDBRANCH  10  11
ENDBRANCH   1  10
BRANCH   9  28
HETATM   28  O10 UNL     1      -1.435  24.066  12.522  1.00  0.00    -0.393 OA
ATOM     29  H10 UNL     1      -0.737  23.529  12.165  1.00  0.00     0.210 HD
ENDBRANCH   9  28
BRANCH   4  30
HETATM   30  O7  UNL     1       3.768  24.515  11.367  1.00  0.00    -0.356 OA
BRANCH  30  31
HETATM   31  C13 UNL     1       4.845  23.895  11.882  1.00  0.00     0.124 C 
HETATM   32  C14 UNL     1       4.772  23.670  13.381  1.00  0.00     0.032 C 
HETATM   33  C15 UNL     1       4.890  22.184  13.607  1.00  0.00     0.002 C 
HETATM   34  C16 UNL     1       4.521  21.574  12.292  1.00  0.00     0.002 C 
HETATM   35  C17 UNL     1       5.164  22.542  11.303  1.00  0.00     0.032 C 
ENDBRANCH  30  31
ENDBRANCH   4  30
BRANCH   7  36
HETATM   36  O9  UNL     1      -0.138  24.771  10.407  1.00  0.00    -0.387 OA
ATOM     37  H9  UNL     1      -0.163  25.308   9.624  1.00  0.00     0.210 HD
ENDBRANCH   7  36
TORSDOF 11
ENDMDL
MODEL 5
REMARK VINA RESULT: -6.882028840      2.142      6.227
REMARK  11 active torsions:
REMARK  status: ('A' for Active; 'I' for Inactive)
REMARK    1  A    between atoms: C1_2  and  C2_4 
REMARK    2  A    between atoms: C2_4  and  N1_5 
REMARK    3  A    between atoms: N1_5  and  C3_7 
REMARK    4  A    between atoms: C6_11  and  O4_12 
REMARK    5  A    between atoms: C7_14  and  O5_15 
REMARK    6  A    between atoms: C8_17  and  O6_18 
REMARK    7  A    between atoms: O6_18  and  C9_19 
REMARK    8  A    between atoms: C12_22  and  O7_23 
REMARK    9  A    between atoms: O7_23  and  C13_24 
REMARK   10  A    between atoms: C19_31  and  O9_32 
REMARK   11  A    between atoms: C21_35  and  O10_36 
ROOT
HETATM    1  C9  UNL     1       2.884  25.016  12.587  1.00  0.00     0.151 C 
HETATM    2  C10 UNL     1       1.724  25.639  13.301  1.00  0.00     0.047 C 
HETATM    3  C11 UNL     1       0.639  26.181  12.453  1.00  0.00     0.080 C 
HETATM    4  C12 UNL     1      -0.547  25.198  12.378  1.00  0.00     0.267 C 
HETATM    5  O8  UNL     1      -0.760  24.975  11.013  1.00  0.00    -0.358 OA
HETATM    6  C18 UNL     1      -0.392  26.159  10.374  1.00  0.00     0.209 C 
HETATM    7  C19 UNL     1       0.923  26.544  11.051  1.00  0.00     0.090 C 
HETATM    8  C20 UNL     1       1.999  25.727  10.450  1.00  0.00     0.075 C 
HETATM    9  C21 UNL     1       3.226  25.787  11.337  1.00  0.00     0.150 C 
ENDROOT
BRANCH   1  10
HETATM   10  O6  UNL     1       2.688  23.677  12.418  1.00  0.00    -0.373 OA
BRANCH  10  11
HETATM   11  C8  UNL     1       3.671  22.971  11.807  1.00  0.00     0.177 C 
HETATM   12  C3  UNL     1       4.497  22.181  12.780  1.00  0.00     0.132 C 
HETATM   13  C4  UNL     1       5.720  21.648  12.035  1.00  0.00     0.195 C 
HETATM   14  O3  UNL     1       5.739  22.244  10.780  1.00  0.00    -0.386 OA
HETATM   15  C5  UNL     1       5.183  21.433   9.798  1.00  0.00     0.201 C 
HETATM   16  C6  UNL     1       3.747  21.884   9.545  1.00  0.00     0.173 C 
HETATM   17  C7  UNL     1       3.046  21.890  10.886  1.00  0.00     0.180 C 
BRANCH  12  18
HETATM   18  N1  UNL     1       4.863  22.944  13.928  1.00  0.00    -0.403 N 
ATOM     19  H1  UNL     1       5.296  23.863  13.837  1.00  0.00     0.154 HD
BRANCH  18  20
HETATM   20  C2  UNL     1       4.602  22.375  15.203  1.00  0.00     0.228 C 
BRANCH  20  21
HETATM   21  C1  UNL     1       3.831  23.265  16.055  1.00  0.00     0.190 C 
HETATM   22  O1  UNL     1       2.630  23.514  15.909  1.00  0.00    -0.647 OA
HETATM   23  O2  UNL     1       4.551  23.869  17.117  1.00  0.00    -0.647 OA
ENDBRANCH  20  21
ENDBRANCH  18  20
ENDBRANCH  12  18
BRANCH  16  24
HETATM   24  O4  UNL     1       3.831  23.201   9.063  1.00  0.00    -0.391 OA
ATOM     25  H4  UNL     1       2.970  23.583   9.184  1.00  0.00     0.210 HD
ENDBRANCH  16  24
BRANCH  17  26
HETATM   26  O5  UNL     1       1.683  21.982  10.817  1.00  0.00    -0.390 OA
ATOM     27  H5  UNL     1       1.358  22.767  10.392  1.00  0.00     0.210 HD
ENDBRANCH  17  26
ENDBRANCH  10  11
ENDBRANCH   1  10
BRANCH   9  28
HETATM   28  O10 UNL     1       3.402  27.158  11.651  1.00  0.00    -0.393 OA
ATOM     29  H10 UNL     1       4.298  27.311  11.928  1.00  0.00     0.210 HD
ENDBRANCH   9  28
BRANCH   4  30
HETATM   30  O7  UNL     1      -1.591  25.795  13.000  1.00  0.00    -0.356 OA
BRANCH  30  31
HETATM   31  C13 UNL     1      -2.085  25.310  14.153  1.00  0.00     0.124 C 
HETATM   32  C14 UNL     1      -1.375  24.066  14.656  1.00  0.00     0.032 C 
HETATM   33  C15 UNL     1      -0.846  24.390  16.031  1.00  0.00     0.002 C 
HETATM   34  C16 UNL     1      -0.805  25.885  16.073  1.00  0.00     0.002 C 
HETATM   35  C17 UNL     1      -2.080  26.258  15.322  1.00  0.00     0.032 C 
ENDBRANCH  30  31
ENDBRANCH   4  30
BRANCH   7  36
HETATM   36  O9  UNL     1       1.073  27.913  10.840  1.00  0.00    -0.387 OA
ATOM     37  H9  UNL     1       1.047  28.431  11.636  1.00  0.00     0.210 HD
ENDBRANCH   7  36
TORSDOF 11
ENDMDL
