MODEL 1
REMARK VINA RESULT: -7.462049206      0.000      0.000
REMARK  11 active torsions:
REMARK  status: ('A' for Active; 'I' for Inactive)
REMARK    1  A    between atoms: C4_4  and  N1_5 
REMARK    2  A    between atoms: C6_10  and  S1_11 
REMARK    3  A    between atoms: S1_11  and  C7_12 
REMARK    4  A    between atoms: C8_13  and  N2_14 
REMARK       I    between atoms: N2_14  and  C9_16 
REMARK       I    between atoms: C9_16  and  N5_21 
REMARK    5  A    between atoms: N5_21  and  C11_23 
REMARK    6  A    between atoms: C11_23  and  O1_24 
REMARK    7  A    between atoms: C13_27  and  C14_28 
REMARK    8  A    between atoms: C14_28  and  O2_29 
REMARK    9  A    between atoms: O2_29  and  S2_30 
REMARK   10  A    between atoms: S2_30  and  N6_31 
REMARK   11  A    between atoms: C15_36  and  O5_37 
ROOT
HETATM    1  N2  UNL     1       1.917  24.253  11.947  1.00  0.00    -0.220 N 
ATOM      2  H2  UNL     1       1.481  24.197  12.868  1.00  0.00     0.178 HD
HETATM    3  C9  UNL     1       1.794  25.469  11.234  1.00  0.00     0.684 C 
HETATM    4  N3  UNL     1       0.644  25.857  10.830  1.00  0.00    -0.126 N 
ATOM      5  H3  UNL     1       0.552  26.733  10.316  1.00  0.00     0.197 HD
HETATM    6  C10 UNL     1      -0.476  25.087  11.094  1.00  0.00     0.196 C 
HETATM    7  N4  UNL     1      -1.439  24.449  11.315  1.00  0.00    -0.171 NA
HETATM    8  N5  UNL     1       2.933  26.268  10.963  1.00  0.00    -0.205 N 
ATOM      9  H5  UNL     1       3.027  26.696  10.041  1.00  0.00     0.179 HD
ENDROOT
BRANCH   1  10
HETATM   10  C8  UNL     1       2.609  23.099  11.470  1.00  0.00     0.116 C 
HETATM   11  C7  UNL     1       4.105  23.126  11.777  1.00  0.00     0.102 C 
HETATM   12  C15 UNL     1       4.580  22.101  10.767  1.00  0.00     0.140 C 
HETATM   13  C13 UNL     1       3.923  22.664   9.489  1.00  0.00     0.043 C 
HETATM   14  C12 UNL     1       2.558  23.048   9.968  1.00  0.00     0.036 C 
BRANCH  11  15
HETATM   15  S1  UNL     1       4.454  22.542  13.426  1.00  0.00    -0.128 SA
BRANCH  15  16
HETATM   16  C6  UNL     1       3.701  23.579  14.693  1.00  0.00     0.185 C 
HETATM   17  C5  UNL     1       4.436  23.460  15.966  1.00  0.00     0.075 C 
HETATM   18  C4  UNL     1       3.618  23.581  17.225  1.00  0.00     0.189 C 
HETATM   19  C3  UNL     1       2.151  23.672  17.041  1.00  0.00     0.064 C 
HETATM   20  C2  UNL     1       1.656  23.979  15.675  1.00  0.00     0.121 C 
HETATM   21  C1  UNL     1       1.677  25.450  15.331  1.00  0.00     0.039 C 
HETATM   22  O6  UNL     1       2.362  23.201  14.764  1.00  0.00    -0.371 OA
BRANCH  18  23
HETATM   23  N1  UNL     1       4.130  24.641  18.113  1.00  0.00    -0.075 N 
ATOM     24  H13 UNL     1       5.113  24.840  17.924  1.00  0.00     0.274 HD
ATOM     25  H12 UNL     1       3.734  25.550  17.874  1.00  0.00     0.274 HD
ATOM     26  H11 UNL     1       3.981  24.420  19.098  1.00  0.00     0.274 HD
ENDBRANCH  18  23
ENDBRANCH  15  16
ENDBRANCH  11  15
BRANCH  12  27
HETATM   27  O5  UNL     1       4.067  20.839  10.972  1.00  0.00    -0.394 OA
ATOM     28  H5  UNL     1       4.555  20.150  10.535  1.00  0.00     0.210 HD
ENDBRANCH  12  27
BRANCH  13  29
HETATM   29  C14 UNL     1       3.887  21.504   8.521  1.00  0.00     0.199 C 
BRANCH  29  30
HETATM   30  O2  UNL     1       5.130  20.997   8.223  1.00  0.00    -0.259 OA
BRANCH  30  31
HETATM   31  S2  UNL     1       5.547  21.592   6.701  1.00  0.00     0.355 S 
HETATM   32  O3  UNL     1       4.277  22.163   6.095  1.00  0.00    -0.176 OA
HETATM   33  O4  UNL     1       6.131  20.537   5.831  1.00  0.00    -0.176 OA
BRANCH  31  34
HETATM   34  N6  UNL     1       6.648  22.898   6.971  1.00  0.00    -0.306 N 
ATOM     35  H62 UNL     1       6.394  23.868   7.157  1.00  0.00     0.171 HD
ATOM     36  H61 UNL     1       7.586  22.502   6.907  1.00  0.00     0.171 HD
ENDBRANCH  31  34
ENDBRANCH  30  31
ENDBRANCH  29  30
ENDBRANCH  13  29
ENDBRANCH   1  10
BRANCH   8  37
HETATM   37  C11 UNL     1       3.972  26.497  11.954  1.00  0.00     0.305 C 
BRANCH  37  38
HETATM   38  O1  UNL     1       4.935  27.388  11.461  1.00  0.00    -0.382 OA
ATOM     39  H1  UNL     1       5.309  27.900  12.168  1.00  0.00     0.211 HD
ENDBRANCH  37  38
ENDBRANCH   8  37
TORSDOF 11
ENDMDL
MODEL 2
REMARK VINA RESULT: -7.243217826      3.410      5.857
REMARK  11 active torsions:
REMARK  status: ('A' for Active; 'I' for Inactive)
REMARK    1  A    between atoms: C4_4  and  N1_5 
REMARK    2  A    between atoms: C6_10  and  S1_11 
REMARK    3  A    between atoms: S1_11  and  C7_12 
REMARK    4  A    between atoms: C8_13  and  N2_14 
REMARK       I    between atoms: N2_14  and  C9_16 
REMARK       I    between atoms: C9_16  and  N5_21 
REMARK    5  A    between atoms: N5_21  and  C11_23 
REMARK    6  A    between atoms: C11_23  and  O1_24 
REMARK    7  A    between atoms: C13_27  and  C14_28 
REMARK    8  A    between atoms: C14_28  and  O2_29 
REMARK    9  A    between atoms: O2_29  and  S2_30 
REMARK   10  A    between atoms: S2_30  and  N6_31 
REMARK   11  A    between atoms: C15_36  and  O5_37 
ROOT
HETATM    1  N2  UNL     1       3.913  21.672   9.040  1.00  0.00    -0.220 N 
ATOM      2  H2  UNL     1       3.760  20.705   9.323  1.00  0.00     0.178 HD
HETATM    3  C9  UNL     1       5.099  21.969   8.324  1.00  0.00     0.684 C 
HETATM    4  N3  UNL     1       6.236  21.844   8.896  1.00  0.00    -0.126 N 
ATOM      5  H3  UNL     1       7.091  22.057   8.384  1.00  0.00     0.197 HD
HETATM    6  C10 UNL     1       6.304  21.420  10.213  1.00  0.00     0.196 C 
HETATM    7  N4  UNL     1       6.380  21.053  11.327  1.00  0.00    -0.171 NA
HETATM    8  N5  UNL     1       5.040  22.400   6.976  1.00  0.00    -0.205 N 
ATOM      9  H5  UNL     1       5.653  23.159   6.674  1.00  0.00     0.179 HD
ENDROOT
BRANCH   1  10
HETATM   10  C8  UNL     1       2.917  22.632   9.393  1.00  0.00     0.116 C 
HETATM   11  C7  UNL     1       2.557  22.607  10.877  1.00  0.00     0.102 C 
HETATM   12  C15 UNL     1       1.222  23.320  10.817  1.00  0.00     0.140 C 
HETATM   13  C13 UNL     1       0.527  22.488   9.718  1.00  0.00     0.043 C 
HETATM   14  C12 UNL     1       1.618  22.307   8.710  1.00  0.00     0.036 C 
BRANCH  11  15
HETATM   15  S1  UNL     1       3.701  23.568  11.853  1.00  0.00    -0.128 SA
BRANCH  15  16
HETATM   16  C6  UNL     1       3.709  23.070  13.585  1.00  0.00     0.185 C 
HETATM   17  C5  UNL     1       2.616  23.731  14.322  1.00  0.00     0.075 C 
HETATM   18  C4  UNL     1       2.887  24.064  15.765  1.00  0.00     0.189 C 
HETATM   19  C3  UNL     1       4.266  23.810  16.243  1.00  0.00     0.064 C 
HETATM   20  C2  UNL     1       5.133  22.956  15.393  1.00  0.00     0.121 C 
HETATM   21  C1  UNL     1       4.914  21.473  15.587  1.00  0.00     0.039 C 
HETATM   22  O6  UNL     1       4.985  23.355  14.069  1.00  0.00    -0.371 OA
BRANCH  18  23
HETATM   23  N1  UNL     1       1.874  23.478  16.664  1.00  0.00    -0.075 N 
ATOM     24  H13 UNL     1       1.773  22.475  16.504  1.00  0.00     0.274 HD
ATOM     25  H12 UNL     1       2.204  23.454  17.628  1.00  0.00     0.274 HD
ATOM     26  H11 UNL     1       0.977  23.958  16.591  1.00  0.00     0.274 HD
ENDBRANCH  18  23
ENDBRANCH  15  16
ENDBRANCH  11  15
BRANCH  12  27
HETATM   27  O5  UNL     1       1.304  24.618  10.361  1.00  0.00    -0.394 OA
ATOM     28  H5  UNL     1       2.091  25.072  10.637  1.00  0.00     0.210 HD
ENDBRANCH  12  27
BRANCH  13  29
HETATM   29  C14 UNL     1      -0.590  23.369   9.205  1.00  0.00     0.199 C 
BRANCH  29  30
HETATM   30  O2  UNL     1      -1.582  23.592  10.129  1.00  0.00    -0.259 OA
BRANCH  30  31
HETATM   31  S2  UNL     1      -2.245  25.103   9.776  1.00  0.00     0.355 S 
HETATM   32  O3  UNL     1      -1.125  26.116   9.931  1.00  0.00    -0.176 OA
HETATM   33  O4  UNL     1      -3.392  25.429  10.664  1.00  0.00    -0.176 OA
BRANCH  31  34
HETATM   34  N6  UNL     1      -2.702  25.059   8.109  1.00  0.00    -0.306 N 
ATOM     35  H62 UNL     1      -2.912  24.221   7.566  1.00  0.00     0.171 HD
ATOM     36  H61 UNL     1      -2.717  26.027   7.789  1.00  0.00     0.171 HD
ENDBRANCH  31  34
ENDBRANCH  30  31
ENDBRANCH  29  30
ENDBRANCH  13  29
ENDBRANCH   1  10
BRANCH   8  37
HETATM   37  C11 UNL     1       4.137  21.799   6.008  1.00  0.00     0.305 C 
BRANCH  37  38
HETATM   38  O1  UNL     1       4.792  20.797   5.279  1.00  0.00    -0.382 OA
ATOM     39  H1  UNL     1       4.620  19.943   5.656  1.00  0.00     0.211 HD
ENDBRANCH  37  38
ENDBRANCH   8  37
TORSDOF 11
ENDMDL
MODEL 3
REMARK VINA RESULT: -7.232096984      2.779      5.293
REMARK  11 active torsions:
REMARK  status: ('A' for Active; 'I' for Inactive)
REMARK    1  A    between atoms: C4_4  and  N1_5 
REMARK    2  A    between atoms: C6_10  and  S1_11 
REMARK    3  A    between atoms: S1_11  and  C7_12 
REMARK    4  A    between atoms: C8_13  and  N2_14 
REMARK       I    between atoms: N2_14  and  C9_16 
REMARK       I    between atoms: C9_16  and  N5_21 
REMARK    5  A    between atoms: N5_21  and  C11_23 
REMARK    6  A    between atoms: C11_23  and  O1_24 
REMARK    7  A    between atoms: C13_27  and  C14_28 
REMARK    8  A    between atoms: C14_28  and  O2_29 
REMARK    9  A    between atoms: O2_29  and  S2_30 
REMARK   10  A    between atoms: S2_30  and  N6_31 
REMARK   11  A    between atoms: C15_36  and  O5_37 
ROOT
HETATM    1  N2  UNL     1       2.587  23.397  14.635  1.00  0.00    -0.220 N 
ATOM      2  H2  UNL     1       1.793  22.757  14.660  1.00  0.00     0.178 HD
HETATM    3  C9  UNL     1       3.252  23.669  15.855  1.00  0.00     0.684 C 
HETATM    4  N3  UNL     1       2.640  24.295  16.787  1.00  0.00    -0.126 N 
ATOM      5  H3  UNL     1       3.116  24.493  17.667  1.00  0.00     0.197 HD
HETATM    6  C10 UNL     1       1.330  24.705  16.600  1.00  0.00     0.196 C 
HETATM    7  N4  UNL     1       0.216  25.053  16.461  1.00  0.00    -0.171 NA
HETATM    8  N5  UNL     1       4.590  23.251  16.058  1.00  0.00    -0.205 N 
ATOM      9  H5  UNL     1       5.241  23.888  16.518  1.00  0.00     0.179 HD
ENDROOT
BRANCH   1  10
HETATM   10  C8  UNL     1       2.950  23.954  13.372  1.00  0.00     0.116 C 
HETATM   11  C7  UNL     1       1.788  24.651  12.666  1.00  0.00     0.102 C 
HETATM   12  C15 UNL     1       2.336  24.669  11.253  1.00  0.00     0.140 C 
HETATM   13  C13 UNL     1       2.709  23.180  11.095  1.00  0.00     0.043 C 
HETATM   14  C12 UNL     1       3.338  22.861  12.415  1.00  0.00     0.036 C 
BRANCH  11  15
HETATM   15  S1  UNL     1       1.572  26.326  13.241  1.00  0.00    -0.128 SA
BRANCH  15  16
HETATM   16  C6  UNL     1       0.275  27.196  12.343  1.00  0.00     0.185 C 
HETATM   17  C5  UNL     1      -0.812  27.596  13.257  1.00  0.00     0.075 C 
HETATM   18  C4  UNL     1      -2.202  27.611  12.678  1.00  0.00     0.189 C 
HETATM   19  C3  UNL     1      -2.337  27.095  11.296  1.00  0.00     0.064 C 
HETATM   20  C2  UNL     1      -1.090  26.941  10.505  1.00  0.00     0.121 C 
HETATM   21  C1  UNL     1      -0.611  28.221   9.859  1.00  0.00     0.039 C 
HETATM   22  O6  UNL     1      -0.124  26.349  11.311  1.00  0.00    -0.371 OA
BRANCH  18  23
HETATM   23  N1  UNL     1      -2.852  28.925  12.843  1.00  0.00    -0.075 N 
ATOM     24  H13 UNL     1      -3.830  28.823  13.114  1.00  0.00     0.274 HD
ATOM     25  H12 UNL     1      -2.505  29.409  13.671  1.00  0.00     0.274 HD
ATOM     26  H11 UNL     1      -2.758  29.505  12.009  1.00  0.00     0.274 HD
ENDBRANCH  18  23
ENDBRANCH  15  16
ENDBRANCH  11  15
BRANCH  12  27
HETATM   27  O5  UNL     1       3.495  25.401  11.115  1.00  0.00    -0.394 OA
ATOM     28  H5  UNL     1       3.535  26.167  11.677  1.00  0.00     0.210 HD
ENDBRANCH  12  27
BRANCH  13  29
HETATM   29  C14 UNL     1       3.706  23.143   9.959  1.00  0.00     0.199 C 
BRANCH  29  30
HETATM   30  O2  UNL     1       3.636  21.997   9.202  1.00  0.00    -0.259 OA
BRANCH  30  31
HETATM   31  S2  UNL     1       5.152  21.263   9.289  1.00  0.00     0.355 S 
HETATM   32  O3  UNL     1       5.646  21.117   7.860  1.00  0.00    -0.176 OA
HETATM   33  O4  UNL     1       5.094  19.945   9.975  1.00  0.00    -0.176 OA
BRANCH  31  34
HETATM   34  N6  UNL     1       6.190  22.378  10.105  1.00  0.00    -0.306 N 
ATOM     35  H62 UNL     1       5.901  23.246  10.557  1.00  0.00     0.171 HD
ATOM     36  H61 UNL     1       7.133  21.995  10.041  1.00  0.00     0.171 HD
ENDBRANCH  31  34
ENDBRANCH  30  31
ENDBRANCH  29  30
ENDBRANCH  13  29
ENDBRANCH   1  10
BRANCH   8  37
HETATM   37  C11 UNL     1       5.067  21.944  15.634  1.00  0.00     0.305 C 
BRANCH  37  38
HETATM   38  O1  UNL     1       6.222  22.071  14.851  1.00  0.00    -0.382 OA
ATOM     39  H1  UNL     1       6.733  21.270  14.878  1.00  0.00     0.211 HD
ENDBRANCH  37  38
ENDBRANCH   8  37
TORSDOF 11
ENDMDL
MODEL 4
REMARK VINA RESULT: -7.193253190      2.906      5.257
REMARK  11 active torsions:
REMARK  status: ('A' for Active; 'I' for Inactive)
REMARK    1  A    between atoms: C4_4  and  N1_5 
REMARK    2  A    between atoms: C6_10  and  S1_11 
REMARK    3  A    between atoms: S1_11  and  C7_12 
REMARK    4  A    between atoms: C8_13  and  N2_14 
REMARK       I    between atoms: N2_14  and  C9_16 
REMARK       I    between atoms: C9_16  and  N5_21 
REMARK    5  A    between atoms: N5_21  and  C11_23 
REMARK    6  A    between atoms: C11_23  and  O1_24 
REMARK    7  A    between atoms: C13_27  and  C14_28 
REMARK    8  A    between atoms: C14_28  and  O2_29 
REMARK    9  A    between atoms: O2_29  and  S2_30 
REMARK   10  A    between atoms: S2_30  and  N6_31 
REMARK   11  A    between atoms: C15_36  and  O5_37 
ROOT
HETATM    1  N2  UNL     1       2.543  23.375  14.679  1.00  0.00    -0.220 N 
ATOM      2  H2  UNL     1       1.752  22.733  14.732  1.00  0.00     0.178 HD
HETATM    3  C9  UNL     1       3.244  23.656  15.876  1.00  0.00     0.684 C 
HETATM    4  N3  UNL     1       2.660  24.286  16.823  1.00  0.00    -0.126 N 
ATOM      5  H3  UNL     1       3.162  24.490  17.687  1.00  0.00     0.197 HD
HETATM    6  C10 UNL     1       1.344  24.691  16.674  1.00  0.00     0.196 C 
HETATM    7  N4  UNL     1       0.225  25.035  16.568  1.00  0.00    -0.171 NA
HETATM    8  N5  UNL     1       4.590  23.243  16.040  1.00  0.00    -0.205 N 
ATOM      9  H5  UNL     1       5.253  23.885  16.476  1.00  0.00     0.179 HD
ENDROOT
BRANCH   1  10
HETATM   10  C8  UNL     1       2.865  23.927  13.402  1.00  0.00     0.116 C 
HETATM   11  C7  UNL     1       1.666  24.561  12.701  1.00  0.00     0.102 C 
HETATM   12  C15 UNL     1       2.194  24.580  11.281  1.00  0.00     0.140 C 
HETATM   13  C13 UNL     1       2.629  23.105  11.141  1.00  0.00     0.043 C 
HETATM   14  C12 UNL     1       3.288  22.836  12.457  1.00  0.00     0.036 C 
BRANCH  11  15
HETATM   15  S1  UNL     1       1.385  26.234  13.253  1.00  0.00    -0.128 SA
BRANCH  15  16
HETATM   16  C6  UNL     1      -0.369  26.622  13.398  1.00  0.00     0.185 C 
HETATM   17  C5  UNL     1      -1.010  26.640  12.069  1.00  0.00     0.075 C 
HETATM   18  C4  UNL     1      -2.141  27.617  11.885  1.00  0.00     0.189 C 
HETATM   19  C3  UNL     1      -2.394  28.540  13.015  1.00  0.00     0.064 C 
HETATM   20  C2  UNL     1      -1.767  28.205  14.318  1.00  0.00     0.121 C 
HETATM   21  C1  UNL     1      -2.537  27.186  15.126  1.00  0.00     0.039 C 
HETATM   22  O6  UNL     1      -0.448  27.828  14.091  1.00  0.00    -0.371 OA
BRANCH  18  23
HETATM   23  N1  UNL     1      -3.375  26.948  11.430  1.00  0.00    -0.075 N 
ATOM     24  H13 UNL     1      -3.308  25.935  11.536  1.00  0.00     0.274 HD
ATOM     25  H12 UNL     1      -4.149  27.126  12.069  1.00  0.00     0.274 HD
ATOM     26  H11 UNL     1      -3.618  27.205  10.473  1.00  0.00     0.274 HD
ENDBRANCH  18  23
ENDBRANCH  15  16
ENDBRANCH  11  15
BRANCH  12  27
HETATM   27  O5  UNL     1       3.318  25.358  11.115  1.00  0.00    -0.394 OA
ATOM     28  H5  UNL     1       4.125  24.860  11.063  1.00  0.00     0.210 HD
ENDBRANCH  12  27
BRANCH  13  29
HETATM   29  C14 UNL     1       3.611  23.092   9.992  1.00  0.00     0.199 C 
BRANCH  29  30
HETATM   30  O2  UNL     1       3.603  21.919   9.275  1.00  0.00    -0.259 OA
BRANCH  30  31
HETATM   31  S2  UNL     1       5.154  21.267   9.390  1.00  0.00     0.355 S 
HETATM   32  O3  UNL     1       5.687  21.161   7.972  1.00  0.00    -0.176 OA
HETATM   33  O4  UNL     1       5.153  19.942  10.065  1.00  0.00    -0.176 OA
BRANCH  31  34
HETATM   34  N6  UNL     1       6.112  22.430  10.238  1.00  0.00    -0.306 N 
ATOM     35  H62 UNL     1       6.084  23.441  10.106  1.00  0.00     0.171 HD
ATOM     36  H61 UNL     1       6.700  21.903  10.884  1.00  0.00     0.171 HD
ENDBRANCH  31  34
ENDBRANCH  30  31
ENDBRANCH  29  30
ENDBRANCH  13  29
ENDBRANCH   1  10
BRANCH   8  37
HETATM   37  C11 UNL     1       5.057  21.935  15.608  1.00  0.00     0.305 C 
BRANCH  37  38
HETATM   38  O1  UNL     1       6.226  22.057  14.845  1.00  0.00    -0.382 OA
ATOM     39  H1  UNL     1       6.342  21.297  14.288  1.00  0.00     0.211 HD
ENDBRANCH  37  38
ENDBRANCH   8  37
TORSDOF 11
ENDMDL
MODEL 5
REMARK VINA RESULT: -7.128524977      2.950      4.959
REMARK  11 active torsions:
REMARK  status: ('A' for Active; 'I' for Inactive)
REMARK    1  A    between atoms: C4_4  and  N1_5 
REMARK    2  A    between atoms: C6_10  and  S1_11 
REMARK    3  A    between atoms: S1_11  and  C7_12 
REMARK    4  A    between atoms: C8_13  and  N2_14 
REMARK       I    between atoms: N2_14  and  C9_16 
REMARK       I    between atoms: C9_16  and  N5_21 
REMARK    5  A    between atoms: N5_21  and  C11_23 
REMARK    6  A    between atoms: C11_23  and  O1_24 
REMARK    7  A    between atoms: C13_27  and  C14_28 
REMARK    8  A    between atoms: C14_28  and  O2_29 
REMARK    9  A    between atoms: O2_29  and  S2_30 
REMARK   10  A    between atoms: S2_30  and  N6_31 
REMARK   11  A    between atoms: C15_36  and  O5_37 
ROOT
HETATM    1  N2  UNL     1       2.559  23.397  14.718  1.00  0.00    -0.220 N 
ATOM      2  H2  UNL     1       1.766  22.758  14.780  1.00  0.00     0.178 HD
HETATM    3  C9  UNL     1       3.273  23.677  15.908  1.00  0.00     0.684 C 
HETATM    4  N3  UNL     1       2.701  24.309  16.861  1.00  0.00    -0.126 N 
ATOM      5  H3  UNL     1       3.213  24.511  17.719  1.00  0.00     0.197 HD
HETATM    6  C10 UNL     1       1.384  24.717  16.726  1.00  0.00     0.196 C 
HETATM    7  N4  UNL     1       0.265  25.065  16.631  1.00  0.00    -0.171 NA
HETATM    8  N5  UNL     1       4.619  23.259  16.058  1.00  0.00    -0.205 N 
ATOM      9  H5  UNL     1       5.289  23.899  16.487  1.00  0.00     0.179 HD
ENDROOT
BRANCH   1  10
HETATM   10  C8  UNL     1       2.869  23.947  13.438  1.00  0.00     0.116 C 
HETATM   11  C7  UNL     1       1.662  24.577  12.746  1.00  0.00     0.102 C 
HETATM   12  C15 UNL     1       2.179  24.594  11.321  1.00  0.00     0.140 C 
HETATM   13  C13 UNL     1       2.617  23.120  11.181  1.00  0.00     0.043 C 
HETATM   14  C12 UNL     1       3.287  22.855  12.492  1.00  0.00     0.036 C 
BRANCH  11  15
HETATM   15  S1  UNL     1       1.381  26.250  13.296  1.00  0.00    -0.128 SA
BRANCH  15  16
HETATM   16  C6  UNL     1      -0.369  26.679  13.317  1.00  0.00     0.185 C 
HETATM   17  C5  UNL     1      -0.635  27.731  14.317  1.00  0.00     0.075 C 
HETATM   18  C4  UNL     1      -1.975  27.678  15.002  1.00  0.00     0.189 C 
HETATM   19  C3  UNL     1      -2.819  26.502  14.692  1.00  0.00     0.064 C 
HETATM   20  C2  UNL     1      -2.439  25.686  13.510  1.00  0.00     0.121 C 
HETATM   21  C1  UNL     1      -2.930  26.244  12.195  1.00  0.00     0.039 C 
HETATM   22  O6  UNL     1      -1.063  25.490  13.533  1.00  0.00    -0.371 OA
BRANCH  18  23
HETATM   23  N1  UNL     1      -2.717  28.945  14.856  1.00  0.00    -0.075 N 
ATOM     24  H13 UNL     1      -3.308  29.124  15.669  1.00  0.00     0.274 HD
ATOM     25  H12 UNL     1      -2.095  29.749  14.930  1.00  0.00     0.274 HD
ATOM     26  H11 UNL     1      -3.258  28.973  13.992  1.00  0.00     0.274 HD
ENDBRANCH  18  23
ENDBRANCH  15  16
ENDBRANCH  11  15
BRANCH  12  27
HETATM   27  O5  UNL     1       3.299  25.375  11.145  1.00  0.00    -0.394 OA
ATOM     28  H5  UNL     1       3.106  26.283  10.943  1.00  0.00     0.210 HD
ENDBRANCH  12  27
BRANCH  13  29
HETATM   29  C14 UNL     1       3.590  23.108  10.024  1.00  0.00     0.199 C 
BRANCH  29  30
HETATM   30  O2  UNL     1       3.563  21.942   9.296  1.00  0.00    -0.259 OA
BRANCH  30  31
HETATM   31  S2  UNL     1       5.109  21.274   9.389  1.00  0.00     0.355 S 
HETATM   32  O3  UNL     1       5.624  21.168   7.964  1.00  0.00    -0.176 OA
HETATM   33  O4  UNL     1       5.103  19.946  10.059  1.00  0.00    -0.176 OA
BRANCH  31  34
HETATM   34  N6  UNL     1       6.089  22.424  10.230  1.00  0.00    -0.306 N 
ATOM     35  H62 UNL     1       5.749  23.196  10.803  1.00  0.00     0.171 HD
ATOM     36  H61 UNL     1       7.058  22.173  10.036  1.00  0.00     0.171 HD
ENDBRANCH  31  34
ENDBRANCH  30  31
ENDBRANCH  29  30
ENDBRANCH  13  29
ENDBRANCH   1  10
BRANCH   8  37
HETATM   37  C11 UNL     1       5.078  21.950  15.622  1.00  0.00     0.305 C 
BRANCH  37  38
HETATM   38  O1  UNL     1       6.254  22.066  14.870  1.00  0.00    -0.382 OA
ATOM     39  H1  UNL     1       6.381  21.296  14.328  1.00  0.00     0.211 HD
ENDBRANCH  37  38
ENDBRANCH   8  37
TORSDOF 11
ENDMDL
