MODEL 1
REMARK VINA RESULT: -8.935879916      0.000      0.000
REMARK  5 active torsions:
REMARK  status: ('A' for Active; 'I' for Inactive)
REMARK    1  A    between atoms: C3_4  and  C4_5 
REMARK    2  A    between atoms: C6_8  and  C7_9 
REMARK    3  A    between atoms: C7_9  and  C8_10 
REMARK    4  A    between atoms: C8_10  and  N1_11 
REMARK       I    between atoms: N1_11  and  C9_13 
REMARK    5  A    between atoms: C9_13  and  C10_15 
ROOT
HETATM    1  C4  UNL     1      25.069 -20.398 -26.443  1.00  0.00     0.059 A 
HETATM    2  C5  UNL     1      25.075 -19.546 -27.522  1.00  0.00     0.082 A 
HETATM    3  S2  UNL     1      24.178 -18.223 -26.926  1.00  0.00    -0.086 SA
HETATM    4  C6  UNL     1      23.854 -18.825 -25.362  1.00  0.00     0.052 A 
HETATM    5  N2  UNL     1      24.447 -20.003 -25.378  1.00  0.00    -0.352 N 
ATOM      6  H2  UNL     1      24.416 -20.602 -24.553  1.00  0.00     0.166 HD
ENDROOT
BRANCH   4   7
HETATM    7  C7  UNL     1      23.081 -18.173 -24.239  1.00  0.00     0.084 C 
BRANCH   7   8
HETATM    8  C8  UNL     1      22.949 -19.227 -23.156  1.00  0.00     0.129 C 
BRANCH   8   9
HETATM    9  N1  UNL     1      21.695 -19.911 -23.158  1.00  0.00    -0.360 N 
HETATM   10  C9  UNL     1      21.366 -20.954 -22.239  1.00  0.00     0.221 C 
HETATM   11  O1  UNL     1      22.187 -21.320 -21.372  1.00  0.00    -0.273 OA
ATOM     12  H1  UNL     1      20.997 -19.641 -23.851  1.00  0.00     0.162 HD
BRANCH  10  13
HETATM   13  C10 UNL     1      20.032 -21.600 -22.329  1.00  0.00     0.078 A 
HETATM   14  C11 UNL     1      18.923 -20.684 -22.736  1.00  0.00     0.015 A 
HETATM   15  C12 UNL     1      19.395 -21.769 -23.669  1.00  0.00     0.015 A 
ENDBRANCH  10  13
ENDBRANCH   8   9
ENDBRANCH   7   8
ENDBRANCH   4   7
BRANCH   1  16
HETATM   16  C3  UNL     1      25.754 -21.723 -26.507  1.00  0.00     0.071 A 
HETATM   17  S1  UNL     1      25.544 -22.930 -27.687  1.00  0.00    -0.089 SA
HETATM   18  C2  UNL     1      26.637 -24.094 -27.084  1.00  0.00    -0.011 A 
HETATM   19  C1  UNL     1      26.984 -25.458 -27.630  1.00  0.00     0.057 C 
HETATM   20  C14 UNL     1      27.138 -23.489 -25.960  1.00  0.00    -0.009 A 
HETATM   21  C13 UNL     1      26.676 -22.263 -25.669  1.00  0.00     0.142 A 
HETATM   22  C15 UNL     1      28.170 -24.211 -25.108  1.00  0.00     0.052 C 
HETATM   23  F1  UNL     1      27.101 -21.539 -24.558  1.00  0.00    -0.204 F 
ENDBRANCH   1  16
TORSDOF 5
ENDMDL
MODEL 2
REMARK VINA RESULT: -8.676834551      1.341      1.690
REMARK  5 active torsions:
REMARK  status: ('A' for Active; 'I' for Inactive)
REMARK    1  A    between atoms: C3_4  and  C4_5 
REMARK    2  A    between atoms: C6_8  and  C7_9 
REMARK    3  A    between atoms: C7_9  and  C8_10 
REMARK    4  A    between atoms: C8_10  and  N1_11 
REMARK       I    between atoms: N1_11  and  C9_13 
REMARK    5  A    between atoms: C9_13  and  C10_15 
ROOT
HETATM    1  C4  UNL     1      24.871 -20.938 -26.514  1.00  0.00     0.059 A 
HETATM    2  C5  UNL     1      24.203 -20.569 -27.657  1.00  0.00     0.082 A 
HETATM    3  S2  UNL     1      23.215 -19.300 -27.088  1.00  0.00    -0.086 SA
HETATM    4  C6  UNL     1      23.705 -19.317 -25.453  1.00  0.00     0.052 A 
HETATM    5  N2  UNL     1      24.596 -20.289 -25.428  1.00  0.00    -0.352 N 
ATOM      6  H2  UNL     1      25.066 -20.529 -24.555  1.00  0.00     0.166 HD
ENDROOT
BRANCH   4   7
HETATM    7  C7  UNL     1      23.236 -18.439 -24.315  1.00  0.00     0.084 C 
BRANCH   7   8
HETATM    8  C8  UNL     1      23.000 -19.367 -23.139  1.00  0.00     0.129 C 
BRANCH   8   9
HETATM    9  N1  UNL     1      21.735 -20.032 -23.165  1.00  0.00    -0.360 N 
HETATM   10  C9  UNL     1      21.349 -21.024 -22.213  1.00  0.00     0.221 C 
HETATM   11  O1  UNL     1      22.124 -21.358 -21.293  1.00  0.00    -0.273 OA
ATOM     12  H1  UNL     1      21.074 -19.786 -23.901  1.00  0.00     0.162 HD
BRANCH  10  13
HETATM   13  C10 UNL     1      20.008 -21.653 -22.331  1.00  0.00     0.078 A 
HETATM   14  C11 UNL     1      18.910 -20.712 -22.712  1.00  0.00     0.015 A 
HETATM   15  C12 UNL     1      19.376 -21.768 -23.680  1.00  0.00     0.015 A 
ENDBRANCH  10  13
ENDBRANCH   8   9
ENDBRANCH   7   8
ENDBRANCH   4   7
BRANCH   1  16
HETATM   16  C3  UNL     1      25.872 -22.046 -26.535  1.00  0.00     0.071 A 
HETATM   17  S1  UNL     1      27.413 -22.050 -25.812  1.00  0.00    -0.089 SA
HETATM   18  C2  UNL     1      27.922 -23.614 -26.266  1.00  0.00    -0.011 A 
HETATM   19  C1  UNL     1      29.221 -24.324 -25.969  1.00  0.00     0.057 C 
HETATM   20  C14 UNL     1      26.852 -24.090 -26.979  1.00  0.00    -0.009 A 
HETATM   21  C13 UNL     1      25.796 -23.273 -27.113  1.00  0.00     0.142 A 
HETATM   22  C15 UNL     1      26.901 -25.488 -27.575  1.00  0.00     0.052 C 
HETATM   23  F1  UNL     1      24.647 -23.631 -27.813  1.00  0.00    -0.204 F 
ENDBRANCH   1  16
TORSDOF 5
ENDMDL
MODEL 3
REMARK VINA RESULT: -8.658681393      3.146      5.139
REMARK  5 active torsions:
REMARK  status: ('A' for Active; 'I' for Inactive)
REMARK    1  A    between atoms: C3_4  and  C4_5 
REMARK    2  A    between atoms: C6_8  and  C7_9 
REMARK    3  A    between atoms: C7_9  and  C8_10 
REMARK    4  A    between atoms: C8_10  and  N1_11 
REMARK       I    between atoms: N1_11  and  C9_13 
REMARK    5  A    between atoms: C9_13  and  C10_15 
ROOT
HETATM    1  C4  UNL     1      24.269 -18.791 -27.648  1.00  0.00     0.059 A 
HETATM    2  C5  UNL     1      24.915 -19.967 -27.352  1.00  0.00     0.082 A 
HETATM    3  S2  UNL     1      24.642 -20.101 -25.673  1.00  0.00    -0.086 SA
HETATM    4  C6  UNL     1      23.735 -18.672 -25.453  1.00  0.00     0.052 A 
HETATM    5  N2  UNL     1      23.689 -18.168 -26.671  1.00  0.00    -0.352 N 
ATOM      6  H2  UNL     1      23.199 -17.291 -26.843  1.00  0.00     0.166 HD
ENDROOT
BRANCH   4   7
HETATM    7  C7  UNL     1      23.135 -18.118 -24.181  1.00  0.00     0.084 C 
BRANCH   7   8
HETATM    8  C8  UNL     1      23.041 -19.287 -23.219  1.00  0.00     0.129 C 
BRANCH   8   9
HETATM    9  N1  UNL     1      21.781 -19.961 -23.242  1.00  0.00    -0.360 N 
HETATM   10  C9  UNL     1      21.395 -20.939 -22.276  1.00  0.00     0.221 C 
HETATM   11  O1  UNL     1      22.166 -21.252 -21.345  1.00  0.00    -0.273 OA
ATOM     12  H1  UNL     1      21.124 -19.733 -23.987  1.00  0.00     0.162 HD
BRANCH  10  13
HETATM   13  C10 UNL     1      20.061 -21.581 -22.392  1.00  0.00     0.078 A 
HETATM   14  C11 UNL     1      18.947 -20.643 -22.734  1.00  0.00     0.015 A 
HETATM   15  C12 UNL     1      19.412 -21.668 -23.735  1.00  0.00     0.015 A 
ENDBRANCH  10  13
ENDBRANCH   8   9
ENDBRANCH   7   8
ENDBRANCH   4   7
BRANCH   1  16
HETATM   16  C3  UNL     1      24.243 -18.259 -29.043  1.00  0.00     0.071 A 
HETATM   17  S1  UNL     1      25.535 -17.553 -29.896  1.00  0.00    -0.089 SA
HETATM   18  C2  UNL     1      24.739 -17.216 -31.367  1.00  0.00    -0.011 A 
HETATM   19  C1  UNL     1      25.276 -16.574 -32.623  1.00  0.00     0.057 C 
HETATM   20  C14 UNL     1      23.467 -17.675 -31.138  1.00  0.00    -0.009 A 
HETATM   21  C13 UNL     1      23.219 -18.213 -29.935  1.00  0.00     0.142 A 
HETATM   22  C15 UNL     1      22.414 -17.560 -32.229  1.00  0.00     0.052 C 
HETATM   23  F1  UNL     1      21.972 -18.715 -29.573  1.00  0.00    -0.204 F 
ENDBRANCH   1  16
TORSDOF 5
ENDMDL
MODEL 4
REMARK VINA RESULT: -8.475518749      2.706      4.011
REMARK  5 active torsions:
REMARK  status: ('A' for Active; 'I' for Inactive)
REMARK    1  A    between atoms: C3_4  and  C4_5 
REMARK    2  A    between atoms: C6_8  and  C7_9 
REMARK    3  A    between atoms: C7_9  and  C8_10 
REMARK    4  A    between atoms: C8_10  and  N1_11 
REMARK       I    between atoms: N1_11  and  C9_13 
REMARK    5  A    between atoms: C9_13  and  C10_15 
ROOT
HETATM    1  C4  UNL     1      24.075 -20.538 -25.351  1.00  0.00     0.059 A 
HETATM    2  C5  UNL     1      23.931 -21.886 -25.578  1.00  0.00     0.082 A 
HETATM    3  S2  UNL     1      22.756 -22.310 -24.416  1.00  0.00    -0.086 SA
HETATM    4  C6  UNL     1      22.523 -20.769 -23.722  1.00  0.00     0.052 A 
HETATM    5  N2  UNL     1      23.353 -20.012 -24.413  1.00  0.00    -0.352 N 
ATOM      6  H2  UNL     1      23.427 -19.016 -24.208  1.00  0.00     0.166 HD
ENDROOT
BRANCH   4   7
HETATM    7  C7  UNL     1      21.597 -20.368 -22.596  1.00  0.00     0.084 C 
BRANCH   7   8
HETATM    8  C8  UNL     1      20.755 -21.592 -22.291  1.00  0.00     0.129 C 
BRANCH   8   9
HETATM    9  N1  UNL     1      19.348 -21.379 -22.417  1.00  0.00    -0.360 N 
HETATM   10  C9  UNL     1      18.607 -21.696 -23.596  1.00  0.00     0.221 C 
HETATM   11  O1  UNL     1      19.178 -22.187 -24.593  1.00  0.00    -0.273 OA
ATOM     12  H1  UNL     1      18.846 -20.980 -21.625  1.00  0.00     0.162 HD
BRANCH  10  13
HETATM   13  C10 UNL     1      17.145 -21.434 -23.622  1.00  0.00     0.078 A 
HETATM   14  C11 UNL     1      16.376 -22.088 -22.519  1.00  0.00     0.015 A 
HETATM   15  C12 UNL     1      16.540 -20.591 -22.548  1.00  0.00     0.015 A 
ENDBRANCH  10  13
ENDBRANCH   8   9
ENDBRANCH   7   8
ENDBRANCH   4   7
BRANCH   1  16
HETATM   16  C3  UNL     1      25.029 -19.721 -26.159  1.00  0.00     0.071 A 
HETATM   17  S1  UNL     1      24.675 -18.321 -27.058  1.00  0.00    -0.089 SA
HETATM   18  C2  UNL     1      26.232 -17.989 -27.671  1.00  0.00    -0.011 A 
HETATM   19  C1  UNL     1      26.689 -16.868 -28.572  1.00  0.00     0.057 C 
HETATM   20  C14 UNL     1      26.991 -19.001 -27.142  1.00  0.00    -0.009 A 
HETATM   21  C13 UNL     1      26.362 -19.892 -26.361  1.00  0.00     0.142 A 
HETATM   22  C15 UNL     1      28.478 -19.073 -27.452  1.00  0.00     0.052 C 
HETATM   23  F1  UNL     1      27.014 -20.967 -25.762  1.00  0.00    -0.204 F 
ENDBRANCH   1  16
TORSDOF 5
ENDMDL
MODEL 5
REMARK VINA RESULT: -8.468350502      1.596      1.916
REMARK  5 active torsions:
REMARK  status: ('A' for Active; 'I' for Inactive)
REMARK    1  A    between atoms: C3_4  and  C4_5 
REMARK    2  A    between atoms: C6_8  and  C7_9 
REMARK    3  A    between atoms: C7_9  and  C8_10 
REMARK    4  A    between atoms: C8_10  and  N1_11 
REMARK       I    between atoms: N1_11  and  C9_13 
REMARK    5  A    between atoms: C9_13  and  C10_15 
ROOT
HETATM    1  C4  UNL     1      24.289 -21.655 -25.687  1.00  0.00     0.059 A 
HETATM    2  C5  UNL     1      23.484 -21.135 -26.673  1.00  0.00     0.082 A 
HETATM    3  S2  UNL     1      22.426 -20.146 -25.771  1.00  0.00    -0.086 SA
HETATM    4  C6  UNL     1      23.063 -20.450 -24.217  1.00  0.00     0.052 A 
HETATM    5  N2  UNL     1      24.048 -21.290 -24.468  1.00  0.00    -0.352 N 
ATOM      6  H2  UNL     1      24.619 -21.651 -23.704  1.00  0.00     0.166 HD
ENDROOT
BRANCH   4   7
HETATM    7  C7  UNL     1      22.612 -19.897 -22.884  1.00  0.00     0.084 C 
BRANCH   7   8
HETATM    8  C8  UNL     1      21.696 -20.946 -22.284  1.00  0.00     0.129 C 
BRANCH   8   9
HETATM    9  N1  UNL     1      20.316 -20.769 -22.606  1.00  0.00    -0.360 N 
HETATM   10  C9  UNL     1      19.591 -21.645 -23.470  1.00  0.00     0.221 C 
HETATM   11  O1  UNL     1      20.153 -22.630 -23.994  1.00  0.00    -0.273 OA
ATOM     12  H1  UNL     1      19.822 -19.977 -22.197  1.00  0.00     0.162 HD
BRANCH  10  13
HETATM   13  C10 UNL     1      18.156 -21.370 -23.739  1.00  0.00     0.078 A 
HETATM   14  C11 UNL     1      17.204 -22.263 -23.010  1.00  0.00     0.015 A 
HETATM   15  C12 UNL     1      17.308 -20.806 -22.645  1.00  0.00     0.015 A 
ENDBRANCH  10  13
ENDBRANCH   8   9
ENDBRANCH   7   8
ENDBRANCH   4   7
BRANCH   1  16
HETATM   16  C3  UNL     1      25.393 -22.604 -26.020  1.00  0.00     0.071 A 
HETATM   17  S1  UNL     1      25.313 -23.946 -27.062  1.00  0.00    -0.089 SA
HETATM   18  C2  UNL     1      26.922 -24.498 -26.918  1.00  0.00    -0.011 A 
HETATM   19  C1  UNL     1      27.593 -25.679 -27.577  1.00  0.00     0.057 C 
HETATM   20  C14 UNL     1      27.477 -23.598 -26.045  1.00  0.00    -0.009 A 
HETATM   21  C13 UNL     1      26.680 -22.622 -25.585  1.00  0.00     0.142 A 
HETATM   22  C15 UNL     1      28.937 -23.738 -25.642  1.00  0.00     0.052 C 
HETATM   23  F1  UNL     1      27.117 -21.646 -24.695  1.00  0.00    -0.204 F 
ENDBRANCH   1  16
TORSDOF 5
ENDMDL
