MODEL 1
REMARK VINA RESULT: -8.393047703      0.000      0.000
REMARK  6 active torsions:
REMARK  status: ('A' for Active; 'I' for Inactive)
REMARK    1  A    between atoms: C2_2  and  O1_3 
REMARK    2  A    between atoms: O1_3  and  C3_4 
REMARK    3  A    between atoms: C3_4  and  C4_6 
REMARK    4  A    between atoms: C5_7  and  N1_8 
REMARK       I    between atoms: N1_8  and  C6_10 
REMARK    5  A    between atoms: C6_10  and  C7_12 
REMARK    6  A    between atoms: C7_12  and  C8_13 
ROOT
HETATM    1  C4  UNL     1      20.861 -21.390 -23.571  1.00  0.00     0.080 A 
HETATM    2  C5  UNL     1      21.447 -21.751 -24.727  1.00  0.00     0.094 A 
HETATM    3  S1  UNL     1      20.068 -22.009 -25.786  1.00  0.00    -0.075 SA
HETATM    4  C9  UNL     1      18.834 -21.657 -24.688  1.00  0.00    -0.008 A 
HETATM    5  C10 UNL     1      19.485 -21.346 -23.537  1.00  0.00    -0.026 A 
HETATM    6  C11 UNL     1      18.649 -21.026 -22.307  1.00  0.00     0.041 C 
HETATM    7  C12 UNL     1      17.305 -21.605 -22.329  1.00  0.00     0.009 C 
HETATM    8  C13 UNL     1      16.852 -22.329 -23.539  1.00  0.00    -0.014 C 
HETATM    9  C14 UNL     1      15.328 -22.285 -23.583  1.00  0.00     0.010 C 
HETATM   10  C15 UNL     1      17.318 -21.631 -24.810  1.00  0.00     0.051 C 
ENDROOT
BRANCH   2  11
HETATM   11  N1  UNL     1      22.759 -22.176 -25.142  1.00  0.00    -0.320 N 
HETATM   12  C6  UNL     1      23.457 -23.338 -24.835  1.00  0.00     0.223 C 
HETATM   13  O3  UNL     1      23.065 -24.305 -24.145  1.00  0.00    -0.273 OA
ATOM     14  H1  UNL     1      23.251 -21.525 -25.754  1.00  0.00     0.169 HD
BRANCH  12  15
HETATM   15  C7  UNL     1      24.870 -23.422 -25.423  1.00  0.00     0.118 C 
BRANCH  15  16
HETATM   16  C8  UNL     1      24.798 -23.487 -26.914  1.00  0.00     0.124 C 
HETATM   17 CL1  UNL     1      26.091 -24.545 -27.488  1.00  0.00    -0.130 Cl
ENDBRANCH  15  16
ENDBRANCH  12  15
ENDBRANCH   2  11
BRANCH   1  18
HETATM   18  C3  UNL     1      21.697 -20.754 -22.478  1.00  0.00     0.296 C 
HETATM   19  O2  UNL     1      22.009 -21.386 -21.450  1.00  0.00    -0.259 OA
BRANCH  18  20
HETATM   20  O1  UNL     1      22.142 -19.455 -22.543  1.00  0.00    -0.318 OA
BRANCH  20  21
HETATM   21  C2  UNL     1      23.236 -19.024 -23.295  1.00  0.00     0.174 C 
HETATM   22  C1  UNL     1      22.696 -18.214 -24.480  1.00  0.00     0.034 C 
ENDBRANCH  20  21
ENDBRANCH  18  20
ENDBRANCH   1  18
TORSDOF 6
ENDMDL
MODEL 2
REMARK VINA RESULT: -8.122899634      3.934      7.620
REMARK  6 active torsions:
REMARK  status: ('A' for Active; 'I' for Inactive)
REMARK    1  A    between atoms: C2_2  and  O1_3 
REMARK    2  A    between atoms: O1_3  and  C3_4 
REMARK    3  A    between atoms: C3_4  and  C4_6 
REMARK    4  A    between atoms: C5_7  and  N1_8 
REMARK       I    between atoms: N1_8  and  C6_10 
REMARK    5  A    between atoms: C6_10  and  C7_12 
REMARK    6  A    between atoms: C7_12  and  C8_13 
ROOT
HETATM    1  C4  UNL     1      25.228 -21.222 -25.629  1.00  0.00     0.080 A 
HETATM    2  C5  UNL     1      23.995 -20.940 -25.170  1.00  0.00     0.094 A 
HETATM    3  S1  UNL     1      23.627 -19.425 -25.983  1.00  0.00    -0.075 SA
HETATM    4  C9  UNL     1      25.068 -19.240 -26.843  1.00  0.00    -0.008 A 
HETATM    5  C10 UNL     1      25.806 -20.330 -26.504  1.00  0.00    -0.026 A 
HETATM    6  C11 UNL     1      27.212 -20.446 -27.072  1.00  0.00     0.041 C 
HETATM    7  C12 UNL     1      27.812 -19.167 -27.454  1.00  0.00     0.009 C 
HETATM    8  C13 UNL     1      26.998 -17.933 -27.362  1.00  0.00    -0.014 C 
HETATM    9  C14 UNL     1      27.565 -16.909 -28.340  1.00  0.00     0.010 C 
HETATM   10  C15 UNL     1      25.564 -18.180 -27.814  1.00  0.00     0.051 C 
ENDROOT
BRANCH   2  11
HETATM   11  N1  UNL     1      23.151 -21.402 -24.100  1.00  0.00    -0.320 N 
HETATM   12  C6  UNL     1      22.866 -20.816 -22.873  1.00  0.00     0.223 C 
HETATM   13  O3  UNL     1      23.266 -19.711 -22.443  1.00  0.00    -0.273 OA
ATOM     14  H1  UNL     1      22.690 -22.297 -24.268  1.00  0.00     0.169 HD
BRANCH  12  15
HETATM   15  C7  UNL     1      21.953 -21.637 -21.955  1.00  0.00     0.118 C 
BRANCH  15  16
HETATM   16  C8  UNL     1      20.598 -21.770 -22.572  1.00  0.00     0.124 C 
HETATM   17 CL1  UNL     1      19.915 -20.152 -22.766  1.00  0.00    -0.130 Cl
ENDBRANCH  15  16
ENDBRANCH  12  15
ENDBRANCH   2  11
BRANCH   1  18
HETATM   18  C3  UNL     1      25.794 -22.615 -25.436  1.00  0.00     0.296 C 
HETATM   19  O2  UNL     1      25.126 -23.631 -25.712  1.00  0.00    -0.259 OA
BRANCH  18  20
HETATM   20  O1  UNL     1      27.054 -22.843 -24.936  1.00  0.00    -0.318 OA
BRANCH  20  21
HETATM   21  C2  UNL     1      27.773 -24.028 -25.098  1.00  0.00     0.174 C 
HETATM   22  C1  UNL     1      29.123 -23.670 -25.732  1.00  0.00     0.034 C 
ENDBRANCH  20  21
ENDBRANCH  18  20
ENDBRANCH   1  18
TORSDOF 6
ENDMDL
MODEL 3
REMARK VINA RESULT: -8.067840151      3.883      7.683
REMARK  6 active torsions:
REMARK  status: ('A' for Active; 'I' for Inactive)
REMARK    1  A    between atoms: C2_2  and  O1_3 
REMARK    2  A    between atoms: O1_3  and  C3_4 
REMARK    3  A    between atoms: C3_4  and  C4_6 
REMARK    4  A    between atoms: C5_7  and  N1_8 
REMARK       I    between atoms: N1_8  and  C6_10 
REMARK    5  A    between atoms: C6_10  and  C7_12 
REMARK    6  A    between atoms: C7_12  and  C8_13 
ROOT
HETATM    1  C4  UNL     1      25.369 -21.134 -25.654  1.00  0.00     0.080 A 
HETATM    2  C5  UNL     1      24.149 -20.866 -25.154  1.00  0.00     0.094 A 
HETATM    3  S1  UNL     1      23.734 -19.358 -25.956  1.00  0.00    -0.075 SA
HETATM    4  C9  UNL     1      25.143 -19.156 -26.864  1.00  0.00    -0.008 A 
HETATM    5  C10 UNL     1      25.905 -20.236 -26.549  1.00  0.00    -0.026 A 
HETATM    6  C11 UNL     1      27.293 -20.336 -27.165  1.00  0.00     0.041 C 
HETATM    7  C12 UNL     1      27.864 -19.050 -27.569  1.00  0.00     0.009 C 
HETATM    8  C13 UNL     1      27.038 -17.827 -27.451  1.00  0.00    -0.014 C 
HETATM    9  C14 UNL     1      27.559 -16.797 -28.448  1.00  0.00     0.010 C 
HETATM   10  C15 UNL     1      25.593 -18.092 -27.853  1.00  0.00     0.051 C 
ENDROOT
BRANCH   2  11
HETATM   11  N1  UNL     1      23.347 -21.337 -24.055  1.00  0.00    -0.320 N 
HETATM   12  C6  UNL     1      22.922 -20.670 -22.912  1.00  0.00     0.223 C 
HETATM   13  O3  UNL     1      23.121 -19.473 -22.608  1.00  0.00    -0.273 OA
ATOM     14  H1  UNL     1      23.044 -22.309 -24.126  1.00  0.00     0.169 HD
BRANCH  12  15
HETATM   15  C7  UNL     1      22.117 -21.521 -21.923  1.00  0.00     0.118 C 
BRANCH  15  16
HETATM   16  C8  UNL     1      20.810 -21.912 -22.536  1.00  0.00     0.124 C 
HETATM   17 CL1  UNL     1      19.788 -20.475 -22.631  1.00  0.00    -0.130 Cl
ENDBRANCH  15  16
ENDBRANCH  12  15
ENDBRANCH   2  11
BRANCH   1  18
HETATM   18  C3  UNL     1      25.959 -22.519 -25.478  1.00  0.00     0.296 C 
HETATM   19  O2  UNL     1      26.976 -22.708 -24.782  1.00  0.00    -0.259 OA
BRANCH  18  20
HETATM   20  O1  UNL     1      25.427 -23.635 -26.079  1.00  0.00    -0.318 OA
BRANCH  20  21
HETATM   21  C2  UNL     1      25.584 -23.966 -27.426  1.00  0.00     0.174 C 
HETATM   22  C1  UNL     1      26.757 -24.949 -27.529  1.00  0.00     0.034 C 
ENDBRANCH  20  21
ENDBRANCH  18  20
ENDBRANCH   1  18
TORSDOF 6
ENDMDL
MODEL 4
REMARK VINA RESULT: -7.935571787      2.929      6.344
REMARK  6 active torsions:
REMARK  status: ('A' for Active; 'I' for Inactive)
REMARK    1  A    between atoms: C2_2  and  O1_3 
REMARK    2  A    between atoms: O1_3  and  C3_4 
REMARK    3  A    between atoms: C3_4  and  C4_6 
REMARK    4  A    between atoms: C5_7  and  N1_8 
REMARK       I    between atoms: N1_8  and  C6_10 
REMARK    5  A    between atoms: C6_10  and  C7_12 
REMARK    6  A    between atoms: C7_12  and  C8_13 
ROOT
HETATM    1  C4  UNL     1      22.238 -21.145 -25.965  1.00  0.00     0.080 A 
HETATM    2  C5  UNL     1      21.588 -21.565 -24.865  1.00  0.00     0.094 A 
HETATM    3  S1  UNL     1      22.626 -22.857 -24.281  1.00  0.00    -0.075 SA
HETATM    4  C9  UNL     1      23.814 -22.791 -25.479  1.00  0.00    -0.008 A 
HETATM    5  C10 UNL     1      23.407 -21.789 -26.302  1.00  0.00    -0.026 A 
HETATM    6  C11 UNL     1      24.241 -21.498 -27.541  1.00  0.00     0.041 C 
HETATM    7  C12 UNL     1      25.041 -22.633 -28.005  1.00  0.00     0.009 C 
HETATM    8  C13 UNL     1      25.057 -23.879 -27.204  1.00  0.00    -0.014 C 
HETATM    9  C14 UNL     1      26.352 -24.627 -27.504  1.00  0.00     0.010 C 
HETATM   10  C15 UNL     1      25.095 -23.578 -25.711  1.00  0.00     0.051 C 
ENDROOT
BRANCH   2  11
HETATM   11  N1  UNL     1      20.274 -21.393 -24.302  1.00  0.00    -0.320 N 
HETATM   12  C6  UNL     1      19.877 -21.317 -22.972  1.00  0.00     0.223 C 
HETATM   13  O3  UNL     1      20.605 -21.345 -21.955  1.00  0.00    -0.273 OA
ATOM     14  H1  UNL     1      19.518 -21.314 -24.983  1.00  0.00     0.169 HD
BRANCH  12  15
HETATM   15  C7  UNL     1      18.366 -21.184 -22.750  1.00  0.00     0.118 C 
BRANCH  15  16
HETATM   16  C8  UNL     1      17.636 -21.503 -24.015  1.00  0.00     0.124 C 
HETATM   17 CL1  UNL     1      17.298 -23.237 -24.039  1.00  0.00    -0.130 Cl
ENDBRANCH  15  16
ENDBRANCH  12  15
ENDBRANCH   2  11
BRANCH   1  18
HETATM   18  C3  UNL     1      21.859 -19.820 -26.594  1.00  0.00     0.296 C 
HETATM   19  O2  UNL     1      21.372 -19.761 -27.740  1.00  0.00    -0.259 OA
BRANCH  18  20
HETATM   20  O1  UNL     1      22.041 -18.614 -25.957  1.00  0.00    -0.318 OA
BRANCH  20  21
HETATM   21  C2  UNL     1      23.258 -18.157 -25.450  1.00  0.00     0.174 C 
HETATM   22  C1  UNL     1      23.184 -18.241 -23.920  1.00  0.00     0.034 C 
ENDBRANCH  20  21
ENDBRANCH  18  20
ENDBRANCH   1  18
TORSDOF 6
ENDMDL
MODEL 5
REMARK VINA RESULT: -7.871154608      3.294      4.771
REMARK  6 active torsions:
REMARK  status: ('A' for Active; 'I' for Inactive)
REMARK    1  A    between atoms: C2_2  and  O1_3 
REMARK    2  A    between atoms: O1_3  and  C3_4 
REMARK    3  A    between atoms: C3_4  and  C4_6 
REMARK    4  A    between atoms: C5_7  and  N1_8 
REMARK       I    between atoms: N1_8  and  C6_10 
REMARK    5  A    between atoms: C6_10  and  C7_12 
REMARK    6  A    between atoms: C7_12  and  C8_13 
ROOT
HETATM    1  C4  UNL     1      23.337 -21.368 -25.223  1.00  0.00     0.080 A 
HETATM    2  C5  UNL     1      24.038 -20.220 -25.219  1.00  0.00     0.094 A 
HETATM    3  S1  UNL     1      23.130 -19.226 -24.088  1.00  0.00    -0.075 SA
HETATM    4  C9  UNL     1      21.910 -20.328 -23.703  1.00  0.00    -0.008 A 
HETATM    5  C10 UNL     1      22.210 -21.433 -24.435  1.00  0.00    -0.026 A 
HETATM    6  C11 UNL     1      21.259 -22.618 -24.362  1.00  0.00     0.041 C 
HETATM    7  C12 UNL     1      19.891 -22.267 -23.977  1.00  0.00     0.009 C 
HETATM    8  C13 UNL     1      19.586 -20.867 -23.600  1.00  0.00    -0.014 C 
HETATM    9  C14 UNL     1      18.362 -20.871 -22.690  1.00  0.00     0.010 C 
HETATM   10  C15 UNL     1      20.710 -20.258 -22.771  1.00  0.00     0.051 C 
ENDROOT
BRANCH   2  11
HETATM   11  N1  UNL     1      25.064 -19.623 -26.034  1.00  0.00    -0.320 N 
HETATM   12  C6  UNL     1      26.392 -19.994 -26.206  1.00  0.00     0.223 C 
HETATM   13  O3  UNL     1      26.982 -20.976 -25.706  1.00  0.00    -0.273 OA
ATOM     14  H1  UNL     1      24.772 -18.802 -26.565  1.00  0.00     0.169 HD
BRANCH  12  15
HETATM   15  C7  UNL     1      27.210 -19.076 -27.123  1.00  0.00     0.118 C 
BRANCH  15  16
HETATM   16  C8  UNL     1      26.478 -17.792 -27.342  1.00  0.00     0.124 C 
HETATM   17 CL1  UNL     1      27.462 -16.762 -28.387  1.00  0.00    -0.130 Cl
ENDBRANCH  15  16
ENDBRANCH  12  15
ENDBRANCH   2  11
BRANCH   1  18
HETATM   18  C3  UNL     1      23.957 -22.617 -25.815  1.00  0.00     0.296 C 
HETATM   19  O2  UNL     1      24.488 -23.484 -25.093  1.00  0.00    -0.259 OA
BRANCH  18  20
HETATM   20  O1  UNL     1      23.987 -22.863 -27.168  1.00  0.00    -0.318 OA
BRANCH  20  21
HETATM   21  C2  UNL     1      25.093 -23.356 -27.864  1.00  0.00     0.174 C 
HETATM   22  C1  UNL     1      25.443 -22.340 -28.958  1.00  0.00     0.034 C 
ENDBRANCH  20  21
ENDBRANCH  18  20
ENDBRANCH   1  18
TORSDOF 6
ENDMDL
