MODEL 1
REMARK VINA RESULT: -8.461588362      0.000      0.000
REMARK  6 active torsions:
REMARK  status: ('A' for Active; 'I' for Inactive)
REMARK    1  A    between atoms: C2_2  and  C3_3 
REMARK    2  A    between atoms: C3_3  and  C4_4 
REMARK    3  A    between atoms: C3_3  and  C11_11 
REMARK    4  A    between atoms: C4_4  and  C5_5 
REMARK       I    between atoms: C11_11  and  N1_13 
REMARK    5  A    between atoms: N1_13  and  C12_15 
REMARK    6  A    between atoms: C13_20  and  S1_21 
ROOT
HETATM    1  C11 UNL     1      21.856 -18.507 -24.218  1.00  0.00     0.227 C 
HETATM    2  O1  UNL     1      20.896 -17.969 -24.872  1.00  0.00    -0.273 OA
HETATM    3  N1  UNL     1      23.089 -17.811 -24.321  1.00  0.00    -0.306 N 
ATOM      4  H1  UNL     1      23.484 -17.313 -23.524  1.00  0.00     0.171 HD
ENDROOT
BRANCH   1   5
HETATM    5  C3  UNL     1      21.668 -19.733 -23.443  1.00  0.00     0.078 C 
BRANCH   5   6
HETATM    6  C2  UNL     1      22.918 -20.230 -22.744  1.00  0.00     0.009 C 
HETATM    7  C1  UNL     1      22.581 -21.358 -21.792  1.00  0.00     0.006 C 
ENDBRANCH   5   6
BRANCH   5   8
HETATM    8  C4  UNL     1      20.911 -20.810 -24.116  1.00  0.00     0.018 C 
BRANCH   8   9
HETATM    9  C5  UNL     1      19.439 -20.833 -23.977  1.00  0.00    -0.014 C 
HETATM   10  C6  UNL     1      18.870 -21.831 -24.982  1.00  0.00     0.005 C 
HETATM   11  C7  UNL     1      18.434 -23.099 -24.320  1.00  0.00     0.000 C 
HETATM   12  C8  UNL     1      17.233 -22.827 -23.457  1.00  0.00     0.000 C 
HETATM   13  C9  UNL     1      17.486 -21.549 -22.695  1.00  0.00     0.000 C 
HETATM   14  C10 UNL     1      19.011 -21.321 -22.619  1.00  0.00     0.005 C 
ENDBRANCH   8   9
ENDBRANCH   5   8
ENDBRANCH   1   5
BRANCH   3  15
HETATM   15  C12 UNL     1      23.703 -17.835 -25.483  1.00  0.00     0.168 A 
HETATM   16  N2  UNL     1      24.010 -16.809 -26.281  1.00  0.00    -0.278 N 
HETATM   17  N3  UNL     1      24.613 -17.049 -27.374  1.00  0.00    -0.286 N 
ATOM     18  H2  UNL     1      23.767 -15.854 -26.019  1.00  0.00     0.189 HD
HETATM   19  C13 UNL     1      24.924 -18.291 -27.706  1.00  0.00     0.129 A 
ATOM     20  H3  UNL     1      24.858 -16.280 -27.998  1.00  0.00     0.188 HD
HETATM   21  S2  UNL     1      24.316 -19.163 -26.369  1.00  0.00    -0.026 SA
BRANCH  19  22
HETATM   22  S1  UNL     1      25.773 -18.878 -29.193  1.00  0.00    -0.108 SA
HETATM   23  C14 UNL     1      27.337 -19.593 -28.677  1.00  0.00     0.097 C 
ENDBRANCH  19  22
ENDBRANCH   3  15
TORSDOF 6
ENDMDL
MODEL 2
REMARK VINA RESULT: -8.428196301      1.486      2.078
REMARK  6 active torsions:
REMARK  status: ('A' for Active; 'I' for Inactive)
REMARK    1  A    between atoms: C2_2  and  C3_3 
REMARK    2  A    between atoms: C3_3  and  C4_4 
REMARK    3  A    between atoms: C3_3  and  C11_11 
REMARK    4  A    between atoms: C4_4  and  C5_5 
REMARK       I    between atoms: C11_11  and  N1_13 
REMARK    5  A    between atoms: N1_13  and  C12_15 
REMARK    6  A    between atoms: C13_20  and  S1_21 
ROOT
HETATM    1  C11 UNL     1      21.415 -19.769 -23.167  1.00  0.00     0.227 C 
HETATM    2  O1  UNL     1      20.574 -18.805 -23.219  1.00  0.00    -0.273 OA
HETATM    3  N1  UNL     1      22.773 -19.355 -23.171  1.00  0.00    -0.306 N 
ATOM      4  H1  UNL     1      23.359 -19.455 -22.343  1.00  0.00     0.171 HD
ENDROOT
BRANCH   1   5
HETATM    5  C3  UNL     1      20.984 -21.166 -23.113  1.00  0.00     0.078 C 
BRANCH   5   6
HETATM    6  C2  UNL     1      22.101 -22.157 -22.853  1.00  0.00     0.009 C 
HETATM    7  C1  UNL     1      22.065 -22.633 -21.416  1.00  0.00     0.006 C 
ENDBRANCH   5   6
BRANCH   5   8
HETATM    8  C4  UNL     1      20.063 -21.597 -24.186  1.00  0.00     0.018 C 
BRANCH   8   9
HETATM    9  C5  UNL     1      18.780 -22.228 -23.805  1.00  0.00    -0.014 C 
HETATM   10  C6  UNL     1      18.351 -21.679 -22.447  1.00  0.00     0.005 C 
HETATM   11  C7  UNL     1      17.234 -20.693 -22.574  1.00  0.00     0.000 C 
HETATM   12  C8  UNL     1      15.984 -21.405 -23.016  1.00  0.00     0.000 C 
HETATM   13  C9  UNL     1      16.361 -22.366 -24.119  1.00  0.00     0.000 C 
HETATM   14  C10 UNL     1      17.675 -21.876 -24.764  1.00  0.00     0.005 C 
ENDBRANCH   8   9
ENDBRANCH   5   8
ENDBRANCH   1   5
BRANCH   3  15
HETATM   15  C12 UNL     1      23.245 -18.837 -24.283  1.00  0.00     0.168 A 
HETATM   16  N2  UNL     1      23.100 -17.594 -24.748  1.00  0.00    -0.278 N 
HETATM   17  N3  UNL     1      23.644 -17.292 -25.857  1.00  0.00    -0.286 N 
ATOM     18  H2  UNL     1      22.564 -16.901 -24.225  1.00  0.00     0.189 HD
HETATM   19  C13 UNL     1      24.337 -18.197 -26.528  1.00  0.00     0.129 A 
ATOM     20  H3  UNL     1      23.547 -16.348 -26.230  1.00  0.00     0.188 HD
HETATM   21  S2  UNL     1      24.198 -19.559 -25.506  1.00  0.00    -0.026 SA
BRANCH  19  22
HETATM   22  S1  UNL     1      25.195 -18.009 -28.110  1.00  0.00    -0.108 SA
HETATM   23  C14 UNL     1      24.494 -16.580 -28.940  1.00  0.00     0.097 C 
ENDBRANCH  19  22
ENDBRANCH   3  15
TORSDOF 6
ENDMDL
MODEL 3
REMARK VINA RESULT: -8.396254029      3.646      3.943
REMARK  6 active torsions:
REMARK  status: ('A' for Active; 'I' for Inactive)
REMARK    1  A    between atoms: C2_2  and  C3_3 
REMARK    2  A    between atoms: C3_3  and  C4_4 
REMARK    3  A    between atoms: C3_3  and  C11_11 
REMARK    4  A    between atoms: C4_4  and  C5_5 
REMARK       I    between atoms: C11_11  and  N1_13 
REMARK    5  A    between atoms: N1_13  and  C12_15 
REMARK    6  A    between atoms: C13_20  and  S1_21 
ROOT
HETATM    1  C11 UNL     1      22.774 -22.443 -24.389  1.00  0.00     0.227 C 
HETATM    2  O1  UNL     1      22.753 -23.670 -24.022  1.00  0.00    -0.273 OA
HETATM    3  N1  UNL     1      23.523 -22.204 -25.570  1.00  0.00    -0.306 N 
ATOM      4  H1  UNL     1      23.065 -21.941 -26.443  1.00  0.00     0.171 HD
ENDROOT
BRANCH   1   5
HETATM    5  C3  UNL     1      22.080 -21.401 -23.632  1.00  0.00     0.078 C 
BRANCH   5   6
HETATM    6  C2  UNL     1      22.979 -20.573 -22.736  1.00  0.00     0.009 C 
HETATM    7  C1  UNL     1      22.994 -19.128 -23.188  1.00  0.00     0.006 C 
ENDBRANCH   5   6
BRANCH   5   8
HETATM    8  C4  UNL     1      20.823 -21.814 -22.972  1.00  0.00     0.018 C 
BRANCH   8   9
HETATM    9  C5  UNL     1      19.540 -21.325 -23.524  1.00  0.00    -0.014 C 
HETATM   10  C6  UNL     1      19.142 -22.219 -24.696  1.00  0.00     0.005 C 
HETATM   11  C7  UNL     1      18.032 -23.153 -24.329  1.00  0.00     0.000 C 
HETATM   12  C8  UNL     1      16.768 -22.369 -24.108  1.00  0.00     0.000 C 
HETATM   13  C9  UNL     1      17.115 -21.146 -23.293  1.00  0.00     0.000 C 
HETATM   14  C10 UNL     1      18.423 -21.429 -22.522  1.00  0.00     0.005 C 
ENDBRANCH   8   9
ENDBRANCH   5   8
ENDBRANCH   1   5
BRANCH   3  15
HETATM   15  C12 UNL     1      24.829 -22.334 -25.498  1.00  0.00     0.168 A 
HETATM   16  N2  UNL     1      25.713 -21.521 -24.915  1.00  0.00    -0.278 N 
HETATM   17  N3  UNL     1      26.945 -21.833 -24.957  1.00  0.00    -0.286 N 
ATOM     18  H2  UNL     1      25.408 -20.669 -24.446  1.00  0.00     0.189 HD
HETATM   19  C13 UNL     1      27.332 -22.940 -25.569  1.00  0.00     0.129 A 
ATOM     20  H3  UNL     1      27.638 -21.227 -24.518  1.00  0.00     0.188 HD
HETATM   21  S2  UNL     1      25.840 -23.568 -26.113  1.00  0.00    -0.026 SA
BRANCH  19  22
HETATM   22  S1  UNL     1      29.011 -23.590 -25.760  1.00  0.00    -0.108 SA
HETATM   23  C14 UNL     1      28.871 -25.299 -26.294  1.00  0.00     0.097 C 
ENDBRANCH  19  22
ENDBRANCH   3  15
TORSDOF 6
ENDMDL
MODEL 4
REMARK VINA RESULT: -8.363956653      3.697      4.137
REMARK  6 active torsions:
REMARK  status: ('A' for Active; 'I' for Inactive)
REMARK    1  A    between atoms: C2_2  and  C3_3 
REMARK    2  A    between atoms: C3_3  and  C4_4 
REMARK    3  A    between atoms: C3_3  and  C11_11 
REMARK    4  A    between atoms: C4_4  and  C5_5 
REMARK       I    between atoms: C11_11  and  N1_13 
REMARK    5  A    between atoms: N1_13  and  C12_15 
REMARK    6  A    between atoms: C13_20  and  S1_21 
ROOT
HETATM    1  C11 UNL     1      23.836 -20.933 -25.650  1.00  0.00     0.227 C 
HETATM    2  O1  UNL     1      23.452 -21.366 -26.792  1.00  0.00    -0.273 OA
HETATM    3  N1  UNL     1      25.152 -20.401 -25.643  1.00  0.00    -0.306 N 
ATOM      4  H1  UNL     1      25.319 -19.402 -25.524  1.00  0.00     0.171 HD
ENDROOT
BRANCH   1   5
HETATM    5  C3  UNL     1      22.971 -20.997 -24.471  1.00  0.00     0.078 C 
BRANCH   5   6
HETATM    6  C2  UNL     1      23.462 -20.186 -23.289  1.00  0.00     0.009 C 
HETATM    7  C1  UNL     1      22.931 -18.769 -23.359  1.00  0.00     0.006 C 
ENDBRANCH   5   6
BRANCH   5   8
HETATM    8  C4  UNL     1      22.496 -22.345 -24.094  1.00  0.00     0.018 C 
BRANCH   8   9
HETATM    9  C5  UNL     1      21.039 -22.576 -23.981  1.00  0.00    -0.014 C 
HETATM   10  C6  UNL     1      20.584 -22.147 -22.589  1.00  0.00     0.005 C 
HETATM   11  C7  UNL     1      19.851 -20.844 -22.621  1.00  0.00     0.000 C 
HETATM   12  C8  UNL     1      18.533 -21.027 -23.323  1.00  0.00     0.000 C 
HETATM   13  C9  UNL     1      18.774 -21.864 -24.556  1.00  0.00     0.000 C 
HETATM   14  C10 UNL     1      20.260 -21.731 -24.952  1.00  0.00     0.005 C 
ENDBRANCH   8   9
ENDBRANCH   5   8
ENDBRANCH   1   5
BRANCH   3  15
HETATM   15  C12 UNL     1      26.147 -21.245 -25.796  1.00  0.00     0.168 A 
HETATM   16  N2  UNL     1      27.379 -21.003 -26.252  1.00  0.00    -0.278 N 
HETATM   17  N3  UNL     1      28.202 -21.970 -26.322  1.00  0.00    -0.286 N 
ATOM     18  H2  UNL     1      27.653 -20.063 -26.537  1.00  0.00     0.189 HD
HETATM   19  C13 UNL     1      27.837 -23.185 -25.950  1.00  0.00     0.129 A 
ATOM     20  H3  UNL     1      29.148 -21.807 -26.666  1.00  0.00     0.188 HD
HETATM   21  S2  UNL     1      26.218 -22.923 -25.472  1.00  0.00    -0.026 SA
BRANCH  19  22
HETATM   22  S1  UNL     1      28.819 -24.706 -25.957  1.00  0.00    -0.108 SA
HETATM   23  C14 UNL     1      27.999 -25.874 -27.047  1.00  0.00     0.097 C 
ENDBRANCH  19  22
ENDBRANCH   3  15
TORSDOF 6
ENDMDL
MODEL 5
REMARK VINA RESULT: -8.343721768      1.576      2.020
REMARK  6 active torsions:
REMARK  status: ('A' for Active; 'I' for Inactive)
REMARK    1  A    between atoms: C2_2  and  C3_3 
REMARK    2  A    between atoms: C3_3  and  C4_4 
REMARK    3  A    between atoms: C3_3  and  C11_11 
REMARK    4  A    between atoms: C4_4  and  C5_5 
REMARK       I    between atoms: C11_11  and  N1_13 
REMARK    5  A    between atoms: N1_13  and  C12_15 
REMARK    6  A    between atoms: C13_20  and  S1_21 
ROOT
HETATM    1  C11 UNL     1      21.203 -19.872 -22.899  1.00  0.00     0.227 C 
HETATM    2  O1  UNL     1      20.447 -18.838 -22.880  1.00  0.00    -0.273 OA
HETATM    3  N1  UNL     1      22.589 -19.576 -22.968  1.00  0.00    -0.306 N 
ATOM      4  H1  UNL     1      23.208 -19.750 -22.176  1.00  0.00     0.171 HD
ENDROOT
BRANCH   1   5
HETATM    5  C3  UNL     1      20.654 -21.228 -22.853  1.00  0.00     0.078 C 
BRANCH   5   6
HETATM    6  C2  UNL     1      21.660 -22.299 -22.481  1.00  0.00     0.009 C 
HETATM    7  C1  UNL     1      22.087 -23.075 -23.709  1.00  0.00     0.006 C 
ENDBRANCH   5   6
BRANCH   5   8
HETATM    8  C4  UNL     1      19.791 -21.611 -23.991  1.00  0.00     0.018 C 
BRANCH   8   9
HETATM    9  C5  UNL     1      18.357 -21.250 -23.944  1.00  0.00    -0.014 C 
HETATM   10  C6  UNL     1      17.541 -22.428 -24.471  1.00  0.00     0.005 C 
HETATM   11  C7  UNL     1      16.859 -23.169 -23.366  1.00  0.00     0.000 C 
HETATM   12  C8  UNL     1      15.783 -22.303 -22.770  1.00  0.00     0.000 C 
HETATM   13  C9  UNL     1      16.345 -20.912 -22.601  1.00  0.00     0.000 C 
HETATM   14  C10 UNL     1      17.884 -21.013 -22.536  1.00  0.00     0.005 C 
ENDBRANCH   8   9
ENDBRANCH   5   8
ENDBRANCH   1   5
BRANCH   3  15
HETATM   15  C12 UNL     1      23.045 -19.070 -24.092  1.00  0.00     0.168 A 
HETATM   16  N2  UNL     1      22.905 -17.827 -24.560  1.00  0.00    -0.278 N 
HETATM   17  N3  UNL     1      23.431 -17.537 -25.681  1.00  0.00    -0.286 N 
ATOM     18  H2  UNL     1      22.388 -17.126 -24.030  1.00  0.00     0.189 HD
HETATM   19  C13 UNL     1      24.099 -18.454 -26.362  1.00  0.00     0.129 A 
ATOM     20  H3  UNL     1      23.337 -16.594 -26.057  1.00  0.00     0.188 HD
HETATM   21  S2  UNL     1      23.964 -19.809 -25.330  1.00  0.00    -0.026 SA
BRANCH  19  22
HETATM   22  S1  UNL     1      24.927 -18.284 -27.962  1.00  0.00    -0.108 SA
HETATM   23  C14 UNL     1      23.654 -18.232 -29.227  1.00  0.00     0.097 C 
ENDBRANCH  19  22
ENDBRANCH   3  15
TORSDOF 6
ENDMDL
