MODEL 1
REMARK VINA RESULT: -8.948699599      0.000      0.000
REMARK  5 active torsions:
REMARK  status: ('A' for Active; 'I' for Inactive)
REMARK    1  A    between atoms: O1_2  and  C2_3 
REMARK    2  A    between atoms: C3_4  and  N1_5 
REMARK       I    between atoms: N1_5  and  C4_7 
REMARK    3  A    between atoms: C4_7  and  C5_9 
REMARK    4  A    between atoms: C11_15  and  C12_16 
REMARK    5  A    between atoms: C12_16  and  C13_17 
ROOT
HETATM    1  C2  UNL     1      23.540 -21.483 -26.662  1.00  0.00     0.117 A 
HETATM    2  C3  UNL     1      23.987 -22.116 -25.496  1.00  0.00     0.070 A 
HETATM    3  C10 UNL     1      23.560 -21.620 -24.279  1.00  0.00     0.040 A 
HETATM    4  C11 UNL     1      22.704 -20.515 -24.154  1.00  0.00    -0.041 A 
HETATM    5  C15 UNL     1      22.286 -19.919 -25.319  1.00  0.00    -0.031 A 
HETATM    6  C16 UNL     1      21.378 -18.742 -25.271  1.00  0.00     0.050 C 
HETATM    7  C17 UNL     1      22.702 -20.401 -26.541  1.00  0.00     0.076 A 
HETATM    8 CL1  UNL     1      22.169 -19.641 -28.047  1.00  0.00    -0.081 Cl
ENDROOT
BRANCH   2   9
HETATM    9  N1  UNL     1      24.847 -23.229 -25.659  1.00  0.00    -0.324 N 
HETATM   10  C4  UNL     1      26.247 -23.214 -25.508  1.00  0.00     0.226 C 
HETATM   11  O2  UNL     1      26.963 -22.233 -25.208  1.00  0.00    -0.273 OA
ATOM     12  H1  UNL     1      24.415 -24.118 -25.908  1.00  0.00     0.169 HD
BRANCH  10  13
HETATM   13  C5  UNL     1      26.953 -24.537 -25.737  1.00  0.00     0.078 C 
HETATM   14  C6  UNL     1      28.362 -24.381 -25.264  1.00  0.00     0.014 C 
HETATM   15  C7  UNL     1      29.235 -24.665 -26.444  1.00  0.00     0.001 C 
HETATM   16  C8  UNL     1      28.400 -25.522 -27.359  1.00  0.00     0.001 C 
HETATM   17  C9  UNL     1      27.009 -24.870 -27.221  1.00  0.00     0.014 C 
ENDBRANCH  10  13
ENDBRANCH   2   9
BRANCH   1  18
HETATM   18  O1  UNL     1      23.954 -21.963 -27.898  1.00  0.00    -0.352 OA
HETATM   19  C1  UNL     1      25.091 -21.423 -28.548  1.00  0.00     0.210 C 
ENDBRANCH   1  18
BRANCH   4  20
HETATM   20  C12 UNL     1      22.291 -20.044 -22.810  1.00  0.00     0.117 C 
BRANCH  20  21
HETATM   21  C13 UNL     1      21.574 -21.092 -22.049  1.00  0.00     0.127 C 
HETATM   22  C14 UNL     1      20.225 -21.591 -22.407  1.00  0.00     0.091 C 
HETATM   23  O3  UNL     1      22.124 -21.569 -21.076  1.00  0.00    -0.298 OA
ENDBRANCH  20  21
ENDBRANCH   4  20
TORSDOF 5
ENDMDL
MODEL 2
REMARK VINA RESULT: -8.913413359      1.217      1.666
REMARK  5 active torsions:
REMARK  status: ('A' for Active; 'I' for Inactive)
REMARK    1  A    between atoms: O1_2  and  C2_3 
REMARK    2  A    between atoms: C3_4  and  N1_5 
REMARK       I    between atoms: N1_5  and  C4_7 
REMARK    3  A    between atoms: C4_7  and  C5_9 
REMARK    4  A    between atoms: C11_15  and  C12_16 
REMARK    5  A    between atoms: C12_16  and  C13_17 
ROOT
HETATM    1  C2  UNL     1      23.262 -22.031 -27.064  1.00  0.00     0.117 A 
HETATM    2  C3  UNL     1      24.014 -22.733 -26.115  1.00  0.00     0.070 A 
HETATM    3  C10 UNL     1      23.484 -22.892 -24.850  1.00  0.00     0.040 A 
HETATM    4  C11 UNL     1      22.232 -22.385 -24.469  1.00  0.00    -0.041 A 
HETATM    5  C15 UNL     1      21.523 -21.700 -25.425  1.00  0.00    -0.031 A 
HETATM    6  C16 UNL     1      20.188 -21.131 -25.099  1.00  0.00     0.050 C 
HETATM    7  C17 UNL     1      22.037 -21.532 -26.693  1.00  0.00     0.076 A 
HETATM    8 CL1  UNL     1      21.131 -20.653 -27.932  1.00  0.00    -0.081 Cl
ENDROOT
BRANCH   2   9
HETATM    9  N1  UNL     1      25.271 -23.233 -26.534  1.00  0.00    -0.324 N 
HETATM   10  C4  UNL     1      26.523 -22.843 -26.023  1.00  0.00     0.226 C 
HETATM   11  O2  UNL     1      26.741 -22.000 -25.124  1.00  0.00    -0.273 OA
ATOM     12  H1  UNL     1      25.269 -23.938 -27.272  1.00  0.00     0.169 HD
BRANCH  10  13
HETATM   13  C5  UNL     1      27.732 -23.522 -26.637  1.00  0.00     0.078 C 
HETATM   14  C6  UNL     1      27.247 -24.744 -27.348  1.00  0.00     0.014 C 
HETATM   15  C7  UNL     1      27.956 -25.903 -26.725  1.00  0.00     0.001 C 
HETATM   16  C8  UNL     1      29.209 -25.325 -26.123  1.00  0.00     0.001 C 
HETATM   17  C9  UNL     1      28.699 -23.984 -25.556  1.00  0.00     0.014 C 
ENDBRANCH  10  13
ENDBRANCH   2   9
BRANCH   1  18
HETATM   18  O1  UNL     1      23.773 -21.857 -28.344  1.00  0.00    -0.352 OA
HETATM   19  C1  UNL     1      24.519 -20.702 -28.683  1.00  0.00     0.210 C 
ENDBRANCH   1  18
BRANCH   4  20
HETATM   20  C12 UNL     1      21.734 -22.599 -23.089  1.00  0.00     0.117 C 
BRANCH  20  21
HETATM   21  C13 UNL     1      22.269 -21.596 -22.141  1.00  0.00     0.127 C 
HETATM   22  C14 UNL     1      22.901 -20.322 -22.561  1.00  0.00     0.091 C 
HETATM   23  O3  UNL     1      22.185 -21.830 -20.952  1.00  0.00    -0.298 OA
ENDBRANCH  20  21
ENDBRANCH   4  20
TORSDOF 5
ENDMDL
MODEL 3
REMARK VINA RESULT: -8.683700774      3.454      6.670
REMARK  5 active torsions:
REMARK  status: ('A' for Active; 'I' for Inactive)
REMARK    1  A    between atoms: O1_2  and  C2_3 
REMARK    2  A    between atoms: C3_4  and  N1_5 
REMARK       I    between atoms: N1_5  and  C4_7 
REMARK    3  A    between atoms: C4_7  and  C5_9 
REMARK    4  A    between atoms: C11_15  and  C12_16 
REMARK    5  A    between atoms: C12_16  and  C13_17 
ROOT
HETATM    1  C2  UNL     1      24.090 -21.093 -27.427  1.00  0.00     0.117 A 
HETATM    2  C3  UNL     1      24.563 -20.153 -26.503  1.00  0.00     0.070 A 
HETATM    3  C10 UNL     1      25.671 -19.403 -26.844  1.00  0.00     0.040 A 
HETATM    4  C11 UNL     1      26.346 -19.535 -28.068  1.00  0.00    -0.041 A 
HETATM    5  C15 UNL     1      25.854 -20.467 -28.949  1.00  0.00    -0.031 A 
HETATM    6  C16 UNL     1      26.514 -20.668 -30.267  1.00  0.00     0.050 C 
HETATM    7  C17 UNL     1      24.750 -21.225 -28.625  1.00  0.00     0.076 A 
HETATM    8 CL1  UNL     1      24.109 -22.427 -29.753  1.00  0.00    -0.081 Cl
ENDROOT
BRANCH   2   9
HETATM    9  N1  UNL     1      23.857 -20.044 -25.280  1.00  0.00    -0.324 N 
HETATM   10  C4  UNL     1      23.036 -18.967 -24.898  1.00  0.00     0.226 C 
HETATM   11  O2  UNL     1      22.791 -17.934 -25.561  1.00  0.00    -0.273 OA
ATOM     12  H1  UNL     1      23.953 -20.815 -24.618  1.00  0.00     0.169 HD
BRANCH  10  13
HETATM   13  C5  UNL     1      22.385 -19.080 -23.533  1.00  0.00     0.078 C 
HETATM   14  C6  UNL     1      23.134 -20.119 -22.763  1.00  0.00     0.014 C 
HETATM   15  C7  UNL     1      22.138 -21.173 -22.400  1.00  0.00     0.001 C 
HETATM   16  C8  UNL     1      20.800 -20.483 -22.430  1.00  0.00     0.001 C 
HETATM   17  C9  UNL     1      20.947 -19.560 -23.658  1.00  0.00     0.014 C 
ENDBRANCH  10  13
ENDBRANCH   2   9
BRANCH   1  18
HETATM   18  O1  UNL     1      22.978 -21.860 -27.108  1.00  0.00    -0.352 OA
HETATM   19  C1  UNL     1      21.672 -21.436 -27.455  1.00  0.00     0.210 C 
ENDBRANCH   1  18
BRANCH   4  20
HETATM   20  C12 UNL     1      27.528 -18.689 -28.358  1.00  0.00     0.117 C 
BRANCH  20  21
HETATM   21  C13 UNL     1      27.163 -17.268 -28.551  1.00  0.00     0.127 C 
HETATM   22  C14 UNL     1      26.077 -16.812 -29.451  1.00  0.00     0.091 C 
HETATM   23  O3  UNL     1      27.790 -16.428 -27.936  1.00  0.00    -0.298 OA
ENDBRANCH  20  21
ENDBRANCH   4  20
TORSDOF 5
ENDMDL
MODEL 4
REMARK VINA RESULT: -8.640286026      2.131      6.435
REMARK  5 active torsions:
REMARK  status: ('A' for Active; 'I' for Inactive)
REMARK    1  A    between atoms: O1_2  and  C2_3 
REMARK    2  A    between atoms: C3_4  and  N1_5 
REMARK       I    between atoms: N1_5  and  C4_7 
REMARK    3  A    between atoms: C4_7  and  C5_9 
REMARK    4  A    between atoms: C11_15  and  C12_16 
REMARK    5  A    between atoms: C12_16  and  C13_17 
ROOT
HETATM    1  C2  UNL     1      23.204 -19.768 -25.675  1.00  0.00     0.117 A 
HETATM    2  C3  UNL     1      23.199 -20.985 -24.982  1.00  0.00     0.070 A 
HETATM    3  C10 UNL     1      24.397 -21.657 -24.835  1.00  0.00     0.040 A 
HETATM    4  C11 UNL     1      25.616 -21.182 -25.343  1.00  0.00    -0.041 A 
HETATM    5  C15 UNL     1      25.583 -19.986 -26.018  1.00  0.00    -0.031 A 
HETATM    6  C16 UNL     1      26.832 -19.416 -26.588  1.00  0.00     0.050 C 
HETATM    7  C17 UNL     1      24.396 -19.302 -26.174  1.00  0.00     0.076 A 
HETATM    8 CL1  UNL     1      24.342 -17.761 -27.041  1.00  0.00    -0.081 Cl
ENDROOT
BRANCH   2   9
HETATM    9  N1  UNL     1      21.953 -21.433 -24.480  1.00  0.00    -0.324 N 
HETATM   10  C4  UNL     1      21.491 -21.266 -23.161  1.00  0.00     0.226 C 
HETATM   11  O2  UNL     1      22.090 -20.703 -22.218  1.00  0.00    -0.273 OA
ATOM     12  H1  UNL     1      21.337 -21.919 -25.132  1.00  0.00     0.169 HD
BRANCH  10  13
HETATM   13  C5  UNL     1      20.117 -21.836 -22.862  1.00  0.00     0.078 C 
HETATM   14  C6  UNL     1      19.651 -22.551 -24.090  1.00  0.00     0.014 C 
HETATM   15  C7  UNL     1      18.371 -21.895 -24.498  1.00  0.00     0.001 C 
HETATM   16  C8  UNL     1      17.832 -21.260 -23.243  1.00  0.00     0.001 C 
HETATM   17  C9  UNL     1      19.119 -20.722 -22.583  1.00  0.00     0.014 C 
ENDBRANCH  10  13
ENDBRANCH   2   9
BRANCH   1  18
HETATM   18  O1  UNL     1      22.013 -19.073 -25.837  1.00  0.00    -0.352 OA
HETATM   19  C1  UNL     1      21.521 -18.217 -24.821  1.00  0.00     0.210 C 
ENDBRANCH   1  18
BRANCH   4  20
HETATM   20  C12 UNL     1      26.859 -21.964 -25.141  1.00  0.00     0.117 C 
BRANCH  20  21
HETATM   21  C13 UNL     1      26.732 -23.351 -25.643  1.00  0.00     0.127 C 
HETATM   22  C14 UNL     1      26.456 -23.692 -27.058  1.00  0.00     0.091 C 
HETATM   23  O3  UNL     1      26.863 -24.260 -24.847  1.00  0.00    -0.298 OA
ENDBRANCH  20  21
ENDBRANCH   4  20
TORSDOF 5
ENDMDL
MODEL 5
REMARK VINA RESULT: -8.627567836      1.579      1.643
REMARK  5 active torsions:
REMARK  status: ('A' for Active; 'I' for Inactive)
REMARK    1  A    between atoms: O1_2  and  C2_3 
REMARK    2  A    between atoms: C3_4  and  N1_5 
REMARK       I    between atoms: N1_5  and  C4_7 
REMARK    3  A    between atoms: C4_7  and  C5_9 
REMARK    4  A    between atoms: C11_15  and  C12_16 
REMARK    5  A    between atoms: C12_16  and  C13_17 
ROOT
HETATM    1  C2  UNL     1      25.160 -20.330 -25.902  1.00  0.00     0.117 A 
HETATM    2  C3  UNL     1      25.076 -21.332 -24.927  1.00  0.00     0.070 A 
HETATM    3  C10 UNL     1      24.154 -21.177 -23.910  1.00  0.00     0.040 A 
HETATM    4  C11 UNL     1      23.301 -20.067 -23.804  1.00  0.00    -0.041 A 
HETATM    5  C15 UNL     1      23.412 -19.104 -24.777  1.00  0.00    -0.031 A 
HETATM    6  C16 UNL     1      22.544 -17.898 -24.734  1.00  0.00     0.050 C 
HETATM    7  C17 UNL     1      24.326 -19.242 -25.799  1.00  0.00     0.076 A 
HETATM    8 CL1  UNL     1      24.477 -18.008 -27.057  1.00  0.00    -0.081 Cl
ENDROOT
BRANCH   2   9
HETATM    9  N1  UNL     1      25.949 -22.437 -25.067  1.00  0.00    -0.324 N 
HETATM   10  C4  UNL     1      25.720 -23.569 -25.872  1.00  0.00     0.226 C 
HETATM   11  O2  UNL     1      24.721 -23.792 -26.592  1.00  0.00    -0.273 OA
ATOM     12  H1  UNL     1      26.821 -22.411 -24.538  1.00  0.00     0.169 HD
BRANCH  10  13
HETATM   13  C5  UNL     1      26.807 -24.627 -25.855  1.00  0.00     0.078 C 
HETATM   14  C6  UNL     1      27.990 -24.043 -25.152  1.00  0.00     0.014 C 
HETATM   15  C7  UNL     1      29.123 -24.088 -26.127  1.00  0.00     0.001 C 
HETATM   16  C8  UNL     1      28.766 -25.182 -27.100  1.00  0.00     0.001 C 
HETATM   17  C9  UNL     1      27.247 -24.972 -27.270  1.00  0.00     0.014 C 
ENDBRANCH  10  13
ENDBRANCH   2   9
BRANCH   1  18
HETATM   18  O1  UNL     1      26.078 -20.461 -26.935  1.00  0.00    -0.352 OA
HETATM   19  C1  UNL     1      27.362 -19.868 -26.853  1.00  0.00     0.210 C 
ENDBRANCH   1  18
BRANCH   4  20
HETATM   20  C12 UNL     1      22.338 -19.977 -22.680  1.00  0.00     0.117 C 
BRANCH  20  21
HETATM   21  C13 UNL     1      21.901 -21.312 -22.212  1.00  0.00     0.127 C 
HETATM   22  C14 UNL     1      21.127 -22.263 -23.044  1.00  0.00     0.091 C 
HETATM   23  O3  UNL     1      22.195 -21.645 -21.081  1.00  0.00    -0.298 OA
ENDBRANCH  20  21
ENDBRANCH   4  20
TORSDOF 5
ENDMDL
