MODEL 1
REMARK VINA RESULT: -7.366962058      0.000      0.000
REMARK  6 active torsions:
REMARK  status: ('A' for Active; 'I' for Inactive)
REMARK    1  A    between atoms: C2_2  and  C3_3 
REMARK    2  A    between atoms: C5_5  and  O1_6 
REMARK    3  A    between atoms: O1_6  and  C6_7 
REMARK    4  A    between atoms: C10_12  and  C11_13 
REMARK    5  A    between atoms: C11_13  and  O3_15 
REMARK    6  A    between atoms: O3_15  and  C12_16 
ROOT
HETATM    1  C3  UNL     1      24.074 -22.470 -25.426  1.00  0.00    -0.009 A 
HETATM    2  C4  UNL     1      24.687 -21.305 -25.950  1.00  0.00     0.051 A 
HETATM    3  C5  UNL     1      24.415 -20.057 -25.475  1.00  0.00     0.088 A 
HETATM    4  C9  UNL     1      23.503 -19.977 -24.447  1.00  0.00     0.062 A 
HETATM    5 BR1  UNL     1      23.044 -18.261 -23.699  1.00  0.00    -0.047 Br
HETATM    6  C10 UNL     1      22.887 -21.075 -23.913  1.00  0.00     0.084 A 
HETATM    7  C14 UNL     1      23.164 -22.361 -24.399  1.00  0.00     0.074 A 
HETATM    8  N1  UNL     1      22.475 -23.471 -23.825  1.00  0.00    -0.100 NA
ENDROOT
BRANCH   6   9
HETATM    9  C11 UNL     1      21.929 -20.934 -22.830  1.00  0.00     0.296 C 
HETATM   10  O2  UNL     1      22.318 -21.050 -21.640  1.00  0.00    -0.259 OA
BRANCH   9  11
HETATM   11  O3  UNL     1      20.583 -20.672 -23.037  1.00  0.00    -0.318 OA
BRANCH  11  12
HETATM   12  C12 UNL     1      19.623 -21.555 -22.542  1.00  0.00     0.174 C 
HETATM   13  C13 UNL     1      18.218 -21.035 -22.652  1.00  0.00     0.034 C 
ENDBRANCH  11  12
ENDBRANCH   9  11
ENDBRANCH   6   9
BRANCH   3  14
HETATM   14  O1  UNL     1      24.979 -18.906 -25.945  1.00  0.00    -0.345 OA
BRANCH  14  15
HETATM   15  C6  UNL     1      25.357 -18.621 -27.256  1.00  0.00     0.120 C 
HETATM   16  C7  UNL     1      26.787 -18.074 -27.325  1.00  0.00     0.040 C 
HETATM   17  C8  UNL     1      24.473 -17.451 -27.718  1.00  0.00     0.040 C 
ENDBRANCH  14  15
ENDBRANCH   3  14
BRANCH   1  18
HETATM   18  C2  UNL     1      24.405 -23.742 -26.017  1.00  0.00     0.003 C 
HETATM   19  C1  UNL     1      25.132 -23.917 -27.062  1.00  0.00     0.012 C 
ENDBRANCH   1  18
TORSDOF 6
ENDMDL
MODEL 2
REMARK VINA RESULT: -7.358430398      2.232      3.860
REMARK  6 active torsions:
REMARK  status: ('A' for Active; 'I' for Inactive)
REMARK    1  A    between atoms: C2_2  and  C3_3 
REMARK    2  A    between atoms: C5_5  and  O1_6 
REMARK    3  A    between atoms: O1_6  and  C6_7 
REMARK    4  A    between atoms: C10_12  and  C11_13 
REMARK    5  A    between atoms: C11_13  and  O3_15 
REMARK    6  A    between atoms: O3_15  and  C12_16 
ROOT
HETATM    1  C3  UNL     1      23.675 -19.613 -25.027  1.00  0.00    -0.009 A 
HETATM    2  C4  UNL     1      24.235 -20.670 -25.789  1.00  0.00     0.051 A 
HETATM    3  C5  UNL     1      24.021 -21.982 -25.489  1.00  0.00     0.088 A 
HETATM    4  C9  UNL     1      23.226 -22.240 -24.396  1.00  0.00     0.062 A 
HETATM    5 BR1  UNL     1      22.858 -24.061 -23.882  1.00  0.00    -0.047 Br
HETATM    6  C10 UNL     1      22.669 -21.252 -23.632  1.00  0.00     0.084 A 
HETATM    7  C14 UNL     1      22.885 -19.901 -23.938  1.00  0.00     0.074 A 
HETATM    8  N1  UNL     1      22.302 -18.908 -23.094  1.00  0.00    -0.100 NA
ENDROOT
BRANCH   6   9
HETATM    9  C11 UNL     1      21.839 -21.580 -22.485  1.00  0.00     0.296 C 
HETATM   10  O2  UNL     1      22.336 -21.542 -21.331  1.00  0.00    -0.259 OA
BRANCH   9  11
HETATM   11  O3  UNL     1      20.505 -21.939 -22.592  1.00  0.00    -0.318 OA
BRANCH  11  12
HETATM   12  C12 UNL     1      19.527 -20.946 -22.676  1.00  0.00     0.174 C 
HETATM   13  C13 UNL     1      18.126 -21.475 -22.551  1.00  0.00     0.034 C 
ENDBRANCH  11  12
ENDBRANCH   9  11
ENDBRANCH   6   9
BRANCH   3  14
HETATM   14  O1  UNL     1      24.536 -23.033 -26.192  1.00  0.00    -0.345 OA
BRANCH  14  15
HETATM   15  C6  UNL     1      25.868 -23.252 -26.536  1.00  0.00     0.120 C 
HETATM   16  C7  UNL     1      26.013 -24.415 -27.523  1.00  0.00     0.040 C 
HETATM   17  C8  UNL     1      26.574 -23.738 -25.260  1.00  0.00     0.040 C 
ENDBRANCH  14  15
ENDBRANCH   3  14
BRANCH   1  18
HETATM   18  C2  UNL     1      23.986 -18.258 -25.407  1.00  0.00     0.003 C 
HETATM   19  C1  UNL     1      23.984 -17.796 -26.605  1.00  0.00     0.012 C 
ENDBRANCH   1  18
TORSDOF 6
ENDMDL
MODEL 3
REMARK VINA RESULT: -7.088142197      3.247      6.147
REMARK  6 active torsions:
REMARK  status: ('A' for Active; 'I' for Inactive)
REMARK    1  A    between atoms: C2_2  and  C3_3 
REMARK    2  A    between atoms: C5_5  and  O1_6 
REMARK    3  A    between atoms: O1_6  and  C6_7 
REMARK    4  A    between atoms: C10_12  and  C11_13 
REMARK    5  A    between atoms: C11_13  and  O3_15 
REMARK    6  A    between atoms: O3_15  and  C12_16 
ROOT
HETATM    1  C3  UNL     1      26.428 -18.466 -27.163  1.00  0.00    -0.009 A 
HETATM    2  C4  UNL     1      25.104 -18.260 -26.699  1.00  0.00     0.051 A 
HETATM    3  C5  UNL     1      24.341 -19.267 -26.191  1.00  0.00     0.088 A 
HETATM    4  C9  UNL     1      24.921 -20.515 -26.147  1.00  0.00     0.062 A 
HETATM    5 BR1  UNL     1      23.931 -22.013 -25.447  1.00  0.00    -0.047 Br
HETATM    6  C10 UNL     1      26.193 -20.759 -26.586  1.00  0.00     0.084 A 
HETATM    7  C14 UNL     1      26.982 -19.724 -27.109  1.00  0.00     0.074 A 
HETATM    8  N1  UNL     1      28.294 -20.036 -27.577  1.00  0.00    -0.100 NA
ENDROOT
BRANCH   6   9
HETATM    9  C11 UNL     1      26.756 -22.096 -26.520  1.00  0.00     0.296 C 
HETATM   10  O2  UNL     1      26.575 -22.891 -27.477  1.00  0.00    -0.259 OA
BRANCH   9  11
HETATM   11  O3  UNL     1      27.498 -22.555 -25.443  1.00  0.00    -0.318 OA
BRANCH  11  12
HETATM   12  C12 UNL     1      27.846 -23.904 -25.368  1.00  0.00     0.174 C 
HETATM   13  C13 UNL     1      29.271 -24.178 -25.758  1.00  0.00     0.034 C 
ENDBRANCH  11  12
ENDBRANCH   9  11
ENDBRANCH   6   9
BRANCH   3  14
HETATM   14  O1  UNL     1      23.064 -19.119 -25.732  1.00  0.00    -0.345 OA
BRANCH  14  15
HETATM   15  C6  UNL     1      22.630 -18.328 -24.669  1.00  0.00     0.120 C 
HETATM   16  C7  UNL     1      23.163 -18.843 -23.328  1.00  0.00     0.040 C 
HETATM   17  C8  UNL     1      21.107 -18.517 -24.579  1.00  0.00     0.040 C 
ENDBRANCH  14  15
ENDBRANCH   3  14
BRANCH   1  18
HETATM   18  C2  UNL     1      27.143 -17.341 -27.713  1.00  0.00     0.003 C 
HETATM   19  C1  UNL     1      26.906 -16.782 -28.845  1.00  0.00     0.012 C 
ENDBRANCH   1  18
TORSDOF 6
ENDMDL
MODEL 4
REMARK VINA RESULT: -7.049641405      2.281      3.000
REMARK  6 active torsions:
REMARK  status: ('A' for Active; 'I' for Inactive)
REMARK    1  A    between atoms: C2_2  and  C3_3 
REMARK    2  A    between atoms: C5_5  and  O1_6 
REMARK    3  A    between atoms: O1_6  and  C6_7 
REMARK    4  A    between atoms: C10_12  and  C11_13 
REMARK    5  A    between atoms: C11_13  and  O3_15 
REMARK    6  A    between atoms: O3_15  and  C12_16 
ROOT
HETATM    1  C3  UNL     1      26.309 -22.539 -25.474  1.00  0.00    -0.009 A 
HETATM    2  C4  UNL     1      27.040 -21.387 -25.861  1.00  0.00     0.051 A 
HETATM    3  C5  UNL     1      26.433 -20.219 -26.213  1.00  0.00     0.088 A 
HETATM    4  C9  UNL     1      25.057 -20.207 -26.177  1.00  0.00     0.062 A 
HETATM    5 BR1  UNL     1      24.096 -18.606 -26.656  1.00  0.00    -0.047 Br
HETATM    6  C10 UNL     1      24.314 -21.295 -25.811  1.00  0.00     0.084 A 
HETATM    7  C14 UNL     1      24.934 -22.498 -25.447  1.00  0.00     0.074 A 
HETATM    8  N1  UNL     1      24.112 -23.612 -25.099  1.00  0.00    -0.100 NA
ENDROOT
BRANCH   6   9
HETATM    9  C11 UNL     1      22.862 -21.229 -25.793  1.00  0.00     0.296 C 
HETATM   10  O2  UNL     1      22.216 -21.528 -26.829  1.00  0.00    -0.259 OA
BRANCH   9  11
HETATM   11  O3  UNL     1      22.134 -20.849 -24.676  1.00  0.00    -0.318 OA
BRANCH  11  12
HETATM   12  C12 UNL     1      22.798 -20.577 -23.479  1.00  0.00     0.174 C 
HETATM   13  C13 UNL     1      22.848 -19.113 -23.143  1.00  0.00     0.034 C 
ENDBRANCH  11  12
ENDBRANCH   9  11
ENDBRANCH   6   9
BRANCH   3  14
HETATM   14  O1  UNL     1      27.092 -19.085 -26.592  1.00  0.00    -0.345 OA
BRANCH  14  15
HETATM   15  C6  UNL     1      27.802 -18.871 -27.772  1.00  0.00     0.120 C 
HETATM   16  C7  UNL     1      27.651 -17.428 -28.268  1.00  0.00     0.040 C 
HETATM   17  C8  UNL     1      27.119 -19.725 -28.852  1.00  0.00     0.040 C 
ENDBRANCH  14  15
ENDBRANCH   3  14
BRANCH   1  18
HETATM   18  C2  UNL     1      27.043 -23.736 -25.148  1.00  0.00     0.003 C 
HETATM   19  C1  UNL     1      28.265 -23.975 -25.461  1.00  0.00     0.012 C 
ENDBRANCH   1  18
TORSDOF 6
ENDMDL
MODEL 5
REMARK VINA RESULT: -7.037349475      2.788      5.854
REMARK  6 active torsions:
REMARK  status: ('A' for Active; 'I' for Inactive)
REMARK    1  A    between atoms: C2_2  and  C3_3 
REMARK    2  A    between atoms: C5_5  and  O1_6 
REMARK    3  A    between atoms: O1_6  and  C6_7 
REMARK    4  A    between atoms: C10_12  and  C11_13 
REMARK    5  A    between atoms: C11_13  and  O3_15 
REMARK    6  A    between atoms: O3_15  and  C12_16 
ROOT
HETATM    1  C3  UNL     1      26.567 -21.603 -25.701  1.00  0.00    -0.009 A 
HETATM    2  C4  UNL     1      25.328 -21.530 -25.016  1.00  0.00     0.051 A 
HETATM    3  C5  UNL     1      24.485 -20.466 -25.140  1.00  0.00     0.088 A 
HETATM    4  C9  UNL     1      24.897 -19.450 -25.972  1.00  0.00     0.062 A 
HETATM    5 BR1  UNL     1      23.782 -17.897 -26.220  1.00  0.00    -0.047 Br
HETATM    6  C10 UNL     1      26.085 -19.479 -26.649  1.00  0.00     0.084 A 
HETATM    7  C14 UNL     1      26.955 -20.572 -26.525  1.00  0.00     0.074 A 
HETATM    8  N1  UNL     1      28.194 -20.542 -27.232  1.00  0.00    -0.100 NA
ENDROOT
BRANCH   6   9
HETATM    9  C11 UNL     1      26.473 -18.377 -27.512  1.00  0.00     0.296 C 
HETATM   10  O2  UNL     1      27.184 -17.449 -27.049  1.00  0.00    -0.259 OA
BRANCH   9  11
HETATM   11  O3  UNL     1      26.100 -18.289 -28.844  1.00  0.00    -0.318 OA
BRANCH  11  12
HETATM   12  C12 UNL     1      26.076 -17.044 -29.474  1.00  0.00     0.174 C 
HETATM   13  C13 UNL     1      24.692 -16.478 -29.626  1.00  0.00     0.034 C 
ENDBRANCH  11  12
ENDBRANCH   9  11
ENDBRANCH   6   9
BRANCH   3  14
HETATM   14  O1  UNL     1      23.283 -20.349 -24.503  1.00  0.00    -0.345 OA
BRANCH  14  15
HETATM   15  C6  UNL     1      23.052 -19.917 -23.199  1.00  0.00     0.120 C 
HETATM   16  C7  UNL     1      22.815 -21.094 -22.247  1.00  0.00     0.040 C 
HETATM   17  C8  UNL     1      21.713 -19.162 -23.222  1.00  0.00     0.040 C 
ENDBRANCH  14  15
ENDBRANCH   3  14
BRANCH   1  18
HETATM   18  C2  UNL     1      27.403 -22.757 -25.479  1.00  0.00     0.003 C 
HETATM   19  C1  UNL     1      26.997 -23.915 -25.100  1.00  0.00     0.012 C 
ENDBRANCH   1  18
TORSDOF 6
ENDMDL
