MODEL 1
REMARK VINA RESULT: -8.933929724      0.000      0.000
REMARK  4 active torsions:
REMARK  status: ('A' for Active; 'I' for Inactive)
REMARK    1  A    between atoms: C2_2  and  C4_4 
REMARK    2  A    between atoms: C4_4  and  C6_6 
REMARK    3  A    between atoms: C6_6  and  O1_7 
REMARK    4  A    between atoms: N1_24  and  O3_25 
ROOT
HETATM    1  C6  UNL     1     -16.088  15.935 -19.466  1.00  0.00     0.098 C 
HETATM    2  C7  UNL     1     -15.754  14.793 -20.473  1.00  0.00     0.070 C 
HETATM    3  C8  UNL     1     -16.340  13.500 -19.991  1.00  0.00     0.004 C 
HETATM    4  C9  UNL     1     -15.673  12.576 -19.336  1.00  0.00     0.036 C 
HETATM    5  C10 UNL     1     -14.269  12.748 -19.023  1.00  0.00     0.046 C 
HETATM    6  C11 UNL     1     -13.941  13.509 -17.769  1.00  0.00    -0.004 C 
HETATM    7  C12 UNL     1     -13.305  14.852 -18.060  1.00  0.00     0.008 C 
HETATM    8  C13 UNL     1     -14.222  16.014 -17.815  1.00  0.00     0.044 C 
HETATM    9  C14 UNL     1     -14.762  16.531 -19.148  1.00  0.00     0.114 A 
HETATM   10  C15 UNL     1     -13.832  16.651 -20.293  1.00  0.00     0.210 A 
HETATM   11  O2  UNL     1     -14.428  17.792 -19.581  1.00  0.00    -0.372 OA
HETATM   12  C16 UNL     1     -12.792  12.497 -17.574  1.00  0.00     0.011 C 
HETATM   13  C17 UNL     1     -13.604  11.548 -18.425  1.00  0.00    -0.002 C 
HETATM   14  C18 UNL     1     -14.432  10.677 -17.560  1.00  0.00     0.033 C 
HETATM   15  C19 UNL     1     -15.809  10.407 -18.031  1.00  0.00     0.111 C 
HETATM   16  C20 UNL     1     -15.917   9.004 -18.644  1.00  0.00     0.035 C 
HETATM   17  N1  UNL     1     -16.347  11.375 -18.930  1.00  0.00    -0.261 N 
ENDROOT
BRANCH   1  18
HETATM   18  C4  UNL     1     -17.110  16.838 -20.006  1.00  0.00     0.023 C 
HETATM   19  C5  UNL     1     -17.135  16.833 -21.549  1.00  0.00     0.013 C 
BRANCH  18  20
HETATM   20  C2  UNL     1     -18.503  16.769 -19.581  1.00  0.00    -0.016 C 
HETATM   21  C1  UNL     1     -18.825  17.804 -18.473  1.00  0.00     0.010 C 
HETATM   22  C3  UNL     1     -19.634  16.771 -20.509  1.00  0.00     0.010 C 
ENDBRANCH  18  20
ENDBRANCH   1  18
BRANCH   1  23
HETATM   23  O1  UNL     1     -16.518  15.199 -18.351  1.00  0.00    -0.386 OA
ATOM     24  H1  UNL     1     -15.856  15.107 -17.675  1.00  0.00     0.210 HD
ENDBRANCH   1  23
BRANCH  17  25
HETATM   25  O3  UNL     1     -17.584  11.138 -19.430  1.00  0.00    -0.287 OA
ATOM     26  H3  UNL     1     -17.818  10.240 -19.635  1.00  0.00     0.244 HD
ENDBRANCH  17  25
TORSDOF 4
ENDMDL
MODEL 2
REMARK VINA RESULT: -8.495583513      0.991      1.058
REMARK  4 active torsions:
REMARK  status: ('A' for Active; 'I' for Inactive)
REMARK    1  A    between atoms: C2_2  and  C4_4 
REMARK    2  A    between atoms: C4_4  and  C6_6 
REMARK    3  A    between atoms: C6_6  and  O1_7 
REMARK    4  A    between atoms: N1_24  and  O3_25 
ROOT
HETATM    1  C6  UNL     1     -17.070  15.729 -20.117  1.00  0.00     0.098 C 
HETATM    2  C7  UNL     1     -16.738  14.476 -20.982  1.00  0.00     0.070 C 
HETATM    3  C8  UNL     1     -17.206  13.235 -20.282  1.00  0.00     0.004 C 
HETATM    4  C9  UNL     1     -16.437  12.449 -19.562  1.00  0.00     0.036 C 
HETATM    5  C10 UNL     1     -15.028  12.736 -19.388  1.00  0.00     0.046 C 
HETATM    6  C11 UNL     1     -14.659  13.682 -18.280  1.00  0.00    -0.004 C 
HETATM    7  C12 UNL     1     -14.131  15.002 -18.802  1.00  0.00     0.008 C 
HETATM    8  C13 UNL     1     -15.099  16.138 -18.647  1.00  0.00     0.044 C 
HETATM    9  C14 UNL     1     -15.764  16.433 -19.991  1.00  0.00     0.114 A 
HETATM   10  C15 UNL     1     -14.929  16.438 -21.212  1.00  0.00     0.210 A 
HETATM   11  O2  UNL     1     -15.542  17.635 -20.618  1.00  0.00    -0.372 OA
HETATM   12  C16 UNL     1     -13.438  12.770 -18.041  1.00  0.00     0.011 C 
HETATM   13  C17 UNL     1     -14.248  11.669 -18.687  1.00  0.00    -0.002 C 
HETATM   14  C18 UNL     1     -14.956  10.887 -17.647  1.00  0.00     0.033 C 
HETATM   15  C19 UNL     1     -16.343  10.483 -17.965  1.00  0.00     0.111 C 
HETATM   16  C20 UNL     1     -16.407   9.003 -18.369  1.00  0.00     0.035 C 
HETATM   17  N1  UNL     1     -17.004  11.284 -18.941  1.00  0.00    -0.261 N 
ENDROOT
BRANCH   1  18
HETATM   18  C4  UNL     1     -18.183  16.493 -20.692  1.00  0.00     0.023 C 
HETATM   19  C5  UNL     1     -18.776  15.806 -21.940  1.00  0.00     0.013 C 
BRANCH  18  20
HETATM   20  C2  UNL     1     -19.322  16.920 -19.888  1.00  0.00    -0.016 C 
HETATM   21  C1  UNL     1     -18.981  18.146 -19.003  1.00  0.00     0.010 C 
HETATM   22  C3  UNL     1     -20.660  17.147 -20.436  1.00  0.00     0.010 C 
ENDBRANCH  18  20
ENDBRANCH   1  18
BRANCH   1  23
HETATM   23  O1  UNL     1     -17.372  15.137 -18.881  1.00  0.00    -0.386 OA
ATOM     24  H1  UNL     1     -17.141  14.217 -18.831  1.00  0.00     0.210 HD
ENDBRANCH   1  23
BRANCH  17  25
HETATM   25  O3  UNL     1     -18.257  10.914 -19.305  1.00  0.00    -0.287 OA
ATOM     26  H3  UNL     1     -18.473   9.989 -19.283  1.00  0.00     0.244 HD
ENDBRANCH  17  25
TORSDOF 4
ENDMDL
MODEL 3
REMARK VINA RESULT: -8.375452966      0.931      1.017
REMARK  4 active torsions:
REMARK  status: ('A' for Active; 'I' for Inactive)
REMARK    1  A    between atoms: C2_2  and  C4_4 
REMARK    2  A    between atoms: C4_4  and  C6_6 
REMARK    3  A    between atoms: C6_6  and  O1_7 
REMARK    4  A    between atoms: N1_24  and  O3_25 
ROOT
HETATM    1  C6  UNL     1     -16.350  16.200 -20.069  1.00  0.00     0.098 C 
HETATM    2  C7  UNL     1     -15.655  15.028 -20.825  1.00  0.00     0.070 C 
HETATM    3  C8  UNL     1     -16.123  13.715 -20.269  1.00  0.00     0.004 C 
HETATM    4  C9  UNL     1     -15.466  13.004 -19.380  1.00  0.00     0.036 C 
HETATM    5  C10 UNL     1     -14.193  13.455 -18.854  1.00  0.00     0.046 C 
HETATM    6  C11 UNL     1     -14.237  14.401 -17.687  1.00  0.00    -0.004 C 
HETATM    7  C12 UNL     1     -13.766  15.792 -18.055  1.00  0.00     0.008 C 
HETATM    8  C13 UNL     1     -14.878  16.796 -18.146  1.00  0.00     0.044 C 
HETATM    9  C14 UNL     1     -15.217  17.053 -19.614  1.00  0.00     0.114 A 
HETATM   10  C15 UNL     1     -14.109  17.202 -20.584  1.00  0.00     0.210 A 
HETATM   11  O2  UNL     1     -14.998  18.295 -20.162  1.00  0.00    -0.372 OA
HETATM   12  C16 UNL     1     -13.009  13.636 -17.149  1.00  0.00     0.011 C 
HETATM   13  C17 UNL     1     -13.486  12.468 -17.981  1.00  0.00    -0.002 C 
HETATM   14  C18 UNL     1     -14.326  11.570 -17.157  1.00  0.00     0.033 C 
HETATM   15  C19 UNL     1     -15.527  11.011 -17.816  1.00  0.00     0.111 C 
HETATM   16  C20 UNL     1     -15.299   9.549 -18.227  1.00  0.00     0.035 C 
HETATM   17  N1  UNL     1     -16.017  11.759 -18.926  1.00  0.00    -0.261 N 
ENDROOT
BRANCH   1  18
HETATM   18  C4  UNL     1     -17.370  16.842 -20.905  1.00  0.00     0.023 C 
HETATM   19  C5  UNL     1     -17.134  16.588 -22.408  1.00  0.00     0.013 C 
BRANCH  18  20
HETATM   20  C2  UNL     1     -18.795  16.633 -20.680  1.00  0.00    -0.016 C 
HETATM   21  C1  UNL     1     -19.622  17.914 -20.957  1.00  0.00     0.010 C 
HETATM   22  C3  UNL     1     -19.547  15.509 -21.240  1.00  0.00     0.010 C 
ENDBRANCH  18  20
ENDBRANCH   1  18
BRANCH   1  23
HETATM   23  O1  UNL     1     -16.874  15.534 -18.951  1.00  0.00    -0.386 OA
ATOM     24  H1  UNL     1     -16.766  14.590 -18.983  1.00  0.00     0.210 HD
ENDBRANCH   1  23
BRANCH  17  25
HETATM   25  O3  UNL     1     -17.082  11.252 -19.596  1.00  0.00    -0.287 OA
ATOM     26  H3  UNL     1     -17.551  10.524 -19.203  1.00  0.00     0.244 HD
ENDBRANCH  17  25
TORSDOF 4
ENDMDL
MODEL 4
REMARK VINA RESULT: -8.307241304      1.920      4.111
REMARK  4 active torsions:
REMARK  status: ('A' for Active; 'I' for Inactive)
REMARK    1  A    between atoms: C2_2  and  C4_4 
REMARK    2  A    between atoms: C4_4  and  C6_6 
REMARK    3  A    between atoms: C6_6  and  O1_7 
REMARK    4  A    between atoms: N1_24  and  O3_25 
ROOT
HETATM    1  C6  UNL     1     -16.793  14.474 -19.786  1.00  0.00     0.098 C 
HETATM    2  C7  UNL     1     -16.394  14.832 -18.322  1.00  0.00     0.070 C 
HETATM    3  C8  UNL     1     -14.914  15.055 -18.237  1.00  0.00     0.004 C 
HETATM    4  C9  UNL     1     -14.046  14.156 -17.832  1.00  0.00     0.036 C 
HETATM    5  C10 UNL     1     -14.474  12.834 -17.420  1.00  0.00     0.046 C 
HETATM    6  C11 UNL     1     -14.644  11.807 -18.504  1.00  0.00    -0.004 C 
HETATM    7  C12 UNL     1     -16.095  11.430 -18.718  1.00  0.00     0.008 C 
HETATM    8  C13 UNL     1     -16.680  11.991 -19.981  1.00  0.00     0.044 C 
HETATM    9  C14 UNL     1     -17.553  13.201 -19.648  1.00  0.00     0.114 A 
HETATM   10  C15 UNL     1     -18.454  13.126 -18.477  1.00  0.00     0.210 A 
HETATM   11  O2  UNL     1     -18.907  13.153 -19.876  1.00  0.00    -0.372 OA
HETATM   12  C16 UNL     1     -14.057  10.794 -17.498  1.00  0.00     0.011 C 
HETATM   13  C17 UNL     1     -13.401  11.978 -16.827  1.00  0.00    -0.002 C 
HETATM   14  C18 UNL     1     -12.027  12.158 -17.350  1.00  0.00     0.033 C 
HETATM   15  C19 UNL     1     -11.596  13.552 -17.590  1.00  0.00     0.111 C 
HETATM   16  C20 UNL     1     -10.664  14.041 -16.472  1.00  0.00     0.035 C 
HETATM   17  N1  UNL     1     -12.650  14.491 -17.792  1.00  0.00    -0.261 N 
ENDROOT
BRANCH   1  18
HETATM   18  C4  UNL     1     -17.485  15.591 -20.438  1.00  0.00     0.023 C 
HETATM   19  C5  UNL     1     -18.069  16.589 -19.416  1.00  0.00     0.013 C 
BRANCH  18  20
HETATM   20  C2  UNL     1     -16.843  16.399 -21.468  1.00  0.00    -0.016 C 
HETATM   21  C1  UNL     1     -17.530  16.234 -22.848  1.00  0.00     0.010 C 
HETATM   22  C3  UNL     1     -16.539  17.822 -21.310  1.00  0.00     0.010 C 
ENDBRANCH  18  20
ENDBRANCH   1  18
BRANCH   1  23
HETATM   23  O1  UNL     1     -15.541  14.180 -20.347  1.00  0.00    -0.386 OA
ATOM     24  H1  UNL     1     -15.582  13.934 -21.264  1.00  0.00     0.210 HD
ENDBRANCH   1  23
BRANCH  17  25
HETATM   25  O3  UNL     1     -12.302  15.790 -17.958  1.00  0.00    -0.287 OA
ATOM     26  H3  UNL     1     -11.897  16.242 -17.226  1.00  0.00     0.244 HD
ENDBRANCH  17  25
TORSDOF 4
ENDMDL
MODEL 5
REMARK VINA RESULT: -8.291218016      2.192      6.317
REMARK  4 active torsions:
REMARK  status: ('A' for Active; 'I' for Inactive)
REMARK    1  A    between atoms: C2_2  and  C4_4 
REMARK    2  A    between atoms: C4_4  and  C6_6 
REMARK    3  A    between atoms: C6_6  and  O1_7 
REMARK    4  A    between atoms: N1_24  and  O3_25 
ROOT
HETATM    1  C6  UNL     1     -15.521  13.436 -18.228  1.00  0.00     0.098 C 
HETATM    2  C7  UNL     1     -15.141  13.314 -19.734  1.00  0.00     0.070 C 
HETATM    3  C8  UNL     1     -15.122  14.674 -20.367  1.00  0.00     0.004 C 
HETATM    4  C9  UNL     1     -16.108  15.185 -21.068  1.00  0.00     0.036 C 
HETATM    5  C10 UNL     1     -17.333  14.442 -21.289  1.00  0.00     0.046 C 
HETATM    6  C11 UNL     1     -18.385  14.534 -20.220  1.00  0.00    -0.004 C 
HETATM    7  C12 UNL     1     -18.569  13.227 -19.479  1.00  0.00     0.008 C 
HETATM    8  C13 UNL     1     -18.004  13.242 -18.089  1.00  0.00     0.044 C 
HETATM    9  C14 UNL     1     -16.668  12.499 -18.071  1.00  0.00     0.114 A 
HETATM   10  C15 UNL     1     -16.551  11.228 -18.819  1.00  0.00     0.210 A 
HETATM   11  O2  UNL     1     -16.540  11.334 -17.353  1.00  0.00    -0.372 OA
HETATM   12  C16 UNL     1     -19.412  14.549 -21.372  1.00  0.00     0.011 C 
HETATM   13  C17 UNL     1     -18.295  15.080 -22.241  1.00  0.00    -0.002 C 
HETATM   14  C18 UNL     1     -18.337  16.560 -22.269  1.00  0.00     0.033 C 
HETATM   15  C19 UNL     1     -17.031  17.252 -22.209  1.00  0.00     0.111 C 
HETATM   16  C20 UNL     1     -16.615  17.765 -23.594  1.00  0.00     0.035 C 
HETATM   17  N1  UNL     1     -15.968  16.500 -21.627  1.00  0.00    -0.261 N 
ENDROOT
BRANCH   1  18
HETATM   18  C4  UNL     1     -14.357  13.211 -17.365  1.00  0.00     0.023 C 
HETATM   19  C5  UNL     1     -14.765  12.807 -15.932  1.00  0.00     0.013 C 
BRANCH  18  20
HETATM   20  C2  UNL     1     -13.278  12.307 -17.746  1.00  0.00    -0.016 C 
HETATM   21  C1  UNL     1     -11.882  12.910 -17.447  1.00  0.00     0.010 C 
HETATM   22  C3  UNL     1     -13.227  10.897 -17.357  1.00  0.00     0.010 C 
ENDBRANCH  18  20
ENDBRANCH   1  18
BRANCH   1  23
HETATM   23  O1  UNL     1     -16.017  14.749 -18.175  1.00  0.00    -0.386 OA
ATOM     24  H1  UNL     1     -15.350  15.414 -18.303  1.00  0.00     0.210 HD
ENDBRANCH   1  23
BRANCH  17  25
HETATM   25  O3  UNL     1     -14.741  17.075 -21.604  1.00  0.00    -0.287 OA
ATOM     26  H3  UNL     1     -14.171  16.944 -22.353  1.00  0.00     0.244 HD
ENDBRANCH  17  25
TORSDOF 4
ENDMDL
