MODEL 1
REMARK VINA RESULT: -7.529880138      0.000      0.000
REMARK  5 active torsions:
REMARK  status: ('A' for Active; 'I' for Inactive)
REMARK    1  A    between atoms: O1_2  and  C2_3 
REMARK    2  A    between atoms: C2_3  and  C3_5 
REMARK    3  A    between atoms: C8_10  and  N1_11 
REMARK       I    between atoms: N1_11  and  C9_13 
REMARK       I    between atoms: C9_13  and  N3_20 
REMARK    4  A    between atoms: N2_14  and  C10_16 
REMARK       I    between atoms: N3_20  and  C14_22 
REMARK    5  A    between atoms: C14_22  and  C15_24 
ROOT
HETATM    1  N1  UNL     1     -15.815  15.322 -20.321  1.00  0.00    -0.191 N 
ATOM      2  H1  UNL     1     -15.735  14.865 -21.230  1.00  0.00     0.184 HD
HETATM    3  C9  UNL     1     -14.770  15.223 -19.342  1.00  0.00     0.681 C 
HETATM    4  N2  UNL     1     -13.851  16.064 -19.309  1.00  0.00    -0.218 N 
ATOM      5  H2  UNL     1     -13.224  15.809 -18.546  1.00  0.00     0.178 HD
HETATM    6  N3  UNL     1     -14.787  14.133 -18.396  1.00  0.00    -0.159 N 
ATOM      7  H3  UNL     1     -14.050  14.090 -17.691  1.00  0.00     0.187 HD
HETATM    8  C14 UNL     1     -15.758  13.141 -18.398  1.00  0.00     0.243 C 
HETATM    9  O3  UNL     1     -16.678  13.148 -19.249  1.00  0.00    -0.272 OA
ENDROOT
BRANCH   1  10
HETATM   10  C8  UNL     1     -16.962  16.080 -19.975  1.00  0.00     0.065 A 
HETATM   11  C3  UNL     1     -18.070  16.140 -20.792  1.00  0.00     0.066 A 
HETATM   12  C4  UNL     1     -19.147  16.905 -20.351  1.00  0.00     0.020 A 
HETATM   13  C5  UNL     1     -19.185  17.602 -19.166  1.00  0.00     0.001 A 
HETATM   14  C6  UNL     1     -18.054  17.528 -18.356  1.00  0.00     0.002 A 
HETATM   15  C7  UNL     1     -16.980  16.786 -18.758  1.00  0.00     0.031 A 
BRANCH  11  16
HETATM   16  C2  UNL     1     -18.202  15.485 -22.060  1.00  0.00     0.295 C 
HETATM   17  O2  UNL     1     -17.241  15.608 -22.903  1.00  0.00    -0.259 OA
BRANCH  16  18
HETATM   18  O1  UNL     1     -19.244  14.737 -22.473  1.00  0.00    -0.322 OA
HETATM   19  C1  UNL     1     -20.218  15.117 -23.423  1.00  0.00     0.213 C 
ENDBRANCH  16  18
ENDBRANCH  11  16
ENDBRANCH   1  10
BRANCH   4  20
HETATM   20  C10 UNL     1     -13.355  17.196 -19.895  1.00  0.00     0.036 C 
HETATM   21  C11 UNL     1     -11.887  17.471 -19.513  1.00  0.00     0.038 C 
HETATM   22  C12 UNL     1     -14.100  18.460 -19.492  1.00  0.00     0.038 C 
HETATM   23  C13 UNL     1     -13.332  17.120 -21.442  1.00  0.00     0.038 C 
ENDBRANCH   4  20
BRANCH   8  24
HETATM   24  C15 UNL     1     -15.786  12.022 -17.417  1.00  0.00     0.031 C 
HETATM   25  C16 UNL     1     -16.762  10.952 -17.765  1.00  0.00     0.025 C 
HETATM   26  C17 UNL     1     -14.382  11.414 -17.444  1.00  0.00     0.025 C 
HETATM   27  C18 UNL     1     -15.999  12.558 -16.038  1.00  0.00     0.025 C 
ENDBRANCH   8  24
TORSDOF 5
ENDMDL
MODEL 2
REMARK VINA RESULT: -7.528286884      1.882      2.662
REMARK  5 active torsions:
REMARK  status: ('A' for Active; 'I' for Inactive)
REMARK    1  A    between atoms: O1_2  and  C2_3 
REMARK    2  A    between atoms: C2_3  and  C3_5 
REMARK    3  A    between atoms: C8_10  and  N1_11 
REMARK       I    between atoms: N1_11  and  C9_13 
REMARK       I    between atoms: C9_13  and  N3_20 
REMARK    4  A    between atoms: N2_14  and  C10_16 
REMARK       I    between atoms: N3_20  and  C14_22 
REMARK    5  A    between atoms: C14_22  and  C15_24 
ROOT
HETATM    1  N1  UNL     1     -14.625  15.378 -20.148  1.00  0.00    -0.191 N 
ATOM      2  H1  UNL     1     -14.218  15.093 -21.039  1.00  0.00     0.184 HD
HETATM    3  C9  UNL     1     -13.962  15.107 -18.904  1.00  0.00     0.681 C 
HETATM    4  N2  UNL     1     -13.163  15.931 -18.419  1.00  0.00    -0.218 N 
ATOM      5  H2  UNL     1     -12.811  15.544 -17.543  1.00  0.00     0.178 HD
HETATM    6  N3  UNL     1     -14.223  13.864 -18.218  1.00  0.00    -0.159 N 
ATOM      7  H3  UNL     1     -13.762  13.697 -17.323  1.00  0.00     0.187 HD
HETATM    8  C14 UNL     1     -15.073  12.886 -18.717  1.00  0.00     0.243 C 
HETATM    9  O3  UNL     1     -15.655  13.043 -19.816  1.00  0.00    -0.272 OA
ENDROOT
BRANCH   1  10
HETATM   10  C8  UNL     1     -15.868  16.058 -20.088  1.00  0.00     0.065 A 
HETATM   11  C3  UNL     1     -16.167  17.107 -20.932  1.00  0.00     0.066 A 
HETATM   12  C4  UNL     1     -17.421  17.696 -20.796  1.00  0.00     0.020 A 
HETATM   13  C5  UNL     1     -18.379  17.312 -19.887  1.00  0.00     0.001 A 
HETATM   14  C6  UNL     1     -18.055  16.250 -19.044  1.00  0.00     0.002 A 
HETATM   15  C7  UNL     1     -16.834  15.648 -19.150  1.00  0.00     0.031 A 
BRANCH  11  16
HETATM   16  C2  UNL     1     -15.290  17.642 -21.931  1.00  0.00     0.295 C 
HETATM   17  O2  UNL     1     -14.567  16.818 -22.600  1.00  0.00    -0.259 OA
BRANCH  16  18
HETATM   18  O1  UNL     1     -15.139  18.941 -22.253  1.00  0.00    -0.322 OA
HETATM   19  C1  UNL     1     -14.511  19.929 -21.461  1.00  0.00     0.213 C 
ENDBRANCH  16  18
ENDBRANCH  11  16
ENDBRANCH   1  10
BRANCH   4  20
HETATM   20  C10 UNL     1     -12.574  17.152 -18.602  1.00  0.00     0.036 C 
HETATM   21  C11 UNL     1     -11.290  17.325 -17.766  1.00  0.00     0.038 C 
HETATM   22  C12 UNL     1     -13.461  18.317 -18.189  1.00  0.00     0.038 C 
HETATM   23  C13 UNL     1     -12.108  17.390 -20.060  1.00  0.00     0.038 C 
ENDBRANCH   4  20
BRANCH   8  24
HETATM   24  C15 UNL     1     -15.354  11.607 -18.008  1.00  0.00     0.031 C 
HETATM   25  C16 UNL     1     -14.125  10.842 -17.656  1.00  0.00     0.025 C 
HETATM   26  C17 UNL     1     -16.059  12.001 -16.710  1.00  0.00     0.025 C 
HETATM   27  C18 UNL     1     -16.324  10.790 -18.798  1.00  0.00     0.025 C 
ENDBRANCH   8  24
TORSDOF 5
ENDMDL
MODEL 3
REMARK VINA RESULT: -7.460765505      1.933      2.696
REMARK  5 active torsions:
REMARK  status: ('A' for Active; 'I' for Inactive)
REMARK    1  A    between atoms: O1_2  and  C2_3 
REMARK    2  A    between atoms: C2_3  and  C3_5 
REMARK    3  A    between atoms: C8_10  and  N1_11 
REMARK       I    between atoms: N1_11  and  C9_13 
REMARK       I    between atoms: C9_13  and  N3_20 
REMARK    4  A    between atoms: N2_14  and  C10_16 
REMARK       I    between atoms: N3_20  and  C14_22 
REMARK    5  A    between atoms: C14_22  and  C15_24 
ROOT
HETATM    1  N1  UNL     1     -14.508  15.377 -20.086  1.00  0.00    -0.191 N 
ATOM      2  H1  UNL     1     -14.102  15.072 -20.971  1.00  0.00     0.184 HD
HETATM    3  C9  UNL     1     -13.841  15.143 -18.838  1.00  0.00     0.681 C 
HETATM    4  N2  UNL     1     -13.047  15.984 -18.376  1.00  0.00    -0.218 N 
ATOM      5  H2  UNL     1     -12.690  15.623 -17.492  1.00  0.00     0.178 HD
HETATM    6  N3  UNL     1     -14.093  13.917 -18.119  1.00  0.00    -0.159 N 
ATOM      7  H3  UNL     1     -13.628  13.775 -17.221  1.00  0.00     0.187 HD
HETATM    8  C14 UNL     1     -14.937  12.920 -18.591  1.00  0.00     0.243 C 
HETATM    9  O3  UNL     1     -15.522  13.045 -19.692  1.00  0.00    -0.272 OA
ENDROOT
BRANCH   1  10
HETATM   10  C8  UNL     1     -15.756  16.050 -20.041  1.00  0.00     0.065 A 
HETATM   11  C3  UNL     1     -16.063  17.076 -20.910  1.00  0.00     0.066 A 
HETATM   12  C4  UNL     1     -17.320  17.661 -20.788  1.00  0.00     0.020 A 
HETATM   13  C5  UNL     1     -18.274  17.293 -19.867  1.00  0.00     0.001 A 
HETATM   14  C6  UNL     1     -17.942  16.255 -18.998  1.00  0.00     0.002 A 
HETATM   15  C7  UNL     1     -16.717  15.658 -19.091  1.00  0.00     0.031 A 
BRANCH  11  16
HETATM   16  C2  UNL     1     -15.191  17.591 -21.925  1.00  0.00     0.295 C 
HETATM   17  O2  UNL     1     -14.449  16.758 -22.560  1.00  0.00    -0.259 OA
BRANCH  16  18
HETATM   18  O1  UNL     1     -15.063  18.881 -22.293  1.00  0.00    -0.322 OA
HETATM   19  C1  UNL     1     -14.484  19.915 -21.524  1.00  0.00     0.213 C 
ENDBRANCH  16  18
ENDBRANCH  11  16
ENDBRANCH   1  10
BRANCH   4  20
HETATM   20  C10 UNL     1     -12.466  17.204 -18.592  1.00  0.00     0.036 C 
HETATM   21  C11 UNL     1     -13.404  18.379 -18.253  1.00  0.00     0.038 C 
HETATM   22  C12 UNL     1     -12.070  17.435 -20.043  1.00  0.00     0.038 C 
HETATM   23  C13 UNL     1     -11.220  17.451 -17.705  1.00  0.00     0.038 C 
ENDBRANCH   4  20
BRANCH   8  24
HETATM   24  C15 UNL     1     -15.208  11.658 -17.848  1.00  0.00     0.031 C 
HETATM   25  C16 UNL     1     -15.831  10.598 -18.688  1.00  0.00     0.025 C 
HETATM   26  C17 UNL     1     -13.842  11.155 -17.378  1.00  0.00     0.025 C 
HETATM   27  C18 UNL     1     -16.007  11.953 -16.620  1.00  0.00     0.025 C 
ENDBRANCH   8  24
TORSDOF 5
ENDMDL
MODEL 4
REMARK VINA RESULT: -7.453113366      1.765      2.271
REMARK  5 active torsions:
REMARK  status: ('A' for Active; 'I' for Inactive)
REMARK    1  A    between atoms: O1_2  and  C2_3 
REMARK    2  A    between atoms: C2_3  and  C3_5 
REMARK    3  A    between atoms: C8_10  and  N1_11 
REMARK       I    between atoms: N1_11  and  C9_13 
REMARK       I    between atoms: C9_13  and  N3_20 
REMARK    4  A    between atoms: N2_14  and  C10_16 
REMARK       I    between atoms: N3_20  and  C14_22 
REMARK    5  A    between atoms: C14_22  and  C15_24 
ROOT
HETATM    1  N1  UNL     1     -13.955  15.919 -19.616  1.00  0.00    -0.191 N 
ATOM      2  H1  UNL     1     -13.663  15.527 -20.512  1.00  0.00     0.184 HD
HETATM    3  C9  UNL     1     -13.155  15.760 -18.436  1.00  0.00     0.681 C 
HETATM    4  N2  UNL     1     -12.288  16.604 -18.140  1.00  0.00    -0.218 N 
ATOM      5  H2  UNL     1     -11.842  16.302 -17.274  1.00  0.00     0.178 HD
HETATM    6  N3  UNL     1     -13.359  14.608 -17.591  1.00  0.00    -0.159 N 
ATOM      7  H3  UNL     1     -12.799  14.522 -16.743  1.00  0.00     0.187 HD
HETATM    8  C14 UNL     1     -14.282  13.611 -17.878  1.00  0.00     0.243 C 
HETATM    9  O3  UNL     1     -14.987  13.670 -18.913  1.00  0.00    -0.272 OA
ENDROOT
BRANCH   1  10
HETATM   10  C8  UNL     1     -15.168  16.643 -19.489  1.00  0.00     0.065 A 
HETATM   11  C3  UNL     1     -16.026  16.822 -20.553  1.00  0.00     0.066 A 
HETATM   12  C4  UNL     1     -17.196  17.539 -20.316  1.00  0.00     0.020 A 
HETATM   13  C5  UNL     1     -17.556  18.080 -19.103  1.00  0.00     0.001 A 
HETATM   14  C6  UNL     1     -16.674  17.888 -18.042  1.00  0.00     0.002 A 
HETATM   15  C7  UNL     1     -15.517  17.189 -18.239  1.00  0.00     0.031 A 
BRANCH  11  16
HETATM   16  C2  UNL     1     -15.809  16.335 -21.883  1.00  0.00     0.295 C 
HETATM   17  O2  UNL     1     -14.900  16.902 -22.591  1.00  0.00    -0.259 OA
BRANCH  16  18
HETATM   18  O1  UNL     1     -16.468  15.325 -22.486  1.00  0.00    -0.322 OA
HETATM   19  C1  UNL     1     -17.086  14.230 -21.841  1.00  0.00     0.213 C 
ENDBRANCH  16  18
ENDBRANCH  11  16
ENDBRANCH   1  10
BRANCH   4  20
HETATM   20  C10 UNL     1     -11.699  17.778 -18.524  1.00  0.00     0.036 C 
HETATM   21  C11 UNL     1     -12.523  19.017 -18.119  1.00  0.00     0.038 C 
HETATM   22  C12 UNL     1     -11.530  17.904 -20.031  1.00  0.00     0.038 C 
HETATM   23  C13 UNL     1     -10.319  18.013 -17.860  1.00  0.00     0.038 C 
ENDBRANCH   4  20
BRANCH   8  24
HETATM   24  C15 UNL     1     -14.504  12.426 -17.004  1.00  0.00     0.031 C 
HETATM   25  C16 UNL     1     -15.169  11.291 -17.703  1.00  0.00     0.025 C 
HETATM   26  C17 UNL     1     -13.111  11.968 -16.569  1.00  0.00     0.025 C 
HETATM   27  C18 UNL     1     -15.232  12.836 -15.766  1.00  0.00     0.025 C 
ENDBRANCH   8  24
TORSDOF 5
ENDMDL
MODEL 5
REMARK VINA RESULT: -7.270628009      2.350      5.374
REMARK  5 active torsions:
REMARK  status: ('A' for Active; 'I' for Inactive)
REMARK    1  A    between atoms: O1_2  and  C2_3 
REMARK    2  A    between atoms: C2_3  and  C3_5 
REMARK    3  A    between atoms: C8_10  and  N1_11 
REMARK       I    between atoms: N1_11  and  C9_13 
REMARK       I    between atoms: C9_13  and  N3_20 
REMARK    4  A    between atoms: N2_14  and  C10_16 
REMARK       I    between atoms: N3_20  and  C14_22 
REMARK    5  A    between atoms: C14_22  and  C15_24 
ROOT
HETATM    1  N1  UNL     1     -14.851  15.788 -18.112  1.00  0.00    -0.191 N 
ATOM      2  H1  UNL     1     -15.425  16.165 -17.357  1.00  0.00     0.184 HD
HETATM    3  C9  UNL     1     -13.522  15.304 -17.869  1.00  0.00     0.681 C 
HETATM    4  N2  UNL     1     -13.326  14.109 -17.576  1.00  0.00    -0.218 N 
ATOM      5  H2  UNL     1     -12.323  13.981 -17.448  1.00  0.00     0.178 HD
HETATM    6  N3  UNL     1     -12.408  16.217 -17.960  1.00  0.00    -0.159 N 
ATOM      7  H3  UNL     1     -11.467  15.853 -17.808  1.00  0.00     0.187 HD
HETATM    8  C14 UNL     1     -12.556  17.568 -18.246  1.00  0.00     0.243 C 
HETATM    9  O3  UNL     1     -13.693  18.063 -18.433  1.00  0.00    -0.272 OA
ENDROOT
BRANCH   1  10
HETATM   10  C8  UNL     1     -15.335  15.720 -19.444  1.00  0.00     0.065 A 
HETATM   11  C3  UNL     1     -16.529  16.302 -19.816  1.00  0.00     0.066 A 
HETATM   12  C4  UNL     1     -16.905  16.186 -21.151  1.00  0.00     0.020 A 
HETATM   13  C5  UNL     1     -16.177  15.537 -22.122  1.00  0.00     0.001 A 
HETATM   14  C6  UNL     1     -14.975  14.956 -21.723  1.00  0.00     0.002 A 
HETATM   15  C7  UNL     1     -14.575  15.051 -20.420  1.00  0.00     0.031 A 
BRANCH  11  16
HETATM   16  C2  UNL     1     -17.415  17.009 -18.939  1.00  0.00     0.295 C 
HETATM   17  O2  UNL     1     -16.908  17.890 -18.154  1.00  0.00    -0.259 OA
BRANCH  16  18
HETATM   18  O1  UNL     1     -18.749  16.849 -18.847  1.00  0.00    -0.322 OA
HETATM   19  C1  UNL     1     -19.727  17.549 -19.589  1.00  0.00     0.213 C 
ENDBRANCH  16  18
ENDBRANCH  11  16
ENDBRANCH   1  10
BRANCH   4  20
HETATM   20  C10 UNL     1     -13.932  12.901 -17.360  1.00  0.00     0.036 C 
HETATM   21  C11 UNL     1     -12.972  11.853 -16.761  1.00  0.00     0.038 C 
HETATM   22  C12 UNL     1     -14.460  12.256 -18.633  1.00  0.00     0.038 C 
HETATM   23  C13 UNL     1     -15.092  12.976 -16.337  1.00  0.00     0.038 C 
ENDBRANCH   4  20
BRANCH   8  24
HETATM   24  C15 UNL     1     -11.409  18.512 -18.352  1.00  0.00     0.031 C 
HETATM   25  C16 UNL     1     -10.178  18.028 -17.667  1.00  0.00     0.025 C 
HETATM   26  C17 UNL     1     -11.108  18.630 -19.847  1.00  0.00     0.025 C 
HETATM   27  C18 UNL     1     -11.823  19.870 -17.885  1.00  0.00     0.025 C 
ENDBRANCH   8  24
TORSDOF 5
ENDMDL
