MODEL 1
REMARK VINA RESULT: -9.001175690      0.000      0.000
REMARK  4 active torsions:
REMARK  status: ('A' for Active; 'I' for Inactive)
REMARK    1  A    between atoms: C2_2  and  C4_4 
REMARK    2  A    between atoms: C6_6  and  O1_7 
REMARK    3  A    between atoms: C12_14  and  C13_15 
REMARK    4  A    between atoms: N1_20  and  O3_22 
ROOT
HETATM    1  C4  UNL     1     -14.358  13.274 -18.573  1.00  0.00    -0.004 C 
HETATM    2  C5  UNL     1     -14.068  11.799 -18.911  1.00  0.00     0.037 C 
HETATM    3  C6  UNL     1     -15.225  10.997 -18.432  1.00  0.00     0.118 C 
HETATM    4  C7  UNL     1     -16.570  11.589 -18.629  1.00  0.00     0.032 C 
HETATM    5  C8  UNL     1     -16.744  12.364 -19.918  1.00  0.00     0.008 C 
HETATM    6  C9  UNL     1     -16.395  13.833 -19.763  1.00  0.00    -0.001 C 
HETATM    7  C10 UNL     1     -14.857  13.904 -19.795  1.00  0.00    -0.004 C 
HETATM    8  C11 UNL     1     -14.402  15.259 -20.166  1.00  0.00     0.017 C 
HETATM    9  C12 UNL     1     -14.860  15.529 -21.601  1.00  0.00     0.052 C 
HETATM   10  C14 UNL     1     -16.252  15.129 -21.884  1.00  0.00     0.010 C 
HETATM   11  C15 UNL     1     -16.917  16.267 -22.659  1.00  0.00     0.060 C 
HETATM   12  C16 UNL     1     -18.218  15.764 -23.122  1.00  0.00     0.010 C 
HETATM   13  N1  UNL     1     -18.555  15.951 -24.362  1.00  0.00    -0.277 N 
ATOM     14  H1  UNL     1     -17.936  16.437 -25.012  1.00  0.00     0.193 HD
HETATM   15  C17 UNL     1     -19.090  15.067 -22.160  1.00  0.00     0.055 C 
HETATM   16  C18 UNL     1     -18.334  14.065 -21.300  1.00  0.00     0.015 C 
HETATM   17  C19 UNL     1     -17.078  14.733 -20.705  1.00  0.00    -0.035 C 
HETATM   18  C20 UNL     1     -17.679  15.916 -19.950  1.00  0.00     0.016 C 
ENDROOT
BRANCH  13  19
HETATM   19  O3  UNL     1     -19.770  15.472 -24.763  1.00  0.00    -0.290 OA
ATOM     20  H3  UNL     1     -19.941  15.437 -25.697  1.00  0.00     0.244 HD
ENDBRANCH  13  19
BRANCH   9  21
HETATM   21  C13 UNL     1     -14.568  16.947 -21.966  1.00  0.00     0.236 C 
HETATM   22  O2  UNL     1     -13.435  17.392 -22.032  1.00  0.00    -0.306 OA
ENDBRANCH   9  21
BRANCH   1  23
HETATM   23  C2  UNL     1     -13.132  13.781 -17.901  1.00  0.00    -0.018 C 
HETATM   24  C1  UNL     1     -12.079  12.772 -17.583  1.00  0.00     0.010 C 
HETATM   25  C3  UNL     1     -13.429  14.706 -16.738  1.00  0.00     0.010 C 
ENDBRANCH   1  23
BRANCH   3  26
HETATM   26  O1  UNL     1     -15.050  10.821 -17.038  1.00  0.00    -0.396 OA
ATOM     27  H1  UNL     1     -15.053  11.687 -16.649  1.00  0.00     0.210 HD
ENDBRANCH   3  26
TORSDOF 4
ENDMDL
MODEL 2
REMARK VINA RESULT: -8.977756469      1.232      1.280
REMARK  4 active torsions:
REMARK  status: ('A' for Active; 'I' for Inactive)
REMARK    1  A    between atoms: C2_2  and  C4_4 
REMARK    2  A    between atoms: C6_6  and  O1_7 
REMARK    3  A    between atoms: C12_14  and  C13_15 
REMARK    4  A    between atoms: N1_20  and  O3_22 
ROOT
HETATM    1  C4  UNL     1     -14.018  13.981 -17.856  1.00  0.00    -0.004 C 
HETATM    2  C5  UNL     1     -13.838  12.457 -17.708  1.00  0.00     0.037 C 
HETATM    3  C6  UNL     1     -14.891  11.973 -16.776  1.00  0.00     0.118 C 
HETATM    4  C7  UNL     1     -16.234  12.588 -16.915  1.00  0.00     0.032 C 
HETATM    5  C8  UNL     1     -16.650  12.897 -18.338  1.00  0.00     0.008 C 
HETATM    6  C9  UNL     1     -16.242  14.294 -18.769  1.00  0.00    -0.001 C 
HETATM    7  C10 UNL     1     -14.742  14.207 -19.106  1.00  0.00    -0.004 C 
HETATM    8  C11 UNL     1     -14.341  15.311 -20.003  1.00  0.00     0.017 C 
HETATM    9  C12 UNL     1     -15.076  15.125 -21.331  1.00  0.00     0.052 C 
HETATM   10  C14 UNL     1     -16.506  14.784 -21.196  1.00  0.00     0.010 C 
HETATM   11  C15 UNL     1     -17.288  15.653 -22.181  1.00  0.00     0.060 C 
HETATM   12  C16 UNL     1     -18.668  15.146 -22.193  1.00  0.00     0.010 C 
HETATM   13  N1  UNL     1     -19.247  14.937 -23.336  1.00  0.00    -0.277 N 
ATOM     14  H1  UNL     1     -18.763  15.117 -24.216  1.00  0.00     0.193 HD
HETATM   15  C17 UNL     1     -19.341  14.897 -20.906  1.00  0.00     0.055 C 
HETATM   16  C18 UNL     1     -18.448  14.175 -19.907  1.00  0.00     0.015 C 
HETATM   17  C19 UNL     1     -17.082  14.885 -19.823  1.00  0.00    -0.035 C 
HETATM   18  C20 UNL     1     -17.488  16.303 -19.428  1.00  0.00     0.016 C 
ENDROOT
BRANCH  13  19
HETATM   19  O3  UNL     1     -20.530  14.466 -23.315  1.00  0.00    -0.290 OA
ATOM     20  H3  UNL     1     -21.156  14.872 -23.904  1.00  0.00     0.244 HD
ENDBRANCH  13  19
BRANCH   9  21
HETATM   21  C13 UNL     1     -14.832  16.305 -22.213  1.00  0.00     0.236 C 
HETATM   22  O2  UNL     1     -13.767  16.897 -22.243  1.00  0.00    -0.306 OA
ENDBRANCH   9  21
BRANCH   1  23
HETATM   23  C2  UNL     1     -12.669  14.567 -17.640  1.00  0.00    -0.018 C 
HETATM   24  C1  UNL     1     -11.571  13.613 -17.308  1.00  0.00     0.010 C 
HETATM   25  C3  UNL     1     -12.686  15.782 -16.734  1.00  0.00     0.010 C 
ENDBRANCH   1  23
BRANCH   3  26
HETATM   26  O1  UNL     1     -14.438  12.260 -15.465  1.00  0.00    -0.396 OA
ATOM     27  H1  UNL     1     -15.210  12.425 -14.938  1.00  0.00     0.210 HD
ENDBRANCH   3  26
TORSDOF 4
ENDMDL
MODEL 3
REMARK VINA RESULT: -8.647989268      2.392      4.034
REMARK  4 active torsions:
REMARK  status: ('A' for Active; 'I' for Inactive)
REMARK    1  A    between atoms: C2_2  and  C4_4 
REMARK    2  A    between atoms: C6_6  and  O1_7 
REMARK    3  A    between atoms: C12_14  and  C13_15 
REMARK    4  A    between atoms: N1_20  and  O3_22 
ROOT
HETATM    1  C4  UNL     1     -13.845  13.780 -18.035  1.00  0.00    -0.004 C 
HETATM    2  C5  UNL     1     -13.452  14.532 -16.748  1.00  0.00     0.037 C 
HETATM    3  C6  UNL     1     -12.634  15.706 -17.153  1.00  0.00     0.118 C 
HETATM    4  C7  UNL     1     -13.067  16.428 -18.374  1.00  0.00     0.032 C 
HETATM    5  C8  UNL     1     -14.567  16.525 -18.560  1.00  0.00     0.008 C 
HETATM    6  C9  UNL     1     -15.128  15.359 -19.353  1.00  0.00    -0.001 C 
HETATM    7  C10 UNL     1     -15.213  14.181 -18.364  1.00  0.00    -0.004 C 
HETATM    8  C11 UNL     1     -16.186  13.174 -18.830  1.00  0.00     0.017 C 
HETATM    9  C12 UNL     1     -17.572  13.823 -18.821  1.00  0.00     0.052 C 
HETATM   10  C14 UNL     1     -17.611  15.185 -19.387  1.00  0.00     0.010 C 
HETATM   11  C15 UNL     1     -18.822  15.269 -20.318  1.00  0.00     0.060 C 
HETATM   12  C16 UNL     1     -18.974  16.683 -20.693  1.00  0.00     0.010 C 
HETATM   13  N1  UNL     1     -20.150  17.227 -20.616  1.00  0.00    -0.277 N 
ATOM     14  H1  UNL     1     -20.961  16.693 -20.302  1.00  0.00     0.193 HD
HETATM   15  C17 UNL     1     -17.784  17.426 -21.143  1.00  0.00     0.055 C 
HETATM   16  C18 UNL     1     -16.564  17.167 -20.271  1.00  0.00     0.015 C 
HETATM   17  C19 UNL     1     -16.374  15.649 -20.080  1.00  0.00    -0.035 C 
HETATM   18  C20 UNL     1     -16.257  15.164 -21.524  1.00  0.00     0.016 C 
ENDROOT
BRANCH  13  19
HETATM   19  O3  UNL     1     -20.260  18.542 -20.971  1.00  0.00    -0.290 OA
ATOM     20  H3  UNL     1     -19.711  19.167 -20.511  1.00  0.00     0.244 HD
ENDBRANCH  13  19
BRANCH   9  21
HETATM   21  C13 UNL     1     -18.567  12.898 -19.441  1.00  0.00     0.236 C 
HETATM   22  O2  UNL     1     -18.504  11.686 -19.322  1.00  0.00    -0.306 OA
ENDBRANCH   9  21
BRANCH   1  23
HETATM   23  C2  UNL     1     -13.511  12.353 -17.783  1.00  0.00    -0.018 C 
HETATM   24  C1  UNL     1     -13.505  11.909 -16.358  1.00  0.00     0.010 C 
HETATM   25  C3  UNL     1     -12.290  11.884 -18.550  1.00  0.00     0.010 C 
ENDBRANCH   1  23
BRANCH   3  26
HETATM   26  O1  UNL     1     -11.324  15.226 -17.398  1.00  0.00    -0.396 OA
ATOM     27  H1  UNL     1     -10.854  15.925 -17.837  1.00  0.00     0.210 HD
ENDBRANCH   3  26
TORSDOF 4
ENDMDL
MODEL 4
REMARK VINA RESULT: -8.637370729      2.738      4.241
REMARK  4 active torsions:
REMARK  status: ('A' for Active; 'I' for Inactive)
REMARK    1  A    between atoms: C2_2  and  C4_4 
REMARK    2  A    between atoms: C6_6  and  O1_7 
REMARK    3  A    between atoms: C12_14  and  C13_15 
REMARK    4  A    between atoms: N1_20  and  O3_22 
ROOT
HETATM    1  C4  UNL     1     -14.001  13.648 -18.148  1.00  0.00    -0.004 C 
HETATM    2  C5  UNL     1     -13.646  13.894 -16.668  1.00  0.00     0.037 C 
HETATM    3  C6  UNL     1     -12.584  14.934 -16.634  1.00  0.00     0.118 C 
HETATM    4  C7  UNL     1     -12.718  16.053 -17.598  1.00  0.00     0.032 C 
HETATM    5  C8  UNL     1     -14.139  16.515 -17.846  1.00  0.00     0.008 C 
HETATM    6  C9  UNL     1     -14.796  15.775 -18.996  1.00  0.00    -0.001 C 
HETATM    7  C10 UNL     1     -15.219  14.408 -18.428  1.00  0.00    -0.004 C 
HETATM    8  C11 UNL     1     -16.291  13.808 -19.248  1.00  0.00     0.017 C 
HETATM    9  C12 UNL     1     -17.525  14.705 -19.132  1.00  0.00     0.052 C 
HETATM   10  C14 UNL     1     -17.244  16.149 -19.250  1.00  0.00     0.010 C 
HETATM   11  C15 UNL     1     -18.289  16.753 -20.189  1.00  0.00     0.060 C 
HETATM   12  C16 UNL     1     -18.133  18.213 -20.118  1.00  0.00     0.010 C 
HETATM   13  N1  UNL     1     -19.191  18.948 -19.955  1.00  0.00    -0.277 N 
ATOM     14  H1  UNL     1     -20.119  18.531 -19.877  1.00  0.00     0.193 HD
HETATM   15  C17 UNL     1     -16.780  18.785 -20.234  1.00  0.00     0.055 C 
HETATM   16  C18 UNL     1     -15.750  18.033 -19.405  1.00  0.00     0.015 C 
HETATM   17  C19 UNL     1     -15.864  16.520 -19.680  1.00  0.00    -0.035 C 
HETATM   18  C20 UNL     1     -15.653  16.460 -21.192  1.00  0.00     0.016 C 
ENDROOT
BRANCH  13  19
HETATM   19  O3  UNL     1     -19.013  20.302 -19.893  1.00  0.00    -0.290 OA
ATOM     20  H3  UNL     1     -19.700  20.850 -20.254  1.00  0.00     0.244 HD
ENDBRANCH  13  19
BRANCH   9  21
HETATM   21  C13 UNL     1     -18.584  14.232 -20.073  1.00  0.00     0.236 C 
HETATM   22  O2  UNL     1     -19.077  13.119 -20.005  1.00  0.00    -0.306 OA
ENDBRANCH   9  21
BRANCH   1  23
HETATM   23  C2  UNL     1     -13.966  12.172 -18.328  1.00  0.00    -0.018 C 
HETATM   24  C1  UNL     1     -14.704  11.358 -17.318  1.00  0.00     0.010 C 
HETATM   25  C3  UNL     1     -12.576  11.639 -18.609  1.00  0.00     0.010 C 
ENDBRANCH   1  23
BRANCH   3  26
HETATM   26  O1  UNL     1     -11.362  14.279 -16.926  1.00  0.00    -0.396 OA
ATOM     27  H1  UNL     1     -10.675  14.780 -16.504  1.00  0.00     0.210 HD
ENDBRANCH   3  26
TORSDOF 4
ENDMDL
MODEL 5
REMARK VINA RESULT: -8.391109439      3.683      5.840
REMARK  4 active torsions:
REMARK  status: ('A' for Active; 'I' for Inactive)
REMARK    1  A    between atoms: C2_2  and  C4_4 
REMARK    2  A    between atoms: C6_6  and  O1_7 
REMARK    3  A    between atoms: C12_14  and  C13_15 
REMARK    4  A    between atoms: N1_20  and  O3_22 
ROOT
HETATM    1  C4  UNL     1     -14.841  13.394 -17.848  1.00  0.00    -0.004 C 
HETATM    2  C5  UNL     1     -14.474  12.773 -16.486  1.00  0.00     0.037 C 
HETATM    3  C6  UNL     1     -13.106  12.203 -16.612  1.00  0.00     0.118 C 
HETATM    4  C7  UNL     1     -12.126  12.995 -17.396  1.00  0.00     0.032 C 
HETATM    5  C8  UNL     1     -12.244  14.496 -17.235  1.00  0.00     0.008 C 
HETATM    6  C9  UNL     1     -13.183  15.115 -18.255  1.00  0.00    -0.001 C 
HETATM    7  C10 UNL     1     -14.607  14.833 -17.740  1.00  0.00    -0.004 C 
HETATM    8  C11 UNL     1     -15.573  15.785 -18.324  1.00  0.00     0.017 C 
HETATM    9  C12 UNL     1     -15.218  17.184 -17.816  1.00  0.00     0.052 C 
HETATM   10  C14 UNL     1     -13.776  17.499 -17.855  1.00  0.00     0.010 C 
HETATM   11  C15 UNL     1     -13.621  18.904 -18.439  1.00  0.00     0.060 C 
HETATM   12  C16 UNL     1     -12.212  19.286 -18.263  1.00  0.00     0.010 C 
HETATM   13  N1  UNL     1     -11.939  20.455 -17.770  1.00  0.00    -0.277 N 
ATOM     14  H1  UNL     1     -12.679  21.106 -17.507  1.00  0.00     0.193 HD
HETATM   15  C17 UNL     1     -11.166  18.324 -18.654  1.00  0.00     0.055 C 
HETATM   16  C18 UNL     1     -11.464  16.908 -18.185  1.00  0.00     0.015 C 
HETATM   17  C19 UNL     1     -12.906  16.523 -18.575  1.00  0.00    -0.035 C 
HETATM   18  C20 UNL     1     -12.884  16.718 -20.090  1.00  0.00     0.016 C 
ENDROOT
BRANCH  13  19
HETATM   19  O3  UNL     1     -10.620  20.781 -17.619  1.00  0.00    -0.290 OA
ATOM     20  H3  UNL     1     -10.130  20.321 -16.946  1.00  0.00     0.244 HD
ENDBRANCH  13  19
BRANCH   9  21
HETATM   21  C13 UNL     1     -16.063  18.202 -18.508  1.00  0.00     0.236 C 
HETATM   22  O2  UNL     1     -17.230  18.003 -18.798  1.00  0.00    -0.306 OA
ENDBRANCH   9  21
BRANCH   1  23
HETATM   23  C2  UNL     1     -16.191  12.865 -18.179  1.00  0.00    -0.018 C 
HETATM   24  C1  UNL     1     -16.738  11.813 -17.272  1.00  0.00     0.010 C 
HETATM   25  C3  UNL     1     -16.352  12.517 -19.645  1.00  0.00     0.010 C 
ENDBRANCH   1  23
BRANCH   3  26
HETATM   26  O1  UNL     1     -13.243  10.953 -17.263  1.00  0.00    -0.396 OA
ATOM     27  H1  UNL     1     -13.544  11.134 -18.145  1.00  0.00     0.210 HD
ENDBRANCH   3  26
TORSDOF 4
ENDMDL
