MODEL 1
REMARK VINA RESULT: -6.323163391      0.000      0.000
REMARK  8 active torsions:
REMARK  status: ('A' for Active; 'I' for Inactive)
REMARK    1  A    between atoms: C2_2  and  C3_3 
REMARK    2  A    between atoms: C6_6  and  N1_7 
REMARK    3  A    between atoms: N1_7  and  C7_9 
REMARK    4  A    between atoms: C7_9  and  S2_11 
REMARK    5  A    between atoms: S2_11  and  S3_12 
REMARK    6  A    between atoms: S3_12  and  C8_13 
REMARK    7  A    between atoms: C8_13  and  N2_15 
REMARK    8  A    between atoms: N2_15  and  C9_17 
ROOT
HETATM    1  C7  UNL     1     -13.206  16.539 -17.733  1.00  0.00     0.145 C 
HETATM    2  S1  UNL     1     -12.084  17.570 -18.281  1.00  0.00    -0.052 SA
ENDROOT
BRANCH   1   3
HETATM    3  N1  UNL     1     -12.830  15.360 -17.074  1.00  0.00    -0.370 N 
ATOM      4  H1  UNL     1     -12.585  15.463 -16.090  1.00  0.00     0.161 HD
BRANCH   3   5
HETATM    5  C6  UNL     1     -12.744  14.041 -17.592  1.00  0.00     0.083 C 
HETATM    6  C5  UNL     1     -11.590  13.213 -17.148  1.00  0.00     0.026 C 
HETATM    7  C4  UNL     1     -11.957  11.842 -17.730  1.00  0.00     0.010 C 
HETATM    8  C3  UNL     1     -13.441  11.881 -18.016  1.00  0.00     0.009 C 
HETATM    9  C13 UNL     1     -13.916  13.137 -17.264  1.00  0.00     0.033 C 
BRANCH   8  10
HETATM   10  C2  UNL     1     -14.102  10.673 -17.508  1.00  0.00    -0.032 C 
HETATM   11  C1  UNL     1     -15.251  10.291 -18.055  1.00  0.00     0.007 C 
ENDBRANCH   8  10
ENDBRANCH   3   5
ENDBRANCH   1   3
BRANCH   1  12
HETATM   12  S2  UNL     1     -14.925  16.940 -17.988  1.00  0.00    -0.021 SA
BRANCH  12  13
HETATM   13  S3  UNL     1     -15.507  16.680 -20.003  1.00  0.00    -0.021 SA
BRANCH  13  14
HETATM   14  C8  UNL     1     -17.152  16.010 -20.147  1.00  0.00     0.146 C 
HETATM   15  S4  UNL     1     -18.014  16.444 -21.468  1.00  0.00    -0.052 SA
BRANCH  14  16
HETATM   16  N2  UNL     1     -17.727  15.148 -19.204  1.00  0.00    -0.367 N 
ATOM     17  H2  UNL     1     -18.204  15.562 -18.403  1.00  0.00     0.161 HD
BRANCH  16  18
HETATM   18  C9  UNL     1     -17.685  13.701 -19.300  1.00  0.00     0.020 C 
HETATM   19  C10 UNL     1     -16.446  13.235 -20.044  1.00  0.00     0.037 C 
HETATM   20  C11 UNL     1     -17.612  13.134 -17.903  1.00  0.00     0.037 C 
HETATM   21  C12 UNL     1     -18.935  13.169 -19.967  1.00  0.00     0.037 C 
ENDBRANCH  16  18
ENDBRANCH  14  16
ENDBRANCH  13  14
ENDBRANCH  12  13
ENDBRANCH   1  12
TORSDOF 8
ENDMDL
MODEL 2
REMARK VINA RESULT: -6.307339017      1.208      1.675
REMARK  8 active torsions:
REMARK  status: ('A' for Active; 'I' for Inactive)
REMARK    1  A    between atoms: C2_2  and  C3_3 
REMARK    2  A    between atoms: C6_6  and  N1_7 
REMARK    3  A    between atoms: N1_7  and  C7_9 
REMARK    4  A    between atoms: C7_9  and  S2_11 
REMARK    5  A    between atoms: S2_11  and  S3_12 
REMARK    6  A    between atoms: S3_12  and  C8_13 
REMARK    7  A    between atoms: C8_13  and  N2_15 
REMARK    8  A    between atoms: N2_15  and  C9_17 
ROOT
HETATM    1  C7  UNL     1     -13.877  16.048 -18.659  1.00  0.00     0.145 C 
HETATM    2  S1  UNL     1     -14.338  17.356 -17.822  1.00  0.00    -0.052 SA
ENDROOT
BRANCH   1   3
HETATM    3  N1  UNL     1     -13.113  15.043 -18.048  1.00  0.00    -0.370 N 
ATOM      4  H1  UNL     1     -12.107  15.208 -18.024  1.00  0.00     0.161 HD
BRANCH   3   5
HETATM    5  C6  UNL     1     -13.551  13.828 -17.461  1.00  0.00     0.083 C 
HETATM    6  C5  UNL     1     -14.970  13.764 -17.017  1.00  0.00     0.026 C 
HETATM    7  C4  UNL     1     -15.108  12.280 -16.653  1.00  0.00     0.010 C 
HETATM    8  C3  UNL     1     -13.973  11.561 -17.345  1.00  0.00     0.009 C 
HETATM    9  C13 UNL     1     -13.450  12.604 -18.349  1.00  0.00     0.033 C 
BRANCH   8  10
HETATM   10  C2  UNL     1     -14.458  10.357 -18.031  1.00  0.00    -0.032 C 
HETATM   11  C1  UNL     1     -15.765  10.124 -18.074  1.00  0.00     0.007 C 
ENDBRANCH   8  10
ENDBRANCH   3   5
ENDBRANCH   1   3
BRANCH   1  12
HETATM   12  S2  UNL     1     -14.362  15.921 -20.370  1.00  0.00    -0.021 SA
BRANCH  12  13
HETATM   13  S3  UNL     1     -16.216  16.867 -20.738  1.00  0.00    -0.021 SA
BRANCH  13  14
HETATM   14  C8  UNL     1     -17.479  16.342 -19.596  1.00  0.00     0.146 C 
HETATM   15  S4  UNL     1     -18.666  17.415 -19.260  1.00  0.00    -0.052 SA
BRANCH  14  16
HETATM   16  N2  UNL     1     -17.502  15.080 -18.988  1.00  0.00    -0.367 N 
ATOM     17  H2  UNL     1     -17.228  15.015 -18.007  1.00  0.00     0.161 HD
BRANCH  16  18
HETATM   18  C9  UNL     1     -17.892  13.861 -19.670  1.00  0.00     0.020 C 
HETATM   19  C10 UNL     1     -16.690  13.167 -20.287  1.00  0.00     0.037 C 
HETATM   20  C11 UNL     1     -18.486  12.915 -18.654  1.00  0.00     0.037 C 
HETATM   21  C12 UNL     1     -18.939  14.146 -20.726  1.00  0.00     0.037 C 
ENDBRANCH  16  18
ENDBRANCH  14  16
ENDBRANCH  13  14
ENDBRANCH  12  13
ENDBRANCH   1  12
TORSDOF 8
ENDMDL
MODEL 3
REMARK VINA RESULT: -6.292076785      1.524      2.267
REMARK  8 active torsions:
REMARK  status: ('A' for Active; 'I' for Inactive)
REMARK    1  A    between atoms: C2_2  and  C3_3 
REMARK    2  A    between atoms: C6_6  and  N1_7 
REMARK    3  A    between atoms: N1_7  and  C7_9 
REMARK    4  A    between atoms: C7_9  and  S2_11 
REMARK    5  A    between atoms: S2_11  and  S3_12 
REMARK    6  A    between atoms: S3_12  and  C8_13 
REMARK    7  A    between atoms: C8_13  and  N2_15 
REMARK    8  A    between atoms: N2_15  and  C9_17 
ROOT
HETATM    1  C7  UNL     1     -12.703  15.077 -17.148  1.00  0.00     0.145 C 
HETATM    2  S1  UNL     1     -11.103  14.839 -17.074  1.00  0.00    -0.052 SA
ENDROOT
BRANCH   1   3
HETATM    3  N1  UNL     1     -13.593  14.092 -16.695  1.00  0.00    -0.370 N 
ATOM      4  H1  UNL     1     -13.965  14.232 -15.756  1.00  0.00     0.161 HD
BRANCH   3   5
HETATM    5  C6  UNL     1     -14.045  12.926 -17.366  1.00  0.00     0.083 C 
HETATM    6  C5  UNL     1     -13.373  11.643 -17.021  1.00  0.00     0.026 C 
HETATM    7  C4  UNL     1     -14.254  10.630 -17.763  1.00  0.00     0.010 C 
HETATM    8  C3  UNL     1     -15.565  11.327 -18.046  1.00  0.00     0.009 C 
HETATM    9  C13 UNL     1     -15.504  12.578 -17.151  1.00  0.00     0.033 C 
BRANCH   8  10
HETATM   10  C2  UNL     1     -16.701  10.469 -17.687  1.00  0.00    -0.032 C 
HETATM   11  C1  UNL     1     -16.949   9.391 -18.422  1.00  0.00     0.007 C 
ENDBRANCH   8  10
ENDBRANCH   3   5
ENDBRANCH   1   3
BRANCH   1  12
HETATM   12  S2  UNL     1     -13.302  16.617 -17.818  1.00  0.00    -0.021 SA
BRANCH  12  13
HETATM   13  S3  UNL     1     -15.339  16.499 -18.371  1.00  0.00    -0.021 SA
BRANCH  13  14
HETATM   14  C8  UNL     1     -15.573  15.590 -19.886  1.00  0.00     0.146 C 
HETATM   15  S4  UNL     1     -14.835  16.176 -21.222  1.00  0.00    -0.052 SA
BRANCH  14  16
HETATM   16  N2  UNL     1     -16.343  14.423 -19.983  1.00  0.00    -0.367 N 
ATOM     17  H2  UNL     1     -15.867  13.526 -19.894  1.00  0.00     0.161 HD
BRANCH  16  18
HETATM   18  C9  UNL     1     -17.777  14.417 -20.203  1.00  0.00     0.020 C 
HETATM   19  C10 UNL     1     -18.387  15.774 -19.898  1.00  0.00     0.037 C 
HETATM   20  C11 UNL     1     -18.034  14.124 -21.661  1.00  0.00     0.037 C 
HETATM   21  C12 UNL     1     -18.444  13.338 -19.375  1.00  0.00     0.037 C 
ENDBRANCH  16  18
ENDBRANCH  14  16
ENDBRANCH  13  14
ENDBRANCH  12  13
ENDBRANCH   1  12
TORSDOF 8
ENDMDL
MODEL 4
REMARK VINA RESULT: -6.230540601      0.376      1.063
REMARK  8 active torsions:
REMARK  status: ('A' for Active; 'I' for Inactive)
REMARK    1  A    between atoms: C2_2  and  C3_3 
REMARK    2  A    between atoms: C6_6  and  N1_7 
REMARK    3  A    between atoms: N1_7  and  C7_9 
REMARK    4  A    between atoms: C7_9  and  S2_11 
REMARK    5  A    between atoms: S2_11  and  S3_12 
REMARK    6  A    between atoms: S3_12  and  C8_13 
REMARK    7  A    between atoms: C8_13  and  N2_15 
REMARK    8  A    between atoms: N2_15  and  C9_17 
ROOT
HETATM    1  C7  UNL     1     -13.319  16.289 -17.699  1.00  0.00     0.145 C 
HETATM    2  S1  UNL     1     -12.081  17.250 -18.106  1.00  0.00    -0.052 SA
ENDROOT
BRANCH   1   3
HETATM    3  N1  UNL     1     -13.088  15.046 -17.091  1.00  0.00    -0.370 N 
ATOM      4  H1  UNL     1     -12.922  15.071 -16.086  1.00  0.00     0.161 HD
BRANCH   3   5
HETATM    5  C6  UNL     1     -13.055  13.758 -17.687  1.00  0.00     0.083 C 
HETATM    6  C5  UNL     1     -11.910  12.876 -17.328  1.00  0.00     0.026 C 
HETATM    7  C4  UNL     1     -12.333  11.552 -17.976  1.00  0.00     0.010 C 
HETATM    8  C3  UNL     1     -13.823  11.645 -18.211  1.00  0.00     0.009 C 
HETATM    9  C13 UNL     1     -14.240  12.867 -17.374  1.00  0.00     0.033 C 
BRANCH   8  10
HETATM   10  C2  UNL     1     -14.502  10.427 -17.753  1.00  0.00    -0.032 C 
HETATM   11  C1  UNL     1     -15.742  10.188 -18.164  1.00  0.00     0.007 C 
ENDBRANCH   8  10
ENDBRANCH   3   5
ENDBRANCH   1   3
BRANCH   1  12
HETATM   12  S2  UNL     1     -14.977  16.849 -18.043  1.00  0.00    -0.021 SA
BRANCH  12  13
HETATM   13  S3  UNL     1     -15.464  16.665 -20.092  1.00  0.00    -0.021 SA
BRANCH  13  14
HETATM   14  C8  UNL     1     -17.127  16.076 -20.338  1.00  0.00     0.146 C 
HETATM   15  S4  UNL     1     -17.866  16.507 -21.732  1.00  0.00    -0.052 SA
BRANCH  14  16
HETATM   16  N2  UNL     1     -17.815  15.277 -19.415  1.00  0.00    -0.367 N 
ATOM     17  H2  UNL     1     -18.329  15.742 -18.667  1.00  0.00     0.161 HD
BRANCH  16  18
HETATM   18  C9  UNL     1     -17.838  13.827 -19.460  1.00  0.00     0.020 C 
HETATM   19  C10 UNL     1     -17.934  13.234 -18.065  1.00  0.00     0.037 C 
HETATM   20  C11 UNL     1     -19.069  13.394 -20.220  1.00  0.00     0.037 C 
HETATM   21  C12 UNL     1     -16.620  13.291 -20.181  1.00  0.00     0.037 C 
ENDBRANCH  16  18
ENDBRANCH  14  16
ENDBRANCH  13  14
ENDBRANCH  12  13
ENDBRANCH   1  12
TORSDOF 8
ENDMDL
MODEL 5
REMARK VINA RESULT: -6.213483933      1.426      1.872
REMARK  8 active torsions:
REMARK  status: ('A' for Active; 'I' for Inactive)
REMARK    1  A    between atoms: C2_2  and  C3_3 
REMARK    2  A    between atoms: C6_6  and  N1_7 
REMARK    3  A    between atoms: N1_7  and  C7_9 
REMARK    4  A    between atoms: C7_9  and  S2_11 
REMARK    5  A    between atoms: S2_11  and  S3_12 
REMARK    6  A    between atoms: S3_12  and  C8_13 
REMARK    7  A    between atoms: C8_13  and  N2_15 
REMARK    8  A    between atoms: N2_15  and  C9_17 
ROOT
HETATM    1  C7  UNL     1     -12.921  15.199 -17.100  1.00  0.00     0.145 C 
HETATM    2  S1  UNL     1     -11.303  15.164 -17.029  1.00  0.00    -0.052 SA
ENDROOT
BRANCH   1   3
HETATM    3  N1  UNL     1     -13.679  14.114 -16.635  1.00  0.00    -0.370 N 
ATOM      4  H1  UNL     1     -13.983  14.173 -15.664  1.00  0.00     0.161 HD
BRANCH   3   5
HETATM    5  C6  UNL     1     -14.080  12.946 -17.335  1.00  0.00     0.083 C 
HETATM    6  C5  UNL     1     -13.375  11.679 -16.996  1.00  0.00     0.026 C 
HETATM    7  C4  UNL     1     -14.208  10.652 -17.773  1.00  0.00     0.010 C 
HETATM    8  C3  UNL     1     -15.535  11.311 -18.072  1.00  0.00     0.009 C 
HETATM    9  C13 UNL     1     -15.531  12.548 -17.156  1.00  0.00     0.033 C 
BRANCH   8  10
HETATM   10  C2  UNL     1     -16.650  10.412 -17.750  1.00  0.00    -0.032 C 
HETATM   11  C1  UNL     1     -16.831   9.323 -18.488  1.00  0.00     0.007 C 
ENDBRANCH   8  10
ENDBRANCH   3   5
ENDBRANCH   1   3
BRANCH   1  12
HETATM   12  S2  UNL     1     -13.710  16.646 -17.781  1.00  0.00    -0.021 SA
BRANCH  12  13
HETATM   13  S3  UNL     1     -14.878  16.183 -19.481  1.00  0.00    -0.021 SA
BRANCH  13  14
HETATM   14  C8  UNL     1     -16.623  16.202 -19.124  1.00  0.00     0.146 C 
HETATM   15  S4  UNL     1     -17.348  17.666 -19.051  1.00  0.00    -0.052 SA
BRANCH  14  16
HETATM   16  N2  UNL     1     -17.387  15.047 -18.909  1.00  0.00    -0.367 N 
ATOM     17  H2  UNL     1     -17.584  14.774 -17.946  1.00  0.00     0.161 HD
BRANCH  16  18
HETATM   18  C9  UNL     1     -17.912  14.215 -19.975  1.00  0.00     0.020 C 
HETATM   19  C10 UNL     1     -16.793  13.630 -20.819  1.00  0.00     0.037 C 
HETATM   20  C11 UNL     1     -18.660  13.061 -19.354  1.00  0.00     0.037 C 
HETATM   21  C12 UNL     1     -18.877  14.997 -20.842  1.00  0.00     0.037 C 
ENDBRANCH  16  18
ENDBRANCH  14  16
ENDBRANCH  13  14
ENDBRANCH  12  13
ENDBRANCH   1  12
TORSDOF 8
ENDMDL
