MODEL 1
REMARK VINA RESULT: -7.213522866      0.000      0.000
REMARK  5 active torsions:
REMARK  status: ('A' for Active; 'I' for Inactive)
REMARK       I    between atoms: C3_3  and  N1_5 
REMARK    1  A    between atoms: N1_5  and  C4_7 
REMARK    2  A    between atoms: C4_7  and  C6_9 
REMARK       I    between atoms: C6_9  and  N2_11 
REMARK    3  A    between atoms: N3_14  and  C9_15 
REMARK    4  A    between atoms: C9_15  and  N4_16 
REMARK    5  A    between atoms: C10_23  and  N8_24 
ROOT
HETATM    1  C1  UNL     1      15.565  -9.753   2.071  1.00  0.00     0.108 C 
HETATM    2  C2  UNL     1      14.770 -10.336   2.790  1.00  0.00    -0.088 C 
HETATM    3  C3  UNL     1      13.849 -11.041   3.634  1.00  0.00     0.284 C 
HETATM    4  O1  UNL     1      13.588 -10.532   4.754  1.00  0.00    -0.259 OA
HETATM    5  N1  UNL     1      13.258 -12.262   3.217  1.00  0.00    -0.338 N 
ATOM      6  H1  UNL     1      13.492 -12.645   2.301  1.00  0.00     0.164 HD
ENDROOT
BRANCH   5   7
HETATM    7  C4  UNL     1      12.313 -12.985   4.084  1.00  0.00     0.173 C 
HETATM    8  C5  UNL     1      11.111 -13.328   3.225  1.00  0.00     0.042 C 
BRANCH   7   9
HETATM    9  C6  UNL     1      12.944 -14.208   4.628  1.00  0.00     0.242 C 
HETATM   10  O2  UNL     1      12.854 -15.260   3.905  1.00  0.00    -0.271 OA
HETATM   11  N2  UNL     1      13.625 -14.318   5.856  1.00  0.00    -0.348 N 
HETATM   12  C7  UNL     1      14.184 -15.601   6.277  1.00  0.00     0.140 C 
HETATM   13  C12 UNL     1      13.840 -13.226   6.764  1.00  0.00     0.140 C 
HETATM   14  C8  UNL     1      15.185 -15.392   7.364  1.00  0.00     0.116 C 
HETATM   15  N3  UNL     1      14.600 -14.729   8.545  1.00  0.00    -0.274 NA
HETATM   16  C11 UNL     1      13.623 -13.763   8.166  1.00  0.00     0.116 C 
BRANCH  15  17
HETATM   17  C9  UNL     1      15.698 -14.270   9.316  1.00  0.00     0.198 C 
BRANCH  17  18
HETATM   18  N4  UNL     1      16.147 -15.091  10.386  1.00  0.00    -0.070 N 
HETATM   19  N5  UNL     1      17.334 -15.678  10.411  1.00  0.00    -0.206 N 
HETATM   20  N6  UNL     1      17.455 -16.369  11.512  1.00  0.00    -0.213 N 
ATOM     21  H5  UNL     1      18.045 -15.602   9.683  1.00  0.00     0.211 HD
HETATM   22  N7  UNL     1      16.338 -16.233  12.212  1.00  0.00    -0.115 N 
ATOM     23  H6  UNL     1      18.269 -16.920  11.786  1.00  0.00     0.210 HD
HETATM   24  C10 UNL     1      15.520 -15.447  11.530  1.00  0.00     0.714 A 
ATOM     25  H7  UNL     1      16.143 -16.659  13.118  1.00  0.00     0.207 HD
BRANCH  24  26
HETATM   26  N8  UNL     1      14.347 -15.067  11.852  1.00  0.00    -0.231 N 
ATOM     27  H82 UNL     1      14.079 -14.407  12.581  1.00  0.00     0.174 HD
ATOM     28  H81 UNL     1      13.495 -15.391  11.395  1.00  0.00     0.174 HD
ENDBRANCH  24  26
ENDBRANCH  17  18
ENDBRANCH  15  17
ENDBRANCH   7   9
ENDBRANCH   5   7
TORSDOF 5
ENDMDL
MODEL 2
REMARK VINA RESULT: -7.160747988      2.434      4.341
REMARK  5 active torsions:
REMARK  status: ('A' for Active; 'I' for Inactive)
REMARK       I    between atoms: C3_3  and  N1_5 
REMARK    1  A    between atoms: N1_5  and  C4_7 
REMARK    2  A    between atoms: C4_7  and  C6_9 
REMARK       I    between atoms: C6_9  and  N2_11 
REMARK    3  A    between atoms: N3_14  and  C9_15 
REMARK    4  A    between atoms: C9_15  and  N4_16 
REMARK    5  A    between atoms: C10_23  and  N8_24 
ROOT
HETATM    1  C1  UNL     1      11.672 -19.808   5.122  1.00  0.00     0.108 C 
HETATM    2  C2  UNL     1      12.375 -18.824   4.960  1.00  0.00    -0.088 C 
HETATM    3  C3  UNL     1      13.194 -17.659   4.790  1.00  0.00     0.284 C 
HETATM    4  O1  UNL     1      14.416 -17.843   4.558  1.00  0.00    -0.259 OA
HETATM    5  N1  UNL     1      12.643 -16.354   4.881  1.00  0.00    -0.338 N 
ATOM      6  H1  UNL     1      11.647 -16.243   5.069  1.00  0.00     0.164 HD
ENDROOT
BRANCH   5   7
HETATM    7  C4  UNL     1      13.485 -15.158   4.707  1.00  0.00     0.173 C 
HETATM    8  C5  UNL     1      13.197 -14.623   3.318  1.00  0.00     0.042 C 
BRANCH   7   9
HETATM    9  C6  UNL     1      13.168 -14.149   5.741  1.00  0.00     0.242 C 
HETATM   10  O2  UNL     1      12.492 -13.135   5.353  1.00  0.00    -0.271 OA
HETATM   11  N2  UNL     1      13.539 -14.204   7.099  1.00  0.00    -0.348 N 
HETATM   12  C7  UNL     1      13.172 -13.120   8.009  1.00  0.00     0.140 C 
HETATM   13  C12 UNL     1      14.269 -15.288   7.697  1.00  0.00     0.140 C 
HETATM   14  C8  UNL     1      13.298 -13.575   9.424  1.00  0.00     0.116 C 
HETATM   15  N3  UNL     1      14.667 -14.014   9.752  1.00  0.00    -0.274 NA
HETATM   16  C11 UNL     1      15.279 -14.675   8.648  1.00  0.00     0.116 C 
BRANCH  15  17
HETATM   17  C9  UNL     1      14.561 -14.743  10.964  1.00  0.00     0.198 C 
BRANCH  17  18
HETATM   18  N4  UNL     1      15.456 -15.828  11.167  1.00  0.00    -0.070 N 
HETATM   19  N5  UNL     1      15.064 -17.085  11.315  1.00  0.00    -0.206 N 
HETATM   20  N6  UNL     1      16.107 -17.849  11.493  1.00  0.00    -0.213 N 
ATOM     21  H5  UNL     1      14.096 -17.406  11.292  1.00  0.00     0.211 HD
HETATM   22  N7  UNL     1      17.190 -17.086  11.463  1.00  0.00    -0.115 N 
ATOM     23  H6  UNL     1      16.091 -18.859  11.633  1.00  0.00     0.210 HD
HETATM   24  C10 UNL     1      16.805 -15.835  11.263  1.00  0.00     0.714 A 
ATOM     25  H7  UNL     1      18.152 -17.406  11.573  1.00  0.00     0.207 HD
BRANCH  24  26
HETATM   26  N8  UNL     1      17.535 -14.795  11.170  1.00  0.00    -0.231 N 
ATOM     27  H82 UNL     1      17.920 -14.371  10.326  1.00  0.00     0.174 HD
ATOM     28  H81 UNL     1      17.835 -14.233  11.966  1.00  0.00     0.174 HD
ENDBRANCH  24  26
ENDBRANCH  17  18
ENDBRANCH  15  17
ENDBRANCH   7   9
ENDBRANCH   5   7
TORSDOF 5
ENDMDL
MODEL 3
REMARK VINA RESULT: -7.115583976      1.249      1.391
REMARK  5 active torsions:
REMARK  status: ('A' for Active; 'I' for Inactive)
REMARK       I    between atoms: C3_3  and  N1_5 
REMARK    1  A    between atoms: N1_5  and  C4_7 
REMARK    2  A    between atoms: C4_7  and  C6_9 
REMARK       I    between atoms: C6_9  and  N2_11 
REMARK    3  A    between atoms: N3_14  and  C9_15 
REMARK    4  A    between atoms: C9_15  and  N4_16 
REMARK    5  A    between atoms: C10_23  and  N8_24 
ROOT
HETATM    1  C1  UNL     1      13.956 -10.572   2.004  1.00  0.00     0.108 C 
HETATM    2  C2  UNL     1      13.193 -11.360   2.540  1.00  0.00    -0.088 C 
HETATM    3  C3  UNL     1      12.315 -12.294   3.183  1.00  0.00     0.284 C 
HETATM    4  O1  UNL     1      11.293 -11.829   3.748  1.00  0.00    -0.259 OA
HETATM    5  N1  UNL     1      12.593 -13.686   3.178  1.00  0.00    -0.338 N 
ATOM      6  H1  UNL     1      13.431 -14.028   2.708  1.00  0.00     0.164 HD
ENDROOT
BRANCH   5   7
HETATM    7  C4  UNL     1      11.691 -14.644   3.839  1.00  0.00     0.173 C 
HETATM    8  C5  UNL     1      10.979 -15.402   2.735  1.00  0.00     0.042 C 
BRANCH   7   9
HETATM    9  C6  UNL     1      12.461 -15.566   4.703  1.00  0.00     0.242 C 
HETATM   10  O2  UNL     1      12.531 -16.782   4.313  1.00  0.00    -0.271 OA
HETATM   11  N2  UNL     1      13.117 -15.228   5.903  1.00  0.00    -0.348 N 
HETATM   12  C7  UNL     1      13.828 -16.251   6.669  1.00  0.00     0.140 C 
HETATM   13  C12 UNL     1      13.162 -13.903   6.457  1.00  0.00     0.140 C 
HETATM   14  C8  UNL     1      14.762 -15.608   7.638  1.00  0.00     0.116 C 
HETATM   15  N3  UNL     1      14.063 -14.719   8.585  1.00  0.00    -0.274 NA
HETATM   16  C11 UNL     1      12.979 -14.041   7.957  1.00  0.00     0.116 C 
BRANCH  15  17
HETATM   17  C9  UNL     1      15.070 -13.917   9.180  1.00  0.00     0.198 C 
BRANCH  17  18
HETATM   18  N4  UNL     1      15.918 -14.523  10.146  1.00  0.00    -0.070 N 
HETATM   19  N5  UNL     1      17.233 -14.613  10.015  1.00  0.00    -0.206 N 
HETATM   20  N6  UNL     1      17.734 -15.226  11.053  1.00  0.00    -0.213 N 
ATOM     21  H5  UNL     1      17.771 -14.258   9.224  1.00  0.00     0.211 HD
HETATM   22  N7  UNL     1      16.739 -15.539  11.870  1.00  0.00    -0.115 N 
ATOM     23  H6  UNL     1      18.721 -15.429  11.208  1.00  0.00     0.210 HD
HETATM   24  C10 UNL     1      15.611 -15.113  11.324  1.00  0.00     0.714 A 
ATOM     25  H7  UNL     1      16.827 -16.024  12.763  1.00  0.00     0.207 HD
BRANCH  24  26
HETATM   26  N8  UNL     1      14.428 -15.215  11.786  1.00  0.00    -0.231 N 
ATOM     27  H82 UNL     1      13.680 -15.830  11.467  1.00  0.00     0.174 HD
ATOM     28  H81 UNL     1      14.070 -14.669  12.569  1.00  0.00     0.174 HD
ENDBRANCH  24  26
ENDBRANCH  17  18
ENDBRANCH  15  17
ENDBRANCH   7   9
ENDBRANCH   5   7
TORSDOF 5
ENDMDL
MODEL 4
REMARK VINA RESULT: -7.113113879      2.404      4.239
REMARK  5 active torsions:
REMARK  status: ('A' for Active; 'I' for Inactive)
REMARK       I    between atoms: C3_3  and  N1_5 
REMARK    1  A    between atoms: N1_5  and  C4_7 
REMARK    2  A    between atoms: C4_7  and  C6_9 
REMARK       I    between atoms: C6_9  and  N2_11 
REMARK    3  A    between atoms: N3_14  and  C9_15 
REMARK    4  A    between atoms: C9_15  and  N4_16 
REMARK    5  A    between atoms: C10_23  and  N8_24 
ROOT
HETATM    1  C1  UNL     1      11.706 -19.776   5.076  1.00  0.00     0.108 C 
HETATM    2  C2  UNL     1      12.380 -18.760   5.029  1.00  0.00    -0.088 C 
HETATM    3  C3  UNL     1      13.160 -17.556   4.991  1.00  0.00     0.284 C 
HETATM    4  O1  UNL     1      14.407 -17.674   5.106  1.00  0.00    -0.259 OA
HETATM    5  N1  UNL     1      12.545 -16.287   4.830  1.00  0.00    -0.338 N 
ATOM      6  H1  UNL     1      11.531 -16.230   4.739  1.00  0.00     0.164 HD
ENDROOT
BRANCH   5   7
HETATM    7  C4  UNL     1      13.346 -15.053   4.792  1.00  0.00     0.173 C 
HETATM    8  C5  UNL     1      13.062 -14.392   3.457  1.00  0.00     0.042 C 
BRANCH   7   9
HETATM    9  C6  UNL     1      12.976 -14.162   5.914  1.00  0.00     0.242 C 
HETATM   10  O2  UNL     1      12.104 -13.262   5.658  1.00  0.00    -0.271 OA
HETATM   11  N2  UNL     1      13.491 -14.216   7.224  1.00  0.00    -0.348 N 
HETATM   12  C7  UNL     1      13.046 -13.255   8.232  1.00  0.00     0.140 C 
HETATM   13  C12 UNL     1      14.449 -15.186   7.679  1.00  0.00     0.140 C 
HETATM   14  C8  UNL     1      13.393 -13.747   9.597  1.00  0.00     0.116 C 
HETATM   15  N3  UNL     1      14.843 -13.960   9.765  1.00  0.00    -0.274 NA
HETATM   16  C11 UNL     1      15.437 -14.454   8.567  1.00  0.00     0.116 C 
BRANCH  15  17
HETATM   17  C9  UNL     1      14.986 -14.753  10.932  1.00  0.00     0.198 C 
BRANCH  17  18
HETATM   18  N4  UNL     1      16.159 -15.545  11.057  1.00  0.00    -0.070 N 
HETATM   19  N5  UNL     1      17.381 -15.087  10.834  1.00  0.00    -0.206 N 
HETATM   20  N6  UNL     1      18.247 -16.045  11.020  1.00  0.00    -0.213 N 
ATOM     21  H5  UNL     1      17.611 -14.131  10.559  1.00  0.00     0.211 HD
HETATM   22  N7  UNL     1      17.587 -17.140  11.368  1.00  0.00    -0.115 N 
ATOM     23  H6  UNL     1      19.259 -15.966  10.915  1.00  0.00     0.210 HD
HETATM   24  C10 UNL     1      16.296 -16.848  11.395  1.00  0.00     0.714 A 
ATOM     25  H7  UNL     1      18.000 -18.049  11.578  1.00  0.00     0.207 HD
BRANCH  24  26
HETATM   26  N8  UNL     1      15.323 -17.619  11.681  1.00  0.00    -0.231 N 
ATOM     27  H82 UNL     1      14.616 -17.497  12.406  1.00  0.00     0.174 HD
ATOM     28  H81 UNL     1      15.123 -18.493  11.195  1.00  0.00     0.174 HD
ENDBRANCH  24  26
ENDBRANCH  17  18
ENDBRANCH  15  17
ENDBRANCH   7   9
ENDBRANCH   5   7
TORSDOF 5
ENDMDL
MODEL 5
REMARK VINA RESULT: -7.015992994      2.526      4.418
REMARK  5 active torsions:
REMARK  status: ('A' for Active; 'I' for Inactive)
REMARK       I    between atoms: C3_3  and  N1_5 
REMARK    1  A    between atoms: N1_5  and  C4_7 
REMARK    2  A    between atoms: C4_7  and  C6_9 
REMARK       I    between atoms: C6_9  and  N2_11 
REMARK    3  A    between atoms: N3_14  and  C9_15 
REMARK    4  A    between atoms: C9_15  and  N4_16 
REMARK    5  A    between atoms: C10_23  and  N8_24 
ROOT
HETATM    1  C1  UNL     1      11.686 -19.876   5.074  1.00  0.00     0.108 C 
HETATM    2  C2  UNL     1      12.264 -18.816   4.898  1.00  0.00    -0.088 C 
HETATM    3  C3  UNL     1      12.938 -17.563   4.713  1.00  0.00     0.284 C 
HETATM    4  O1  UNL     1      14.126 -17.604   4.301  1.00  0.00    -0.259 OA
HETATM    5  N1  UNL     1      12.287 -16.332   4.984  1.00  0.00    -0.338 N 
ATOM      6  H1  UNL     1      11.323 -16.337   5.315  1.00  0.00     0.164 HD
ENDROOT
BRANCH   5   7
HETATM    7  C4  UNL     1      12.981 -15.047   4.794  1.00  0.00     0.173 C 
HETATM    8  C5  UNL     1      12.282 -14.341   3.648  1.00  0.00     0.042 C 
BRANCH   7   9
HETATM    9  C6  UNL     1      12.918 -14.239   6.032  1.00  0.00     0.242 C 
HETATM   10  O2  UNL     1      12.071 -13.281   6.040  1.00  0.00    -0.271 OA
HETATM   11  N2  UNL     1      13.698 -14.427   7.190  1.00  0.00    -0.348 N 
HETATM   12  C7  UNL     1      13.543 -13.536   8.338  1.00  0.00     0.140 C 
HETATM   13  C12 UNL     1      14.668 -15.475   7.352  1.00  0.00     0.140 C 
HETATM   14  C8  UNL     1      14.143 -14.158   9.554  1.00  0.00     0.116 C 
HETATM   15  N3  UNL     1      15.579 -14.451   9.383  1.00  0.00    -0.274 NA
HETATM   16  C11 UNL     1      15.869 -14.868   8.052  1.00  0.00     0.116 C 
BRANCH  15  17
HETATM   17  C9  UNL     1      15.919 -15.346  10.430  1.00  0.00     0.198 C 
BRANCH  17  18
HETATM   18  N4  UNL     1      17.285 -15.709  10.576  1.00  0.00    -0.070 N 
HETATM   19  N5  UNL     1      17.687 -16.884  11.037  1.00  0.00    -0.206 N 
HETATM   20  N6  UNL     1      18.991 -16.919  11.065  1.00  0.00    -0.213 N 
ATOM     21  H5  UNL     1      17.071 -17.644  11.327  1.00  0.00     0.211 HD
HETATM   22  N7  UNL     1      19.447 -15.758  10.617  1.00  0.00    -0.115 N 
ATOM     23  H6  UNL     1      19.562 -17.705  11.377  1.00  0.00     0.210 HD
HETATM   24  C10 UNL     1      18.406 -14.999  10.312  1.00  0.00     0.714 A 
ATOM     25  H7  UNL     1      20.428 -15.495  10.525  1.00  0.00     0.207 HD
BRANCH  24  26
HETATM   26  N8  UNL     1      18.409 -13.812   9.850  1.00  0.00    -0.231 N 
ATOM     27  H82 UNL     1      19.213 -13.219   9.645  1.00  0.00     0.174 HD
ATOM     28  H81 UNL     1      17.567 -13.286   9.619  1.00  0.00     0.174 HD
ENDBRANCH  24  26
ENDBRANCH  17  18
ENDBRANCH  15  17
ENDBRANCH   7   9
ENDBRANCH   5   7
TORSDOF 5
ENDMDL
