MODEL 1
REMARK VINA RESULT: -6.689163920      0.000      0.000
REMARK  5 active torsions:
REMARK  status: ('A' for Active; 'I' for Inactive)
REMARK    1  A    between atoms: S1_2  and  N1_5 
REMARK    2  A    between atoms: N1_5  and  C2_7 
REMARK    3  A    between atoms: C4_11  and  S3_12 
REMARK    4  A    between atoms: S3_12  and  N3_13 
REMARK    5  A    between atoms: C5_18  and  C6_19 
ROOT
HETATM    1  C2  UNL     1      15.351 -13.638   7.761  1.00  0.00     0.090 A 
HETATM    2  C3  UNL     1      16.557 -14.196   7.443  1.00  0.00     0.116 A 
HETATM    3  N2  UNL     1      17.299 -14.085   6.207  1.00  0.00    -0.092 NA
HETATM    4  S2  UNL     1      16.964 -15.061   8.839  1.00  0.00    -0.058 SA
HETATM    5  C4  UNL     1      15.575 -14.694   9.819  1.00  0.00     0.139 A 
HETATM    6  C5  UNL     1      14.846 -13.901   8.992  1.00  0.00     0.089 A 
ENDROOT
BRANCH   1   7
HETATM    7  N1  UNL     1      14.731 -12.757   6.773  1.00  0.00    -0.281 N 
ATOM      8  H1  UNL     1      14.851 -11.747   6.846  1.00  0.00     0.178 HD
BRANCH   7   9
HETATM    9  S1  UNL     1      13.805 -13.414   5.496  1.00  0.00     0.227 S 
HETATM   10  C1  UNL     1      13.550 -15.179   5.666  1.00  0.00     0.186 C 
HETATM   11  O1  UNL     1      12.417 -12.792   5.462  1.00  0.00    -0.206 OA
HETATM   12  O2  UNL     1      14.382 -13.205   4.135  1.00  0.00    -0.206 OA
ENDBRANCH   7   9
ENDBRANCH   1   7
BRANCH   6  13
HETATM   13  C6  UNL     1      13.498 -13.410   9.381  1.00  0.00     0.269 C 
HETATM   14  N4  UNL     1      13.255 -12.388  10.298  1.00  0.00    -0.057 NA
HETATM   15  O5  UNL     1      12.437 -13.910   8.885  1.00  0.00    -0.271 OA
ENDBRANCH   6  13
BRANCH   5  16
HETATM   16  S3  UNL     1      15.370 -15.315  11.434  1.00  0.00     0.264 S 
HETATM   17  O3  UNL     1      14.430 -14.553  12.298  1.00  0.00    -0.200 OA
HETATM   18  O4  UNL     1      16.729 -15.128  12.168  1.00  0.00    -0.200 OA
BRANCH  16  19
HETATM   19  N3  UNL     1      15.099 -16.995  11.526  1.00  0.00    -0.324 N 
ATOM     20  H32 UNL     1      14.662 -17.510  10.761  1.00  0.00     0.169 HD
ATOM     21  H31 UNL     1      15.407 -17.431  12.395  1.00  0.00     0.169 HD
ENDBRANCH  16  19
ENDBRANCH   5  16
TORSDOF 5
ENDMDL
MODEL 2
REMARK VINA RESULT: -6.645955943      2.021      3.239
REMARK  5 active torsions:
REMARK  status: ('A' for Active; 'I' for Inactive)
REMARK    1  A    between atoms: S1_2  and  N1_5 
REMARK    2  A    between atoms: N1_5  and  C2_7 
REMARK    3  A    between atoms: C4_11  and  S3_12 
REMARK    4  A    between atoms: S3_12  and  N3_13 
REMARK    5  A    between atoms: C5_18  and  C6_19 
ROOT
HETATM    1  C2  UNL     1      14.591 -14.422   9.010  1.00  0.00     0.090 A 
HETATM    2  C3  UNL     1      14.096 -13.787  10.115  1.00  0.00     0.116 A 
HETATM    3  N2  UNL     1      13.429 -12.507  10.191  1.00  0.00    -0.092 NA
HETATM    4  S2  UNL     1      14.465 -14.857  11.373  1.00  0.00    -0.058 SA
HETATM    5  C4  UNL     1      15.255 -16.111  10.462  1.00  0.00     0.139 A 
HETATM    6  C5  UNL     1      15.192 -15.623   9.196  1.00  0.00     0.089 A 
ENDROOT
BRANCH   1   7
HETATM    7  N1  UNL     1      14.383 -13.781   7.712  1.00  0.00    -0.281 N 
ATOM      8  H1  UNL     1      15.111 -13.188   7.316  1.00  0.00     0.178 HD
BRANCH   7   9
HETATM    9  S1  UNL     1      12.923 -14.023   6.858  1.00  0.00     0.227 S 
HETATM   10  C1  UNL     1      12.839 -15.633   6.077  1.00  0.00     0.186 C 
HETATM   11  O1  UNL     1      11.730 -13.952   7.800  1.00  0.00    -0.206 OA
HETATM   12  O2  UNL     1      12.657 -13.022   5.782  1.00  0.00    -0.206 OA
ENDBRANCH   7   9
ENDBRANCH   1   7
BRANCH   6  13
HETATM   13  C6  UNL     1      15.839 -16.333   8.061  1.00  0.00     0.269 C 
HETATM   14  N4  UNL     1      16.924 -15.848   7.332  1.00  0.00    -0.057 NA
HETATM   15  O5  UNL     1      15.428 -17.471   7.665  1.00  0.00    -0.271 OA
ENDBRANCH   6  13
BRANCH   5  16
HETATM   16  S3  UNL     1      15.905 -17.547  11.202  1.00  0.00     0.264 S 
HETATM   17  O3  UNL     1      15.467 -17.802  12.599  1.00  0.00    -0.200 OA
HETATM   18  O4  UNL     1      17.436 -17.321  11.365  1.00  0.00    -0.200 OA
BRANCH  16  19
HETATM   19  N3  UNL     1      15.815 -18.951  10.240  1.00  0.00    -0.324 N 
ATOM     20  H32 UNL     1      15.037 -19.113   9.601  1.00  0.00     0.169 HD
ATOM     21  H31 UNL     1      16.592 -19.601  10.357  1.00  0.00     0.169 HD
ENDBRANCH  16  19
ENDBRANCH   5  16
TORSDOF 5
ENDMDL
MODEL 3
REMARK VINA RESULT: -6.576300296      2.091      3.347
REMARK  5 active torsions:
REMARK  status: ('A' for Active; 'I' for Inactive)
REMARK    1  A    between atoms: S1_2  and  N1_5 
REMARK    2  A    between atoms: N1_5  and  C2_7 
REMARK    3  A    between atoms: C4_11  and  S3_12 
REMARK    4  A    between atoms: S3_12  and  N3_13 
REMARK    5  A    between atoms: C5_18  and  C6_19 
ROOT
HETATM    1  C2  UNL     1      14.582 -14.284   8.976  1.00  0.00     0.090 A 
HETATM    2  C3  UNL     1      14.029 -13.759  10.110  1.00  0.00     0.116 A 
HETATM    3  N2  UNL     1      13.205 -12.579  10.244  1.00  0.00    -0.092 NA
HETATM    4  S2  UNL     1      14.553 -14.818  11.322  1.00  0.00    -0.058 SA
HETATM    5  C4  UNL     1      15.482 -15.925  10.354  1.00  0.00     0.139 A 
HETATM    6  C5  UNL     1      15.335 -15.404   9.109  1.00  0.00     0.089 A 
ENDROOT
BRANCH   1   7
HETATM    7  N1  UNL     1      14.271 -13.629   7.707  1.00  0.00    -0.281 N 
ATOM      8  H1  UNL     1      14.916 -12.941   7.319  1.00  0.00     0.178 HD
BRANCH   7   9
HETATM    9  S1  UNL     1      12.831 -14.011   6.871  1.00  0.00     0.227 S 
HETATM   10  C1  UNL     1      12.847 -15.670   6.192  1.00  0.00     0.186 C 
HETATM   11  O1  UNL     1      11.634 -13.955   7.807  1.00  0.00    -0.206 OA
HETATM   12  O2  UNL     1      12.508 -13.098   5.734  1.00  0.00    -0.206 OA
ENDBRANCH   7   9
ENDBRANCH   1   7
BRANCH   6  13
HETATM   13  C6  UNL     1      16.048 -15.982   7.939  1.00  0.00     0.269 C 
HETATM   14  N4  UNL     1      17.067 -15.346   7.232  1.00  0.00    -0.057 NA
HETATM   15  O5  UNL     1      15.763 -17.140   7.490  1.00  0.00    -0.271 OA
ENDBRANCH   6  13
BRANCH   5  16
HETATM   16  S3  UNL     1      16.323 -17.292  11.030  1.00  0.00     0.264 S 
HETATM   17  O3  UNL     1      16.057 -18.597  10.371  1.00  0.00    -0.200 OA
HETATM   18  O4  UNL     1      15.752 -17.515  12.460  1.00  0.00    -0.200 OA
BRANCH  16  19
HETATM   19  N3  UNL     1      17.986 -17.044  11.305  1.00  0.00    -0.324 N 
ATOM     20  H32 UNL     1      18.435 -17.333  12.174  1.00  0.00     0.169 HD
ATOM     21  H31 UNL     1      18.483 -16.590  10.539  1.00  0.00     0.169 HD
ENDBRANCH  16  19
ENDBRANCH   5  16
TORSDOF 5
ENDMDL
MODEL 4
REMARK VINA RESULT: -6.547888068      2.503      5.802
REMARK  5 active torsions:
REMARK  status: ('A' for Active; 'I' for Inactive)
REMARK    1  A    between atoms: S1_2  and  N1_5 
REMARK    2  A    between atoms: N1_5  and  C2_7 
REMARK    3  A    between atoms: C4_11  and  S3_12 
REMARK    4  A    between atoms: S3_12  and  N3_13 
REMARK    5  A    between atoms: C5_18  and  C6_19 
ROOT
HETATM    1  C2  UNL     1      14.541 -14.403   8.906  1.00  0.00     0.090 A 
HETATM    2  C3  UNL     1      13.509 -13.524   9.085  1.00  0.00     0.116 A 
HETATM    3  N2  UNL     1      13.320 -12.567  10.151  1.00  0.00    -0.092 NA
HETATM    4  S2  UNL     1      12.500 -13.838   7.763  1.00  0.00    -0.058 SA
HETATM    5  C4  UNL     1      13.417 -15.100   6.994  1.00  0.00     0.139 A 
HETATM    6  C5  UNL     1      14.486 -15.218   7.823  1.00  0.00     0.089 A 
ENDROOT
BRANCH   1   7
HETATM    7  N1  UNL     1      15.644 -14.354   9.863  1.00  0.00    -0.281 N 
ATOM      8  H1  UNL     1      16.479 -13.810   9.647  1.00  0.00     0.178 HD
BRANCH   7   9
HETATM    9  S1  UNL     1      15.540 -15.205  11.341  1.00  0.00     0.227 S 
HETATM   10  C1  UNL     1      15.295 -16.964  11.109  1.00  0.00     0.186 C 
HETATM   11  O1  UNL     1      16.829 -15.063  12.135  1.00  0.00    -0.206 OA
HETATM   12  O2  UNL     1      14.446 -14.747  12.248  1.00  0.00    -0.206 OA
ENDBRANCH   7   9
ENDBRANCH   1   7
BRANCH   6  13
HETATM   13  C6  UNL     1      15.520 -16.265   7.608  1.00  0.00     0.269 C 
HETATM   14  N4  UNL     1      16.871 -16.016   7.372  1.00  0.00    -0.057 NA
HETATM   15  O5  UNL     1      15.226 -17.504   7.625  1.00  0.00    -0.271 OA
ENDBRANCH   6  13
BRANCH   5  16
HETATM   16  S3  UNL     1      12.895 -15.889   5.531  1.00  0.00     0.264 S 
HETATM   17  O3  UNL     1      12.338 -14.993   4.485  1.00  0.00    -0.200 OA
HETATM   18  O4  UNL     1      11.669 -16.772   5.906  1.00  0.00    -0.200 OA
BRANCH  16  19
HETATM   19  N3  UNL     1      14.005 -17.009   4.887  1.00  0.00    -0.324 N 
ATOM     20  H32 UNL     1      14.676 -17.499   5.478  1.00  0.00     0.169 HD
ATOM     21  H31 UNL     1      13.941 -17.143   3.878  1.00  0.00     0.169 HD
ENDBRANCH  16  19
ENDBRANCH   5  16
TORSDOF 5
ENDMDL
MODEL 5
REMARK VINA RESULT: -6.544103659      2.262      3.414
REMARK  5 active torsions:
REMARK  status: ('A' for Active; 'I' for Inactive)
REMARK    1  A    between atoms: S1_2  and  N1_5 
REMARK    2  A    between atoms: N1_5  and  C2_7 
REMARK    3  A    between atoms: C4_11  and  S3_12 
REMARK    4  A    between atoms: S3_12  and  N3_13 
REMARK    5  A    between atoms: C5_18  and  C6_19 
ROOT
HETATM    1  C2  UNL     1      14.753 -14.376   9.003  1.00  0.00     0.090 A 
HETATM    2  C3  UNL     1      14.127 -13.783  10.064  1.00  0.00     0.116 A 
HETATM    3  N2  UNL     1      13.416 -12.526  10.098  1.00  0.00    -0.092 NA
HETATM    4  S2  UNL     1      14.399 -14.872  11.331  1.00  0.00    -0.058 SA
HETATM    5  C4  UNL     1      15.317 -16.079  10.480  1.00  0.00     0.139 A 
HETATM    6  C5  UNL     1      15.369 -15.563   9.225  1.00  0.00     0.089 A 
ENDROOT
BRANCH   1   7
HETATM    7  N1  UNL     1      14.658 -13.711   7.705  1.00  0.00    -0.281 N 
ATOM      8  H1  UNL     1      15.390 -13.065   7.410  1.00  0.00     0.178 HD
BRANCH   7   9
HETATM    9  S1  UNL     1      13.325 -14.011   6.679  1.00  0.00     0.227 S 
HETATM   10  C1  UNL     1      13.532 -13.292   5.051  1.00  0.00     0.186 C 
HETATM   11  O1  UNL     1      13.143 -15.505   6.456  1.00  0.00    -0.206 OA
HETATM   12  O2  UNL     1      12.016 -13.510   7.194  1.00  0.00    -0.206 OA
ENDBRANCH   7   9
ENDBRANCH   1   7
BRANCH   6  13
HETATM   13  C6  UNL     1      16.151 -16.226   8.148  1.00  0.00     0.269 C 
HETATM   14  N4  UNL     1      15.833 -17.455   7.572  1.00  0.00    -0.057 NA
HETATM   15  O5  UNL     1      17.203 -15.694   7.664  1.00  0.00    -0.271 OA
ENDBRANCH   6  13
BRANCH   5  16
HETATM   16  S3  UNL     1      15.934 -17.514  11.253  1.00  0.00     0.264 S 
HETATM   17  O3  UNL     1      15.498 -17.721  12.659  1.00  0.00    -0.200 OA
HETATM   18  O4  UNL     1      17.471 -17.325  11.400  1.00  0.00    -0.200 OA
BRANCH  16  19
HETATM   19  N3  UNL     1      15.799 -18.939  10.328  1.00  0.00    -0.324 N 
ATOM     20  H32 UNL     1      15.929 -18.935   9.316  1.00  0.00     0.169 HD
ATOM     21  H31 UNL     1      15.582 -19.778  10.864  1.00  0.00     0.169 HD
ENDBRANCH  16  19
ENDBRANCH   5  16
TORSDOF 5
ENDMDL
