MODEL 1
REMARK VINA RESULT: -6.537454629      0.000      0.000
REMARK  6 active torsions:
REMARK  status: ('A' for Active; 'I' for Inactive)
REMARK    1  A    between atoms: O1_1  and  C1_3 
REMARK    2  A    between atoms: C1_3  and  C2_4 
REMARK    3  A    between atoms: C2_4  and  N1_5 
REMARK    4  A    between atoms: N4_18  and  C10_19 
REMARK    5  A    between atoms: C10_19  and  C11_20 
REMARK    6  A    between atoms: C11_20  and  O2_21 
ROOT
HETATM    1  N1  UNL     1      14.383 -14.691   8.980  1.00  0.00     0.092 N 
HETATM    2  C3  UNL     1      14.998 -15.326   7.828  1.00  0.00     0.300 C 
HETATM    3  C4  UNL     1      14.736 -16.811   7.803  1.00  0.00     0.262 C 
HETATM    4  N2  UNL     1      15.102 -17.391   6.504  1.00  0.00    -0.073 N 
ATOM      5  H21 UNL     1      14.778 -18.352   6.406  1.00  0.00     0.277 HD
ATOM      6  H22 UNL     1      16.104 -17.567   6.429  1.00  0.00     0.277 HD
HETATM    7  C5  UNL     1      14.624 -16.555   5.460  1.00  0.00     0.234 C 
HETATM    8  C6  UNL     1      14.355 -17.188   4.138  1.00  0.00     0.046 C 
HETATM    9  C7  UNL     1      14.593 -16.129   3.070  1.00  0.00     0.115 C 
HETATM   10  N3  UNL     1      13.439 -15.431   2.648  1.00  0.00    -0.420 N 
ATOM     11  H3  UNL     1      12.960 -15.697   1.787  1.00  0.00     0.153 HD
HETATM   12  C8  UNL     1      12.959 -14.360   3.432  1.00  0.00     0.129 C 
HETATM   13  C9  UNL     1      13.895 -13.237   3.717  1.00  0.00     0.122 C 
HETATM   14  N4  UNL     1      13.260 -12.330   4.646  1.00  0.00    -0.255 NA
HETATM   15  S1  UNL     1      13.947 -12.317   6.242  1.00  0.00    -0.081 SA
HETATM   16  C12 UNL     1      13.017 -13.340   7.415  1.00  0.00     0.121 C 
HETATM   17  C13 UNL     1      13.800 -13.433   8.704  1.00  0.00     0.284 C 
ENDROOT
BRANCH   1  18
HETATM   18  C2  UNL     1      15.419 -14.558   9.966  1.00  0.00     0.298 C 
BRANCH  18  19
HETATM   19  C1  UNL     1      15.222 -15.231  11.268  1.00  0.00     0.194 C 
BRANCH  19  20
HETATM   20  O1  UNL     1      14.323 -14.588  12.100  1.00  0.00    -0.399 OA
ATOM     21  H1  UNL     1      14.287 -14.948  12.978  1.00  0.00     0.209 HD
ENDBRANCH  19  20
ENDBRANCH  18  19
ENDBRANCH   1  18
BRANCH  14  22
HETATM   22  C10 UNL     1      13.109 -10.991   4.168  1.00  0.00     0.128 C 
BRANCH  22  23
HETATM   23  C11 UNL     1      12.162 -10.878   2.984  1.00  0.00     0.179 C 
BRANCH  23  24
HETATM   24  O2  UNL     1      11.030 -10.146   3.304  1.00  0.00    -0.400 OA
ATOM     25  H2  UNL     1      10.437 -10.077   2.565  1.00  0.00     0.209 HD
ENDBRANCH  23  24
ENDBRANCH  22  23
ENDBRANCH  14  22
TORSDOF 6
ENDMDL
MODEL 2
REMARK VINA RESULT: -6.529950164      2.473      3.613
REMARK  6 active torsions:
REMARK  status: ('A' for Active; 'I' for Inactive)
REMARK    1  A    between atoms: O1_1  and  C1_3 
REMARK    2  A    between atoms: C1_3  and  C2_4 
REMARK    3  A    between atoms: C2_4  and  N1_5 
REMARK    4  A    between atoms: N4_18  and  C10_19 
REMARK    5  A    between atoms: C10_19  and  C11_20 
REMARK    6  A    between atoms: C11_20  and  O2_21 
ROOT
HETATM    1  N1  UNL     1      14.631 -14.349   8.575  1.00  0.00     0.092 N 
HETATM    2  C3  UNL     1      15.310 -13.086   8.347  1.00  0.00     0.300 C 
HETATM    3  C4  UNL     1      16.790 -13.192   8.615  1.00  0.00     0.262 C 
HETATM    4  N2  UNL     1      17.506 -12.013   8.107  1.00  0.00    -0.073 N 
ATOM      5  H21 UNL     1      18.517 -12.139   8.126  1.00  0.00     0.277 HD
ATOM      6  H22 UNL     1      17.447 -11.221   8.747  1.00  0.00     0.277 HD
HETATM    7  C5  UNL     1      17.028 -11.693   6.809  1.00  0.00     0.234 C 
HETATM    8  C6  UNL     1      17.952 -10.962   5.896  1.00  0.00     0.046 C 
HETATM    9  C7  UNL     1      17.094 -10.111   4.968  1.00  0.00     0.115 C 
HETATM   10  N3  UNL     1      16.789 -10.701   3.721  1.00  0.00    -0.420 N 
ATOM     11  H3  UNL     1      17.325 -10.454   2.888  1.00  0.00     0.153 HD
HETATM   12  C8  UNL     1      15.734 -11.635   3.642  1.00  0.00     0.129 C 
HETATM   13  C9  UNL     1      14.386 -11.196   4.098  1.00  0.00     0.122 C 
HETATM   14  N4  UNL     1      13.496 -12.335   4.073  1.00  0.00    -0.255 NA
HETATM   15  S1  UNL     1      13.009 -12.917   5.635  1.00  0.00    -0.081 SA
HETATM   16  C12 UNL     1      13.978 -14.347   6.185  1.00  0.00     0.121 C 
HETATM   17  C13 UNL     1      13.628 -14.647   7.624  1.00  0.00     0.284 C 
ENDROOT
BRANCH   1  18
HETATM   18  C2  UNL     1      14.064 -14.267   9.893  1.00  0.00     0.298 C 
BRANCH  18  19
HETATM   19  C1  UNL     1      14.698 -15.062  10.966  1.00  0.00     0.194 C 
BRANCH  19  20
HETATM   20  O1  UNL     1      14.335 -14.671  12.242  1.00  0.00    -0.399 OA
ATOM     21  H1  UNL     1      14.327 -15.380  12.874  1.00  0.00     0.209 HD
ENDBRANCH  19  20
ENDBRANCH  18  19
ENDBRANCH   1  18
BRANCH  14  22
HETATM   22  C10 UNL     1      12.352 -12.182   3.229  1.00  0.00     0.128 C 
BRANCH  22  23
HETATM   23  C11 UNL     1      12.051 -10.734   2.879  1.00  0.00     0.179 C 
BRANCH  23  24
HETATM   24  O2  UNL     1      10.775 -10.367   3.275  1.00  0.00    -0.400 OA
ATOM     25  H2  UNL     1      10.513  -9.539   2.891  1.00  0.00     0.209 HD
ENDBRANCH  23  24
ENDBRANCH  22  23
ENDBRANCH  14  22
TORSDOF 6
ENDMDL
MODEL 3
REMARK VINA RESULT: -6.317165960      3.409      5.244
REMARK  6 active torsions:
REMARK  status: ('A' for Active; 'I' for Inactive)
REMARK    1  A    between atoms: O1_1  and  C1_3 
REMARK    2  A    between atoms: C1_3  and  C2_4 
REMARK    3  A    between atoms: C2_4  and  N1_5 
REMARK    4  A    between atoms: N4_18  and  C10_19 
REMARK    5  A    between atoms: C10_19  and  C11_20 
REMARK    6  A    between atoms: C11_20  and  O2_21 
ROOT
HETATM    1  N1  UNL     1      16.133 -17.593  10.578  1.00  0.00     0.092 N 
HETATM    2  C3  UNL     1      15.018 -16.664  10.558  1.00  0.00     0.300 C 
HETATM    3  C4  UNL     1      15.217 -15.530  11.531  1.00  0.00     0.262 C 
HETATM    4  N2  UNL     1      14.244 -14.454  11.297  1.00  0.00    -0.073 N 
ATOM      5  H21 UNL     1      14.466 -13.612  11.827  1.00  0.00     0.277 HD
ATOM      6  H22 UNL     1      13.338 -14.656  11.720  1.00  0.00     0.277 HD
HETATM    7  C5  UNL     1      14.143 -14.201   9.903  1.00  0.00     0.234 C 
HETATM    8  C6  UNL     1      13.708 -12.840   9.480  1.00  0.00     0.046 C 
HETATM    9  C7  UNL     1      12.977 -12.990   8.152  1.00  0.00     0.115 C 
HETATM   10  N3  UNL     1      13.770 -12.781   7.002  1.00  0.00    -0.420 N 
ATOM     11  H3  UNL     1      13.751 -11.884   6.517  1.00  0.00     0.153 HD
HETATM   12  C8  UNL     1      14.589 -13.830   6.532  1.00  0.00     0.129 C 
HETATM   13  C9  UNL     1      13.933 -15.126   6.206  1.00  0.00     0.122 C 
HETATM   14  N4  UNL     1      14.956 -16.097   5.889  1.00  0.00    -0.255 NA
HETATM   15  S1  UNL     1      15.161 -17.356   7.068  1.00  0.00    -0.081 SA
HETATM   16  C12 UNL     1      16.543 -17.041   8.198  1.00  0.00     0.121 C 
HETATM   17  C13 UNL     1      16.512 -18.071   9.303  1.00  0.00     0.284 C 
ENDROOT
BRANCH   1  18
HETATM   18  C2  UNL     1      15.732 -18.683  11.424  1.00  0.00     0.298 C 
BRANCH  18  19
HETATM   19  C1  UNL     1      15.047 -19.831  10.792  1.00  0.00     0.194 C 
BRANCH  19  20
HETATM   20  O1  UNL     1      14.602 -20.783  11.691  1.00  0.00    -0.399 OA
ATOM     21  H1  UNL     1      15.301 -21.247  12.136  1.00  0.00     0.209 HD
ENDBRANCH  19  20
ENDBRANCH  18  19
ENDBRANCH   1  18
BRANCH  14  22
HETATM   22  C10 UNL     1      14.860 -16.664   4.580  1.00  0.00     0.128 C 
BRANCH  22  23
HETATM   23  C11 UNL     1      15.595 -15.860   3.520  1.00  0.00     0.179 C 
BRANCH  23  24
HETATM   24  O2  UNL     1      15.767 -16.588   2.354  1.00  0.00    -0.400 OA
ATOM     25  H2  UNL     1      16.024 -17.484   2.534  1.00  0.00     0.209 HD
ENDBRANCH  23  24
ENDBRANCH  22  23
ENDBRANCH  14  22
TORSDOF 6
ENDMDL
MODEL 4
REMARK VINA RESULT: -6.240493217      2.605      3.936
REMARK  6 active torsions:
REMARK  status: ('A' for Active; 'I' for Inactive)
REMARK    1  A    between atoms: O1_1  and  C1_3 
REMARK    2  A    between atoms: C1_3  and  C2_4 
REMARK    3  A    between atoms: C2_4  and  N1_5 
REMARK    4  A    between atoms: N4_18  and  C10_19 
REMARK    5  A    between atoms: C10_19  and  C11_20 
REMARK    6  A    between atoms: C11_20  and  O2_21 
ROOT
HETATM    1  N1  UNL     1      15.819 -15.356   8.801  1.00  0.00     0.092 N 
HETATM    2  C3  UNL     1      16.009 -13.927   8.626  1.00  0.00     0.300 C 
HETATM    3  C4  UNL     1      17.461 -13.538   8.738  1.00  0.00     0.262 C 
HETATM    4  N2  UNL     1      17.677 -12.160   8.275  1.00  0.00    -0.073 N 
ATOM      5  H21 UNL     1      18.667 -11.936   8.182  1.00  0.00     0.277 HD
ATOM      6  H22 UNL     1      17.438 -11.472   8.988  1.00  0.00     0.277 HD
HETATM    7  C5  UNL     1      16.964 -11.950   7.064  1.00  0.00     0.234 C 
HETATM    8  C6  UNL     1      17.473 -10.900   6.138  1.00  0.00     0.046 C 
HETATM    9  C7  UNL     1      16.275 -10.341   5.382  1.00  0.00     0.115 C 
HETATM   10  N3  UNL     1      16.031 -10.930   4.121  1.00  0.00    -0.420 N 
ATOM     11  H3  UNL     1      16.347 -10.472   3.266  1.00  0.00     0.153 HD
HETATM   12  C8  UNL     1      15.344 -12.162   4.059  1.00  0.00     0.129 C 
HETATM   13  C9  UNL     1      13.994 -12.233   4.683  1.00  0.00     0.122 C 
HETATM   14  N4  UNL     1      13.535 -13.603   4.639  1.00  0.00    -0.255 NA
HETATM   15  S1  UNL     1      13.465 -14.401   6.180  1.00  0.00    -0.081 SA
HETATM   16  C12 UNL     1      14.913 -15.445   6.497  1.00  0.00     0.121 C 
HETATM   17  C13 UNL     1      14.863 -15.924   7.929  1.00  0.00     0.284 C 
ENDROOT
BRANCH   1  18
HETATM   18  C2  UNL     1      15.425 -15.544  10.170  1.00  0.00     0.298 C 
BRANCH  18  19
HETATM   19  C1  UNL     1      14.432 -14.606  10.737  1.00  0.00     0.194 C 
BRANCH  19  20
HETATM   20  O1  UNL     1      14.356 -14.638  12.117  1.00  0.00    -0.399 OA
ATOM     21  H1  UNL     1      13.685 -15.220  12.452  1.00  0.00     0.209 HD
ENDBRANCH  19  20
ENDBRANCH  18  19
ENDBRANCH   1  18
BRANCH  14  22
HETATM   22  C10 UNL     1      12.310 -13.802   3.929  1.00  0.00     0.128 C 
BRANCH  22  23
HETATM   23  C11 UNL     1      12.060 -15.254   3.556  1.00  0.00     0.179 C 
BRANCH  23  24
HETATM   24  O2  UNL     1      10.900 -15.398   2.811  1.00  0.00    -0.400 OA
ATOM     25  H2  UNL     1      10.558 -16.282   2.861  1.00  0.00     0.209 HD
ENDBRANCH  23  24
ENDBRANCH  22  23
ENDBRANCH  14  22
TORSDOF 6
ENDMDL
MODEL 5
REMARK VINA RESULT: -6.222432440      3.157      5.321
REMARK  6 active torsions:
REMARK  status: ('A' for Active; 'I' for Inactive)
REMARK    1  A    between atoms: O1_1  and  C1_3 
REMARK    2  A    between atoms: C1_3  and  C2_4 
REMARK    3  A    between atoms: C2_4  and  N1_5 
REMARK    4  A    between atoms: N4_18  and  C10_19 
REMARK    5  A    between atoms: C10_19  and  C11_20 
REMARK    6  A    between atoms: C11_20  and  O2_21 
ROOT
HETATM    1  N1  UNL     1      13.321 -16.827   5.455  1.00  0.00     0.092 N 
HETATM    2  C3  UNL     1      13.205 -15.918   4.329  1.00  0.00     0.300 C 
HETATM    3  C4  UNL     1      11.770 -15.542   4.061  1.00  0.00     0.262 C 
HETATM    4  N2  UNL     1      11.685 -14.411   3.126  1.00  0.00    -0.073 N 
ATOM      5  H21 UNL     1      10.740 -14.034   3.063  1.00  0.00     0.277 HD
ATOM      6  H22 UNL     1      11.789 -14.706   2.154  1.00  0.00     0.277 HD
HETATM    7  C5  UNL     1      12.636 -13.421   3.492  1.00  0.00     0.234 C 
HETATM    8  C6  UNL     1      12.351 -12.013   3.096  1.00  0.00     0.046 C 
HETATM    9  C7  UNL     1      13.692 -11.319   2.892  1.00  0.00     0.115 C 
HETATM   10  N3  UNL     1      14.175 -10.605   4.011  1.00  0.00    -0.420 N 
ATOM     11  H3  UNL     1      14.051  -9.594   4.072  1.00  0.00     0.153 HD
HETATM   12  C8  UNL     1      14.831 -11.307   5.045  1.00  0.00     0.129 C 
HETATM   13  C9  UNL     1      16.023 -12.121   4.679  1.00  0.00     0.122 C 
HETATM   14  N4  UNL     1      16.450 -12.867   5.841  1.00  0.00    -0.255 NA
HETATM   15  S1  UNL     1      16.184 -14.581   5.749  1.00  0.00    -0.081 SA
HETATM   16  C12 UNL     1      14.678 -15.105   6.611  1.00  0.00     0.121 C 
HETATM   17  C13 UNL     1      14.423 -16.563   6.301  1.00  0.00     0.284 C 
ENDROOT
BRANCH   1  18
HETATM   18  C2  UNL     1      13.423 -18.147   4.897  1.00  0.00     0.298 C 
BRANCH  18  19
HETATM   19  C1  UNL     1      12.272 -19.059   5.069  1.00  0.00     0.194 C 
BRANCH  19  20
HETATM   20  O1  UNL     1      11.655 -18.956   6.303  1.00  0.00    -0.399 OA
ATOM     21  H1  UNL     1      10.719 -18.806   6.254  1.00  0.00     0.209 HD
ENDBRANCH  19  20
ENDBRANCH  18  19
ENDBRANCH   1  18
BRANCH  14  22
HETATM   22  C10 UNL     1      17.789 -12.602   6.265  1.00  0.00     0.128 C 
BRANCH  22  23
HETATM   23  C11 UNL     1      17.876 -11.556   7.364  1.00  0.00     0.179 C 
BRANCH  23  24
HETATM   24  O2  UNL     1      17.001 -11.831   8.403  1.00  0.00    -0.400 OA
ATOM     25  H2  UNL     1      16.252 -11.248   8.394  1.00  0.00     0.209 HD
ENDBRANCH  23  24
ENDBRANCH  22  23
ENDBRANCH  14  22
TORSDOF 6
ENDMDL
