MODEL 1
REMARK VINA RESULT: -6.677806280      0.000      0.000
REMARK  3 active torsions:
REMARK  status: ('A' for Active; 'I' for Inactive)
REMARK    1  A    between atoms: C13_16  and  O2_17 
REMARK    2  A    between atoms: C15_20  and  C17_22 
REMARK    3  A    between atoms: C21_26  and  O3_27 
ROOT
HETATM    1  C1  UNL     1       1.535 -15.717  -3.291  1.00  0.00     0.021 C 
HETATM    2  C2  UNL     1       1.914 -14.470  -3.262  1.00  0.00    -0.038 C 
HETATM    3  C3  UNL     1       1.643 -13.642  -4.424  1.00  0.00     0.013 C 
HETATM    4  C4  UNL     1       2.132 -12.469  -4.695  1.00  0.00    -0.059 C 
HETATM    5  C5  UNL     1       1.557 -12.011  -6.012  1.00  0.00     0.113 C 
HETATM    6  C6  UNL     1       2.705 -11.645  -6.924  1.00  0.00     0.132 C 
HETATM    7  O1  UNL     1       2.672 -11.908  -8.106  1.00  0.00    -0.298 OA
HETATM    8  C7  UNL     1       3.877 -10.961  -6.354  1.00  0.00     0.099 C 
HETATM    9  C8  UNL     1       4.260 -11.613  -5.015  1.00  0.00     0.115 C 
HETATM   10  C9  UNL     1       5.501 -11.053  -4.621  1.00  0.00     0.065 C 
HETATM   11  N1  UNL     1       6.528 -10.613  -4.327  1.00  0.00    -0.197 NA
HETATM   12  C10 UNL     1       3.103 -11.541  -4.066  1.00  0.00     0.035 C 
HETATM   13  C11 UNL     1       2.402 -10.169  -4.135  1.00  0.00     0.025 C 
HETATM   14  C12 UNL     1       3.395 -11.750  -2.630  1.00  0.00     0.148 C 
HETATM   15  F1  UNL     1       4.677 -12.254  -2.504  1.00  0.00    -0.238 F 
HETATM   16  C13 UNL     1       3.352 -10.499  -1.771  1.00  0.00     0.160 C 
HETATM   17  C14 UNL     1       3.413 -11.143  -0.372  1.00  0.00     0.049 C 
HETATM   18  C15 UNL     1       2.272 -12.086  -0.465  1.00  0.00    -0.010 C 
HETATM   19  C16 UNL     1       2.556 -13.212   0.540  1.00  0.00     0.021 C 
HETATM   20  C20 UNL     1       2.385 -12.587  -1.874  1.00  0.00     0.075 C 
HETATM   21  C21 UNL     1       2.599 -14.065  -1.985  1.00  0.00     0.158 C 
ENDROOT
BRANCH  16  22
HETATM   22  O2  UNL     1       4.431  -9.679  -1.817  1.00  0.00    -0.392 OA
ATOM     23  H2  UNL     1       4.765  -9.448  -2.677  1.00  0.00     0.210 HD
ENDBRANCH  16  22
BRANCH  18  24
HETATM   24  C17 UNL     1       0.996 -11.492  -0.126  1.00  0.00    -0.084 C 
HETATM   25  C18 UNL     1      -0.037 -12.205   0.256  1.00  0.00     0.015 C 
HETATM   26  C19 UNL     1       0.749 -10.002  -0.197  1.00  0.00     0.043 C 
ENDBRANCH  18  24
BRANCH  21  27
HETATM   27  O3  UNL     1       3.925 -14.464  -1.979  1.00  0.00    -0.390 OA
ATOM     28  H3  UNL     1       4.207 -14.705  -1.105  1.00  0.00     0.210 HD
ENDBRANCH  21  27
TORSDOF 3
ENDMDL
MODEL 2
REMARK VINA RESULT: -6.120912386      2.600      5.193
REMARK  3 active torsions:
REMARK  status: ('A' for Active; 'I' for Inactive)
REMARK    1  A    between atoms: C13_16  and  O2_17 
REMARK    2  A    between atoms: C15_20  and  C17_22 
REMARK    3  A    between atoms: C21_26  and  O3_27 
ROOT
HETATM    1  C1  UNL     1       3.512 -15.084  -2.085  1.00  0.00     0.021 C 
HETATM    2  C2  UNL     1       3.573 -13.824  -2.416  1.00  0.00    -0.038 C 
HETATM    3  C3  UNL     1       4.685 -13.035  -1.914  1.00  0.00     0.013 C 
HETATM    4  C4  UNL     1       4.809 -11.742  -1.923  1.00  0.00    -0.059 C 
HETATM    5  C5  UNL     1       6.133 -11.390  -1.292  1.00  0.00     0.113 C 
HETATM    6  C6  UNL     1       5.875 -10.400  -0.179  1.00  0.00     0.132 C 
HETATM    7  O1  UNL     1       6.491 -10.455   0.862  1.00  0.00    -0.298 OA
HETATM    8  C7  UNL     1       4.853  -9.359  -0.377  1.00  0.00     0.099 C 
HETATM    9  C8  UNL     1       3.607  -9.972  -1.039  1.00  0.00     0.115 C 
HETATM   10  C9  UNL     1       2.595  -8.979  -1.015  1.00  0.00     0.065 C 
HETATM   11  N1  UNL     1       1.769  -8.174  -0.961  1.00  0.00    -0.197 NA
HETATM   12  C10 UNL     1       3.981 -10.588  -2.351  1.00  0.00     0.035 C 
HETATM   13  C11 UNL     1       4.966  -9.695  -3.134  1.00  0.00     0.025 C 
HETATM   14  C12 UNL     1       2.882 -10.870  -3.302  1.00  0.00     0.148 C 
HETATM   15  F1  UNL     1       1.674 -10.747  -2.637  1.00  0.00    -0.238 F 
HETATM   16  C13 UNL     1       2.799  -9.933  -4.493  1.00  0.00     0.160 C 
HETATM   17  C14 UNL     1       1.769 -10.694  -5.351  1.00  0.00     0.049 C 
HETATM   18  C15 UNL     1       2.420 -12.025  -5.427  1.00  0.00    -0.010 C 
HETATM   19  C16 UNL     1       1.300 -13.044  -5.682  1.00  0.00     0.021 C 
HETATM   20  C20 UNL     1       2.982 -12.185  -4.046  1.00  0.00     0.075 C 
HETATM   21  C21 UNL     1       2.443 -13.363  -3.296  1.00  0.00     0.158 C 
ENDROOT
BRANCH  16  22
HETATM   22  O2  UNL     1       2.238  -8.715  -4.286  1.00  0.00    -0.392 OA
ATOM     23  H2  UNL     1       2.671  -8.137  -3.669  1.00  0.00     0.210 HD
ENDBRANCH  16  22
BRANCH  18  24
HETATM   24  C17 UNL     1       3.385 -12.141  -6.499  1.00  0.00    -0.084 C 
HETATM   25  C18 UNL     1       4.607 -11.674  -6.405  1.00  0.00     0.015 C 
HETATM   26  C19 UNL     1       3.057 -12.799  -7.820  1.00  0.00     0.043 C 
ENDBRANCH  18  24
BRANCH  21  27
HETATM   27  O3  UNL     1       1.302 -13.110  -2.554  1.00  0.00    -0.390 OA
ATOM     28  H3  UNL     1       1.188 -13.756  -1.867  1.00  0.00     0.210 HD
ENDBRANCH  21  27
TORSDOF 3
ENDMDL
MODEL 3
REMARK VINA RESULT: -5.932280348      2.494      5.445
REMARK  3 active torsions:
REMARK  status: ('A' for Active; 'I' for Inactive)
REMARK    1  A    between atoms: C13_16  and  O2_17 
REMARK    2  A    between atoms: C15_20  and  C17_22 
REMARK    3  A    between atoms: C21_26  and  O3_27 
ROOT
HETATM    1  C1  UNL     1       3.618 -15.324  -2.074  1.00  0.00     0.021 C 
HETATM    2  C2  UNL     1       3.649 -14.021  -2.035  1.00  0.00    -0.038 C 
HETATM    3  C3  UNL     1       4.580 -13.383  -1.121  1.00  0.00     0.013 C 
HETATM    4  C4  UNL     1       4.608 -12.135  -0.759  1.00  0.00    -0.059 C 
HETATM    5  C5  UNL     1       5.753 -11.949   0.205  1.00  0.00     0.113 C 
HETATM    6  C6  UNL     1       5.210 -11.310   1.463  1.00  0.00     0.132 C 
HETATM    7  O1  UNL     1       5.613 -11.640   2.556  1.00  0.00    -0.298 OA
HETATM    8  C7  UNL     1       4.173 -10.272   1.342  1.00  0.00     0.099 C 
HETATM    9  C8  UNL     1       3.129 -10.700   0.296  1.00  0.00     0.115 C 
HETATM   10  C9  UNL     1       2.061  -9.770   0.373  1.00  0.00     0.065 C 
HETATM   11  N1  UNL     1       1.184  -9.025   0.467  1.00  0.00    -0.197 NA
HETATM   12  C10 UNL     1       3.797 -10.923  -1.026  1.00  0.00     0.035 C 
HETATM   13  C11 UNL     1       4.847  -9.831  -1.318  1.00  0.00     0.025 C 
HETATM   14  C12 UNL     1       2.929 -10.949  -2.224  1.00  0.00     0.148 C 
HETATM   15  F1  UNL     1       1.609 -11.036  -1.817  1.00  0.00    -0.238 F 
HETATM   16  C13 UNL     1       3.011  -9.721  -3.112  1.00  0.00     0.160 C 
HETATM   17  C14 UNL     1       2.228 -10.233  -4.337  1.00  0.00     0.049 C 
HETATM   18  C15 UNL     1       2.978 -11.479  -4.628  1.00  0.00    -0.010 C 
HETATM   19  C16 UNL     1       2.007 -12.407  -5.374  1.00  0.00     0.021 C 
HETATM   20  C20 UNL     1       3.269 -12.005  -3.254  1.00  0.00     0.075 C 
HETATM   21  C21 UNL     1       2.682 -13.354  -2.976  1.00  0.00     0.158 C 
ENDROOT
BRANCH  16  22
HETATM   22  O2  UNL     1       2.332  -8.618  -2.708  1.00  0.00    -0.392 OA
ATOM     23  H2  UNL     1       1.385  -8.639  -2.787  1.00  0.00     0.210 HD
ENDBRANCH  16  22
BRANCH  18  24
HETATM   24  C17 UNL     1       4.140 -11.278  -5.467  1.00  0.00    -0.084 C 
HETATM   25  C18 UNL     1       4.105 -11.423  -6.770  1.00  0.00     0.015 C 
HETATM   26  C19 UNL     1       5.491 -10.895  -4.906  1.00  0.00     0.043 C 
ENDBRANCH  18  24
BRANCH  21  27
HETATM   27  O3  UNL     1       1.402 -13.335  -2.447  1.00  0.00    -0.390 OA
ATOM     28  H3  UNL     1       1.198 -12.487  -2.072  1.00  0.00     0.210 HD
ENDBRANCH  21  27
TORSDOF 3
ENDMDL
MODEL 4
REMARK VINA RESULT: -5.829672987      1.302      1.513
REMARK  3 active torsions:
REMARK  status: ('A' for Active; 'I' for Inactive)
REMARK    1  A    between atoms: C13_16  and  O2_17 
REMARK    2  A    between atoms: C15_20  and  C17_22 
REMARK    3  A    between atoms: C21_26  and  O3_27 
ROOT
HETATM    1  C1  UNL     1       0.962 -14.761  -2.754  1.00  0.00     0.021 C 
HETATM    2  C2  UNL     1       1.576 -13.620  -2.604  1.00  0.00    -0.038 C 
HETATM    3  C3  UNL     1       1.866 -12.835  -3.791  1.00  0.00     0.013 C 
HETATM    4  C4  UNL     1       2.658 -11.810  -3.892  1.00  0.00    -0.059 C 
HETATM    5  C5  UNL     1       2.633 -11.333  -5.322  1.00  0.00     0.113 C 
HETATM    6  C6  UNL     1       4.058 -11.275  -5.823  1.00  0.00     0.132 C 
HETATM    7  O1  UNL     1       4.337 -11.605  -6.954  1.00  0.00    -0.298 OA
HETATM    8  C7  UNL     1       5.115 -10.811  -4.910  1.00  0.00     0.099 C 
HETATM    9  C8  UNL     1       4.912 -11.436  -3.519  1.00  0.00     0.115 C 
HETATM   10  C9  UNL     1       6.061 -11.120  -2.751  1.00  0.00     0.065 C 
HETATM   11  N1  UNL     1       7.016 -10.883  -2.146  1.00  0.00    -0.197 NA
HETATM   12  C10 UNL     1       3.564 -11.062  -2.986  1.00  0.00     0.035 C 
HETATM   13  C11 UNL     1       3.234  -9.582  -3.272  1.00  0.00     0.025 C 
HETATM   14  C12 UNL     1       3.343 -11.229  -1.532  1.00  0.00     0.148 C 
HETATM   15  F1  UNL     1       4.381 -11.978  -1.006  1.00  0.00    -0.238 F 
HETATM   16  C13 UNL     1       3.309  -9.941  -0.729  1.00  0.00     0.160 C 
HETATM   17  C14 UNL     1       2.793 -10.487   0.616  1.00  0.00     0.049 C 
HETATM   18  C15 UNL     1       1.560 -11.178   0.165  1.00  0.00    -0.010 C 
HETATM   19  C16 UNL     1       1.265 -12.268   1.207  1.00  0.00     0.021 C 
HETATM   20  C20 UNL     1       1.992 -11.786  -1.136  1.00  0.00     0.075 C 
HETATM   21  C21 UNL     1       1.903 -13.280  -1.175  1.00  0.00     0.158 C 
ENDROOT
BRANCH  16  22
HETATM   22  O2  UNL     1       4.501  -9.367  -0.429  1.00  0.00    -0.392 OA
ATOM     23  H2  UNL     1       4.538  -8.824   0.350  1.00  0.00     0.210 HD
ENDBRANCH  16  22
BRANCH  18  24
HETATM   24  C17 UNL     1       0.403 -10.312   0.083  1.00  0.00    -0.084 C 
HETATM   25  C18 UNL     1      -0.689 -10.522   0.778  1.00  0.00     0.015 C 
HETATM   26  C19 UNL     1       0.357  -9.101  -0.822  1.00  0.00     0.043 C 
ENDBRANCH  18  24
BRANCH  21  27
HETATM   27  O3  UNL     1       3.041 -13.944  -0.750  1.00  0.00    -0.390 OA
ATOM     28  H3  UNL     1       2.828 -14.802  -0.402  1.00  0.00     0.210 HD
ENDBRANCH  21  27
TORSDOF 3
ENDMDL
MODEL 5
REMARK VINA RESULT: -5.761929221      2.384      3.382
REMARK  3 active torsions:
REMARK  status: ('A' for Active; 'I' for Inactive)
REMARK    1  A    between atoms: C13_16  and  O2_17 
REMARK    2  A    between atoms: C15_20  and  C17_22 
REMARK    3  A    between atoms: C21_26  and  O3_27 
ROOT
HETATM    1  C1  UNL     1       1.761 -13.401  -4.247  1.00  0.00     0.021 C 
HETATM    2  C2  UNL     1       2.410 -12.774  -3.305  1.00  0.00    -0.038 C 
HETATM    3  C3  UNL     1       3.509 -11.906  -3.689  1.00  0.00     0.013 C 
HETATM    4  C4  UNL     1       4.417 -11.386  -2.918  1.00  0.00    -0.059 C 
HETATM    5  C5  UNL     1       5.344 -10.559  -3.773  1.00  0.00     0.113 C 
HETATM    6  C6  UNL     1       6.759 -11.026  -3.519  1.00  0.00     0.132 C 
HETATM    7  O1  UNL     1       7.563 -11.102  -4.420  1.00  0.00    -0.298 OA
HETATM    8  C7  UNL     1       7.152 -11.393  -2.148  1.00  0.00     0.099 C 
HETATM    9  C8  UNL     1       6.037 -12.228  -1.494  1.00  0.00     0.115 C 
HETATM   10  C9  UNL     1       6.553 -12.719  -0.268  1.00  0.00     0.065 C 
HETATM   11  N1  UNL     1       6.995 -13.139   0.713  1.00  0.00    -0.197 NA
HETATM   12  C10 UNL     1       4.761 -11.444  -1.476  1.00  0.00     0.035 C 
HETATM   13  C11 UNL     1       5.008  -9.970  -1.095  1.00  0.00     0.025 C 
HETATM   14  C12 UNL     1       3.699 -11.905  -0.553  1.00  0.00     0.148 C 
HETATM   15  F1  UNL     1       4.028 -13.166  -0.088  1.00  0.00    -0.238 F 
HETATM   16  C13 UNL     1       3.496 -11.045   0.681  1.00  0.00     0.160 C 
HETATM   17  C14 UNL     1       2.181 -11.654   1.207  1.00  0.00     0.049 C 
HETATM   18  C15 UNL     1       1.329 -11.529  -0.001  1.00  0.00    -0.010 C 
HETATM   19  C16 UNL     1       0.243 -12.608   0.119  1.00  0.00     0.021 C 
HETATM   20  C20 UNL     1       2.290 -11.860  -1.104  1.00  0.00     0.075 C 
HETATM   21  C21 UNL     1       1.904 -13.057  -1.916  1.00  0.00     0.158 C 
ENDROOT
BRANCH  16  22
HETATM   22  O2  UNL     1       4.378 -11.204   1.699  1.00  0.00    -0.392 OA
ATOM     23  H2  UNL     1       4.298 -10.613   2.439  1.00  0.00     0.210 HD
ENDBRANCH  16  22
BRANCH  18  24
HETATM   24  C17 UNL     1       0.675 -10.244  -0.122  1.00  0.00    -0.084 C 
HETATM   25  C18 UNL     1      -0.304  -9.871   0.668  1.00  0.00     0.015 C 
HETATM   26  C19 UNL     1       1.058  -9.233  -1.178  1.00  0.00     0.043 C 
ENDBRANCH  18  24
BRANCH  21  27
HETATM   27  O3  UNL     1       2.389 -14.264  -1.443  1.00  0.00    -0.390 OA
ATOM     28  H3  UNL     1       1.851 -14.596  -0.733  1.00  0.00     0.210 HD
ENDBRANCH  21  27
TORSDOF 3
ENDMDL
