MODEL 1
REMARK VINA RESULT: -8.142527566      0.000      0.000
REMARK  6 active torsions:
REMARK  status: ('A' for Active; 'I' for Inactive)
REMARK    1  A    between atoms: C2_2  and  N1_3 
REMARK    2  A    between atoms: C2_2  and  C14_25 
REMARK    3  A    between atoms: N1_3  and  C3_4 
REMARK    4  A    between atoms: N2_8  and  C7_9 
REMARK    5  A    between atoms: C7_9  and  O1_13 
REMARK    6  A    between atoms: O1_13  and  C8_14 
ROOT
HETATM    1  C3  UNL     1       3.950 -11.664 -11.506  1.00  0.00     0.267 C 
HETATM    2  C4  UNL     1       2.585 -12.304 -11.270  1.00  0.00     0.088 C 
HETATM    3  C5  UNL     1       1.881 -11.785 -10.075  1.00  0.00     0.115 C 
HETATM    4  C6  UNL     1       1.640 -12.827  -9.010  1.00  0.00     0.155 C 
HETATM    5  N2  UNL     1       1.957 -12.168  -7.779  1.00  0.00    -0.311 N 
HETATM    6  C12 UNL     1       2.305 -10.788  -7.960  1.00  0.00     0.294 C 
HETATM    7 CL1  UNL     1       1.001  -9.695  -7.460  1.00  0.00    -0.079 Cl
HETATM    8  N4  UNL     1       2.519 -10.677  -9.400  1.00  0.00    -0.293 N 
HETATM    9  C13 UNL     1       3.197  -9.725 -10.209  1.00  0.00     0.323 C 
HETATM   10  O2  UNL     1       3.227  -8.509  -9.863  1.00  0.00    -0.247 OA
HETATM   11  N5  UNL     1       3.824 -10.199 -11.388  1.00  0.00    -0.310 N 
ATOM     12  H5  UNL     1       4.166  -9.566 -12.111  1.00  0.00     0.167 HD
ENDROOT
BRANCH   5  13
HETATM   13  C7  UNL     1       1.928 -12.814  -6.493  1.00  0.00     0.218 C 
HETATM   14  N3  UNL     1       2.088 -14.096  -6.377  1.00  0.00    -0.365 N 
ATOM     15  H32 UNL     1       2.234 -14.620  -7.239  1.00  0.00     0.159 HD
ATOM     16  H31 UNL     1       2.068 -14.554  -5.467  1.00  0.00     0.159 HD
BRANCH  13  17
HETATM   17  O1  UNL     1       1.730 -12.104  -5.324  1.00  0.00    -0.312 OA
BRANCH  17  18
HETATM   18  C8  UNL     1       2.852 -11.671  -4.565  1.00  0.00     0.060 C 
HETATM   19  C9  UNL     1       2.582 -10.262  -4.046  1.00  0.00     0.046 C 
HETATM   20  C10 UNL     1       3.086 -12.559  -3.361  1.00  0.00     0.046 C 
HETATM   21  C11 UNL     1       4.109 -11.636  -5.376  1.00  0.00     0.046 C 
ENDBRANCH  17  18
ENDBRANCH  13  17
ENDBRANCH   5  13
BRANCH   1  22
HETATM   22  N1  UNL     1       4.588 -12.020 -12.618  1.00  0.00    -0.430 NA
BRANCH  22  23
HETATM   23  C2  UNL     1       5.163 -12.252 -13.605  1.00  0.00     0.062 C 
HETATM   24  C1  UNL     1       6.659 -12.499 -13.591  1.00  0.00     0.080 C 
BRANCH  23  25
HETATM   25  C14 UNL     1       4.519 -12.332 -14.963  1.00  0.00    -0.000 C 
HETATM   26  C15 UNL     1       3.091 -11.865 -14.955  1.00  0.00     0.021 C 
HETATM   27  C16 UNL     1       4.514 -13.779 -15.453  1.00  0.00     0.021 C 
HETATM   28  C17 UNL     1       5.336 -11.545 -15.987  1.00  0.00     0.021 C 
ENDBRANCH  23  25
ENDBRANCH  22  23
ENDBRANCH   1  22
TORSDOF 6
ENDMDL
MODEL 2
REMARK VINA RESULT: -7.726702429      3.442      8.984
REMARK  6 active torsions:
REMARK  status: ('A' for Active; 'I' for Inactive)
REMARK    1  A    between atoms: C2_2  and  N1_3 
REMARK    2  A    between atoms: C2_2  and  C14_25 
REMARK    3  A    between atoms: N1_3  and  C3_4 
REMARK    4  A    between atoms: N2_8  and  C7_9 
REMARK    5  A    between atoms: C7_9  and  O1_13 
REMARK    6  A    between atoms: O1_13  and  C8_14 
ROOT
HETATM    1  C3  UNL     1       0.919 -13.924  -3.577  1.00  0.00     0.267 C 
HETATM    2  C4  UNL     1       1.474 -14.515  -4.870  1.00  0.00     0.088 C 
HETATM    3  C5  UNL     1       2.245 -13.547  -5.684  1.00  0.00     0.115 C 
HETATM    4  C6  UNL     1       1.635 -13.268  -7.037  1.00  0.00     0.155 C 
HETATM    5  N2  UNL     1       1.747 -11.851  -7.200  1.00  0.00    -0.311 N 
HETATM    6  C12 UNL     1       2.433 -11.217  -6.112  1.00  0.00     0.294 C 
HETATM    7 CL1  UNL     1       4.088 -10.746  -6.544  1.00  0.00    -0.079 Cl
HETATM    8  N4  UNL     1       2.467 -12.252  -5.082  1.00  0.00    -0.293 N 
HETATM    9  C13 UNL     1       2.673 -12.215  -3.676  1.00  0.00     0.323 C 
HETATM   10  O2  UNL     1       3.442 -11.345  -3.173  1.00  0.00    -0.247 OA
HETATM   11  N5  UNL     1       1.989 -13.174  -2.890  1.00  0.00    -0.310 N 
ATOM     12  H5  UNL     1       2.221 -13.337  -1.910  1.00  0.00     0.167 HD
ENDROOT
BRANCH   5  13
HETATM   13  C7  UNL     1       1.229 -11.131  -8.334  1.00  0.00     0.218 C 
HETATM   14  N3  UNL     1       0.493 -10.074  -8.187  1.00  0.00    -0.365 N 
ATOM     15  H32 UNL     1       0.301  -9.779  -7.230  1.00  0.00     0.159 HD
ATOM     16  H31 UNL     1       0.126  -9.565  -8.990  1.00  0.00     0.159 HD
BRANCH  13  17
HETATM   17  O1  UNL     1       1.490 -11.531  -9.632  1.00  0.00    -0.312 OA
BRANCH  17  18
HETATM   18  C8  UNL     1       2.734 -11.196 -10.235  1.00  0.00     0.060 C 
HETATM   19  C9  UNL     1       2.620 -11.396 -11.743  1.00  0.00     0.046 C 
HETATM   20  C10 UNL     1       3.096  -9.745  -9.997  1.00  0.00     0.046 C 
HETATM   21  C11 UNL     1       3.857 -12.050  -9.735  1.00  0.00     0.046 C 
ENDBRANCH  17  18
ENDBRANCH  13  17
ENDBRANCH   5  13
BRANCH   1  22
HETATM   22  N1  UNL     1       0.300 -14.770  -2.756  1.00  0.00    -0.430 NA
BRANCH  22  23
HETATM   23  C2  UNL     1      -0.305 -15.457  -2.035  1.00  0.00     0.062 C 
HETATM   24  C1  UNL     1      -1.341 -14.872  -1.096  1.00  0.00     0.080 C 
BRANCH  23  25
HETATM   25  C14 UNL     1      -0.140 -16.950  -1.949  1.00  0.00    -0.000 C 
HETATM   26  C15 UNL     1      -1.153 -17.693  -2.774  1.00  0.00     0.021 C 
HETATM   27  C16 UNL     1      -0.314 -17.411  -0.503  1.00  0.00     0.021 C 
HETATM   28  C17 UNL     1       1.279 -17.352  -2.350  1.00  0.00     0.021 C 
ENDBRANCH  23  25
ENDBRANCH  22  23
ENDBRANCH   1  22
TORSDOF 6
ENDMDL
MODEL 3
REMARK VINA RESULT: -7.683412290      3.445      9.196
REMARK  6 active torsions:
REMARK  status: ('A' for Active; 'I' for Inactive)
REMARK    1  A    between atoms: C2_2  and  N1_3 
REMARK    2  A    between atoms: C2_2  and  C14_25 
REMARK    3  A    between atoms: N1_3  and  C3_4 
REMARK    4  A    between atoms: N2_8  and  C7_9 
REMARK    5  A    between atoms: C7_9  and  O1_13 
REMARK    6  A    between atoms: O1_13  and  C8_14 
ROOT
HETATM    1  C3  UNL     1       0.902 -13.989  -3.597  1.00  0.00     0.267 C 
HETATM    2  C4  UNL     1       1.481 -14.547  -4.894  1.00  0.00     0.088 C 
HETATM    3  C5  UNL     1       2.244 -13.553  -5.683  1.00  0.00     0.115 C 
HETATM    4  C6  UNL     1       1.645 -13.261  -7.038  1.00  0.00     0.155 C 
HETATM    5  N2  UNL     1       1.733 -11.839  -7.175  1.00  0.00    -0.311 N 
HETATM    6  C12 UNL     1       2.396 -11.213  -6.068  1.00  0.00     0.294 C 
HETATM    7 CL1  UNL     1       4.047 -10.705  -6.474  1.00  0.00    -0.079 Cl
HETATM    8  N4  UNL     1       2.437 -12.264  -5.056  1.00  0.00    -0.293 N 
HETATM    9  C13 UNL     1       2.627 -12.248  -3.647  1.00  0.00     0.323 C 
HETATM   10  O2  UNL     1       3.374 -11.374  -3.121  1.00  0.00    -0.247 OA
HETATM   11  N5  UNL     1       1.950 -13.233  -2.886  1.00  0.00    -0.310 N 
ATOM     12  H5  UNL     1       2.175 -13.408  -1.906  1.00  0.00     0.167 HD
ENDROOT
BRANCH   5  13
HETATM   13  C7  UNL     1       1.216 -11.110  -8.303  1.00  0.00     0.218 C 
HETATM   14  N3  UNL     1       0.481 -10.053  -8.145  1.00  0.00    -0.365 N 
ATOM     15  H32 UNL     1       0.290  -9.766  -7.186  1.00  0.00     0.159 HD
ATOM     16  H31 UNL     1       0.115  -9.536  -8.944  1.00  0.00     0.159 HD
BRANCH  13  17
HETATM   17  O1  UNL     1       1.475 -11.499  -9.604  1.00  0.00    -0.312 OA
BRANCH  17  18
HETATM   18  C8  UNL     1       2.726 -11.178 -10.199  1.00  0.00     0.060 C 
HETATM   19  C9  UNL     1       2.628 -11.403 -11.704  1.00  0.00     0.046 C 
HETATM   20  C10 UNL     1       3.090  -9.723  -9.982  1.00  0.00     0.046 C 
HETATM   21  C11 UNL     1       3.841 -12.026  -9.672  1.00  0.00     0.046 C 
ENDBRANCH  17  18
ENDBRANCH  13  17
ENDBRANCH   5  13
BRANCH   1  22
HETATM   22  N1  UNL     1       0.289 -14.860  -2.799  1.00  0.00    -0.430 NA
BRANCH  22  23
HETATM   23  C2  UNL     1      -0.301 -15.637  -2.161  1.00  0.00     0.062 C 
HETATM   24  C1  UNL     1      -0.266 -17.112  -2.511  1.00  0.00     0.080 C 
BRANCH  23  25
HETATM   25  C14 UNL     1      -1.136 -15.288  -0.959  1.00  0.00    -0.000 C 
HETATM   26  C15 UNL     1      -0.635 -14.069  -0.238  1.00  0.00     0.021 C 
HETATM   27  C16 UNL     1      -1.115 -16.442   0.043  1.00  0.00     0.021 C 
HETATM   28  C17 UNL     1      -2.600 -15.111  -1.363  1.00  0.00     0.021 C 
ENDBRANCH  23  25
ENDBRANCH  22  23
ENDBRANCH   1  22
TORSDOF 6
ENDMDL
MODEL 4
REMARK VINA RESULT: -7.615068136      0.866      1.699
REMARK  6 active torsions:
REMARK  status: ('A' for Active; 'I' for Inactive)
REMARK    1  A    between atoms: C2_2  and  N1_3 
REMARK    2  A    between atoms: C2_2  and  C14_25 
REMARK    3  A    between atoms: N1_3  and  C3_4 
REMARK    4  A    between atoms: N2_8  and  C7_9 
REMARK    5  A    between atoms: C7_9  and  O1_13 
REMARK    6  A    between atoms: O1_13  and  C8_14 
ROOT
HETATM    1  C3  UNL     1       3.583 -11.654 -11.820  1.00  0.00     0.267 C 
HETATM    2  C4  UNL     1       2.290 -12.204 -11.225  1.00  0.00     0.088 C 
HETATM    3  C5  UNL     1       1.928 -11.597  -9.924  1.00  0.00     0.115 C 
HETATM    4  C6  UNL     1       1.909 -12.581  -8.778  1.00  0.00     0.155 C 
HETATM    5  N2  UNL     1       2.549 -11.893  -7.698  1.00  0.00    -0.311 N 
HETATM    6  C12 UNL     1       2.906 -10.544  -8.031  1.00  0.00     0.294 C 
HETATM    7 CL1  UNL     1       1.817  -9.358  -7.286  1.00  0.00    -0.079 Cl
HETATM    8  N4  UNL     1       2.762 -10.502  -9.484  1.00  0.00    -0.293 N 
HETATM    9  C13 UNL     1       3.264  -9.624 -10.483  1.00  0.00     0.323 C 
HETATM   10  O2  UNL     1       3.434  -8.399 -10.220  1.00  0.00    -0.247 OA
HETATM   11  N5  UNL     1       3.557 -10.180 -11.753  1.00  0.00    -0.310 N 
ATOM     12  H5  UNL     1       3.740  -9.597 -12.570  1.00  0.00     0.167 HD
ENDROOT
BRANCH   5  13
HETATM   13  C7  UNL     1       2.809 -12.485  -6.413  1.00  0.00     0.218 C 
HETATM   14  N3  UNL     1       2.045 -13.415  -5.929  1.00  0.00    -0.365 N 
ATOM     15  H32 UNL     1       1.255 -13.704  -6.504  1.00  0.00     0.159 HD
ATOM     16  H31 UNL     1       2.229 -13.834  -5.018  1.00  0.00     0.159 HD
BRANCH  13  17
HETATM   17  O1  UNL     1       3.881 -12.093  -5.633  1.00  0.00    -0.312 OA
BRANCH  17  18
HETATM   18  C8  UNL     1       3.647 -11.478  -4.372  1.00  0.00     0.060 C 
HETATM   19  C9  UNL     1       4.892 -10.694  -3.968  1.00  0.00     0.046 C 
HETATM   20  C10 UNL     1       2.496 -10.496  -4.436  1.00  0.00     0.046 C 
HETATM   21  C11 UNL     1       3.355 -12.476  -3.297  1.00  0.00     0.046 C 
ENDBRANCH  17  18
ENDBRANCH  13  17
ENDBRANCH   5  13
BRANCH   1  22
HETATM   22  N1  UNL     1       3.910 -12.090 -13.035  1.00  0.00    -0.430 NA
BRANCH  22  23
HETATM   23  C2  UNL     1       4.134 -12.426 -14.128  1.00  0.00     0.062 C 
HETATM   24  C1  UNL     1       3.010 -12.839 -15.057  1.00  0.00     0.080 C 
BRANCH  23  25
HETATM   25  C14 UNL     1       5.512 -12.489 -14.729  1.00  0.00    -0.000 C 
HETATM   26  C15 UNL     1       6.600 -12.344 -13.704  1.00  0.00     0.021 C 
HETATM   27  C16 UNL     1       5.692 -11.355 -15.738  1.00  0.00     0.021 C 
HETATM   28  C17 UNL     1       5.688 -13.785 -15.520  1.00  0.00     0.021 C 
ENDBRANCH  23  25
ENDBRANCH  22  23
ENDBRANCH   1  22
TORSDOF 6
ENDMDL
MODEL 5
REMARK VINA RESULT: -7.505638639      3.080      8.902
REMARK  6 active torsions:
REMARK  status: ('A' for Active; 'I' for Inactive)
REMARK    1  A    between atoms: C2_2  and  N1_3 
REMARK    2  A    between atoms: C2_2  and  C14_25 
REMARK    3  A    between atoms: N1_3  and  C3_4 
REMARK    4  A    between atoms: N2_8  and  C7_9 
REMARK    5  A    between atoms: C7_9  and  O1_13 
REMARK    6  A    between atoms: O1_13  and  C8_14 
ROOT
HETATM    1  C3  UNL     1       2.774 -10.008  -3.880  1.00  0.00     0.267 C 
HETATM    2  C4  UNL     1       2.054 -11.315  -4.197  1.00  0.00     0.088 C 
HETATM    3  C5  UNL     1       2.597 -12.023  -5.379  1.00  0.00     0.115 C 
HETATM    4  C6  UNL     1       1.611 -12.158  -6.514  1.00  0.00     0.155 C 
HETATM    5  N2  UNL     1       2.368 -11.858  -7.691  1.00  0.00    -0.311 N 
HETATM    6  C12 UNL     1       3.755 -11.618  -7.414  1.00  0.00     0.294 C 
HETATM    7 CL1  UNL     1       4.781 -12.985  -7.886  1.00  0.00    -0.079 Cl
HETATM    8  N4  UNL     1       3.789 -11.451  -5.964  1.00  0.00    -0.293 N 
HETATM    9  C13 UNL     1       4.734 -10.866  -5.077  1.00  0.00     0.323 C 
HETATM   10  O2  UNL     1       5.968 -10.917  -5.345  1.00  0.00    -0.247 OA
HETATM   11  N5  UNL     1       4.232 -10.239  -3.910  1.00  0.00    -0.310 N 
ATOM     12  H5  UNL     1       4.840  -9.963  -3.139  1.00  0.00     0.167 HD
ENDROOT
BRANCH   5  13
HETATM   13  C7  UNL     1       1.805 -11.805  -9.014  1.00  0.00     0.218 C 
HETATM   14  N3  UNL     1       0.662 -11.235  -9.240  1.00  0.00    -0.365 N 
ATOM     15  H32 UNL     1       0.185 -10.829  -8.436  1.00  0.00     0.159 HD
ATOM     16  H31 UNL     1       0.263 -11.197 -10.177  1.00  0.00     0.159 HD
BRANCH  13  17
HETATM   17  O1  UNL     1       2.452 -12.356 -10.105  1.00  0.00    -0.312 OA
BRANCH  17  18
HETATM   18  C8  UNL     1       3.045 -11.503 -11.076  1.00  0.00     0.060 C 
HETATM   19  C9  UNL     1       4.458 -11.997 -11.367  1.00  0.00     0.046 C 
HETATM   20  C10 UNL     1       2.279 -11.528 -12.382  1.00  0.00     0.046 C 
HETATM   21  C11 UNL     1       3.134 -10.084 -10.609  1.00  0.00     0.046 C 
ENDBRANCH  17  18
ENDBRANCH  13  17
ENDBRANCH   5  13
BRANCH   1  22
HETATM   22  N1  UNL     1       2.395  -9.375  -2.772  1.00  0.00    -0.430 NA
BRANCH  22  23
HETATM   23  C2  UNL     1       2.141  -8.824  -1.777  1.00  0.00     0.062 C 
HETATM   24  C1  UNL     1       0.940  -9.236  -0.947  1.00  0.00     0.080 C 
BRANCH  23  25
HETATM   25  C14 UNL     1       2.941  -7.681  -1.213  1.00  0.00    -0.000 C 
HETATM   26  C15 UNL     1       3.370  -6.698  -2.265  1.00  0.00     0.021 C 
HETATM   27  C16 UNL     1       4.212  -8.212  -0.551  1.00  0.00     0.021 C 
HETATM   28  C17 UNL     1       2.156  -6.977  -0.107  1.00  0.00     0.021 C 
ENDBRANCH  23  25
ENDBRANCH  22  23
ENDBRANCH   1  22
TORSDOF 6
ENDMDL
