MODEL 1
REMARK VINA RESULT: -6.794020953      0.000      0.000
REMARK  4 active torsions:
REMARK  status: ('A' for Active; 'I' for Inactive)
REMARK    1  A    between atoms: C3_3  and  O1_4 
REMARK    2  A    between atoms: C8_10  and  C9_11 
REMARK    3  A    between atoms: C9_11  and  C10_12 
REMARK    4  A    between atoms: C21_25  and  N1_26 
ROOT
HETATM    1  C1  UNL     1       4.315  -8.740  -2.951  1.00  0.00     0.013 C 
HETATM    2  C2  UNL     1       3.421  -9.863  -3.447  1.00  0.00     0.019 C 
HETATM    3  C3  UNL     1       2.424 -10.192  -2.368  1.00  0.00     0.125 C 
HETATM    4  C4  UNL     1       2.060 -11.609  -2.213  1.00  0.00     0.070 C 
HETATM    5  C5  UNL     1       2.935 -12.648  -2.775  1.00  0.00     0.070 C 
HETATM    6  C6  UNL     1       2.049 -13.796  -3.215  1.00  0.00     0.039 C 
HETATM    7  C7  UNL     1       1.409 -13.187  -4.390  1.00  0.00     0.009 C 
HETATM    8  C8  UNL     1       2.374 -12.139  -5.023  1.00  0.00     0.012 C 
HETATM    9  C17 UNL     1       3.537 -12.257  -4.149  1.00  0.00     0.034 C 
HETATM   10  C18 UNL     1       4.328 -11.053  -3.712  1.00  0.00    -0.028 C 
HETATM   11  C19 UNL     1       5.476 -10.657  -4.564  1.00  0.00     0.016 C 
HETATM   12  C20 UNL     1       4.974 -11.311  -2.341  1.00  0.00     0.071 C 
HETATM   13  C21 UNL     1       5.116 -12.770  -2.030  1.00  0.00     0.319 C 
HETATM   14  O3  UNL     1       3.834 -13.251  -1.936  1.00  0.00    -0.347 OA
ENDROOT
BRANCH   8  15
HETATM   15  C9  UNL     1       2.357 -12.537  -6.449  1.00  0.00     0.053 C 
HETATM   16  C11 UNL     1       3.699 -12.982  -6.988  1.00  0.00     0.021 C 
HETATM   17  C12 UNL     1       4.194 -11.817  -7.835  1.00  0.00     0.009 C 
HETATM   18  C13 UNL     1       2.908 -11.280  -8.435  1.00  0.00     0.022 C 
HETATM   19  C14 UNL     1       2.916  -9.838  -8.771  1.00  0.00     0.013 C 
HETATM   20  C15 UNL     1       1.777 -11.736  -7.536  1.00  0.00     0.117 C 
HETATM   21  C16 UNL     1       0.716 -10.754  -7.262  1.00  0.00     0.053 C 
HETATM   22  F1  UNL     1       1.039 -12.568  -8.457  1.00  0.00    -0.242 F 
BRANCH  15  23
HETATM   23  C10 UNL     1       1.462 -13.779  -6.514  1.00  0.00     0.244 C 
HETATM   24  O2  UNL     1       1.790 -14.757  -7.141  1.00  0.00    -0.306 OA
ENDBRANCH  15  23
ENDBRANCH   8  15
BRANCH   3  25
HETATM   25  O1  UNL     1       1.276  -9.414  -2.675  1.00  0.00    -0.395 OA
ATOM     26  H1  UNL     1       1.547  -8.512  -2.551  1.00  0.00     0.210 HD
ENDBRANCH   3  25
BRANCH  13  27
HETATM   27  N1  UNL     1       5.689 -12.854  -0.694  1.00  0.00    -0.053 N 
ATOM     28  H13 UNL     1       6.702 -12.732  -0.680  1.00  0.00     0.277 HD
ATOM     29  H12 UNL     1       5.457 -12.054  -0.104  1.00  0.00     0.277 HD
ATOM     30  H11 UNL     1       5.384 -13.746  -0.304  1.00  0.00     0.277 HD
ENDBRANCH  13  27
TORSDOF 4
ENDMDL
MODEL 2
REMARK VINA RESULT: -6.267242050      1.589      2.813
REMARK  4 active torsions:
REMARK  status: ('A' for Active; 'I' for Inactive)
REMARK    1  A    between atoms: C3_3  and  O1_4 
REMARK    2  A    between atoms: C8_10  and  C9_11 
REMARK    3  A    between atoms: C9_11  and  C10_12 
REMARK    4  A    between atoms: C21_25  and  N1_26 
ROOT
HETATM    1  C1  UNL     1       5.392 -12.792  -1.818  1.00  0.00     0.013 C 
HETATM    2  C2  UNL     1       4.792 -12.088  -3.023  1.00  0.00     0.019 C 
HETATM    3  C3  UNL     1       5.159 -10.630  -2.955  1.00  0.00     0.125 C 
HETATM    4  C4  UNL     1       4.142  -9.671  -3.417  1.00  0.00     0.070 C 
HETATM    5  C5  UNL     1       2.738 -10.095  -3.516  1.00  0.00     0.070 C 
HETATM    6  C6  UNL     1       2.121  -9.347  -4.681  1.00  0.00     0.039 C 
HETATM    7  C7  UNL     1       2.785 -10.030  -5.801  1.00  0.00     0.009 C 
HETATM    8  C8  UNL     1       3.119 -11.497  -5.390  1.00  0.00     0.012 C 
HETATM    9  C17 UNL     1       2.576 -11.545  -4.036  1.00  0.00     0.034 C 
HETATM   10  C18 UNL     1       3.286 -12.264  -2.921  1.00  0.00    -0.028 C 
HETATM   11  C19 UNL     1       2.938 -13.691  -2.710  1.00  0.00     0.016 C 
HETATM   12  C20 UNL     1       2.951 -11.612  -1.570  1.00  0.00     0.071 C 
HETATM   13  C21 UNL     1       1.673 -10.829  -1.604  1.00  0.00     0.319 C 
HETATM   14  O3  UNL     1       1.902  -9.791  -2.474  1.00  0.00    -0.347 OA
ENDROOT
BRANCH   8  15
HETATM   15  C9  UNL     1       2.575 -12.260  -6.537  1.00  0.00     0.053 C 
HETATM   16  C11 UNL     1       3.608 -13.061  -7.298  1.00  0.00     0.021 C 
HETATM   17  C12 UNL     1       3.856 -12.276  -8.580  1.00  0.00     0.009 C 
HETATM   18  C13 UNL     1       2.482 -11.709  -8.885  1.00  0.00     0.022 C 
HETATM   19  C14 UNL     1       2.473 -10.438  -9.645  1.00  0.00     0.013 C 
HETATM   20  C15 UNL     1       1.709 -11.698  -7.583  1.00  0.00     0.117 C 
HETATM   21  C16 UNL     1       0.883 -10.510  -7.317  1.00  0.00     0.053 C 
HETATM   22  F1  UNL     1       0.638 -12.609  -7.915  1.00  0.00    -0.242 F 
BRANCH  15  23
HETATM   23  C10 UNL     1       1.629 -13.298  -5.924  1.00  0.00     0.244 C 
HETATM   24  O2  UNL     1       1.868 -14.479  -5.986  1.00  0.00    -0.306 OA
ENDBRANCH  15  23
ENDBRANCH   8  15
BRANCH   3  25
HETATM   25  O1  UNL     1       6.344 -10.509  -3.728  1.00  0.00    -0.395 OA
ATOM     26  H1  UNL     1       6.075 -10.676  -4.623  1.00  0.00     0.210 HD
ENDBRANCH   3  25
BRANCH  13  27
HETATM   27  N1  UNL     1       1.517 -10.235  -0.283  1.00  0.00    -0.053 N 
ATOM     28  H13 UNL     1       0.601 -10.407   0.131  1.00  0.00     0.277 HD
ATOM     29  H12 UNL     1       2.072 -10.700   0.437  1.00  0.00     0.277 HD
ATOM     30  H11 UNL     1       1.735  -9.244  -0.384  1.00  0.00     0.277 HD
ENDBRANCH  13  27
TORSDOF 4
ENDMDL
MODEL 3
REMARK VINA RESULT: -5.852380481      2.818      4.653
REMARK  4 active torsions:
REMARK  status: ('A' for Active; 'I' for Inactive)
REMARK    1  A    between atoms: C3_3  and  O1_4 
REMARK    2  A    between atoms: C8_10  and  C9_11 
REMARK    3  A    between atoms: C9_11  and  C10_12 
REMARK    4  A    between atoms: C21_25  and  N1_26 
ROOT
HETATM    1  C1  UNL     1       2.045 -14.580   0.789  1.00  0.00     0.013 C 
HETATM    2  C2  UNL     1       1.812 -14.041  -0.611  1.00  0.00     0.019 C 
HETATM    3  C3  UNL     1       0.637 -14.765  -1.212  1.00  0.00     0.125 C 
HETATM    4  C4  UNL     1       0.708 -15.060  -2.652  1.00  0.00     0.070 C 
HETATM    5  C5  UNL     1       2.011 -15.036  -3.333  1.00  0.00     0.070 C 
HETATM    6  C6  UNL     1       1.770 -14.556  -4.750  1.00  0.00     0.039 C 
HETATM    7  C7  UNL     1       1.471 -13.139  -4.492  1.00  0.00     0.009 C 
HETATM    8  C8  UNL     1       2.221 -12.677  -3.205  1.00  0.00     0.012 C 
HETATM    9  C17 UNL     1       2.935 -13.896  -2.837  1.00  0.00     0.034 C 
HETATM   10  C18 UNL     1       3.076 -14.331  -1.403  1.00  0.00    -0.028 C 
HETATM   11  C19 UNL     1       4.274 -13.853  -0.669  1.00  0.00     0.016 C 
HETATM   12  C20 UNL     1       3.195 -15.861  -1.321  1.00  0.00     0.071 C 
HETATM   13  C21 UNL     1       3.659 -16.478  -2.605  1.00  0.00     0.319 C 
HETATM   14  O3  UNL     1       2.661 -16.227  -3.514  1.00  0.00    -0.347 OA
ENDROOT
BRANCH   8  15
HETATM   15  C9  UNL     1       2.876 -11.433  -3.671  1.00  0.00     0.053 C 
HETATM   16  C11 UNL     1       4.302 -11.618  -4.141  1.00  0.00     0.021 C 
HETATM   17  C12 UNL     1       5.168 -11.063  -3.019  1.00  0.00     0.009 C 
HETATM   18  C13 UNL     1       4.336  -9.900  -2.510  1.00  0.00     0.022 C 
HETATM   19  C14 UNL     1       4.538  -9.550  -1.085  1.00  0.00     0.013 C 
HETATM   20  C15 UNL     1       2.903 -10.169  -2.921  1.00  0.00     0.117 C 
HETATM   21  C16 UNL     1       1.864  -9.863  -1.926  1.00  0.00     0.053 C 
HETATM   22  F1  UNL     1       2.674  -9.042  -3.795  1.00  0.00    -0.242 F 
BRANCH  15  23
HETATM   23  C10 UNL     1       2.092 -11.000  -4.913  1.00  0.00     0.244 C 
HETATM   24  O2  UNL     1       2.650 -10.763  -5.957  1.00  0.00    -0.306 OA
ENDBRANCH  15  23
ENDBRANCH   8  15
BRANCH   3  25
HETATM   25  O1  UNL     1      -0.489 -13.947  -0.927  1.00  0.00    -0.395 OA
ATOM     26  H1  UNL     1      -0.930 -13.834  -1.760  1.00  0.00     0.210 HD
ENDBRANCH   3  25
BRANCH  13  27
HETATM   27  N1  UNL     1       3.673 -17.918  -2.391  1.00  0.00    -0.053 N 
ATOM     28  H13 UNL     1       4.611 -18.298  -2.260  1.00  0.00     0.277 HD
ATOM     29  H12 UNL     1       3.296 -18.195  -1.484  1.00  0.00     0.277 HD
ATOM     30  H11 UNL     1       3.176 -18.333  -3.180  1.00  0.00     0.277 HD
ENDBRANCH  13  27
TORSDOF 4
ENDMDL
MODEL 4
REMARK VINA RESULT: -5.789255347      1.745      2.325
REMARK  4 active torsions:
REMARK  status: ('A' for Active; 'I' for Inactive)
REMARK    1  A    between atoms: C3_3  and  O1_4 
REMARK    2  A    between atoms: C8_10  and  C9_11 
REMARK    3  A    between atoms: C9_11  and  C10_12 
REMARK    4  A    between atoms: C21_25  and  N1_26 
ROOT
HETATM    1  C1  UNL     1       3.669  -9.178  -0.921  1.00  0.00     0.013 C 
HETATM    2  C2  UNL     1       2.984 -10.128  -1.888  1.00  0.00     0.019 C 
HETATM    3  C3  UNL     1       2.166 -11.111  -1.093  1.00  0.00     0.125 C 
HETATM    4  C4  UNL     1       2.112 -12.490  -1.603  1.00  0.00     0.070 C 
HETATM    5  C5  UNL     1       3.130 -12.951  -2.557  1.00  0.00     0.070 C 
HETATM    6  C6  UNL     1       2.462 -13.946  -3.485  1.00  0.00     0.039 C 
HETATM    7  C7  UNL     1       1.618 -13.034  -4.270  1.00  0.00     0.009 C 
HETATM    8  C8  UNL     1       2.295 -11.631  -4.342  1.00  0.00     0.012 C 
HETATM    9  C17 UNL     1       3.526 -11.869  -3.594  1.00  0.00     0.034 C 
HETATM   10  C18 UNL     1       4.089 -10.846  -2.645  1.00  0.00    -0.028 C 
HETATM   11  C19 UNL     1       5.059  -9.872  -3.204  1.00  0.00     0.016 C 
HETATM   12  C20 UNL     1       4.884 -11.539  -1.527  1.00  0.00     0.071 C 
HETATM   13  C21 UNL     1       5.344 -12.913  -1.907  1.00  0.00     0.319 C 
HETATM   14  O3  UNL     1       4.199 -13.653  -2.065  1.00  0.00    -0.347 OA
ENDROOT
BRANCH   8  15
HETATM   15  C9  UNL     1       2.241 -11.346  -5.794  1.00  0.00     0.053 C 
HETATM   16  C11 UNL     1       1.222 -12.167  -6.552  1.00  0.00     0.021 C 
HETATM   17  C12 UNL     1       2.032 -13.221  -7.296  1.00  0.00     0.009 C 
HETATM   18  C13 UNL     1       3.300 -12.467  -7.652  1.00  0.00     0.022 C 
HETATM   19  C14 UNL     1       4.516 -13.299  -7.794  1.00  0.00     0.013 C 
HETATM   20  C15 UNL     1       3.410 -11.306  -6.684  1.00  0.00     0.117 C 
HETATM   21  C16 UNL     1       4.751 -11.018  -6.152  1.00  0.00     0.053 C 
HETATM   22  F1  UNL     1       3.324 -10.197  -7.605  1.00  0.00    -0.242 F 
BRANCH  15  23
HETATM   23  C10 UNL     1       1.760  -9.896  -5.907  1.00  0.00     0.244 C 
HETATM   24  O2  UNL     1       1.864  -9.126  -4.984  1.00  0.00    -0.306 OA
ENDBRANCH  15  23
ENDBRANCH   8  15
BRANCH   3  25
HETATM   25  O1  UNL     1       0.863 -10.549  -1.036  1.00  0.00    -0.395 OA
ATOM     26  H1  UNL     1       0.564 -10.706  -0.149  1.00  0.00     0.210 HD
ENDBRANCH   3  25
BRANCH  13  27
HETATM   27  N1  UNL     1       6.030 -13.456  -0.742  1.00  0.00    -0.053 N 
ATOM     28  H13 UNL     1       6.664 -14.223  -0.968  1.00  0.00     0.277 HD
ATOM     29  H12 UNL     1       6.731 -12.823  -0.355  1.00  0.00     0.277 HD
ATOM     30  H11 UNL     1       5.305 -13.715  -0.074  1.00  0.00     0.277 HD
ENDBRANCH  13  27
TORSDOF 4
ENDMDL
MODEL 5
REMARK VINA RESULT: -5.770660435      2.341      4.142
REMARK  4 active torsions:
REMARK  status: ('A' for Active; 'I' for Inactive)
REMARK    1  A    between atoms: C3_3  and  O1_4 
REMARK    2  A    between atoms: C8_10  and  C9_11 
REMARK    3  A    between atoms: C9_11  and  C10_12 
REMARK    4  A    between atoms: C21_25  and  N1_26 
ROOT
HETATM    1  C1  UNL     1       3.642 -16.133  -2.281  1.00  0.00     0.013 C 
HETATM    2  C2  UNL     1       3.574 -14.636  -2.526  1.00  0.00     0.019 C 
HETATM    3  C3  UNL     1       4.110 -13.928  -1.310  1.00  0.00     0.125 C 
HETATM    4  C4  UNL     1       3.449 -12.666  -0.936  1.00  0.00     0.070 C 
HETATM    5  C5  UNL     1       2.106 -12.370  -1.454  1.00  0.00     0.070 C 
HETATM    6  C6  UNL     1       2.016 -10.869  -1.642  1.00  0.00     0.039 C 
HETATM    7  C7  UNL     1       2.897 -10.705  -2.808  1.00  0.00     0.009 C 
HETATM    8  C8  UNL     1       2.861 -12.003  -3.672  1.00  0.00     0.012 C 
HETATM    9  C17 UNL     1       1.909 -12.818  -2.924  1.00  0.00     0.034 C 
HETATM   10  C18 UNL     1       2.107 -14.298  -2.736  1.00  0.00    -0.028 C 
HETATM   11  C19 UNL     1       1.504 -15.194  -3.753  1.00  0.00     0.016 C 
HETATM   12  C20 UNL     1       1.453 -14.759  -1.423  1.00  0.00     0.071 C 
HETATM   13  C21 UNL     1       0.386 -13.822  -0.945  1.00  0.00     0.319 C 
HETATM   14  O3  UNL     1       1.033 -12.648  -0.650  1.00  0.00    -0.347 OA
ENDROOT
BRANCH   8  15
HETATM   15  C9  UNL     1       2.610 -11.455  -5.025  1.00  0.00     0.053 C 
HETATM   16  C11 UNL     1       1.427 -12.073  -5.738  1.00  0.00     0.021 C 
HETATM   17  C12 UNL     1       2.032 -13.011  -6.774  1.00  0.00     0.009 C 
HETATM   18  C13 UNL     1       3.285 -12.267  -7.196  1.00  0.00     0.022 C 
HETATM   19  C14 UNL     1       4.398 -13.117  -7.676  1.00  0.00     0.013 C 
HETATM   20  C15 UNL     1       3.630 -11.310  -6.073  1.00  0.00     0.117 C 
HETATM   21  C16 UNL     1       5.054 -11.189  -5.724  1.00  0.00     0.053 C 
HETATM   22  F1  UNL     1       3.491 -10.048  -6.762  1.00  0.00    -0.242 F 
BRANCH  15  23
HETATM   23  C10 UNL     1       2.229  -9.987  -4.806  1.00  0.00     0.244 C 
HETATM   24  O2  UNL     1       1.389  -9.448  -5.485  1.00  0.00    -0.306 OA
ENDBRANCH  15  23
ENDBRANCH   8  15
BRANCH   3  25
HETATM   25  O1  UNL     1       5.485 -13.706  -1.586  1.00  0.00    -0.395 OA
ATOM     26  H1  UNL     1       5.920 -13.770  -0.744  1.00  0.00     0.210 HD
ENDBRANCH   3  25
BRANCH  13  27
HETATM   27  N1  UNL     1      -0.099 -14.358   0.319  1.00  0.00    -0.053 N 
ATOM     28  H13 UNL     1      -0.208 -15.373   0.312  1.00  0.00     0.277 HD
ATOM     29  H12 UNL     1       0.591 -14.309   1.070  1.00  0.00     0.277 HD
ATOM     30  H11 UNL     1      -0.964 -13.861   0.531  1.00  0.00     0.277 HD
ENDBRANCH  13  27
TORSDOF 4
ENDMDL
