MODEL 1
REMARK VINA RESULT: -6.623231007      0.000      0.000
REMARK  8 active torsions:
REMARK  status: ('A' for Active; 'I' for Inactive)
REMARK    1  A    between atoms: O1_1  and  C1_3 
REMARK    2  A    between atoms: N1_5  and  C3_6 
REMARK    3  A    between atoms: C3_6  and  O2_7 
REMARK    4  A    between atoms: O2_7  and  N2_8 
REMARK    5  A    between atoms: N2_8  and  C4_9 
REMARK    6  A    between atoms: C4_9  and  C5_10 
REMARK    7  A    between atoms: C5_10  and  O3_11 
REMARK    8  A    between atoms: N5_17  and  O4_18 
ROOT
HETATM    1  C1  UNL     1      -5.712   5.904  -4.656  1.00  0.00     0.204 A 
HETATM    2  C2  UNL     1      -6.000   7.243  -4.767  1.00  0.00     0.174 A 
HETATM    3  N1  UNL     1      -6.137   7.864  -5.959  1.00  0.00    -0.258 N 
HETATM    4  N3  UNL     1      -5.972   7.084  -7.017  1.00  0.00    -0.222 N 
ATOM      5  H3  UNL     1      -6.065   7.502  -7.942  1.00  0.00     0.210 HD
HETATM    6  N4  UNL     1      -5.695   5.800  -6.939  1.00  0.00    -0.199 N 
ATOM      7  H4  UNL     1      -5.581   5.263  -7.798  1.00  0.00     0.212 HD
HETATM    8  N5  UNL     1      -5.561   5.194  -5.781  1.00  0.00    -0.122 N 
ENDROOT
BRANCH   3   9
HETATM    9  C3  UNL     1      -6.442   9.278  -6.080  1.00  0.00     0.345 C 
BRANCH   9  10
HETATM   10  O2  UNL     1      -6.451   9.825  -4.800  1.00  0.00    -0.265 OA
BRANCH  10  11
HETATM   11  N2  UNL     1      -6.433  11.172  -4.826  1.00  0.00    -0.097 NA
BRANCH  11  12
HETATM   12  C4  UNL     1      -5.494  11.671  -5.802  1.00  0.00     0.168 C 
BRANCH  12  13
HETATM   13  C5  UNL     1      -4.241  12.120  -5.068  1.00  0.00     0.182 C 
BRANCH  13  14
HETATM   14  O3  UNL     1      -3.807  10.999  -4.331  1.00  0.00    -0.400 OA
ATOM     15  H3  UNL     1      -4.206  11.084  -3.473  1.00  0.00     0.209 HD
ENDBRANCH  13  14
ENDBRANCH  12  13
ENDBRANCH  11  12
ENDBRANCH  10  11
ENDBRANCH   9  10
ENDBRANCH   3   9
BRANCH   1  16
HETATM   16  O1  UNL     1      -5.583   5.319  -3.399  1.00  0.00    -0.342 OA
ATOM     17  H1  UNL     1      -5.802   4.403  -3.274  1.00  0.00     0.219 HD
ENDBRANCH   1  16
BRANCH   8  18
HETATM   18  O4  UNL     1      -5.267   3.830  -5.722  1.00  0.00    -0.265 OA
ATOM     19  H4  UNL     1      -4.598   3.457  -6.285  1.00  0.00     0.247 HD
ENDBRANCH   8  18
TORSDOF 8
ENDMDL
MODEL 2
REMARK VINA RESULT: -6.523748424      1.775      1.974
REMARK  8 active torsions:
REMARK  status: ('A' for Active; 'I' for Inactive)
REMARK    1  A    between atoms: O1_1  and  C1_3 
REMARK    2  A    between atoms: N1_5  and  C3_6 
REMARK    3  A    between atoms: C3_6  and  O2_7 
REMARK    4  A    between atoms: O2_7  and  N2_8 
REMARK    5  A    between atoms: N2_8  and  C4_9 
REMARK    6  A    between atoms: C4_9  and  C5_10 
REMARK    7  A    between atoms: C5_10  and  O3_11 
REMARK    8  A    between atoms: N5_17  and  O4_18 
ROOT
HETATM    1  C1  UNL     1      -7.606   5.037  -6.545  1.00  0.00     0.204 A 
HETATM    2  C2  UNL     1      -7.850   6.335  -6.925  1.00  0.00     0.174 A 
HETATM    3  N1  UNL     1      -6.887   7.282  -6.950  1.00  0.00    -0.258 N 
HETATM    4  N3  UNL     1      -5.686   6.865  -6.579  1.00  0.00    -0.222 N 
ATOM      5  H3  UNL     1      -4.921   7.539  -6.580  1.00  0.00     0.210 HD
HETATM    6  N4  UNL     1      -5.425   5.629  -6.210  1.00  0.00    -0.199 N 
ATOM      7  H4  UNL     1      -4.475   5.381  -5.937  1.00  0.00     0.212 HD
HETATM    8  N5  UNL     1      -6.360   4.707  -6.185  1.00  0.00    -0.122 N 
ENDROOT
BRANCH   3   9
HETATM    9  C3  UNL     1      -7.140   8.653  -7.351  1.00  0.00     0.345 C 
BRANCH   9  10
HETATM   10  O2  UNL     1      -6.201   9.463  -6.720  1.00  0.00    -0.265 OA
BRANCH  10  11
HETATM   11  N2  UNL     1      -6.479   9.635  -5.412  1.00  0.00    -0.097 NA
BRANCH  11  12
HETATM   12  C4  UNL     1      -6.492  11.033  -5.052  1.00  0.00     0.168 C 
BRANCH  12  13
HETATM   13  C5  UNL     1      -5.098  11.595  -5.280  1.00  0.00     0.182 C 
BRANCH  13  14
HETATM   14  O3  UNL     1      -4.231  10.788  -4.516  1.00  0.00    -0.400 OA
ATOM     15  H3  UNL     1      -3.600  11.383  -4.128  1.00  0.00     0.209 HD
ENDBRANCH  13  14
ENDBRANCH  12  13
ENDBRANCH  11  12
ENDBRANCH  10  11
ENDBRANCH   9  10
ENDBRANCH   3   9
BRANCH   1  16
HETATM   16  O1  UNL     1      -8.641   4.105  -6.540  1.00  0.00    -0.342 OA
ATOM     17  H1  UNL     1      -8.696   3.450  -7.227  1.00  0.00     0.219 HD
ENDBRANCH   1  16
BRANCH   8  18
HETATM   18  O4  UNL     1      -6.060   3.400  -5.791  1.00  0.00    -0.265 OA
ATOM     19  H4  UNL     1      -6.666   2.692  -5.972  1.00  0.00     0.247 HD
ENDBRANCH   8  18
TORSDOF 8
ENDMDL
MODEL 3
REMARK VINA RESULT: -6.357065976      2.086      2.437
REMARK  8 active torsions:
REMARK  status: ('A' for Active; 'I' for Inactive)
REMARK    1  A    between atoms: O1_1  and  C1_3 
REMARK    2  A    between atoms: N1_5  and  C3_6 
REMARK    3  A    between atoms: C3_6  and  O2_7 
REMARK    4  A    between atoms: O2_7  and  N2_8 
REMARK    5  A    between atoms: N2_8  and  C4_9 
REMARK    6  A    between atoms: C4_9  and  C5_10 
REMARK    7  A    between atoms: C5_10  and  O3_11 
REMARK    8  A    between atoms: N5_17  and  O4_18 
ROOT
HETATM    1  C1  UNL     1      -7.705   4.921  -6.685  1.00  0.00     0.204 A 
HETATM    2  C2  UNL     1      -8.134   6.110  -7.225  1.00  0.00     0.174 A 
HETATM    3  N1  UNL     1      -7.315   7.169  -7.401  1.00  0.00    -0.258 N 
HETATM    4  N3  UNL     1      -6.063   6.977  -7.012  1.00  0.00    -0.222 N 
ATOM      5  H3  UNL     1      -5.401   7.745  -7.122  1.00  0.00     0.210 HD
HETATM    6  N4  UNL     1      -5.627   5.850  -6.491  1.00  0.00    -0.199 N 
ATOM      7  H4  UNL     1      -4.648   5.775  -6.214  1.00  0.00     0.212 HD
HETATM    8  N5  UNL     1      -6.422   4.818  -6.320  1.00  0.00    -0.122 N 
ENDROOT
BRANCH   3   9
HETATM    9  C3  UNL     1      -7.763   8.426  -7.971  1.00  0.00     0.345 C 
BRANCH   9  10
HETATM   10  O2  UNL     1      -7.451   9.440  -7.070  1.00  0.00    -0.265 OA
BRANCH  10  11
HETATM   11  N2  UNL     1      -6.405  10.182  -7.486  1.00  0.00    -0.097 NA
BRANCH  11  12
HETATM   12  C4  UNL     1      -5.865  10.984  -6.415  1.00  0.00     0.168 C 
BRANCH  12  13
HETATM   13  C5  UNL     1      -6.374  10.422  -5.098  1.00  0.00     0.182 C 
BRANCH  13  14
HETATM   14  O3  UNL     1      -5.611   9.262  -4.857  1.00  0.00    -0.400 OA
ATOM     15  H3  UNL     1      -6.239   8.580  -4.646  1.00  0.00     0.209 HD
ENDBRANCH  13  14
ENDBRANCH  12  13
ENDBRANCH  11  12
ENDBRANCH  10  11
ENDBRANCH   9  10
ENDBRANCH   3   9
BRANCH   1  16
HETATM   16  O1  UNL     1      -8.598   3.863  -6.530  1.00  0.00    -0.342 OA
ATOM     17  H1  UNL     1      -8.278   3.003  -6.279  1.00  0.00     0.219 HD
ENDBRANCH   1  16
BRANCH   8  18
HETATM   18  O4  UNL     1      -5.936   3.631  -5.765  1.00  0.00    -0.265 OA
ATOM     19  H4  UNL     1      -5.331   3.654  -5.034  1.00  0.00     0.247 HD
ENDBRANCH   8  18
TORSDOF 8
ENDMDL
MODEL 4
REMARK VINA RESULT: -6.335732108      2.179      3.232
REMARK  8 active torsions:
REMARK  status: ('A' for Active; 'I' for Inactive)
REMARK    1  A    between atoms: O1_1  and  C1_3 
REMARK    2  A    between atoms: N1_5  and  C3_6 
REMARK    3  A    between atoms: C3_6  and  O2_7 
REMARK    4  A    between atoms: O2_7  and  N2_8 
REMARK    5  A    between atoms: N2_8  and  C4_9 
REMARK    6  A    between atoms: C4_9  and  C5_10 
REMARK    7  A    between atoms: C5_10  and  O3_11 
REMARK    8  A    between atoms: N5_17  and  O4_18 
ROOT
HETATM    1  C1  UNL     1      -5.673   5.928  -4.541  1.00  0.00     0.204 A 
HETATM    2  C2  UNL     1      -5.985   7.258  -4.688  1.00  0.00     0.174 A 
HETATM    3  N1  UNL     1      -6.097   7.852  -5.897  1.00  0.00    -0.258 N 
HETATM    4  N3  UNL     1      -5.882   7.055  -6.932  1.00  0.00    -0.222 N 
ATOM      5  H3  UNL     1      -5.954   7.452  -7.869  1.00  0.00     0.210 HD
HETATM    6  N4  UNL     1      -5.581   5.778  -6.819  1.00  0.00    -0.199 N 
ATOM      7  H4  UNL     1      -5.429   5.226  -7.662  1.00  0.00     0.212 HD
HETATM    8  N5  UNL     1      -5.472   5.199  -5.645  1.00  0.00    -0.122 N 
ENDROOT
BRANCH   3   9
HETATM    9  C3  UNL     1      -6.427   9.256  -6.057  1.00  0.00     0.345 C 
BRANCH   9  10
HETATM   10  O2  UNL     1      -7.436   9.351  -7.011  1.00  0.00    -0.265 OA
BRANCH  10  11
HETATM   11  N2  UNL     1      -6.969   9.784  -8.199  1.00  0.00    -0.097 NA
BRANCH  11  12
HETATM   12  C4  UNL     1      -7.487   8.996  -9.292  1.00  0.00     0.168 C 
BRANCH  12  13
HETATM   13  C5  UNL     1      -8.698   8.227  -8.789  1.00  0.00     0.182 C 
BRANCH  13  14
HETATM   14  O3  UNL     1      -8.246   6.913  -8.554  1.00  0.00    -0.400 OA
ATOM     15  H3  UNL     1      -8.825   6.348  -9.053  1.00  0.00     0.209 HD
ENDBRANCH  13  14
ENDBRANCH  12  13
ENDBRANCH  11  12
ENDBRANCH  10  11
ENDBRANCH   9  10
ENDBRANCH   3   9
BRANCH   1  16
HETATM   16  O1  UNL     1      -5.572   5.372  -3.268  1.00  0.00    -0.342 OA
ATOM     17  H1  UNL     1      -4.727   5.320  -2.836  1.00  0.00     0.219 HD
ENDBRANCH   1  16
BRANCH   8  18
HETATM   18  O4  UNL     1      -5.151   3.842  -5.549  1.00  0.00    -0.265 OA
ATOM     19  H4  UNL     1      -4.477   3.467  -6.101  1.00  0.00     0.247 HD
ENDBRANCH   8  18
TORSDOF 8
ENDMDL
MODEL 5
REMARK VINA RESULT: -6.311079326      1.423      1.445
REMARK  8 active torsions:
REMARK  status: ('A' for Active; 'I' for Inactive)
REMARK    1  A    between atoms: O1_1  and  C1_3 
REMARK    2  A    between atoms: N1_5  and  C3_6 
REMARK    3  A    between atoms: C3_6  and  O2_7 
REMARK    4  A    between atoms: O2_7  and  N2_8 
REMARK    5  A    between atoms: N2_8  and  C4_9 
REMARK    6  A    between atoms: C4_9  and  C5_10 
REMARK    7  A    between atoms: C5_10  and  O3_11 
REMARK    8  A    between atoms: N5_17  and  O4_18 
ROOT
HETATM    1  C1  UNL     1      -7.021   5.600  -5.333  1.00  0.00     0.204 A 
HETATM    2  C2  UNL     1      -6.518   6.877  -5.275  1.00  0.00     0.174 A 
HETATM    3  N1  UNL     1      -6.746   7.796  -6.239  1.00  0.00    -0.258 N 
HETATM    4  N3  UNL     1      -7.492   7.372  -7.248  1.00  0.00    -0.222 N 
ATOM      5  H3  UNL     1      -7.696   8.025  -8.004  1.00  0.00     0.210 HD
HETATM    6  N4  UNL     1      -7.985   6.154  -7.328  1.00  0.00    -0.199 N 
ATOM      7  H4  UNL     1      -8.551   5.899  -8.137  1.00  0.00     0.212 HD
HETATM    8  N5  UNL     1      -7.765   5.259  -6.392  1.00  0.00    -0.122 N 
ENDROOT
BRANCH   3   9
HETATM    9  C3  UNL     1      -6.218   9.146  -6.181  1.00  0.00     0.345 C 
BRANCH   9  10
HETATM   10  O2  UNL     1      -6.342   9.598  -4.871  1.00  0.00    -0.265 OA
BRANCH  10  11
HETATM   11  N2  UNL     1      -6.446  10.940  -4.807  1.00  0.00    -0.097 NA
BRANCH  11  12
HETATM   12  C4  UNL     1      -5.586  11.585  -5.771  1.00  0.00     0.168 C 
BRANCH  12  13
HETATM   13  C5  UNL     1      -4.388  12.156  -5.031  1.00  0.00     0.182 C 
BRANCH  13  14
HETATM   14  O3  UNL     1      -3.816  11.071  -4.335  1.00  0.00    -0.400 OA
ATOM     15  H3  UNL     1      -4.465  10.805  -3.694  1.00  0.00     0.209 HD
ENDBRANCH  13  14
ENDBRANCH  12  13
ENDBRANCH  11  12
ENDBRANCH  10  11
ENDBRANCH   9  10
ENDBRANCH   3   9
BRANCH   1  16
HETATM   16  O1  UNL     1      -6.752   4.696  -4.307  1.00  0.00    -0.342 OA
ATOM     17  H1  UNL     1      -7.419   4.497  -3.660  1.00  0.00     0.219 HD
ENDBRANCH   1  16
BRANCH   8  18
HETATM   18  O4  UNL     1      -8.298   3.973  -6.499  1.00  0.00    -0.265 OA
ATOM     19  H4  UNL     1      -7.960   3.363  -7.144  1.00  0.00     0.247 HD
ENDBRANCH   8  18
TORSDOF 8
ENDMDL
