MODEL 1
REMARK VINA RESULT: -5.996961076      0.000      0.000
REMARK  8 active torsions:
REMARK  status: ('A' for Active; 'I' for Inactive)
REMARK    1  A    between atoms: O1_1  and  C1_3 
REMARK    2  A    between atoms: C1_3  and  O2_4 
REMARK    3  A    between atoms: O2_4  and  C2_5 
REMARK    4  A    between atoms: C2_5  and  N1_6 
REMARK    5  A    between atoms: N2_8  and  C4_9 
REMARK    6  A    between atoms: C4_9  and  C5_10 
REMARK    7  A    between atoms: C5_10  and  O3_11 
REMARK    8  A    between atoms: N4_14  and  O4_15 
ROOT
HETATM    1  N1  UNL     1      -6.321   7.264  -5.801  1.00  0.00    -0.223 N 
HETATM    2  C3  UNL     1      -6.389   8.436  -6.455  1.00  0.00     0.224 A 
HETATM    3  N2  UNL     1      -6.025   9.407  -5.593  1.00  0.00    -0.265 N 
HETATM    4  N3  UNL     1      -5.747   8.810  -4.448  1.00  0.00     0.027 NA
HETATM    5  N4  UNL     1      -5.924   7.506  -4.563  1.00  0.00    -0.074 N 
ENDROOT
BRANCH   1   6
HETATM    6  C2  UNL     1      -6.638   5.971  -6.391  1.00  0.00     0.324 C 
BRANCH   6   7
HETATM    7  O2  UNL     1      -7.211   5.114  -5.449  1.00  0.00    -0.346 OA
BRANCH   7   8
HETATM    8  C1  UNL     1      -6.513   3.908  -5.512  1.00  0.00     0.336 C 
BRANCH   8   9
HETATM    9  O1  UNL     1      -5.905   3.726  -4.266  1.00  0.00    -0.377 OA
ATOM     10  H1  UNL     1      -5.151   3.164  -4.406  1.00  0.00     0.212 HD
ENDBRANCH   8   9
ENDBRANCH   7   8
ENDBRANCH   6   7
ENDBRANCH   1   6
BRANCH   5  11
HETATM   11  O4  UNL     1      -5.733   6.545  -3.574  1.00  0.00    -0.255 OA
ATOM     12  H4  UNL     1      -6.221   6.485  -2.761  1.00  0.00     0.248 HD
ENDBRANCH   5  11
BRANCH   3  13
HETATM   13  C4  UNL     1      -5.979  10.801  -5.944  1.00  0.00     0.173 C 
BRANCH  13  14
HETATM   14  C5  UNL     1      -5.303  11.657  -4.920  1.00  0.00     0.185 C 
BRANCH  14  15
HETATM   15  O3  UNL     1      -4.079  11.054  -4.610  1.00  0.00    -0.399 OA
ATOM     16  H3  UNL     1      -3.930  11.173  -3.679  1.00  0.00     0.209 HD
ENDBRANCH  14  15
ENDBRANCH  13  14
ENDBRANCH   3  13
TORSDOF 8
ENDMDL
MODEL 2
REMARK VINA RESULT: -5.814121061      1.078      1.306
REMARK  8 active torsions:
REMARK  status: ('A' for Active; 'I' for Inactive)
REMARK    1  A    between atoms: O1_1  and  C1_3 
REMARK    2  A    between atoms: C1_3  and  O2_4 
REMARK    3  A    between atoms: O2_4  and  C2_5 
REMARK    4  A    between atoms: C2_5  and  N1_6 
REMARK    5  A    between atoms: N2_8  and  C4_9 
REMARK    6  A    between atoms: C4_9  and  C5_10 
REMARK    7  A    between atoms: C5_10  and  O3_11 
REMARK    8  A    between atoms: N4_14  and  O4_15 
ROOT
HETATM    1  N1  UNL     1      -6.063   7.264  -6.082  1.00  0.00    -0.223 N 
HETATM    2  C3  UNL     1      -6.312   8.554  -6.368  1.00  0.00     0.224 A 
HETATM    3  N2  UNL     1      -6.114   9.268  -5.243  1.00  0.00    -0.265 N 
HETATM    4  N3  UNL     1      -5.752   8.408  -4.308  1.00  0.00     0.027 NA
HETATM    5  N4  UNL     1      -5.718   7.185  -4.808  1.00  0.00    -0.074 N 
ENDROOT
BRANCH   1   6
HETATM    6  C2  UNL     1      -6.165   6.172  -7.040  1.00  0.00     0.324 C 
BRANCH   6   7
HETATM    7  O2  UNL     1      -6.719   5.034  -6.449  1.00  0.00    -0.346 OA
BRANCH   7   8
HETATM    8  C1  UNL     1      -8.105   5.153  -6.547  1.00  0.00     0.336 C 
BRANCH   8   9
HETATM    9  O1  UNL     1      -8.625   3.855  -6.542  1.00  0.00    -0.377 OA
ATOM     10  H1  UNL     1      -8.309   3.434  -5.751  1.00  0.00     0.212 HD
ENDBRANCH   8   9
ENDBRANCH   7   8
ENDBRANCH   6   7
ENDBRANCH   1   6
BRANCH   5  11
HETATM   11  O4  UNL     1      -5.381   6.014  -4.133  1.00  0.00    -0.255 OA
ATOM     12  H4  UNL     1      -5.608   5.812  -3.233  1.00  0.00     0.248 HD
ENDBRANCH   5  11
BRANCH   3  13
HETATM   13  C4  UNL     1      -6.288  10.694  -5.169  1.00  0.00     0.173 C 
BRANCH  13  14
HETATM   14  C5  UNL     1      -5.016  11.465  -5.331  1.00  0.00     0.185 C 
BRANCH  14  15
HETATM   15  O3  UNL     1      -4.103  10.970  -4.394  1.00  0.00    -0.399 OA
ATOM     16  H3  UNL     1      -3.254  10.925  -4.819  1.00  0.00     0.209 HD
ENDBRANCH  14  15
ENDBRANCH  13  14
ENDBRANCH   3  13
TORSDOF 8
ENDMDL
MODEL 3
REMARK VINA RESULT: -5.812932909      2.690      3.298
REMARK  8 active torsions:
REMARK  status: ('A' for Active; 'I' for Inactive)
REMARK    1  A    between atoms: O1_1  and  C1_3 
REMARK    2  A    between atoms: C1_3  and  O2_4 
REMARK    3  A    between atoms: O2_4  and  C2_5 
REMARK    4  A    between atoms: C2_5  and  N1_6 
REMARK    5  A    between atoms: N2_8  and  C4_9 
REMARK    6  A    between atoms: C4_9  and  C5_10 
REMARK    7  A    between atoms: C5_10  and  O3_11 
REMARK    8  A    between atoms: N4_14  and  O4_15 
ROOT
HETATM    1  N1  UNL     1      -7.219   6.599  -6.192  1.00  0.00    -0.223 N 
HETATM    2  C3  UNL     1      -6.899   7.710  -6.877  1.00  0.00     0.224 A 
HETATM    3  N2  UNL     1      -7.569   7.676  -8.047  1.00  0.00    -0.265 N 
HETATM    4  N3  UNL     1      -8.272   6.558  -8.047  1.00  0.00     0.027 NA
HETATM    5  N4  UNL     1      -8.067   5.895  -6.923  1.00  0.00    -0.074 N 
ENDROOT
BRANCH   1   6
HETATM    6  C2  UNL     1      -6.699   6.265  -4.873  1.00  0.00     0.324 C 
BRANCH   6   7
HETATM    7  O2  UNL     1      -7.004   4.946  -4.530  1.00  0.00    -0.346 OA
BRANCH   7   8
HETATM    8  C1  UNL     1      -5.829   4.206  -4.657  1.00  0.00     0.336 C 
BRANCH   8   9
HETATM    9  O1  UNL     1      -5.953   3.444  -5.823  1.00  0.00    -0.377 OA
ATOM     10  H1  UNL     1      -5.125   2.994  -5.948  1.00  0.00     0.212 HD
ENDBRANCH   8   9
ENDBRANCH   7   8
ENDBRANCH   6   7
ENDBRANCH   1   6
BRANCH   5  11
HETATM   11  O4  UNL     1      -8.631   4.676  -6.555  1.00  0.00    -0.255 OA
ATOM     12  H4  UNL     1      -8.806   3.950  -7.142  1.00  0.00     0.248 HD
ENDBRANCH   5  11
BRANCH   3  13
HETATM   13  C4  UNL     1      -7.472   8.706  -9.045  1.00  0.00     0.173 C 
BRANCH  13  14
HETATM   14  C5  UNL     1      -6.774   9.942  -8.570  1.00  0.00     0.185 C 
BRANCH  14  15
HETATM   15  O3  UNL     1      -5.822  10.284  -9.537  1.00  0.00    -0.399 OA
ATOM     16  H3  UNL     1      -5.698  11.225  -9.494  1.00  0.00     0.209 HD
ENDBRANCH  14  15
ENDBRANCH  13  14
ENDBRANCH   3  13
TORSDOF 8
ENDMDL
MODEL 4
REMARK VINA RESULT: -5.676279270      2.879      3.584
REMARK  8 active torsions:
REMARK  status: ('A' for Active; 'I' for Inactive)
REMARK    1  A    between atoms: O1_1  and  C1_3 
REMARK    2  A    between atoms: C1_3  and  O2_4 
REMARK    3  A    between atoms: O2_4  and  C2_5 
REMARK    4  A    between atoms: C2_5  and  N1_6 
REMARK    5  A    between atoms: N2_8  and  C4_9 
REMARK    6  A    between atoms: C4_9  and  C5_10 
REMARK    7  A    between atoms: C5_10  and  O3_11 
REMARK    8  A    between atoms: N4_14  and  O4_15 
ROOT
HETATM    1  N1  UNL     1      -7.486   6.111  -6.101  1.00  0.00    -0.223 N 
HETATM    2  C3  UNL     1      -7.230   7.234  -6.795  1.00  0.00     0.224 A 
HETATM    3  N2  UNL     1      -7.763   7.085  -8.025  1.00  0.00    -0.265 N 
HETATM    4  N3  UNL     1      -8.323   5.889  -8.051  1.00  0.00     0.027 NA
HETATM    5  N4  UNL     1      -8.161   5.288  -6.886  1.00  0.00    -0.074 N 
ENDROOT
BRANCH   1   6
HETATM    6  C2  UNL     1      -7.073   5.881  -4.724  1.00  0.00     0.324 C 
BRANCH   6   7
HETATM    7  O2  UNL     1      -6.741   4.541  -4.515  1.00  0.00    -0.346 OA
BRANCH   7   8
HETATM    8  C1  UNL     1      -5.373   4.493  -4.245  1.00  0.00     0.336 C 
BRANCH   8   9
HETATM    9  O1  UNL     1      -5.161   5.259  -3.094  1.00  0.00    -0.377 OA
ATOM     10  H1  UNL     1      -5.431   6.147  -3.299  1.00  0.00     0.212 HD
ENDBRANCH   8   9
ENDBRANCH   7   8
ENDBRANCH   6   7
ENDBRANCH   1   6
BRANCH   5  11
HETATM   11  O4  UNL     1      -8.611   4.019  -6.529  1.00  0.00    -0.255 OA
ATOM     12  H4  UNL     1      -9.382   3.835  -6.006  1.00  0.00     0.248 HD
ENDBRANCH   5  11
BRANCH   3  13
HETATM   13  C4  UNL     1      -7.684   8.092  -9.049  1.00  0.00     0.173 C 
BRANCH  13  14
HETATM   14  C5  UNL     1      -7.313   9.447  -8.534  1.00  0.00     0.185 C 
BRANCH  14  15
HETATM   15  O3  UNL     1      -6.158   9.851  -9.213  1.00  0.00    -0.399 OA
ATOM     16  H3  UNL     1      -5.960  10.738  -8.935  1.00  0.00     0.209 HD
ENDBRANCH  14  15
ENDBRANCH  13  14
ENDBRANCH   3  13
TORSDOF 8
ENDMDL
MODEL 5
REMARK VINA RESULT: -5.652091788      1.244      1.389
REMARK  8 active torsions:
REMARK  status: ('A' for Active; 'I' for Inactive)
REMARK    1  A    between atoms: O1_1  and  C1_3 
REMARK    2  A    between atoms: C1_3  and  O2_4 
REMARK    3  A    between atoms: O2_4  and  C2_5 
REMARK    4  A    between atoms: C2_5  and  N1_6 
REMARK    5  A    between atoms: N2_8  and  C4_9 
REMARK    6  A    between atoms: C4_9  and  C5_10 
REMARK    7  A    between atoms: C5_10  and  O3_11 
REMARK    8  A    between atoms: N4_14  and  O4_15 
ROOT
HETATM    1  N1  UNL     1      -6.612   8.262  -6.285  1.00  0.00    -0.223 N 
HETATM    2  C3  UNL     1      -6.590   9.588  -6.508  1.00  0.00     0.224 A 
HETATM    3  N2  UNL     1      -5.961  10.168  -5.465  1.00  0.00    -0.265 N 
HETATM    4  N3  UNL     1      -5.620   9.194  -4.641  1.00  0.00     0.027 NA
HETATM    5  N4  UNL     1      -6.011   8.030  -5.130  1.00  0.00    -0.074 N 
ENDROOT
BRANCH   1   6
HETATM    6  C2  UNL     1      -7.206   7.285  -7.186  1.00  0.00     0.324 C 
BRANCH   6   7
HETATM    7  O2  UNL     1      -8.186   6.531  -6.536  1.00  0.00    -0.346 OA
BRANCH   7   8
HETATM    8  C1  UNL     1      -7.955   5.194  -6.855  1.00  0.00     0.336 C 
BRANCH   8   9
HETATM    9  O1  UNL     1      -7.379   4.601  -5.727  1.00  0.00    -0.377 OA
ATOM     10  H1  UNL     1      -7.147   3.712  -5.969  1.00  0.00     0.212 HD
ENDBRANCH   8   9
ENDBRANCH   7   8
ENDBRANCH   6   7
ENDBRANCH   1   6
BRANCH   5  11
HETATM   11  O4  UNL     1      -5.832   6.776  -4.551  1.00  0.00    -0.255 OA
ATOM     12  H4  UNL     1      -5.517   6.616  -3.669  1.00  0.00     0.248 HD
ENDBRANCH   5  11
BRANCH   3  13
HETATM   13  C4  UNL     1      -5.750  11.586  -5.358  1.00  0.00     0.173 C 
BRANCH  13  14
HETATM   14  C5  UNL     1      -4.307  11.981  -5.353  1.00  0.00     0.185 C 
BRANCH  14  15
HETATM   15  O3  UNL     1      -3.660  11.197  -4.391  1.00  0.00    -0.399 OA
ATOM     16  H3  UNL     1      -3.118  10.568  -4.853  1.00  0.00     0.209 HD
ENDBRANCH  14  15
ENDBRANCH  13  14
ENDBRANCH   3  13
TORSDOF 8
ENDMDL
