MODEL 1
REMARK VINA RESULT: -6.020495850      0.000      0.000
REMARK  7 active torsions:
REMARK  status: ('A' for Active; 'I' for Inactive)
REMARK    1  A    between atoms: N1_1  and  N2_4 
REMARK    2  A    between atoms: N4_9  and  C3_10 
REMARK    3  A    between atoms: C3_10  and  C4_11 
REMARK    4  A    between atoms: C4_11  and  N5_12 
REMARK    5  A    between atoms: N5_12  and  O1_13 
REMARK    6  A    between atoms: N5_12  and  N6_15 
REMARK    7  A    between atoms: C5_17  and  O2_18 
ROOT
HETATM    1  C3  UNL     1      -6.584   6.841  -7.057  1.00  0.00     0.175 C 
ENDROOT
BRANCH   1   2
HETATM    2  N4  UNL     1      -6.471   8.134  -6.482  1.00  0.00    -0.265 N 
HETATM    3  N2  UNL     1      -6.140   8.520  -5.258  1.00  0.00    -0.136 N 
HETATM    4  N3  UNL     1      -6.166   9.844  -5.183  1.00  0.00    -0.275 N 
HETATM    5  C1  UNL     1      -6.521  10.342  -6.382  1.00  0.00     0.129 A 
ATOM      6  H3  UNL     1      -5.953  10.396  -4.351  1.00  0.00     0.189 HD
HETATM    7  C2  UNL     1      -6.709   9.261  -7.184  1.00  0.00     0.132 A 
BRANCH   3   8
HETATM    8  N1  UNL     1      -5.824   7.648  -4.247  1.00  0.00    -0.309 N 
ATOM      9  H12 UNL     1      -5.681   7.935  -3.278  1.00  0.00     0.180 HD
ATOM     10  H11 UNL     1      -5.696   6.640  -4.330  1.00  0.00     0.180 HD
ENDBRANCH   3   8
ENDBRANCH   1   2
BRANCH   1  11
HETATM   11  C4  UNL     1      -7.877   6.131  -6.798  1.00  0.00     0.198 C 
BRANCH  11  12
HETATM   12  N5  UNL     1      -7.538   4.746  -6.477  1.00  0.00    -0.199 N 
BRANCH  12  13
HETATM   13  O1  UNL     1      -8.557   3.841  -6.509  1.00  0.00    -0.272 OA
ATOM     14  H1  UNL     1      -8.559   3.173  -5.833  1.00  0.00     0.246 HD
ENDBRANCH  12  13
BRANCH  12  15
HETATM   15  N6  UNL     1      -6.244   4.342  -6.150  1.00  0.00    -0.269 N 
HETATM   16  C5  UNL     1      -5.847   4.283  -4.931  1.00  0.00     0.241 C 
ATOM     17  H6  UNL     1      -5.598   4.088  -6.897  1.00  0.00     0.190 HD
BRANCH  16  18
HETATM   18  O2  UNL     1      -6.783   4.644  -3.947  1.00  0.00    -0.355 OA
ATOM     19  H2  UNL     1      -6.689   4.229  -3.098  1.00  0.00     0.218 HD
ENDBRANCH  16  18
ENDBRANCH  12  15
ENDBRANCH  11  12
ENDBRANCH   1  11
TORSDOF 7
ENDMDL
MODEL 2
REMARK VINA RESULT: -5.801113856      1.165      1.688
REMARK  7 active torsions:
REMARK  status: ('A' for Active; 'I' for Inactive)
REMARK    1  A    between atoms: N1_1  and  N2_4 
REMARK    2  A    between atoms: N4_9  and  C3_10 
REMARK    3  A    between atoms: C3_10  and  C4_11 
REMARK    4  A    between atoms: C4_11  and  N5_12 
REMARK    5  A    between atoms: N5_12  and  O1_13 
REMARK    6  A    between atoms: N5_12  and  N6_15 
REMARK    7  A    between atoms: C5_17  and  O2_18 
ROOT
HETATM    1  C3  UNL     1      -6.559   6.742  -7.280  1.00  0.00     0.175 C 
ENDROOT
BRANCH   1   2
HETATM    2  N4  UNL     1      -6.444   8.059  -6.760  1.00  0.00    -0.265 N 
HETATM    3  N2  UNL     1      -6.552   9.242  -7.347  1.00  0.00    -0.136 N 
HETATM    4  N3  UNL     1      -6.369  10.205  -6.453  1.00  0.00    -0.275 N 
HETATM    5  C1  UNL     1      -6.137   9.644  -5.251  1.00  0.00     0.129 A 
ATOM      6  H3  UNL     1      -6.399  11.207  -6.644  1.00  0.00     0.189 HD
HETATM    7  C2  UNL     1      -6.186   8.302  -5.459  1.00  0.00     0.132 A 
BRANCH   3   8
HETATM    8  N1  UNL     1      -6.815   9.406  -8.684  1.00  0.00    -0.309 N 
ATOM      9  H12 UNL     1      -7.747   9.328  -9.090  1.00  0.00     0.180 HD
ATOM     10  H11 UNL     1      -6.137   9.617  -9.416  1.00  0.00     0.180 HD
ENDBRANCH   3   8
ENDBRANCH   1   2
BRANCH   1  11
HETATM   11  C4  UNL     1      -7.869   6.062  -7.025  1.00  0.00     0.198 C 
BRANCH  11  12
HETATM   12  N5  UNL     1      -7.556   4.724  -6.528  1.00  0.00    -0.199 N 
BRANCH  12  13
HETATM   13  O1  UNL     1      -8.577   3.819  -6.513  1.00  0.00    -0.272 OA
ATOM     14  H1  UNL     1      -8.483   3.058  -7.074  1.00  0.00     0.246 HD
ENDBRANCH  12  13
BRANCH  12  15
HETATM   15  N6  UNL     1      -6.285   4.362  -6.085  1.00  0.00    -0.269 N 
HETATM   16  C5  UNL     1      -5.961   4.435  -4.845  1.00  0.00     0.241 C 
ATOM     17  H6  UNL     1      -5.597   4.030  -6.760  1.00  0.00     0.190 HD
BRANCH  16  18
HETATM   18  O2  UNL     1      -6.951   4.898  -3.963  1.00  0.00    -0.355 OA
ATOM     19  H2  UNL     1      -7.119   4.365  -3.195  1.00  0.00     0.218 HD
ENDBRANCH  16  18
ENDBRANCH  12  15
ENDBRANCH  11  12
ENDBRANCH   1  11
TORSDOF 7
ENDMDL
MODEL 3
REMARK VINA RESULT: -5.724743286      4.018      6.325
REMARK  7 active torsions:
REMARK  status: ('A' for Active; 'I' for Inactive)
REMARK    1  A    between atoms: N1_1  and  N2_4 
REMARK    2  A    between atoms: N4_9  and  C3_10 
REMARK    3  A    between atoms: C3_10  and  C4_11 
REMARK    4  A    between atoms: C4_11  and  N5_12 
REMARK    5  A    between atoms: N5_12  and  O1_13 
REMARK    6  A    between atoms: N5_12  and  N6_15 
REMARK    7  A    between atoms: C5_17  and  O2_18 
ROOT
HETATM    1  C3  UNL     1      -6.486  10.949  -5.728  1.00  0.00     0.175 C 
ENDROOT
BRANCH   1   2
HETATM    2  N4  UNL     1      -6.390   9.569  -6.054  1.00  0.00    -0.265 N 
HETATM    3  N2  UNL     1      -6.502   8.935  -7.212  1.00  0.00    -0.136 N 
HETATM    4  N3  UNL     1      -6.331   7.632  -7.028  1.00  0.00    -0.275 N 
HETATM    5  C1  UNL     1      -6.099   7.404  -5.722  1.00  0.00     0.129 A 
ATOM      6  H3  UNL     1      -6.369   6.920  -7.758  1.00  0.00     0.189 HD
HETATM    7  C2  UNL     1      -6.139   8.624  -5.126  1.00  0.00     0.132 A 
BRANCH   3   8
HETATM    8  N1  UNL     1      -6.759   9.568  -8.402  1.00  0.00    -0.309 N 
ATOM      9  H12 UNL     1      -6.675   9.115  -9.312  1.00  0.00     0.180 HD
ATOM     10  H11 UNL     1      -7.056  10.536  -8.525  1.00  0.00     0.180 HD
ENDBRANCH   3   8
ENDBRANCH   1   2
BRANCH   1  11
HETATM   11  C4  UNL     1      -5.248  11.756  -5.974  1.00  0.00     0.198 C 
BRANCH  11  12
HETATM   12  N5  UNL     1      -4.586  11.911  -4.681  1.00  0.00    -0.199 N 
BRANCH  12  13
HETATM   13  O1  UNL     1      -3.698  10.939  -4.324  1.00  0.00    -0.272 OA
ATOM     14  H1  UNL     1      -2.822  11.006  -4.685  1.00  0.00     0.246 HD
ENDBRANCH  12  13
BRANCH  12  15
HETATM   15  N6  UNL     1      -4.831  12.989  -3.832  1.00  0.00    -0.269 N 
HETATM   16  C5  UNL     1      -3.872  13.678  -3.328  1.00  0.00     0.241 C 
ATOM     17  H6  UNL     1      -5.794  13.235  -3.605  1.00  0.00     0.190 HD
BRANCH  16  18
HETATM   18  O2  UNL     1      -2.568  13.290  -3.679  1.00  0.00    -0.355 OA
ATOM     19  H2  UNL     1      -2.483  12.478  -4.164  1.00  0.00     0.218 HD
ENDBRANCH  16  18
ENDBRANCH  12  15
ENDBRANCH  11  12
ENDBRANCH   1  11
TORSDOF 7
ENDMDL
MODEL 4
REMARK VINA RESULT: -5.683974902      1.789      2.687
REMARK  7 active torsions:
REMARK  status: ('A' for Active; 'I' for Inactive)
REMARK    1  A    between atoms: N1_1  and  N2_4 
REMARK    2  A    between atoms: N4_9  and  C3_10 
REMARK    3  A    between atoms: C3_10  and  C4_11 
REMARK    4  A    between atoms: C4_11  and  N5_12 
REMARK    5  A    between atoms: N5_12  and  O1_13 
REMARK    6  A    between atoms: N5_12  and  N6_15 
REMARK    7  A    between atoms: C5_17  and  O2_18 
ROOT
HETATM    1  C3  UNL     1      -6.218   7.667  -5.811  1.00  0.00     0.175 C 
ENDROOT
BRANCH   1   2
HETATM    2  N4  UNL     1      -6.397   9.036  -6.144  1.00  0.00    -0.265 N 
HETATM    3  N2  UNL     1      -6.658   9.627  -7.301  1.00  0.00    -0.136 N 
HETATM    4  N3  UNL     1      -6.743  10.939  -7.125  1.00  0.00    -0.275 N 
HETATM    5  C1  UNL     1      -6.536  11.219  -5.825  1.00  0.00     0.129 A 
ATOM      6  H3  UNL     1      -6.935  11.625  -7.856  1.00  0.00     0.189 HD
HETATM    7  C2  UNL     1      -6.320  10.019  -5.224  1.00  0.00     0.132 A 
BRANCH   3   8
HETATM    8  N1  UNL     1      -6.809   8.948  -8.483  1.00  0.00    -0.309 N 
ATOM      9  H12 UNL     1      -7.183   9.370  -9.333  1.00  0.00     0.180 HD
ATOM     10  H11 UNL     1      -6.577   7.970  -8.658  1.00  0.00     0.180 HD
ENDBRANCH   3   8
ENDBRANCH   1   2
BRANCH   1  11
HETATM   11  C4  UNL     1      -5.899   7.390  -4.374  1.00  0.00     0.198 C 
BRANCH  11  12
HETATM   12  N5  UNL     1      -5.368   6.030  -4.317  1.00  0.00    -0.199 N 
BRANCH  12  13
HETATM   13  O1  UNL     1      -5.235   5.473  -3.079  1.00  0.00    -0.272 OA
ATOM     14  H1  UNL     1      -5.846   4.782  -2.853  1.00  0.00     0.246 HD
ENDBRANCH  12  13
BRANCH  12  15
HETATM   15  N6  UNL     1      -5.006   5.313  -5.457  1.00  0.00    -0.269 N 
HETATM   16  C5  UNL     1      -5.494   4.150  -5.701  1.00  0.00     0.241 C 
ATOM     17  H6  UNL     1      -4.339   5.720  -6.111  1.00  0.00     0.190 HD
BRANCH  16  18
HETATM   18  O2  UNL     1      -6.408   3.643  -4.763  1.00  0.00    -0.355 OA
ATOM     19  H2  UNL     1      -6.455   2.697  -4.684  1.00  0.00     0.218 HD
ENDBRANCH  16  18
ENDBRANCH  12  15
ENDBRANCH  11  12
ENDBRANCH   1  11
TORSDOF 7
ENDMDL
MODEL 5
REMARK VINA RESULT: -5.664957105      1.761      2.384
REMARK  7 active torsions:
REMARK  status: ('A' for Active; 'I' for Inactive)
REMARK    1  A    between atoms: N1_1  and  N2_4 
REMARK    2  A    between atoms: N4_9  and  C3_10 
REMARK    3  A    between atoms: C3_10  and  C4_11 
REMARK    4  A    between atoms: C4_11  and  N5_12 
REMARK    5  A    between atoms: N5_12  and  O1_13 
REMARK    6  A    between atoms: N5_12  and  N6_15 
REMARK    7  A    between atoms: C5_17  and  O2_18 
ROOT
HETATM    1  C3  UNL     1      -7.414   6.397  -7.049  1.00  0.00     0.175 C 
ENDROOT
BRANCH   1   2
HETATM    2  N4  UNL     1      -7.288   7.805  -7.189  1.00  0.00    -0.265 N 
HETATM    3  N2  UNL     1      -7.860   8.654  -8.031  1.00  0.00    -0.136 N 
HETATM    4  N3  UNL     1      -7.438   9.886  -7.781  1.00  0.00    -0.275 N 
HETATM    5  C1  UNL     1      -6.571   9.849  -6.752  1.00  0.00     0.129 A 
ATOM      6  H3  UNL     1      -7.724  10.725  -8.286  1.00  0.00     0.189 HD
HETATM    7  C2  UNL     1      -6.487   8.541  -6.393  1.00  0.00     0.132 A 
BRANCH   3   8
HETATM    8  N1  UNL     1      -8.751   8.274  -9.003  1.00  0.00    -0.309 N 
ATOM      9  H12 UNL     1      -8.554   8.328 -10.002  1.00  0.00     0.180 HD
ATOM     10  H11 UNL     1      -9.691   7.904  -8.857  1.00  0.00     0.180 HD
ENDBRANCH   3   8
ENDBRANCH   1   2
BRANCH   1  11
HETATM   11  C4  UNL     1      -6.182   5.607  -7.369  1.00  0.00     0.198 C 
BRANCH  11  12
HETATM   12  N5  UNL     1      -5.818   4.888  -6.149  1.00  0.00    -0.199 N 
BRANCH  12  13
HETATM   13  O1  UNL     1      -6.310   3.623  -6.012  1.00  0.00    -0.272 OA
ATOM     14  H1  UNL     1      -6.496   3.147  -6.812  1.00  0.00     0.246 HD
ENDBRANCH  12  13
BRANCH  12  15
HETATM   15  N6  UNL     1      -5.010   5.443  -5.158  1.00  0.00    -0.269 N 
HETATM   16  C5  UNL     1      -5.480   5.754  -4.005  1.00  0.00     0.241 C 
ATOM     17  H6  UNL     1      -4.023   5.606  -5.354  1.00  0.00     0.190 HD
BRANCH  16  18
HETATM   18  O2  UNL     1      -6.847   5.505  -3.796  1.00  0.00    -0.355 OA
ATOM     19  H2  UNL     1      -7.443   6.217  -3.993  1.00  0.00     0.218 HD
ENDBRANCH  16  18
ENDBRANCH  12  15
ENDBRANCH  11  12
ENDBRANCH   1  11
TORSDOF 7
ENDMDL
