MODEL 1
REMARK VINA RESULT: -6.734686607      0.000      0.000
REMARK  8 active torsions:
REMARK  status: ('A' for Active; 'I' for Inactive)
REMARK    1  A    between atoms: N2_4  and  C1_6 
REMARK    2  A    between atoms: C1_6  and  O1_7 
REMARK    3  A    between atoms: O1_7  and  C2_8 
REMARK    4  A    between atoms: C2_8  and  C3_9 
REMARK    5  A    between atoms: C2_8  and  C4_13 
REMARK    6  A    between atoms: C3_9  and  O2_10 
REMARK    7  A    between atoms: O2_10  and  O3_11 
REMARK    8  A    between atoms: N5_18  and  O5_19 
ROOT
HETATM    1  C2  UNL     1      -6.881   6.959  -6.825  1.00  0.00     0.223 C 
ENDROOT
BRANCH   1   2
HETATM    2  O1  UNL     1      -7.790   8.005  -6.899  1.00  0.00    -0.356 OA
BRANCH   2   3
HETATM    3  C1  UNL     1      -7.631   8.728  -8.082  1.00  0.00     0.308 C 
BRANCH   3   4
HETATM    4  N2  UNL     1      -6.385   9.409  -7.971  1.00  0.00    -0.320 N 
HETATM    5  N1  UNL     1      -6.010  10.112  -8.909  1.00  0.00    -0.348 N 
ATOM      6  H12 UNL     1      -6.593  10.195  -9.743  1.00  0.00     0.176 HD
ATOM      7  H11 UNL     1      -5.118  10.600  -8.830  1.00  0.00     0.176 HD
ATOM      8  H2  UNL     1      -5.814   9.315  -7.131  1.00  0.00     0.182 HD
ENDBRANCH   3   4
ENDBRANCH   2   3
ENDBRANCH   1   2
BRANCH   1   9
HETATM    9  C3  UNL     1      -7.581   5.723  -7.360  1.00  0.00     0.249 C 
BRANCH   9  10
HETATM   10  O2  UNL     1      -8.594   5.299  -6.515  1.00  0.00    -0.240 OA
BRANCH  10  11
HETATM   11  O3  UNL     1      -8.561   3.978  -6.512  1.00  0.00    -0.251 OA
ATOM     12  H3  UNL     1      -8.248   3.713  -5.654  1.00  0.00     0.253 HD
ENDBRANCH  10  11
ENDBRANCH   9  10
ENDBRANCH   1   9
BRANCH   1  13
HETATM   13  C4  UNL     1      -6.455   6.811  -5.437  1.00  0.00     0.182 A 
HETATM   14  N3  UNL     1      -6.421   5.658  -4.747  1.00  0.00    -0.259 N 
HETATM   15  N4  UNL     1      -5.979   5.946  -3.531  1.00  0.00     0.051 NA
ATOM     16  H3  UNL     1      -6.685   4.735  -5.094  1.00  0.00     0.186 HD
HETATM   17  O4  UNL     1      -5.737   7.213  -3.428  1.00  0.00    -0.112 OA
HETATM   18  N5  UNL     1      -6.022   7.750  -4.577  1.00  0.00    -0.088 N 
BRANCH  18  19
HETATM   19  O5  UNL     1      -5.894   8.973  -4.805  1.00  0.00    -0.260 OA
ATOM     20  H5  UNL     1      -5.246   9.558  -4.428  1.00  0.00     0.247 HD
ENDBRANCH  18  19
ENDBRANCH   1  13
TORSDOF 8
ENDMDL
MODEL 2
REMARK VINA RESULT: -6.684759985      1.260      1.586
REMARK  8 active torsions:
REMARK  status: ('A' for Active; 'I' for Inactive)
REMARK    1  A    between atoms: N2_4  and  C1_6 
REMARK    2  A    between atoms: C1_6  and  O1_7 
REMARK    3  A    between atoms: O1_7  and  C2_8 
REMARK    4  A    between atoms: C2_8  and  C3_9 
REMARK    5  A    between atoms: C2_8  and  C4_13 
REMARK    6  A    between atoms: C3_9  and  O2_10 
REMARK    7  A    between atoms: O2_10  and  O3_11 
REMARK    8  A    between atoms: N5_18  and  O5_19 
ROOT
HETATM    1  C2  UNL     1      -6.606   6.512  -6.459  1.00  0.00     0.223 C 
ENDROOT
BRANCH   1   2
HETATM    2  O1  UNL     1      -7.165   7.733  -6.107  1.00  0.00    -0.356 OA
BRANCH   2   3
HETATM    3  C1  UNL     1      -6.797   8.734  -7.007  1.00  0.00     0.308 C 
BRANCH   3   4
HETATM    4  N2  UNL     1      -6.046   9.687  -6.261  1.00  0.00    -0.320 N 
HETATM    5  N1  UNL     1      -6.424   9.981  -5.127  1.00  0.00    -0.348 N 
ATOM      6  H12 UNL     1      -7.260   9.540  -4.743  1.00  0.00     0.176 HD
ATOM      7  H11 UNL     1      -5.886  10.664  -4.593  1.00  0.00     0.176 HD
ATOM      8  H2  UNL     1      -5.212  10.118  -6.660  1.00  0.00     0.182 HD
ENDBRANCH   3   4
ENDBRANCH   2   3
ENDBRANCH   1   2
BRANCH   1   9
HETATM    9  C3  UNL     1      -7.670   5.737  -7.215  1.00  0.00     0.249 C 
BRANCH   9  10
HETATM   10  O2  UNL     1      -8.628   5.214  -6.362  1.00  0.00    -0.240 OA
BRANCH  10  11
HETATM   11  O3  UNL     1      -8.629   3.905  -6.546  1.00  0.00    -0.251 OA
ATOM     12  H3  UNL     1      -9.409   3.569  -6.120  1.00  0.00     0.253 HD
ENDBRANCH  10  11
ENDBRANCH   9  10
ENDBRANCH   1   9
BRANCH   1  13
HETATM   13  C4  UNL     1      -6.169   5.833  -5.244  1.00  0.00     0.182 A 
HETATM   14  N3  UNL     1      -6.090   4.502  -5.076  1.00  0.00    -0.259 N 
HETATM   15  N4  UNL     1      -5.654   4.292  -3.841  1.00  0.00     0.051 NA
ATOM     16  H3  UNL     1      -6.322   3.788  -5.767  1.00  0.00     0.186 HD
HETATM   17  O4  UNL     1      -5.458   5.418  -3.235  1.00  0.00    -0.112 OA
HETATM   18  N5  UNL     1      -5.767   6.361  -4.074  1.00  0.00    -0.088 N 
BRANCH  18  19
HETATM   19  O5  UNL     1      -5.684   7.576  -3.789  1.00  0.00    -0.260 OA
ATOM     20  H5  UNL     1      -5.130   7.969  -3.124  1.00  0.00     0.247 HD
ENDBRANCH  18  19
ENDBRANCH   1  13
TORSDOF 8
ENDMDL
MODEL 3
REMARK VINA RESULT: -6.435076156      1.571      1.924
REMARK  8 active torsions:
REMARK  status: ('A' for Active; 'I' for Inactive)
REMARK    1  A    between atoms: N2_4  and  C1_6 
REMARK    2  A    between atoms: C1_6  and  O1_7 
REMARK    3  A    between atoms: O1_7  and  C2_8 
REMARK    4  A    between atoms: C2_8  and  C3_9 
REMARK    5  A    between atoms: C2_8  and  C4_13 
REMARK    6  A    between atoms: C3_9  and  O2_10 
REMARK    7  A    between atoms: O2_10  and  O3_11 
REMARK    8  A    between atoms: N5_18  and  O5_19 
ROOT
HETATM    1  C2  UNL     1      -6.840   6.414  -6.543  1.00  0.00     0.223 C 
ENDROOT
BRANCH   1   2
HETATM    2  O1  UNL     1      -7.187   7.654  -6.027  1.00  0.00    -0.356 OA
BRANCH   2   3
HETATM    3  C1  UNL     1      -6.444   8.674  -6.622  1.00  0.00     0.308 C 
BRANCH   3   4
HETATM    4  N2  UNL     1      -7.262   9.218  -7.653  1.00  0.00    -0.320 N 
HETATM    5  N1  UNL     1      -6.803   9.295  -8.792  1.00  0.00    -0.348 N 
ATOM      6  H12 UNL     1      -5.853   8.971  -8.978  1.00  0.00     0.176 HD
ATOM      7  H11 UNL     1      -7.389   9.684  -9.531  1.00  0.00     0.176 HD
ATOM      8  H2  UNL     1      -8.209   9.537  -7.451  1.00  0.00     0.182 HD
ENDBRANCH   3   4
ENDBRANCH   2   3
ENDBRANCH   1   2
BRANCH   1   9
HETATM    9  C3  UNL     1      -8.059   5.878  -7.272  1.00  0.00     0.249 C 
BRANCH   9  10
HETATM   10  O2  UNL     1      -8.157   6.389  -8.556  1.00  0.00    -0.240 OA
BRANCH  10  11
HETATM   11  O3  UNL     1      -6.929   6.429  -9.045  1.00  0.00    -0.251 OA
ATOM     12  H3  UNL     1      -6.530   7.228  -8.720  1.00  0.00     0.253 HD
ENDBRANCH  10  11
ENDBRANCH   9  10
ENDBRANCH   1   9
BRANCH   1  13
HETATM   13  C4  UNL     1      -6.417   5.554  -5.443  1.00  0.00     0.182 A 
HETATM   14  N3  UNL     1      -6.318   4.215  -5.489  1.00  0.00    -0.259 N 
HETATM   15  N4  UNL     1      -5.904   3.815  -4.294  1.00  0.00     0.051 NA
ATOM     16  H3  UNL     1      -6.522   3.619  -6.291  1.00  0.00     0.186 HD
HETATM   17  O4  UNL     1      -5.741   4.831  -3.511  1.00  0.00    -0.112 OA
HETATM   18  N5  UNL     1      -6.049   5.893  -4.194  1.00  0.00    -0.088 N 
BRANCH  18  19
HETATM   19  O5  UNL     1      -5.994   7.047  -3.715  1.00  0.00    -0.260 OA
ATOM     20  H5  UNL     1      -6.198   7.304  -2.823  1.00  0.00     0.247 HD
ENDBRANCH  18  19
ENDBRANCH   1  13
TORSDOF 8
ENDMDL
MODEL 4
REMARK VINA RESULT: -6.361729136      1.812      3.326
REMARK  8 active torsions:
REMARK  status: ('A' for Active; 'I' for Inactive)
REMARK    1  A    between atoms: N2_4  and  C1_6 
REMARK    2  A    between atoms: C1_6  and  O1_7 
REMARK    3  A    between atoms: O1_7  and  C2_8 
REMARK    4  A    between atoms: C2_8  and  C3_9 
REMARK    5  A    between atoms: C2_8  and  C4_13 
REMARK    6  A    between atoms: C3_9  and  O2_10 
REMARK    7  A    between atoms: O2_10  and  O3_11 
REMARK    8  A    between atoms: N5_18  and  O5_19 
ROOT
HETATM    1  C2  UNL     1      -6.868   6.573  -5.981  1.00  0.00     0.223 C 
ENDROOT
BRANCH   1   2
HETATM    2  O1  UNL     1      -6.695   5.948  -7.208  1.00  0.00    -0.356 OA
BRANCH   2   3
HETATM    3  C1  UNL     1      -7.747   6.243  -8.076  1.00  0.00     0.308 C 
BRANCH   3   4
HETATM    4  N2  UNL     1      -7.152   6.698  -9.287  1.00  0.00    -0.320 N 
HETATM    5  N1  UNL     1      -7.259   7.887  -9.587  1.00  0.00    -0.348 N 
ATOM      6  H12 UNL     1      -7.767   8.521  -8.969  1.00  0.00     0.176 HD
ATOM      7  H11 UNL     1      -6.833   8.213 -10.455  1.00  0.00     0.176 HD
ATOM      8  H2  UNL     1      -6.648   6.051  -9.894  1.00  0.00     0.182 HD
ENDBRANCH   3   4
ENDBRANCH   2   3
ENDBRANCH   1   2
BRANCH   1   9
HETATM    9  C3  UNL     1      -6.222   7.942  -6.084  1.00  0.00     0.249 C 
BRANCH   9  10
HETATM   10  O2  UNL     1      -6.498   8.726  -4.975  1.00  0.00    -0.240 OA
BRANCH  10  11
HETATM   11  O3  UNL     1      -5.359   9.289  -4.612  1.00  0.00    -0.251 OA
ATOM     12  H3  UNL     1      -5.417   9.450  -3.677  1.00  0.00     0.253 HD
ENDBRANCH  10  11
ENDBRANCH   9  10
ENDBRANCH   1   9
BRANCH   1  13
HETATM   13  C4  UNL     1      -6.263   5.740  -4.946  1.00  0.00     0.182 A 
HETATM   14  N3  UNL     1      -5.576   6.189  -3.882  1.00  0.00    -0.259 N 
HETATM   15  N4  UNL     1      -5.196   5.125  -3.188  1.00  0.00     0.051 NA
ATOM     16  H3  UNL     1      -5.382   7.163  -3.652  1.00  0.00     0.186 HD
HETATM   17  O4  UNL     1      -5.610   4.042  -3.762  1.00  0.00    -0.112 OA
HETATM   18  N5  UNL     1      -6.259   4.400  -4.830  1.00  0.00    -0.088 N 
BRANCH  18  19
HETATM   19  O5  UNL     1      -6.789   3.578  -5.610  1.00  0.00    -0.260 OA
ATOM     20  H5  UNL     1      -6.395   3.193  -6.385  1.00  0.00     0.247 HD
ENDBRANCH  18  19
ENDBRANCH   1  13
TORSDOF 8
ENDMDL
MODEL 5
REMARK VINA RESULT: -6.333789187      1.796      2.066
REMARK  8 active torsions:
REMARK  status: ('A' for Active; 'I' for Inactive)
REMARK    1  A    between atoms: N2_4  and  C1_6 
REMARK    2  A    between atoms: C1_6  and  O1_7 
REMARK    3  A    between atoms: O1_7  and  C2_8 
REMARK    4  A    between atoms: C2_8  and  C3_9 
REMARK    5  A    between atoms: C2_8  and  C4_13 
REMARK    6  A    between atoms: C3_9  and  O2_10 
REMARK    7  A    between atoms: O2_10  and  O3_11 
REMARK    8  A    between atoms: N5_18  and  O5_19 
ROOT
HETATM    1  C2  UNL     1      -6.561   5.998  -6.626  1.00  0.00     0.223 C 
ENDROOT
BRANCH   1   2
HETATM    2  O1  UNL     1      -7.675   6.495  -7.288  1.00  0.00    -0.356 OA
BRANCH   2   3
HETATM    3  C1  UNL     1      -7.513   6.423  -8.672  1.00  0.00     0.308 C 
BRANCH   3   4
HETATM    4  N2  UNL     1      -7.250   7.750  -9.115  1.00  0.00    -0.320 N 
HETATM    5  N1  UNL     1      -8.159   8.579  -9.072  1.00  0.00    -0.348 N 
ATOM      6  H12 UNL     1      -9.077   8.305  -8.722  1.00  0.00     0.176 HD
ATOM      7  H11 UNL     1      -7.970   9.530  -9.389  1.00  0.00     0.176 HD
ATOM      8  H2  UNL     1      -6.326   8.008  -9.463  1.00  0.00     0.182 HD
ENDBRANCH   3   4
ENDBRANCH   2   3
ENDBRANCH   1   2
BRANCH   1   9
HETATM    9  C3  UNL     1      -6.946   4.643  -6.063  1.00  0.00     0.249 C 
BRANCH   9  10
HETATM   10  O2  UNL     1      -5.834   3.913  -5.674  1.00  0.00    -0.240 OA
BRANCH  10  11
HETATM   11  O3  UNL     1      -5.971   3.667  -4.383  1.00  0.00    -0.251 OA
ATOM     12  H3  UNL     1      -5.441   2.902  -4.192  1.00  0.00     0.253 HD
ENDBRANCH  10  11
ENDBRANCH   9  10
ENDBRANCH   1   9
BRANCH   1  13
HETATM   13  C4  UNL     1      -6.173   6.950  -5.591  1.00  0.00     0.182 A 
HETATM   14  N3  UNL     1      -5.772   6.635  -4.347  1.00  0.00    -0.259 N 
HETATM   15  N4  UNL     1      -5.513   7.775  -3.722  1.00  0.00     0.051 NA
ATOM     16  H3  UNL     1      -5.684   5.696  -3.958  1.00  0.00     0.186 HD
HETATM   17  O4  UNL     1      -5.731   8.779  -4.508  1.00  0.00    -0.112 OA
HETATM   18  N5  UNL     1      -6.132   8.294  -5.645  1.00  0.00    -0.088 N 
BRANCH  18  19
HETATM   19  O5  UNL     1      -6.427   9.014  -6.624  1.00  0.00    -0.260 OA
ATOM     20  H5  UNL     1      -5.900   9.712  -6.997  1.00  0.00     0.247 HD
ENDBRANCH  18  19
ENDBRANCH   1  13
TORSDOF 8
ENDMDL
