MODEL 1
REMARK VINA RESULT: -6.417614047      0.000      0.000
REMARK  3 active torsions:
REMARK  status: ('A' for Active; 'I' for Inactive)
REMARK    1  A    between atoms: C2_2  and  N1_3 
REMARK    2  A    between atoms: C14_15  and  C16_17 
REMARK    3  A    between atoms: C16_17  and  O1_18 
ROOT
HETATM    1  N1  UNL     1       1.079  -2.011 -28.617  1.00  0.00    -0.384 N 
HETATM    2  C3  UNL     1       0.181  -1.047 -27.981  1.00  0.00     0.123 C 
HETATM    3  C4  UNL     1      -0.967  -1.834 -27.453  1.00  0.00     0.033 C 
HETATM    4  C5  UNL     1      -0.564  -2.914 -26.471  1.00  0.00    -0.013 C 
HETATM    5  C6  UNL     1      -0.440  -2.205 -25.117  1.00  0.00     0.020 C 
HETATM    6  C7  UNL     1      -1.754  -3.838 -26.411  1.00  0.00     0.020 C 
HETATM    7  C8  UNL     1       0.703  -3.571 -26.863  1.00  0.00     0.019 C 
HETATM    8  C9  UNL     1       1.480  -3.157 -27.868  1.00  0.00     0.018 C 
HETATM    9  C10 UNL     1       2.726  -3.799 -28.273  1.00  0.00     0.067 C 
HETATM   10  C11 UNL     1       3.187  -4.996 -27.544  1.00  0.00    -0.026 C 
HETATM   11  C12 UNL     1       4.703  -4.853 -27.304  1.00  0.00     0.016 C 
HETATM   12  C13 UNL     1       3.107  -6.174 -28.531  1.00  0.00     0.016 C 
HETATM   13  C14 UNL     1       2.505  -5.363 -26.292  1.00  0.00     0.050 C 
HETATM   14  C15 UNL     1       3.273  -4.895 -25.045  1.00  0.00     0.027 C 
HETATM   15  C17 UNL     1       1.159  -4.721 -26.126  1.00  0.00     0.169 C 
HETATM   16  O2  UNL     1       0.431  -5.277 -25.263  1.00  0.00    -0.292 OA
ENDROOT
BRANCH  13  17
HETATM   17  C16 UNL     1       2.285  -6.847 -26.089  1.00  0.00     0.182 C 
BRANCH  17  18
HETATM   18  O1  UNL     1       2.456  -7.298 -24.809  1.00  0.00    -0.400 OA
ATOM     19  H1  UNL     1       3.327  -7.614 -24.600  1.00  0.00     0.209 HD
ENDBRANCH  17  18
ENDBRANCH  13  17
BRANCH   1  20
HETATM   20  C2  UNL     1       1.486  -1.705 -29.959  1.00  0.00     0.118 C 
HETATM   21  C1  UNL     1       1.131  -0.239 -30.225  1.00  0.00     0.026 C 
ENDBRANCH   1  20
TORSDOF 3
ENDMDL
MODEL 2
REMARK VINA RESULT: -6.072581443      2.422      4.959
REMARK  3 active torsions:
REMARK  status: ('A' for Active; 'I' for Inactive)
REMARK    1  A    between atoms: C2_2  and  N1_3 
REMARK    2  A    between atoms: C14_15  and  C16_17 
REMARK    3  A    between atoms: C16_17  and  O1_18 
ROOT
HETATM    1  N1  UNL     1       2.417  -4.624 -26.707  1.00  0.00    -0.384 N 
HETATM    2  C3  UNL     1       1.413  -5.621 -26.334  1.00  0.00     0.123 C 
HETATM    3  C4  UNL     1       0.484  -4.942 -25.388  1.00  0.00     0.033 C 
HETATM    4  C5  UNL     1      -0.178  -3.709 -25.965  1.00  0.00    -0.013 C 
HETATM    5  C6  UNL     1      -1.383  -4.230 -26.757  1.00  0.00     0.020 C 
HETATM    6  C7  UNL     1      -0.694  -2.957 -24.765  1.00  0.00     0.020 C 
HETATM    7  C8  UNL     1       0.748  -2.935 -26.821  1.00  0.00     0.019 C 
HETATM    8  C9  UNL     1       1.966  -3.354 -27.175  1.00  0.00     0.018 C 
HETATM    9  C10 UNL     1       2.894  -2.600 -28.010  1.00  0.00     0.067 C 
HETATM   10  C11 UNL     1       2.490  -1.273 -28.514  1.00  0.00    -0.026 C 
HETATM   11  C12 UNL     1       2.912  -1.177 -29.994  1.00  0.00     0.016 C 
HETATM   12  C13 UNL     1       3.405  -0.242 -27.831  1.00  0.00     0.016 C 
HETATM   13  C14 UNL     1       1.087  -0.858 -28.357  1.00  0.00     0.050 C 
HETATM   14  C15 UNL     1       0.265  -1.066 -29.639  1.00  0.00     0.027 C 
HETATM   15  C17 UNL     1       0.332  -1.655 -27.333  1.00  0.00     0.169 C 
HETATM   16  O2  UNL     1      -0.730  -1.107 -26.941  1.00  0.00    -0.292 OA
ENDROOT
BRANCH  13  17
HETATM   17  C16 UNL     1       0.882   0.595 -27.985  1.00  0.00     0.182 C 
BRANCH  17  18
HETATM   18  O1  UNL     1      -0.296   1.149 -28.404  1.00  0.00    -0.400 OA
ATOM     19  H1  UNL     1      -1.035   0.554 -28.447  1.00  0.00     0.209 HD
ENDBRANCH  17  18
ENDBRANCH  13  17
BRANCH   1  20
HETATM   20  C2  UNL     1       3.787  -5.028 -26.570  1.00  0.00     0.118 C 
HETATM   21  C1  UNL     1       3.969  -5.570 -25.149  1.00  0.00     0.026 C 
ENDBRANCH   1  20
TORSDOF 3
ENDMDL
MODEL 3
REMARK VINA RESULT: -6.033886651      2.584      4.911
REMARK  3 active torsions:
REMARK  status: ('A' for Active; 'I' for Inactive)
REMARK    1  A    between atoms: C2_2  and  N1_3 
REMARK    2  A    between atoms: C14_15  and  C16_17 
REMARK    3  A    between atoms: C16_17  and  O1_18 
ROOT
HETATM    1  N1  UNL     1      -0.490  -3.074 -26.432  1.00  0.00    -0.384 N 
HETATM    2  C3  UNL     1      -0.130  -4.092 -25.445  1.00  0.00     0.123 C 
HETATM    3  C4  UNL     1       0.722  -5.082 -26.160  1.00  0.00     0.033 C 
HETATM    4  C5  UNL     1       1.964  -4.479 -26.781  1.00  0.00    -0.013 C 
HETATM    5  C6  UNL     1       2.997  -4.423 -25.649  1.00  0.00     0.020 C 
HETATM    6  C7  UNL     1       2.424  -5.504 -27.786  1.00  0.00     0.020 C 
HETATM    7  C8  UNL     1       1.702  -3.138 -27.350  1.00  0.00     0.019 C 
HETATM    8  C9  UNL     1       0.555  -2.471 -27.193  1.00  0.00     0.018 C 
HETATM    9  C10 UNL     1       0.277  -1.154 -27.755  1.00  0.00     0.067 C 
HETATM   10  C11 UNL     1       1.315  -0.484 -28.563  1.00  0.00    -0.026 C 
HETATM   11  C12 UNL     1       1.365   0.997 -28.139  1.00  0.00     0.016 C 
HETATM   12  C13 UNL     1       0.776  -0.409 -30.002  1.00  0.00     0.016 C 
HETATM   13  C14 UNL     1       2.671  -1.056 -28.579  1.00  0.00     0.050 C 
HETATM   14  C15 UNL     1       3.626  -0.330 -27.618  1.00  0.00     0.027 C 
HETATM   15  C17 UNL     1       2.732  -2.480 -28.111  1.00  0.00     0.169 C 
HETATM   16  O2  UNL     1       3.788  -3.081 -28.440  1.00  0.00    -0.292 OA
ENDROOT
BRANCH  13  17
HETATM   17  C16 UNL     1       3.365  -1.031 -29.924  1.00  0.00     0.182 C 
BRANCH  17  18
HETATM   18  O1  UNL     1       4.720  -0.848 -29.884  1.00  0.00    -0.400 OA
ATOM     19  H1  UNL     1       5.009  -0.010 -29.542  1.00  0.00     0.209 HD
ENDBRANCH  17  18
ENDBRANCH  13  17
BRANCH   1  20
HETATM   20  C2  UNL     1      -1.888  -2.768 -26.541  1.00  0.00     0.118 C 
HETATM   21  C1  UNL     1      -2.473  -3.661 -27.640  1.00  0.00     0.026 C 
ENDBRANCH   1  20
TORSDOF 3
ENDMDL
MODEL 4
REMARK VINA RESULT: -5.760528515      3.304      6.047
REMARK  3 active torsions:
REMARK  status: ('A' for Active; 'I' for Inactive)
REMARK    1  A    between atoms: C2_2  and  N1_3 
REMARK    2  A    between atoms: C14_15  and  C16_17 
REMARK    3  A    between atoms: C16_17  and  O1_18 
ROOT
HETATM    1  N1  UNL     1       4.146  -3.390 -27.870  1.00  0.00    -0.384 N 
HETATM    2  C3  UNL     1       5.551  -2.990 -27.806  1.00  0.00     0.123 C 
HETATM    3  C4  UNL     1       5.762  -2.032 -28.927  1.00  0.00     0.033 C 
HETATM    4  C5  UNL     1       4.860  -0.818 -28.869  1.00  0.00    -0.013 C 
HETATM    5  C6  UNL     1       5.557   0.159 -27.916  1.00  0.00     0.020 C 
HETATM    6  C7  UNL     1       4.911  -0.238 -30.259  1.00  0.00     0.020 C 
HETATM    7  C8  UNL     1       3.499  -1.165 -28.399  1.00  0.00     0.019 C 
HETATM    8  C9  UNL     1       3.154  -2.367 -27.930  1.00  0.00     0.018 C 
HETATM    9  C10 UNL     1       1.816  -2.726 -27.473  1.00  0.00     0.067 C 
HETATM   10  C11 UNL     1       0.744  -1.713 -27.523  1.00  0.00    -0.026 C 
HETATM   11  C12 UNL     1      -0.053  -1.800 -26.206  1.00  0.00     0.016 C 
HETATM   12  C13 UNL     1      -0.274  -2.197 -28.570  1.00  0.00     0.016 C 
HETATM   13  C14 UNL     1       1.109  -0.316 -27.807  1.00  0.00     0.050 C 
HETATM   14  C15 UNL     1       1.202   0.538 -26.532  1.00  0.00     0.027 C 
HETATM   15  C17 UNL     1       2.468  -0.160 -28.423  1.00  0.00     0.169 C 
HETATM   16  O2  UNL     1       2.650   0.953 -28.981  1.00  0.00    -0.292 OA
ENDROOT
BRANCH  13  17
HETATM   17  C16 UNL     1       0.153   0.428 -28.715  1.00  0.00     0.182 C 
BRANCH  17  18
HETATM   18  O1  UNL     1      -0.786   1.193 -28.080  1.00  0.00    -0.400 OA
ATOM     19  H1  UNL     1      -0.956   0.964 -27.174  1.00  0.00     0.209 HD
ENDBRANCH  17  18
ENDBRANCH  13  17
BRANCH   1  20
HETATM   20  C2  UNL     1       3.891  -4.802 -27.860  1.00  0.00     0.118 C 
HETATM   21  C1  UNL     1       4.373  -5.349 -26.513  1.00  0.00     0.026 C 
ENDBRANCH   1  20
TORSDOF 3
ENDMDL
MODEL 5
REMARK VINA RESULT: -5.697752464      1.011      1.097
REMARK  3 active torsions:
REMARK  status: ('A' for Active; 'I' for Inactive)
REMARK    1  A    between atoms: C2_2  and  N1_3 
REMARK    2  A    between atoms: C14_15  and  C16_17 
REMARK    3  A    between atoms: C16_17  and  O1_18 
ROOT
HETATM    1  N1  UNL     1       2.424  -1.334 -28.420  1.00  0.00    -0.384 N 
HETATM    2  C3  UNL     1       1.493  -0.330 -27.905  1.00  0.00     0.123 C 
HETATM    3  C4  UNL     1       0.149  -0.972 -27.903  1.00  0.00     0.033 C 
HETATM    4  C5  UNL     1       0.080  -2.237 -27.075  1.00  0.00    -0.013 C 
HETATM    5  C6  UNL     1      -0.155  -1.765 -25.635  1.00  0.00     0.020 C 
HETATM    6  C7  UNL     1      -1.168  -2.936 -27.550  1.00  0.00     0.020 C 
HETATM    7  C8  UNL     1       1.316  -3.042 -27.193  1.00  0.00     0.019 C 
HETATM    8  C9  UNL     1       2.420  -2.629 -27.822  1.00  0.00     0.018 C 
HETATM    9  C10 UNL     1       3.642  -3.414 -27.955  1.00  0.00     0.067 C 
HETATM   10  C11 UNL     1       3.695  -4.767 -27.368  1.00  0.00    -0.026 C 
HETATM   11  C12 UNL     1       5.058  -4.929 -26.667  1.00  0.00     0.016 C 
HETATM   12  C13 UNL     1       3.796  -5.756 -28.542  1.00  0.00     0.016 C 
HETATM   13  C14 UNL     1       2.606  -5.186 -26.471  1.00  0.00     0.050 C 
HETATM   14  C15 UNL     1       2.982  -5.047 -24.986  1.00  0.00     0.027 C 
HETATM   15  C17 UNL     1       1.367  -4.349 -26.590  1.00  0.00     0.169 C 
HETATM   16  O2  UNL     1       0.338  -4.888 -26.106  1.00  0.00    -0.292 OA
ENDROOT
BRANCH  13  17
HETATM   17  C16 UNL     1       2.154  -6.622 -26.633  1.00  0.00     0.182 C 
BRANCH  17  18
HETATM   18  O1  UNL     1       1.899  -7.294 -25.469  1.00  0.00    -0.400 OA
ATOM     19  H1  UNL     1       1.000  -7.577 -25.349  1.00  0.00     0.209 HD
ENDBRANCH  17  18
ENDBRANCH  13  17
BRANCH   1  20
HETATM   20  C2  UNL     1       3.276  -0.912 -29.495  1.00  0.00     0.118 C 
HETATM   21  C1  UNL     1       2.383  -0.630 -30.707  1.00  0.00     0.026 C 
ENDBRANCH   1  20
TORSDOF 3
ENDMDL
