MODEL 1
REMARK VINA RESULT: -7.908959224      0.000      0.000
REMARK  4 active torsions:
REMARK  status: ('A' for Active; 'I' for Inactive)
REMARK    1  A    between atoms: C2_2  and  C3_3 
REMARK    2  A    between atoms: C5_6  and  N1_7 
REMARK    3  A    between atoms: N1_7  and  C6_9 
REMARK    4  A    between atoms: C6_9  and  C7_10 
ROOT
HETATM    1  C7  UNL     1       2.759  -0.535 -28.451  1.00  0.00    -0.043 C 
HETATM    2  C8  UNL     1       2.050   0.450 -28.955  1.00  0.00    -0.020 C 
HETATM    3  C9  UNL     1       0.587   0.251 -29.292  1.00  0.00     0.033 C 
HETATM    4  C10 UNL     1       0.273  -1.192 -29.067  1.00  0.00     0.001 C 
HETATM    5  C11 UNL     1       1.368  -2.110 -29.570  1.00  0.00     0.036 C 
HETATM    6  C12 UNL     1       2.076  -1.825 -28.230  1.00  0.00     0.081 C 
HETATM    7  C13 UNL     1       2.854  -2.910 -27.712  1.00  0.00     0.074 C 
HETATM    8  N2  UNL     1       3.474  -3.785 -27.303  1.00  0.00    -0.196 NA
HETATM    9  C14 UNL     1       0.684  -1.648 -27.669  1.00  0.00    -0.019 C 
HETATM   10  C15 UNL     1       0.076  -2.991 -27.368  1.00  0.00     0.017 C 
HETATM   11  C16 UNL     1       0.518  -0.651 -26.587  1.00  0.00     0.017 C 
ENDROOT
BRANCH   1  12
HETATM   12  C6  UNL     1       4.176  -0.388 -28.110  1.00  0.00     0.157 C 
BRANCH  12  13
HETATM   13  N1  UNL     1       4.925   0.173 -29.189  1.00  0.00    -0.366 N 
ATOM     14  H1  UNL     1       4.908  -0.330 -30.077  1.00  0.00     0.161 HD
BRANCH  13  15
HETATM   15  C5  UNL     1       5.618   1.253 -29.143  1.00  0.00     0.145 A 
HETATM   16  S1  UNL     1       5.340   2.673 -30.028  1.00  0.00    -0.064 SA
HETATM   17  C4  UNL     1       6.643   3.607 -29.428  1.00  0.00     0.082 A 
HETATM   18  C3  UNL     1       7.230   2.730 -28.551  1.00  0.00     0.039 A 
HETATM   19  N3  UNL     1       6.698   1.547 -28.422  1.00  0.00    -0.336 N 
ATOM     20  H3  UNL     1       7.100   0.862 -27.782  1.00  0.00     0.168 HD
BRANCH  18  21
HETATM   21  C2  UNL     1       8.436   3.165 -27.797  1.00  0.00     0.020 C 
HETATM   22  C1  UNL     1       8.905   2.475 -26.791  1.00  0.00     0.013 C 
ENDBRANCH  18  21
ENDBRANCH  13  15
ENDBRANCH  12  13
ENDBRANCH   1  12
TORSDOF 4
ENDMDL
MODEL 2
REMARK VINA RESULT: -7.856601415      1.432      1.859
REMARK  4 active torsions:
REMARK  status: ('A' for Active; 'I' for Inactive)
REMARK    1  A    between atoms: C2_2  and  C3_3 
REMARK    2  A    between atoms: C5_6  and  N1_7 
REMARK    3  A    between atoms: N1_7  and  C6_9 
REMARK    4  A    between atoms: C6_9  and  C7_10 
ROOT
HETATM    1  C7  UNL     1       2.869  -0.674 -28.710  1.00  0.00    -0.043 C 
HETATM    2  C8  UNL     1       2.773   0.064 -29.793  1.00  0.00    -0.020 C 
HETATM    3  C9  UNL     1       1.561  -0.046 -30.695  1.00  0.00     0.033 C 
HETATM    4  C10 UNL     1       0.717  -1.160 -30.168  1.00  0.00     0.001 C 
HETATM    5  C11 UNL     1       1.539  -2.358 -29.741  1.00  0.00     0.036 C 
HETATM    6  C12 UNL     1       1.758  -1.601 -28.416  1.00  0.00     0.081 C 
HETATM    7  C13 UNL     1       1.874  -2.432 -27.254  1.00  0.00     0.074 C 
HETATM    8  N2  UNL     1       1.964  -3.104 -26.328  1.00  0.00    -0.196 NA
HETATM    9  C14 UNL     1       0.406  -0.982 -28.685  1.00  0.00    -0.019 C 
HETATM   10  C15 UNL     1      -0.686  -1.929 -28.271  1.00  0.00     0.017 C 
HETATM   11  C16 UNL     1       0.205   0.413 -28.228  1.00  0.00     0.017 C 
ENDROOT
BRANCH   1  12
HETATM   12  C6  UNL     1       4.021  -0.601 -27.809  1.00  0.00     0.157 C 
BRANCH  12  13
HETATM   13  N1  UNL     1       5.247  -0.461 -28.528  1.00  0.00    -0.366 N 
ATOM     14  H1  UNL     1       5.436  -1.143 -29.261  1.00  0.00     0.161 HD
BRANCH  13  15
HETATM   15  C5  UNL     1       6.133   0.448 -28.334  1.00  0.00     0.145 A 
HETATM   16  S1  UNL     1       7.487   0.342 -27.318  1.00  0.00    -0.064 SA
HETATM   17  C4  UNL     1       8.141   1.898 -27.600  1.00  0.00     0.082 A 
HETATM   18  C3  UNL     1       7.239   2.418 -28.493  1.00  0.00     0.039 A 
HETATM   19  N3  UNL     1       6.232   1.671 -28.850  1.00  0.00    -0.336 N 
ATOM     20  H3  UNL     1       5.537   2.016 -29.511  1.00  0.00     0.168 HD
BRANCH  18  21
HETATM   21  C2  UNL     1       7.448   3.799 -29.006  1.00  0.00     0.020 C 
HETATM   22  C1  UNL     1       6.548   4.407 -29.734  1.00  0.00     0.013 C 
ENDBRANCH  18  21
ENDBRANCH  13  15
ENDBRANCH  12  13
ENDBRANCH   1  12
TORSDOF 4
ENDMDL
MODEL 3
REMARK VINA RESULT: -7.829529302      1.294      1.717
REMARK  4 active torsions:
REMARK  status: ('A' for Active; 'I' for Inactive)
REMARK    1  A    between atoms: C2_2  and  C3_3 
REMARK    2  A    between atoms: C5_6  and  N1_7 
REMARK    3  A    between atoms: N1_7  and  C6_9 
REMARK    4  A    between atoms: C6_9  and  C7_10 
ROOT
HETATM    1  C7  UNL     1       2.436  -0.675 -28.198  1.00  0.00    -0.043 C 
HETATM    2  C8  UNL     1       1.976   0.376 -28.839  1.00  0.00    -0.020 C 
HETATM    3  C9  UNL     1       0.484   0.611 -28.961  1.00  0.00     0.033 C 
HETATM    4  C10 UNL     1      -0.201  -0.578 -28.372  1.00  0.00     0.001 C 
HETATM    5  C11 UNL     1       0.463  -1.882 -28.762  1.00  0.00     0.036 C 
HETATM    6  C12 UNL     1       1.448  -1.602 -27.610  1.00  0.00     0.081 C 
HETATM    7  C13 UNL     1       1.945  -2.766 -26.939  1.00  0.00     0.074 C 
HETATM    8  N2  UNL     1       2.337  -3.704 -26.406  1.00  0.00    -0.196 NA
HETATM    9  C14 UNL     1       0.294  -0.875 -26.960  1.00  0.00    -0.019 C 
HETATM   10  C15 UNL     1      -0.624  -1.860 -26.290  1.00  0.00     0.017 C 
HETATM   11  C16 UNL     1       0.628   0.306 -26.129  1.00  0.00     0.017 C 
ENDROOT
BRANCH   1  12
HETATM   12  C6  UNL     1       3.868  -0.943 -28.055  1.00  0.00     0.157 C 
BRANCH  12  13
HETATM   13  N1  UNL     1       4.643  -0.193 -28.991  1.00  0.00    -0.366 N 
ATOM     14  H1  UNL     1       4.398  -0.286 -29.977  1.00  0.00     0.161 HD
BRANCH  13  15
HETATM   15  C5  UNL     1       5.622   0.587 -28.705  1.00  0.00     0.145 A 
HETATM   16  S1  UNL     1       6.915   0.249 -27.660  1.00  0.00    -0.064 SA
HETATM   17  C4  UNL     1       7.757   1.731 -27.807  1.00  0.00     0.082 A 
HETATM   18  C3  UNL     1       6.956   2.417 -28.686  1.00  0.00     0.039 A 
HETATM   19  N3  UNL     1       5.884   1.822 -29.127  1.00  0.00    -0.336 N 
ATOM     20  H3  UNL     1       5.259   2.293 -29.781  1.00  0.00     0.168 HD
BRANCH  18  21
HETATM   21  C2  UNL     1       7.346   3.795 -29.089  1.00  0.00     0.020 C 
HETATM   22  C1  UNL     1       6.553   4.554 -29.799  1.00  0.00     0.013 C 
ENDBRANCH  18  21
ENDBRANCH  13  15
ENDBRANCH  12  13
ENDBRANCH   1  12
TORSDOF 4
ENDMDL
MODEL 4
REMARK VINA RESULT: -7.779619208      1.051      1.112
REMARK  4 active torsions:
REMARK  status: ('A' for Active; 'I' for Inactive)
REMARK    1  A    between atoms: C2_2  and  C3_3 
REMARK    2  A    between atoms: C5_6  and  N1_7 
REMARK    3  A    between atoms: N1_7  and  C6_9 
REMARK    4  A    between atoms: C6_9  and  C7_10 
ROOT
HETATM    1  C7  UNL     1       2.141  -0.709 -27.972  1.00  0.00    -0.043 C 
HETATM    2  C8  UNL     1       1.650   0.510 -27.981  1.00  0.00    -0.020 C 
HETATM    3  C9  UNL     1       0.167   0.742 -28.182  1.00  0.00     0.033 C 
HETATM    4  C10 UNL     1      -0.453  -0.586 -28.473  1.00  0.00     0.001 C 
HETATM    5  C11 UNL     1       0.387  -1.425 -29.414  1.00  0.00     0.036 C 
HETATM    6  C12 UNL     1       1.195  -1.826 -28.165  1.00  0.00     0.081 C 
HETATM    7  C13 UNL     1       1.731  -3.155 -28.189  1.00  0.00     0.074 C 
HETATM    8  N2  UNL     1       2.155  -4.221 -28.216  1.00  0.00    -0.196 NA
HETATM    9  C14 UNL     1      -0.097  -1.621 -27.409  1.00  0.00    -0.019 C 
HETATM   10  C15 UNL     1      -0.978  -2.832 -27.556  1.00  0.00     0.017 C 
HETATM   11  C16 UNL     1       0.010  -1.114 -26.021  1.00  0.00     0.017 C 
ENDROOT
BRANCH   1  12
HETATM   12  C6  UNL     1       3.567  -0.980 -27.781  1.00  0.00     0.157 C 
BRANCH  12  13
HETATM   13  N1  UNL     1       4.337  -0.595 -28.921  1.00  0.00    -0.366 N 
ATOM     14  H1  UNL     1       4.319  -1.221 -29.727  1.00  0.00     0.161 HD
BRANCH  13  15
HETATM   15  C5  UNL     1       5.049   0.468 -29.024  1.00  0.00     0.145 A 
HETATM   16  S1  UNL     1       4.759   1.787 -30.051  1.00  0.00    -0.064 SA
HETATM   17  C4  UNL     1       6.101   2.753 -29.612  1.00  0.00     0.082 A 
HETATM   18  C3  UNL     1       6.709   1.967 -28.666  1.00  0.00     0.039 A 
HETATM   19  N3  UNL     1       6.163   0.818 -28.383  1.00  0.00    -0.336 N 
ATOM     20  H3  UNL     1       6.579   0.201 -27.687  1.00  0.00     0.168 HD
BRANCH  18  21
HETATM   21  C2  UNL     1       7.952   2.458 -28.013  1.00  0.00     0.020 C 
HETATM   22  C1  UNL     1       8.286   3.722 -28.030  1.00  0.00     0.013 C 
ENDBRANCH  18  21
ENDBRANCH  13  15
ENDBRANCH  12  13
ENDBRANCH   1  12
TORSDOF 4
ENDMDL
MODEL 5
REMARK VINA RESULT: -7.746834625      1.462      1.939
REMARK  4 active torsions:
REMARK  status: ('A' for Active; 'I' for Inactive)
REMARK    1  A    between atoms: C2_2  and  C3_3 
REMARK    2  A    between atoms: C5_6  and  N1_7 
REMARK    3  A    between atoms: N1_7  and  C6_9 
REMARK    4  A    between atoms: C6_9  and  C7_10 
ROOT
HETATM    1  C7  UNL     1       3.149  -0.277 -30.259  1.00  0.00    -0.043 C 
HETATM    2  C8  UNL     1       2.098  -0.438 -31.030  1.00  0.00    -0.020 C 
HETATM    3  C9  UNL     1       0.832  -1.067 -30.485  1.00  0.00     0.033 C 
HETATM    4  C10 UNL     1       1.125  -1.516 -29.091  1.00  0.00     0.001 C 
HETATM    5  C11 UNL     1       2.489  -2.164 -28.965  1.00  0.00     0.036 C 
HETATM    6  C12 UNL     1       3.042  -0.729 -28.857  1.00  0.00     0.081 C 
HETATM    7  C13 UNL     1       4.197  -0.586 -28.021  1.00  0.00     0.074 C 
HETATM    8  N2  UNL     1       5.121  -0.479 -27.349  1.00  0.00    -0.196 NA
HETATM    9  C14 UNL     1       1.705  -0.387 -28.244  1.00  0.00    -0.019 C 
HETATM   10  C15 UNL     1       1.689  -0.776 -26.791  1.00  0.00     0.017 C 
HETATM   11  C16 UNL     1       1.169   0.968 -28.515  1.00  0.00     0.017 C 
ENDROOT
BRANCH   1  12
HETATM   12  C6  UNL     1       4.393   0.325 -30.742  1.00  0.00     0.157 C 
BRANCH  12  13
HETATM   13  N1  UNL     1       4.398   1.743 -30.566  1.00  0.00    -0.366 N 
ATOM     14  H1  UNL     1       3.581   2.255 -30.900  1.00  0.00     0.161 HD
BRANCH  13  15
HETATM   15  C5  UNL     1       5.338   2.431 -30.027  1.00  0.00     0.145 A 
HETATM   16  S1  UNL     1       5.646   4.083 -30.262  1.00  0.00    -0.064 SA
HETATM   17  C4  UNL     1       7.009   4.237 -29.238  1.00  0.00     0.082 A 
HETATM   18  C3  UNL     1       7.143   2.957 -28.763  1.00  0.00     0.039 A 
HETATM   19  N3  UNL     1       6.290   2.060 -29.173  1.00  0.00    -0.336 N 
ATOM     20  H3  UNL     1       6.351   1.096 -28.848  1.00  0.00     0.168 HD
BRANCH  18  21
HETATM   21  C2  UNL     1       8.246   2.653 -27.812  1.00  0.00     0.020 C 
HETATM   22  C1  UNL     1       8.307   1.516 -27.169  1.00  0.00     0.013 C 
ENDBRANCH  18  21
ENDBRANCH  13  15
ENDBRANCH  12  13
ENDBRANCH   1  12
TORSDOF 4
ENDMDL
