MODEL 1
REMARK VINA RESULT: -7.384126216      0.000      0.000
REMARK  6 active torsions:
REMARK  status: ('A' for Active; 'I' for Inactive)
REMARK    1  A    between atoms: C2_2  and  N1_3 
REMARK       I    between atoms: C3_5  and  N2_6 
REMARK       I    between atoms: C3_5  and  N8_20 
REMARK    2  A    between atoms: N2_6  and  N3_8 
REMARK    3  A    between atoms: C4_10  and  N4_11 
REMARK    4  A    between atoms: N4_11  and  C5_13 
REMARK    5  A    between atoms: C5_13  and  N5_15 
REMARK    6  A    between atoms: N8_20  and  C7_22 
ROOT
HETATM    1  N1  UNL     1      -4.605  31.727  11.473  1.00  0.00    -0.225 N 
ATOM      2  H1  UNL     1      -3.675  31.917  11.845  1.00  0.00     0.177 HD
HETATM    3  C3  UNL     1      -5.232  30.711  11.943  1.00  0.00     0.694 C 
HETATM    4  N2  UNL     1      -4.593  29.936  12.931  1.00  0.00    -0.131 N 
ATOM      5  H2  UNL     1      -3.578  29.836  12.924  1.00  0.00     0.205 HD
HETATM    6  N8  UNL     1      -6.540  30.422  11.437  1.00  0.00    -0.167 N 
ATOM      7  H8  UNL     1      -7.347  30.854  11.884  1.00  0.00     0.186 HD
ENDROOT
BRANCH   4   8
HETATM    8  N3  UNL     1      -5.350  29.309  13.915  1.00  0.00    -0.282 N 
HETATM    9  C4  UNL     1      -5.747  30.025  14.909  1.00  0.00     0.200 C 
ATOM     10  H3  UNL     1      -5.582  28.318  13.851  1.00  0.00     0.188 HD
BRANCH   9  11
HETATM   11  N4  UNL     1      -6.519  29.409  15.924  1.00  0.00    -0.328 N 
ATOM     12  H4  UNL     1      -6.360  29.631  16.907  1.00  0.00     0.169 HD
BRANCH  11  13
HETATM   13  C5  UNL     1      -7.513  28.480  15.547  1.00  0.00     0.178 C 
HETATM   14  S1  UNL     1      -9.051  28.980  15.336  1.00  0.00    -0.040 SA
BRANCH  13  15
HETATM   15  N5  UNL     1      -7.137  27.115  15.358  1.00  0.00    -0.310 N 
HETATM   16  C6  UNL     1      -6.687  26.432  16.363  1.00  0.00     0.203 C 
HETATM   17  N6  UNL     1      -6.302  25.056  16.201  1.00  0.00    -0.066 NA
HETATM   18  N7  UNL     1      -6.574  27.036  17.630  1.00  0.00    -0.066 NA
ATOM     19  H5  UNL     1      -7.222  26.681  14.438  1.00  0.00     0.170 HD
ENDBRANCH  13  15
ENDBRANCH  11  13
ENDBRANCH   9  11
ENDBRANCH   4   8
BRANCH   1  20
HETATM   20  C2  UNL     1      -5.106  32.616  10.470  1.00  0.00     0.134 C 
HETATM   21  C1  UNL     1      -5.633  33.861  11.164  1.00  0.00     0.027 C 
ENDBRANCH   1  20
BRANCH   6  22
HETATM   22  C7  UNL     1      -6.749  29.558  10.338  1.00  0.00     0.199 C 
HETATM   23  N9  UNL     1      -5.891  29.624   9.212  1.00  0.00    -0.069 NA
HETATM   24  S2  UNL     1      -7.976  28.495  10.376  1.00  0.00    -0.044 SA
ENDBRANCH   6  22
TORSDOF 6
ENDMDL
MODEL 2
REMARK VINA RESULT: -7.324486996      1.796      2.394
REMARK  6 active torsions:
REMARK  status: ('A' for Active; 'I' for Inactive)
REMARK    1  A    between atoms: C2_2  and  N1_3 
REMARK       I    between atoms: C3_5  and  N2_6 
REMARK       I    between atoms: C3_5  and  N8_20 
REMARK    2  A    between atoms: N2_6  and  N3_8 
REMARK    3  A    between atoms: C4_10  and  N4_11 
REMARK    4  A    between atoms: N4_11  and  C5_13 
REMARK    5  A    between atoms: C5_13  and  N5_15 
REMARK    6  A    between atoms: N8_20  and  C7_22 
ROOT
HETATM    1  N1  UNL     1      -6.069  29.330  10.206  1.00  0.00    -0.225 N 
ATOM      2  H1  UNL     1      -5.059  29.396  10.080  1.00  0.00     0.177 HD
HETATM    3  C3  UNL     1      -6.493  28.867  11.325  1.00  0.00     0.694 C 
HETATM    4  N2  UNL     1      -5.540  28.486  12.290  1.00  0.00    -0.131 N 
ATOM      5  H2  UNL     1      -4.639  28.110  11.997  1.00  0.00     0.205 HD
HETATM    6  N8  UNL     1      -7.907  28.763  11.528  1.00  0.00    -0.167 N 
ATOM      7  H8  UNL     1      -8.409  29.562  11.915  1.00  0.00     0.186 HD
ENDROOT
BRANCH   4   8
HETATM    8  N3  UNL     1      -5.833  28.624  13.643  1.00  0.00    -0.282 N 
HETATM    9  C4  UNL     1      -5.834  29.814  14.135  1.00  0.00     0.200 C 
ATOM     10  H3  UNL     1      -6.039  27.811  14.224  1.00  0.00     0.188 HD
BRANCH   9  11
HETATM   11  N4  UNL     1      -6.129  29.979  15.511  1.00  0.00    -0.328 N 
ATOM     12  H4  UNL     1      -5.592  30.631  16.083  1.00  0.00     0.169 HD
BRANCH  11  13
HETATM   13  C5  UNL     1      -7.181  29.223  16.071  1.00  0.00     0.178 C 
HETATM   14  S1  UNL     1      -8.722  29.527  15.631  1.00  0.00    -0.040 SA
BRANCH  13  15
HETATM   15  N5  UNL     1      -6.860  28.203  17.019  1.00  0.00    -0.310 N 
HETATM   16  C6  UNL     1      -6.865  26.962  16.646  1.00  0.00     0.203 C 
HETATM   17  N6  UNL     1      -6.546  25.915  17.578  1.00  0.00    -0.066 NA
HETATM   18  N7  UNL     1      -7.183  26.628  15.315  1.00  0.00    -0.066 NA
ATOM     19  H5  UNL     1      -6.629  28.450  17.981  1.00  0.00     0.170 HD
ENDBRANCH  13  15
ENDBRANCH  11  13
ENDBRANCH   9  11
ENDBRANCH   4   8
BRANCH   1  20
HETATM   20  C2  UNL     1      -6.896  29.761   9.122  1.00  0.00     0.134 C 
HETATM   21  C1  UNL     1      -6.357  31.089   8.615  1.00  0.00     0.027 C 
ENDBRANCH   1  20
BRANCH   6  22
HETATM   22  C7  UNL     1      -8.630  27.591  11.209  1.00  0.00     0.199 C 
HETATM   23  N9  UNL     1      -8.331  26.373  11.870  1.00  0.00    -0.069 NA
HETATM   24  S2  UNL     1      -9.799  27.651  10.084  1.00  0.00    -0.044 SA
ENDBRANCH   6  22
TORSDOF 6
ENDMDL
MODEL 3
REMARK VINA RESULT: -7.276772543      1.776      2.262
REMARK  6 active torsions:
REMARK  status: ('A' for Active; 'I' for Inactive)
REMARK    1  A    between atoms: C2_2  and  N1_3 
REMARK       I    between atoms: C3_5  and  N2_6 
REMARK       I    between atoms: C3_5  and  N8_20 
REMARK    2  A    between atoms: N2_6  and  N3_8 
REMARK    3  A    between atoms: C4_10  and  N4_11 
REMARK    4  A    between atoms: N4_11  and  C5_13 
REMARK    5  A    between atoms: C5_13  and  N5_15 
REMARK    6  A    between atoms: N8_20  and  C7_22 
ROOT
HETATM    1  N1  UNL     1      -5.789  29.611   9.605  1.00  0.00    -0.225 N 
ATOM      2  H1  UNL     1      -4.776  29.553   9.504  1.00  0.00     0.177 HD
HETATM    3  C3  UNL     1      -6.302  29.145  10.684  1.00  0.00     0.694 C 
HETATM    4  N2  UNL     1      -5.434  28.590  11.645  1.00  0.00    -0.131 N 
ATOM      5  H2  UNL     1      -4.580  28.117  11.349  1.00  0.00     0.205 HD
HETATM    6  N8  UNL     1      -7.722  29.216  10.851  1.00  0.00    -0.167 N 
ATOM      7  H8  UNL     1      -8.128  30.050  11.275  1.00  0.00     0.186 HD
ENDROOT
BRANCH   4   8
HETATM    8  N3  UNL     1      -5.745  28.687  12.997  1.00  0.00    -0.282 N 
HETATM    9  C4  UNL     1      -5.649  29.847  13.549  1.00  0.00     0.200 C 
ATOM     10  H3  UNL     1      -6.037  27.870  13.532  1.00  0.00     0.188 HD
BRANCH   9  11
HETATM   11  N4  UNL     1      -5.960  29.972  14.925  1.00  0.00    -0.328 N 
ATOM     12  H4  UNL     1      -5.302  30.410  15.570  1.00  0.00     0.169 HD
BRANCH  11  13
HETATM   13  C5  UNL     1      -7.200  29.478  15.385  1.00  0.00     0.178 C 
HETATM   14  S1  UNL     1      -8.554  29.749  14.515  1.00  0.00    -0.040 SA
BRANCH  13  15
HETATM   15  N5  UNL     1      -7.232  28.746  16.611  1.00  0.00    -0.310 N 
HETATM   16  C6  UNL     1      -6.619  27.607  16.690  1.00  0.00     0.203 C 
HETATM   17  N6  UNL     1      -6.635  26.849  17.912  1.00  0.00    -0.066 NA
HETATM   18  N7  UNL     1      -5.926  27.100  15.573  1.00  0.00    -0.066 NA
ATOM     19  H5  UNL     1      -7.734  29.117  17.418  1.00  0.00     0.170 HD
ENDBRANCH  13  15
ENDBRANCH  11  13
ENDBRANCH   9  11
ENDBRANCH   4   8
BRANCH   1  20
HETATM   20  C2  UNL     1      -6.523  30.207   8.531  1.00  0.00     0.134 C 
HETATM   21  C1  UNL     1      -6.280  31.708   8.569  1.00  0.00     0.027 C 
ENDBRANCH   1  20
BRANCH   6  22
HETATM   22  C7  UNL     1      -8.581  28.168  10.448  1.00  0.00     0.199 C 
HETATM   23  N9  UNL     1      -9.190  28.205   9.168  1.00  0.00    -0.069 NA
HETATM   24  S2  UNL     1      -8.865  26.930  11.459  1.00  0.00    -0.044 SA
ENDBRANCH   6  22
TORSDOF 6
ENDMDL
MODEL 4
REMARK VINA RESULT: -7.094808459      1.346      1.558
REMARK  6 active torsions:
REMARK  status: ('A' for Active; 'I' for Inactive)
REMARK    1  A    between atoms: C2_2  and  N1_3 
REMARK       I    between atoms: C3_5  and  N2_6 
REMARK       I    between atoms: C3_5  and  N8_20 
REMARK    2  A    between atoms: N2_6  and  N3_8 
REMARK    3  A    between atoms: C4_10  and  N4_11 
REMARK    4  A    between atoms: N4_11  and  C5_13 
REMARK    5  A    between atoms: C5_13  and  N5_15 
REMARK    6  A    between atoms: N8_20  and  C7_22 
ROOT
HETATM    1  N1  UNL     1      -5.076  32.745  12.007  1.00  0.00    -0.225 N 
ATOM      2  H1  UNL     1      -4.401  32.973  12.736  1.00  0.00     0.177 HD
HETATM    3  C3  UNL     1      -5.337  31.505  11.812  1.00  0.00     0.694 C 
HETATM    4  N2  UNL     1      -4.675  30.554  12.614  1.00  0.00    -0.131 N 
ATOM      5  H2  UNL     1      -3.727  30.735  12.945  1.00  0.00     0.205 HD
HETATM    6  N8  UNL     1      -6.282  31.158  10.794  1.00  0.00    -0.167 N 
ATOM      7  H8  UNL     1      -7.270  31.104  11.037  1.00  0.00     0.186 HD
ENDROOT
BRANCH   4   8
HETATM    8  N3  UNL     1      -5.316  29.367  12.952  1.00  0.00    -0.282 N 
HETATM    9  C4  UNL     1      -5.757  29.249  14.156  1.00  0.00     0.200 C 
ATOM     10  H3  UNL     1      -5.434  28.617  12.270  1.00  0.00     0.188 HD
BRANCH   9  11
HETATM   11  N4  UNL     1      -6.414  28.050  14.525  1.00  0.00    -0.328 N 
ATOM     12  H4  UNL     1      -6.391  27.234  13.914  1.00  0.00     0.169 HD
BRANCH  11  13
HETATM   13  C5  UNL     1      -7.101  28.008  15.758  1.00  0.00     0.178 C 
HETATM   14  S1  UNL     1      -8.462  28.887  15.958  1.00  0.00    -0.040 SA
BRANCH  13  15
HETATM   15  N5  UNL     1      -6.579  27.189  16.805  1.00  0.00    -0.310 N 
HETATM   16  C6  UNL     1      -6.581  25.900  16.668  1.00  0.00     0.203 C 
HETATM   17  N6  UNL     1      -6.061  25.052  17.706  1.00  0.00    -0.066 NA
HETATM   18  N7  UNL     1      -7.095  25.318  15.494  1.00  0.00    -0.066 NA
ATOM     19  H5  UNL     1      -6.206  27.615  17.653  1.00  0.00     0.170 HD
ENDBRANCH  13  15
ENDBRANCH  11  13
ENDBRANCH   9  11
ENDBRANCH   4   8
BRANCH   1  20
HETATM   20  C2  UNL     1      -5.656  33.835  11.286  1.00  0.00     0.134 C 
HETATM   21  C1  UNL     1      -5.963  34.947  12.275  1.00  0.00     0.027 C 
ENDBRANCH   1  20
BRANCH   6  22
HETATM   22  C7  UNL     1      -5.890  30.887   9.463  1.00  0.00     0.199 C 
HETATM   23  N9  UNL     1      -4.661  31.394   8.969  1.00  0.00    -0.069 NA
HETATM   24  S2  UNL     1      -6.856  29.997   8.508  1.00  0.00    -0.044 SA
ENDBRANCH   6  22
TORSDOF 6
ENDMDL
MODEL 5
REMARK VINA RESULT: -7.042080384      2.001      3.056
REMARK  6 active torsions:
REMARK  status: ('A' for Active; 'I' for Inactive)
REMARK    1  A    between atoms: C2_2  and  N1_3 
REMARK       I    between atoms: C3_5  and  N2_6 
REMARK       I    between atoms: C3_5  and  N8_20 
REMARK    2  A    between atoms: N2_6  and  N3_8 
REMARK    3  A    between atoms: C4_10  and  N4_11 
REMARK    4  A    between atoms: N4_11  and  C5_13 
REMARK    5  A    between atoms: C5_13  and  N5_15 
REMARK    6  A    between atoms: N8_20  and  C7_22 
ROOT
HETATM    1  N1  UNL     1      -7.361  29.517   8.980  1.00  0.00    -0.225 N 
ATOM      2  H1  UNL     1      -8.324  29.182   8.952  1.00  0.00     0.177 HD
HETATM    3  C3  UNL     1      -6.771  29.522  10.119  1.00  0.00     0.694 C 
HETATM    4  N2  UNL     1      -7.492  29.066  11.241  1.00  0.00    -0.131 N 
ATOM      5  H2  UNL     1      -8.500  29.206  11.292  1.00  0.00     0.205 HD
HETATM    6  N8  UNL     1      -5.419  29.988  10.186  1.00  0.00    -0.167 N 
ATOM      7  H8  UNL     1      -4.661  29.323  10.038  1.00  0.00     0.186 HD
ENDROOT
BRANCH   4   8
HETATM    8  N3  UNL     1      -6.823  28.425  12.279  1.00  0.00    -0.282 N 
HETATM    9  C4  UNL     1      -7.186  28.701  13.484  1.00  0.00     0.200 C 
ATOM     10  H3  UNL     1      -6.072  27.760  12.093  1.00  0.00     0.188 HD
BRANCH   9  11
HETATM   11  N4  UNL     1      -6.520  28.062  14.558  1.00  0.00    -0.328 N 
ATOM     12  H4  UNL     1      -5.579  27.687  14.438  1.00  0.00     0.169 HD
BRANCH  11  13
HETATM   13  C5  UNL     1      -7.187  27.955  15.797  1.00  0.00     0.178 C 
HETATM   14  S1  UNL     1      -8.591  28.752  16.034  1.00  0.00    -0.040 SA
BRANCH  13  15
HETATM   15  N5  UNL     1      -6.606  27.142  16.818  1.00  0.00    -0.310 N 
HETATM   16  C6  UNL     1      -6.573  25.855  16.668  1.00  0.00     0.203 C 
HETATM   17  N6  UNL     1      -5.994  25.013  17.679  1.00  0.00    -0.066 NA
HETATM   18  N7  UNL     1      -7.105  25.269  15.503  1.00  0.00    -0.066 NA
ATOM     19  H5  UNL     1      -6.221  27.571  17.660  1.00  0.00     0.170 HD
ENDBRANCH  13  15
ENDBRANCH  11  13
ENDBRANCH   9  11
ENDBRANCH   4   8
BRANCH   1  20
HETATM   20  C2  UNL     1      -6.778  29.944   7.746  1.00  0.00     0.134 C 
HETATM   21  C1  UNL     1      -7.572  29.321   6.609  1.00  0.00     0.027 C 
ENDBRANCH   1  20
BRANCH   6  22
HETATM   22  C7  UNL     1      -5.100  31.340  10.449  1.00  0.00     0.199 C 
HETATM   23  N9  UNL     1      -4.577  32.158   9.415  1.00  0.00    -0.069 NA
HETATM   24  S2  UNL     1      -5.335  31.944  11.937  1.00  0.00    -0.044 SA
ENDBRANCH   6  22
TORSDOF 6
ENDMDL
