MODEL 1
REMARK VINA RESULT: -7.363088929      0.000      0.000
REMARK  5 active torsions:
REMARK  status: ('A' for Active; 'I' for Inactive)
REMARK    1  A    between atoms: N1_2  and  N2_4 
REMARK       I    between atoms: C2_6  and  N3_7 
REMARK       I    between atoms: C2_6  and  N5_14 
REMARK    2  A    between atoms: N3_7  and  N4_9 
REMARK       I    between atoms: N4_9  and  C3_11 
REMARK    3  A    between atoms: N5_14  and  N6_16 
REMARK       I    between atoms: N6_16  and  C5_18 
REMARK       I    between atoms: C5_18  and  N7_20 
REMARK    4  A    between atoms: N7_20  and  C6_22 
REMARK    5  A    between atoms: C6_22  and  C7_23 
REMARK       I    between atoms: C7_23  and  N8_25 
ROOT
HETATM    1  N2  UNL     1      -5.434  31.095   9.409  1.00  0.00    -0.131 N 
ATOM      2  H2  UNL     1      -4.573  31.197   9.946  1.00  0.00     0.205 HD
HETATM    3  C2  UNL     1      -5.944  29.915   9.333  1.00  0.00     0.726 C 
HETATM    4  N3  UNL     1      -7.129  29.601   8.630  1.00  0.00    -0.127 N 
ATOM      5  H3  UNL     1      -8.020  29.549   9.125  1.00  0.00     0.206 HD
HETATM    6  N5  UNL     1      -5.270  28.875  10.025  1.00  0.00    -0.126 N 
ATOM      7  H5  UNL     1      -4.453  28.438   9.599  1.00  0.00     0.206 HD
ENDROOT
BRANCH   6   8
HETATM    8  N6  UNL     1      -5.708  28.436  11.289  1.00  0.00    -0.237 N 
HETATM    9  C5  UNL     1      -5.463  29.167  12.483  1.00  0.00     0.335 C 
HETATM   10  O2  UNL     1      -4.837  30.235  12.381  1.00  0.00    -0.246 OA
HETATM   11  N7  UNL     1      -5.933  28.657  13.716  1.00  0.00    -0.333 N 
ATOM     12  H7  UNL     1      -6.434  27.768  13.735  1.00  0.00     0.164 HD
ATOM     13  H6  UNL     1      -6.221  27.557  11.350  1.00  0.00     0.192 HD
BRANCH  11  14
HETATM   14  C6  UNL     1      -5.715  29.373  14.940  1.00  0.00     0.227 C 
BRANCH  14  15
HETATM   15  C7  UNL     1      -6.919  29.299  15.799  1.00  0.00     0.237 C 
HETATM   16  O3  UNL     1      -7.723  30.265  15.801  1.00  0.00    -0.272 OA
HETATM   17  N8  UNL     1      -7.197  28.179  16.618  1.00  0.00    -0.348 N 
HETATM   18  C8  UNL     1      -8.085  27.543  17.577  1.00  0.00     0.145 A 
HETATM   19  C9  UNL     1      -6.855  26.865  17.115  1.00  0.00     0.145 A 
ENDBRANCH  14  15
ENDBRANCH  11  14
ENDBRANCH   6   8
BRANCH   1  20
HETATM   20  N1  UNL     1      -5.945  32.219   8.834  1.00  0.00    -0.308 N 
HETATM   21  C1  UNL     1      -6.040  33.402   9.183  1.00  0.00     0.139 C 
ATOM     22  H1  UNL     1      -6.337  32.046   7.909  1.00  0.00     0.185 HD
ENDBRANCH   1  20
BRANCH   4  23
HETATM   23  N4  UNL     1      -7.076  29.364   7.258  1.00  0.00    -0.256 N 
HETATM   24  C3  UNL     1      -7.396  30.335   6.281  1.00  0.00     0.232 C 
HETATM   25  C4  UNL     1      -7.332  30.063   4.842  1.00  0.00     0.119 C 
HETATM   26  O1  UNL     1      -7.755  31.488   6.655  1.00  0.00    -0.272 OA
ATOM     27  H4  UNL     1      -6.789  28.437   6.941  1.00  0.00     0.190 HD
ENDBRANCH   4  23
TORSDOF 5
ENDMDL
MODEL 2
REMARK VINA RESULT: -7.284059629      2.436      7.918
REMARK  5 active torsions:
REMARK  status: ('A' for Active; 'I' for Inactive)
REMARK    1  A    between atoms: N1_2  and  N2_4 
REMARK       I    between atoms: C2_6  and  N3_7 
REMARK       I    between atoms: C2_6  and  N5_14 
REMARK    2  A    between atoms: N3_7  and  N4_9 
REMARK       I    between atoms: N4_9  and  C3_11 
REMARK    3  A    between atoms: N5_14  and  N6_16 
REMARK       I    between atoms: N6_16  and  C5_18 
REMARK       I    between atoms: C5_18  and  N7_20 
REMARK    4  A    between atoms: N7_20  and  C6_22 
REMARK    5  A    between atoms: C6_22  and  C7_23 
REMARK       I    between atoms: C7_23  and  N8_25 
ROOT
HETATM    1  N2  UNL     1      -6.875  28.454  12.669  1.00  0.00    -0.131 N 
ATOM      2  H2  UNL     1      -6.470  28.173  11.777  1.00  0.00     0.205 HD
HETATM    3  C2  UNL     1      -6.175  29.240  13.411  1.00  0.00     0.726 C 
HETATM    4  N3  UNL     1      -6.587  29.723  14.674  1.00  0.00    -0.127 N 
ATOM      5  H3  UNL     1      -7.021  30.643  14.754  1.00  0.00     0.206 HD
HETATM    6  N5  UNL     1      -4.917  29.657  12.902  1.00  0.00    -0.126 N 
ATOM      7  H5  UNL     1      -4.114  29.034  12.981  1.00  0.00     0.206 HD
ENDROOT
BRANCH   6   8
HETATM    8  N6  UNL     1      -4.758  30.915  12.290  1.00  0.00    -0.237 N 
HETATM    9  C5  UNL     1      -5.015  31.136  10.910  1.00  0.00     0.335 C 
HETATM   10  O2  UNL     1      -5.397  30.163  10.237  1.00  0.00    -0.246 OA
HETATM   11  N7  UNL     1      -4.828  32.429  10.368  1.00  0.00    -0.333 N 
ATOM     12  H7  UNL     1      -4.503  33.185  10.971  1.00  0.00     0.164 HD
ATOM     13  H6  UNL     1      -4.444  31.700  12.861  1.00  0.00     0.192 HD
BRANCH  11  14
HETATM   14  C6  UNL     1      -5.089  32.690   8.982  1.00  0.00     0.227 C 
BRANCH  14  15
HETATM   15  C7  UNL     1      -6.252  33.598   8.842  1.00  0.00     0.237 C 
HETATM   16  O3  UNL     1      -6.513  34.396   9.778  1.00  0.00    -0.272 OA
HETATM   17  N8  UNL     1      -7.078  33.599   7.694  1.00  0.00    -0.348 N 
HETATM   18  C8  UNL     1      -8.227  34.159   7.003  1.00  0.00     0.145 A 
HETATM   19  C9  UNL     1      -7.414  33.093   6.381  1.00  0.00     0.145 A 
ENDBRANCH  14  15
ENDBRANCH  11  14
ENDBRANCH   6   8
BRANCH   1  20
HETATM   20  N1  UNL     1      -8.110  27.967  12.973  1.00  0.00    -0.308 N 
HETATM   21  C1  UNL     1      -9.212  27.990  12.411  1.00  0.00     0.139 C 
ATOM     22  H1  UNL     1      -8.131  27.472  13.864  1.00  0.00     0.185 HD
ENDBRANCH   1  20
BRANCH   4  23
HETATM   23  N4  UNL     1      -6.397  28.937  15.808  1.00  0.00    -0.256 N 
HETATM   24  C3  UNL     1      -7.411  28.140  16.389  1.00  0.00     0.232 C 
HETATM   25  C4  UNL     1      -7.189  27.319  17.583  1.00  0.00     0.119 C 
HETATM   26  O1  UNL     1      -8.560  28.128  15.863  1.00  0.00    -0.272 OA
ATOM     27  H4  UNL     1      -5.475  28.936  16.245  1.00  0.00     0.190 HD
ENDBRANCH   4  23
TORSDOF 5
ENDMDL
MODEL 3
REMARK VINA RESULT: -7.245788713      2.773      7.454
REMARK  5 active torsions:
REMARK  status: ('A' for Active; 'I' for Inactive)
REMARK    1  A    between atoms: N1_2  and  N2_4 
REMARK       I    between atoms: C2_6  and  N3_7 
REMARK       I    between atoms: C2_6  and  N5_14 
REMARK    2  A    between atoms: N3_7  and  N4_9 
REMARK       I    between atoms: N4_9  and  C3_11 
REMARK    3  A    between atoms: N5_14  and  N6_16 
REMARK       I    between atoms: N6_16  and  C5_18 
REMARK       I    between atoms: C5_18  and  N7_20 
REMARK    4  A    between atoms: N7_20  and  C6_22 
REMARK    5  A    between atoms: C6_22  and  C7_23 
REMARK       I    between atoms: C7_23  and  N8_25 
ROOT
HETATM    1  N2  UNL     1      -7.735  28.983  13.405  1.00  0.00    -0.131 N 
ATOM      2  H2  UNL     1      -8.109  29.089  12.463  1.00  0.00     0.205 HD
HETATM    3  C2  UNL     1      -6.471  28.764  13.515  1.00  0.00     0.726 C 
HETATM    4  N3  UNL     1      -5.793  28.593  14.743  1.00  0.00    -0.127 N 
ATOM      5  H3  UNL     1      -5.316  29.383  15.180  1.00  0.00     0.206 HD
HETATM    6  N5  UNL     1      -5.717  28.718  12.312  1.00  0.00    -0.126 N 
ATOM      7  H5  UNL     1      -5.713  27.861  11.758  1.00  0.00     0.206 HD
ENDROOT
BRANCH   6   8
HETATM    8  N6  UNL     1      -4.976  29.830  11.871  1.00  0.00    -0.237 N 
HETATM    9  C5  UNL     1      -5.402  30.661  10.799  1.00  0.00     0.335 C 
HETATM   10  O2  UNL     1      -6.477  30.372  10.246  1.00  0.00    -0.246 OA
HETATM   11  N7  UNL     1      -4.600  31.759  10.412  1.00  0.00    -0.333 N 
ATOM     12  H7  UNL     1      -3.722  31.937  10.900  1.00  0.00     0.164 HD
ATOM     13  H6  UNL     1      -4.097  30.049  12.340  1.00  0.00     0.192 HD
BRANCH  11  14
HETATM   14  C6  UNL     1      -5.004  32.625   9.342  1.00  0.00     0.227 C 
BRANCH  14  15
HETATM   15  C7  UNL     1      -5.852  33.722   9.863  1.00  0.00     0.237 C 
HETATM   16  O3  UNL     1      -6.761  34.186   9.130  1.00  0.00    -0.272 OA
HETATM   17  N8  UNL     1      -5.674  34.266  11.157  1.00  0.00    -0.348 N 
HETATM   18  C8  UNL     1      -6.103  35.227  12.159  1.00  0.00     0.145 A 
HETATM   19  C9  UNL     1      -4.986  34.297  12.429  1.00  0.00     0.145 A 
ENDBRANCH  14  15
ENDBRANCH  11  14
ENDBRANCH   6   8
BRANCH   1  20
HETATM   20  N1  UNL     1      -8.615  29.084  14.439  1.00  0.00    -0.308 N 
HETATM   21  C1  UNL     1      -9.849  29.057  14.531  1.00  0.00     0.139 C 
ATOM     22  H1  UNL     1      -8.154  29.212  15.339  1.00  0.00     0.185 HD
ENDBRANCH   1  20
BRANCH   4  23
HETATM   23  N4  UNL     1      -5.780  27.342  15.355  1.00  0.00    -0.256 N 
HETATM   24  C3  UNL     1      -6.651  26.973  16.406  1.00  0.00     0.232 C 
HETATM   25  C4  UNL     1      -6.620  25.650  17.036  1.00  0.00     0.119 C 
HETATM   26  O1  UNL     1      -7.494  27.814  16.829  1.00  0.00    -0.272 OA
ATOM     27  H4  UNL     1      -5.103  26.652  15.025  1.00  0.00     0.190 HD
ENDBRANCH   4  23
TORSDOF 5
ENDMDL
MODEL 4
REMARK VINA RESULT: -7.225332234      2.403      6.877
REMARK  5 active torsions:
REMARK  status: ('A' for Active; 'I' for Inactive)
REMARK    1  A    between atoms: N1_2  and  N2_4 
REMARK       I    between atoms: C2_6  and  N3_7 
REMARK       I    between atoms: C2_6  and  N5_14 
REMARK    2  A    between atoms: N3_7  and  N4_9 
REMARK       I    between atoms: N4_9  and  C3_11 
REMARK    3  A    between atoms: N5_14  and  N6_16 
REMARK       I    between atoms: N6_16  and  C5_18 
REMARK       I    between atoms: C5_18  and  N7_20 
REMARK    4  A    between atoms: N7_20  and  C6_22 
REMARK    5  A    between atoms: C6_22  and  C7_23 
REMARK       I    between atoms: C7_23  and  N8_25 
ROOT
HETATM    1  N2  UNL     1      -7.690  27.205  11.114  1.00  0.00    -0.131 N 
ATOM      2  H2  UNL     1      -7.500  26.670  10.267  1.00  0.00     0.205 HD
HETATM    3  C2  UNL     1      -6.880  28.165  11.397  1.00  0.00     0.726 C 
HETATM    4  N3  UNL     1      -6.998  29.002  12.530  1.00  0.00    -0.127 N 
ATOM      5  H3  UNL     1      -7.457  29.910  12.451  1.00  0.00     0.206 HD
HETATM    6  N5  UNL     1      -5.816  28.401  10.488  1.00  0.00    -0.126 N 
ATOM      7  H5  UNL     1      -4.979  27.818  10.536  1.00  0.00     0.206 HD
ENDROOT
BRANCH   6   8
HETATM    8  N6  UNL     1      -5.892  29.421   9.522  1.00  0.00    -0.237 N 
HETATM    9  C5  UNL     1      -5.364  30.724   9.737  1.00  0.00     0.335 C 
HETATM   10  O2  UNL     1      -4.816  30.945  10.831  1.00  0.00    -0.246 OA
HETATM   11  N7  UNL     1      -5.483  31.696   8.717  1.00  0.00    -0.333 N 
ATOM     12  H7  UNL     1      -5.953  31.456   7.844  1.00  0.00     0.164 HD
ATOM     13  H6  UNL     1      -6.345  29.218   8.631  1.00  0.00     0.192 HD
BRANCH  11  14
HETATM   14  C6  UNL     1      -4.952  33.017   8.895  1.00  0.00     0.227 C 
BRANCH  14  15
HETATM   15  C7  UNL     1      -5.900  33.850   9.672  1.00  0.00     0.237 C 
HETATM   16  O3  UNL     1      -6.932  34.286   9.101  1.00  0.00    -0.272 OA
HETATM   17  N8  UNL     1      -5.685  34.174  11.032  1.00  0.00    -0.348 N 
HETATM   18  C8  UNL     1      -6.156  34.855  12.226  1.00  0.00     0.145 A 
HETATM   19  C9  UNL     1      -4.894  34.085  12.240  1.00  0.00     0.145 A 
ENDBRANCH  14  15
ENDBRANCH  11  14
ENDBRANCH   6   8
BRANCH   1  20
HETATM   20  N1  UNL     1      -8.778  26.843  11.848  1.00  0.00    -0.308 N 
HETATM   21  C1  UNL     1     -10.001  26.948  11.692  1.00  0.00     0.139 C 
ATOM     22  H1  UNL     1      -8.529  26.380  12.722  1.00  0.00     0.185 HD
ENDBRANCH   1  20
BRANCH   4  23
HETATM   23  N4  UNL     1      -6.485  28.581  13.755  1.00  0.00    -0.256 N 
HETATM   24  C3  UNL     1      -7.289  28.135  14.830  1.00  0.00     0.232 C 
HETATM   25  C4  UNL     1      -6.728  27.695  16.111  1.00  0.00     0.119 C 
HETATM   26  O1  UNL     1      -8.545  28.111  14.690  1.00  0.00    -0.272 OA
ATOM     27  H4  UNL     1      -5.473  28.595  13.884  1.00  0.00     0.190 HD
ENDBRANCH   4  23
TORSDOF 5
ENDMDL
MODEL 5
REMARK VINA RESULT: -7.182732879      1.670      1.989
REMARK  5 active torsions:
REMARK  status: ('A' for Active; 'I' for Inactive)
REMARK    1  A    between atoms: N1_2  and  N2_4 
REMARK       I    between atoms: C2_6  and  N3_7 
REMARK       I    between atoms: C2_6  and  N5_14 
REMARK    2  A    between atoms: N3_7  and  N4_9 
REMARK       I    between atoms: N4_9  and  C3_11 
REMARK    3  A    between atoms: N5_14  and  N6_16 
REMARK       I    between atoms: N6_16  and  C5_18 
REMARK       I    between atoms: C5_18  and  N7_20 
REMARK    4  A    between atoms: N7_20  and  C6_22 
REMARK    5  A    between atoms: C6_22  and  C7_23 
REMARK       I    between atoms: C7_23  and  N8_25 
ROOT
HETATM    1  N2  UNL     1      -5.373  33.936   9.491  1.00  0.00    -0.131 N 
ATOM      2  H2  UNL     1      -4.639  34.456   9.970  1.00  0.00     0.205 HD
HETATM    3  C2  UNL     1      -5.378  32.657   9.638  1.00  0.00     0.726 C 
HETATM    4  N3  UNL     1      -6.321  31.788   9.044  1.00  0.00    -0.127 N 
ATOM      5  H3  UNL     1      -7.137  31.478   9.573  1.00  0.00     0.206 HD
HETATM    6  N5  UNL     1      -4.375  32.099  10.473  1.00  0.00    -0.126 N 
ATOM      7  H5  UNL     1      -3.437  31.949  10.099  1.00  0.00     0.206 HD
ENDROOT
BRANCH   6   8
HETATM    8  N6  UNL     1      -4.648  31.749  11.809  1.00  0.00    -0.237 N 
HETATM    9  C5  UNL     1      -5.212  30.497  12.175  1.00  0.00     0.335 C 
HETATM   10  O2  UNL     1      -5.464  29.695  11.260  1.00  0.00    -0.246 OA
HETATM   11  N7  UNL     1      -5.461  30.222  13.540  1.00  0.00    -0.333 N 
ATOM     12  H7  UNL     1      -5.240  30.926  14.244  1.00  0.00     0.164 HD
ATOM     13  H6  UNL     1      -4.433  32.422  12.544  1.00  0.00     0.192 HD
BRANCH  11  14
HETATM   14  C6  UNL     1      -6.018  28.964  13.947  1.00  0.00     0.227 C 
BRANCH  14  15
HETATM   15  C7  UNL     1      -6.569  29.067  15.318  1.00  0.00     0.237 C 
HETATM   16  O3  UNL     1      -6.916  30.196  15.748  1.00  0.00    -0.272 OA
HETATM   17  N8  UNL     1      -6.718  27.941  16.161  1.00  0.00    -0.348 N 
HETATM   18  C8  UNL     1      -7.137  27.411  17.448  1.00  0.00     0.145 A 
HETATM   19  C9  UNL     1      -6.594  26.520  16.401  1.00  0.00     0.145 A 
ENDBRANCH  14  15
ENDBRANCH  11  14
ENDBRANCH   6   8
BRANCH   1  20
HETATM   20  N1  UNL     1      -6.262  34.653   8.751  1.00  0.00    -0.308 N 
HETATM   21  C1  UNL     1      -6.159  35.483   7.839  1.00  0.00     0.139 C 
ATOM     22  H1  UNL     1      -7.231  34.464   9.007  1.00  0.00     0.185 HD
ENDBRANCH   1  20
BRANCH   4  23
HETATM   23  N4  UNL     1      -6.133  31.358   7.732  1.00  0.00    -0.256 N 
HETATM   24  C3  UNL     1      -6.961  31.744   6.653  1.00  0.00     0.232 C 
HETATM   25  C4  UNL     1      -6.744  31.280   5.280  1.00  0.00     0.119 C 
HETATM   26  O1  UNL     1      -7.933  32.523   6.872  1.00  0.00    -0.272 OA
ATOM     27  H4  UNL     1      -5.353  30.728   7.540  1.00  0.00     0.190 HD
ENDBRANCH   4  23
TORSDOF 5
ENDMDL
