MODEL 1
REMARK VINA RESULT: -8.105570966      0.000      0.000
REMARK  4 active torsions:
REMARK  status: ('A' for Active; 'I' for Inactive)
REMARK       I    between atoms: N1_2  and  C3_4 
REMARK       I    between atoms: C3_4  and  N2_6 
REMARK       I    between atoms: N2_6  and  C4_8 
REMARK    1  A    between atoms: C4_8  and  C5_10 
REMARK    2  A    between atoms: C5_10  and  N3_11 
REMARK    3  A    between atoms: C5_10  and  C6_15 
REMARK    4  A    between atoms: C6_15  and  N4_16 
REMARK       I    between atoms: N4_16  and  C7_18 
REMARK       I    between atoms: C7_18  and  N8_26 
REMARK       I    between atoms: N5_19  and  C8_21 
ROOT
HETATM    1  N4  UNL     1      -4.721  31.546  11.268  1.00  0.00    -0.223 N 
ATOM      2  H4  UNL     1      -3.732  31.308  11.338  1.00  0.00     0.177 HD
HETATM    3  C7  UNL     1      -5.150  32.917  11.248  1.00  0.00     0.689 C 
HETATM    4  N5  UNL     1      -4.764  33.665  12.187  1.00  0.00    -0.163 N 
ATOM      5  H5  UNL     1      -4.168  33.253  12.905  1.00  0.00     0.187 HD
HETATM    6  C8  UNL     1      -5.089  35.004  12.313  1.00  0.00     0.200 C 
HETATM    7  N6  UNL     1      -4.756  35.640  13.390  1.00  0.00    -0.373 N 
ATOM      8  H61 UNL     1      -4.996  36.627  13.482  1.00  0.00     0.158 HD
ATOM      9  H62 UNL     1      -4.264  35.122  14.118  1.00  0.00     0.158 HD
HETATM   10  N7  UNL     1      -5.766  35.714  11.314  1.00  0.00    -0.063 NA
HETATM   11  N8  UNL     1      -5.975  33.393  10.205  1.00  0.00    -0.126 N 
ATOM     12  H8  UNL     1      -6.945  33.638  10.400  1.00  0.00     0.197 HD
HETATM   13  C9  UNL     1      -5.465  33.534   8.884  1.00  0.00     0.196 C 
HETATM   14  N9  UNL     1      -5.045  33.654   7.816  1.00  0.00    -0.171 NA
ENDROOT
BRANCH   1  15
HETATM   15  C6  UNL     1      -5.718  30.523  11.187  1.00  0.00     0.180 C 
BRANCH  15  16
HETATM   16  C5  UNL     1      -5.415  29.363  12.090  1.00  0.00     0.293 C 
BRANCH  16  17
HETATM   17  C4  UNL     1      -6.052  29.572  13.403  1.00  0.00     0.257 C 
HETATM   18  N2  UNL     1      -6.229  28.463  14.279  1.00  0.00    -0.277 N 
HETATM   19  C3  UNL     1      -6.844  28.639  15.540  1.00  0.00     0.324 C 
ATOM     20  H2  UNL     1      -5.912  27.536  13.994  1.00  0.00     0.173 HD
HETATM   21  N1  UNL     1      -7.016  27.538  16.388  1.00  0.00    -0.343 N 
HETATM   22  O1  UNL     1      -7.231  29.804  15.887  1.00  0.00    -0.247 OA
HETATM   23  C1  UNL     1      -7.641  27.713  17.669  1.00  0.00     0.154 C 
HETATM   24  C2  UNL     1      -6.575  26.235  15.987  1.00  0.00     0.154 C 
HETATM   25  O2  UNL     1      -6.432  30.720  13.741  1.00  0.00    -0.271 OA
ENDBRANCH  16  17
BRANCH  16  26
HETATM   26  N3  UNL     1      -5.820  28.115  11.498  1.00  0.00    -0.065 N 
ATOM     27  H33 UNL     1      -5.324  27.327  11.914  1.00  0.00     0.275 HD
ATOM     28  H32 UNL     1      -6.771  27.865  11.769  1.00  0.00     0.275 HD
ATOM     29  H31 UNL     1      -5.713  28.129  10.483  1.00  0.00     0.275 HD
ENDBRANCH  16  26
ENDBRANCH  15  16
ENDBRANCH   1  15
TORSDOF 4
ENDMDL
MODEL 2
REMARK VINA RESULT: -7.732813325      2.600      7.676
REMARK  4 active torsions:
REMARK  status: ('A' for Active; 'I' for Inactive)
REMARK       I    between atoms: N1_2  and  C3_4 
REMARK       I    between atoms: C3_4  and  N2_6 
REMARK       I    between atoms: N2_6  and  C4_8 
REMARK    1  A    between atoms: C4_8  and  C5_10 
REMARK    2  A    between atoms: C5_10  and  N3_11 
REMARK    3  A    between atoms: C5_10  and  C6_15 
REMARK    4  A    between atoms: C6_15  and  N4_16 
REMARK       I    between atoms: N4_16  and  C7_18 
REMARK       I    between atoms: C7_18  and  N8_26 
REMARK       I    between atoms: N5_19  and  C8_21 
ROOT
HETATM    1  N4  UNL     1      -6.645  31.533  12.987  1.00  0.00    -0.223 N 
ATOM      2  H4  UNL     1      -7.623  31.700  12.749  1.00  0.00     0.177 HD
HETATM    3  C7  UNL     1      -6.248  30.339  13.680  1.00  0.00     0.689 C 
HETATM    4  N5  UNL     1      -6.833  30.071  14.765  1.00  0.00    -0.163 N 
ATOM      5  H5  UNL     1      -7.555  30.716  15.085  1.00  0.00     0.187 HD
HETATM    6  C8  UNL     1      -6.567  28.963  15.551  1.00  0.00     0.200 C 
HETATM    7  N6  UNL     1      -7.126  28.860  16.713  1.00  0.00    -0.373 N 
ATOM      8  H61 UNL     1      -6.930  28.043  17.292  1.00  0.00     0.158 HD
ATOM      9  H62 UNL     1      -7.747  29.612  17.014  1.00  0.00     0.158 HD
HETATM   10  N7  UNL     1      -5.715  27.932  15.139  1.00  0.00    -0.063 NA
HETATM   11  N8  UNL     1      -5.237  29.507  13.151  1.00  0.00    -0.126 N 
ATOM     12  H8  UNL     1      -4.332  29.452  13.618  1.00  0.00     0.197 HD
HETATM   13  C9  UNL     1      -5.468  28.744  11.973  1.00  0.00     0.196 C 
HETATM   14  N9  UNL     1      -5.662  28.121  11.021  1.00  0.00    -0.171 NA
ENDROOT
BRANCH   1  15
HETATM   15  C6  UNL     1      -5.632  32.481  12.637  1.00  0.00     0.180 C 
BRANCH  15  16
HETATM   16  C5  UNL     1      -5.488  32.634  11.150  1.00  0.00     0.293 C 
BRANCH  16  17
HETATM   17  C4  UNL     1      -5.630  34.054  10.777  1.00  0.00     0.257 C 
HETATM   18  N2  UNL     1      -5.646  34.417   9.401  1.00  0.00    -0.277 N 
HETATM   19  C3  UNL     1      -5.775  35.773   9.021  1.00  0.00     0.324 C 
ATOM     20  H2  UNL     1      -5.563  33.696   8.685  1.00  0.00     0.173 HD
HETATM   21  N1  UNL     1      -5.783  36.116   7.663  1.00  0.00    -0.343 N 
HETATM   22  O1  UNL     1      -5.884  36.666   9.925  1.00  0.00    -0.247 OA
HETATM   23  C1  UNL     1      -5.912  37.492   7.274  1.00  0.00     0.154 C 
HETATM   24  C2  UNL     1      -5.661  35.103   6.656  1.00  0.00     0.154 C 
HETATM   25  O2  UNL     1      -5.738  34.930  11.671  1.00  0.00    -0.271 OA
ENDBRANCH  16  17
BRANCH  16  26
HETATM   26  N3  UNL     1      -4.242  32.087  10.683  1.00  0.00    -0.065 N 
ATOM     27  H33 UNL     1      -4.139  32.202   9.676  1.00  0.00     0.275 HD
ATOM     28  H32 UNL     1      -3.449  32.651  10.989  1.00  0.00     0.275 HD
ATOM     29  H31 UNL     1      -4.134  31.111  10.960  1.00  0.00     0.275 HD
ENDBRANCH  16  26
ENDBRANCH  15  16
ENDBRANCH   1  15
TORSDOF 4
ENDMDL
MODEL 3
REMARK VINA RESULT: -7.664887660      4.457      6.257
REMARK  4 active torsions:
REMARK  status: ('A' for Active; 'I' for Inactive)
REMARK       I    between atoms: N1_2  and  C3_4 
REMARK       I    between atoms: C3_4  and  N2_6 
REMARK       I    between atoms: N2_6  and  C4_8 
REMARK    1  A    between atoms: C4_8  and  C5_10 
REMARK    2  A    between atoms: C5_10  and  N3_11 
REMARK    3  A    between atoms: C5_10  and  C6_15 
REMARK    4  A    between atoms: C6_15  and  N4_16 
REMARK       I    between atoms: N4_16  and  C7_18 
REMARK       I    between atoms: C7_18  and  N8_26 
REMARK       I    between atoms: N5_19  and  C8_21 
ROOT
HETATM    1  N4  UNL     1      -4.842  36.287  10.733  1.00  0.00    -0.223 N 
ATOM      2  H4  UNL     1      -3.874  35.972  10.661  1.00  0.00     0.177 HD
HETATM    3  C7  UNL     1      -5.204  37.639  10.408  1.00  0.00     0.689 C 
HETATM    4  N5  UNL     1      -4.579  38.568  10.990  1.00  0.00    -0.163 N 
ATOM      5  H5  UNL     1      -3.853  38.305  11.656  1.00  0.00     0.187 HD
HETATM    6  C8  UNL     1      -4.808  39.917  10.788  1.00  0.00     0.200 C 
HETATM    7  N6  UNL     1      -4.209  40.782  11.542  1.00  0.00    -0.373 N 
ATOM      8  H61 UNL     1      -4.378  41.777  11.393  1.00  0.00     0.158 HD
ATOM      9  H62 UNL     1      -3.586  40.432  12.269  1.00  0.00     0.158 HD
HETATM   10  N7  UNL     1      -5.665  40.398   9.791  1.00  0.00    -0.063 NA
HETATM   11  N8  UNL     1      -6.224  37.899   9.467  1.00  0.00    -0.126 N 
ATOM     12  H8  UNL     1      -7.112  38.291   9.781  1.00  0.00     0.197 HD
HETATM   13  C9  UNL     1      -6.027  37.622   8.086  1.00  0.00     0.196 C 
HETATM   14  N9  UNL     1      -5.859  37.401   6.966  1.00  0.00    -0.171 NA
ENDROOT
BRANCH   1  15
HETATM   15  C6  UNL     1      -5.875  35.393  11.160  1.00  0.00     0.180 C 
BRANCH  15  16
HETATM   16  C5  UNL     1      -5.376  34.382  12.151  1.00  0.00     0.293 C 
BRANCH  16  17
HETATM   17  C4  UNL     1      -5.221  33.071  11.493  1.00  0.00     0.257 C 
HETATM   18  N2  UNL     1      -5.368  32.976  10.080  1.00  0.00    -0.277 N 
HETATM   19  C3  UNL     1      -5.230  31.728   9.430  1.00  0.00     0.324 C 
ATOM     20  H2  UNL     1      -5.575  33.813   9.534  1.00  0.00     0.173 HD
HETATM   21  N1  UNL     1      -5.383  31.649   8.040  1.00  0.00    -0.343 N 
HETATM   22  O1  UNL     1      -4.966  30.691  10.122  1.00  0.00    -0.247 OA
HETATM   23  C1  UNL     1      -5.245  30.384   7.376  1.00  0.00     0.154 C 
HETATM   24  C2  UNL     1      -5.678  32.824   7.272  1.00  0.00     0.154 C 
HETATM   25  O2  UNL     1      -4.961  32.052  12.179  1.00  0.00    -0.271 OA
ENDBRANCH  16  17
BRANCH  16  26
HETATM   26  N3  UNL     1      -4.150  34.812  12.769  1.00  0.00    -0.065 N 
ATOM     27  H33 UNL     1      -3.962  34.292  13.626  1.00  0.00     0.275 HD
ATOM     28  H32 UNL     1      -3.336  34.521  12.227  1.00  0.00     0.275 HD
ATOM     29  H31 UNL     1      -4.146  35.819  12.935  1.00  0.00     0.275 HD
ENDBRANCH  16  26
ENDBRANCH  15  16
ENDBRANCH   1  15
TORSDOF 4
ENDMDL
MODEL 4
REMARK VINA RESULT: -7.544656695      3.104      5.108
REMARK  4 active torsions:
REMARK  status: ('A' for Active; 'I' for Inactive)
REMARK       I    between atoms: N1_2  and  C3_4 
REMARK       I    between atoms: C3_4  and  N2_6 
REMARK       I    between atoms: N2_6  and  C4_8 
REMARK    1  A    between atoms: C4_8  and  C5_10 
REMARK    2  A    between atoms: C5_10  and  N3_11 
REMARK    3  A    between atoms: C5_10  and  C6_15 
REMARK    4  A    between atoms: C6_15  and  N4_16 
REMARK       I    between atoms: N4_16  and  C7_18 
REMARK       I    between atoms: C7_18  and  N8_26 
REMARK       I    between atoms: N5_19  and  C8_21 
ROOT
HETATM    1  N4  UNL     1      -4.939  36.381  10.869  1.00  0.00    -0.223 N 
ATOM      2  H4  UNL     1      -3.981  36.032  10.824  1.00  0.00     0.177 HD
HETATM    3  C7  UNL     1      -5.248  37.734  10.496  1.00  0.00     0.689 C 
HETATM    4  N5  UNL     1      -4.600  38.659  11.059  1.00  0.00    -0.163 N 
ATOM      5  H5  UNL     1      -3.895  38.392  11.745  1.00  0.00     0.187 HD
HETATM    6  C8  UNL     1      -4.779  40.008  10.812  1.00  0.00     0.200 C 
HETATM    7  N6  UNL     1      -4.162  40.876  11.548  1.00  0.00    -0.373 N 
ATOM      8  H61 UNL     1      -4.293  41.871  11.365  1.00  0.00     0.158 HD
ATOM      9  H62 UNL     1      -3.563  40.528  12.297  1.00  0.00     0.158 HD
HETATM   10  N7  UNL     1      -5.602  40.486   9.785  1.00  0.00    -0.063 NA
HETATM   11  N8  UNL     1      -6.243  37.999   9.530  1.00  0.00    -0.126 N 
ATOM     12  H8  UNL     1      -7.121  38.431   9.815  1.00  0.00     0.197 HD
HETATM   13  C9  UNL     1      -6.033  37.671   8.162  1.00  0.00     0.196 C 
HETATM   14  N9  UNL     1      -5.855  37.409   7.052  1.00  0.00    -0.171 NA
ENDROOT
BRANCH   1  15
HETATM   15  C6  UNL     1      -6.009  35.538  11.305  1.00  0.00     0.180 C 
BRANCH  15  16
HETATM   16  C5  UNL     1      -5.517  34.370  12.111  1.00  0.00     0.293 C 
BRANCH  16  17
HETATM   17  C4  UNL     1      -5.550  33.146  11.288  1.00  0.00     0.257 C 
HETATM   18  N2  UNL     1      -5.611  31.876  11.927  1.00  0.00    -0.277 N 
HETATM   19  C3  UNL     1      -5.637  30.689  11.158  1.00  0.00     0.324 C 
ATOM     20  H2  UNL     1      -5.636  31.820  12.945  1.00  0.00     0.173 HD
HETATM   21  N1  UNL     1      -5.692  29.446  11.801  1.00  0.00    -0.343 N 
HETATM   22  O1  UNL     1      -5.612  30.771   9.886  1.00  0.00    -0.247 OA
HETATM   23  C1  UNL     1      -5.716  28.239  11.023  1.00  0.00     0.154 C 
HETATM   24  C2  UNL     1      -5.721  29.368  13.232  1.00  0.00     0.154 C 
HETATM   25  O2  UNL     1      -5.525  33.231  10.035  1.00  0.00    -0.271 OA
ENDBRANCH  16  17
BRANCH  16  26
HETATM   26  N3  UNL     1      -4.204  34.614  12.644  1.00  0.00    -0.065 N 
ATOM     27  H33 UNL     1      -3.689  33.744  12.779  1.00  0.00     0.275 HD
ATOM     28  H32 UNL     1      -3.595  35.052  11.952  1.00  0.00     0.275 HD
ATOM     29  H31 UNL     1      -4.244  35.161  13.505  1.00  0.00     0.275 HD
ENDBRANCH  16  26
ENDBRANCH  15  16
ENDBRANCH   1  15
TORSDOF 4
ENDMDL
MODEL 5
REMARK VINA RESULT: -7.532929748      3.015      6.355
REMARK  4 active torsions:
REMARK  status: ('A' for Active; 'I' for Inactive)
REMARK       I    between atoms: N1_2  and  C3_4 
REMARK       I    between atoms: C3_4  and  N2_6 
REMARK       I    between atoms: N2_6  and  C4_8 
REMARK    1  A    between atoms: C4_8  and  C5_10 
REMARK    2  A    between atoms: C5_10  and  N3_11 
REMARK    3  A    between atoms: C5_10  and  C6_15 
REMARK    4  A    between atoms: C6_15  and  N4_16 
REMARK       I    between atoms: N4_16  and  C7_18 
REMARK       I    between atoms: C7_18  and  N8_26 
REMARK       I    between atoms: N5_19  and  C8_21 
ROOT
HETATM    1  N4  UNL     1      -5.709  30.097  14.239  1.00  0.00    -0.223 N 
ATOM      2  H4  UNL     1      -5.384  30.957  14.681  1.00  0.00     0.177 HD
HETATM    3  C7  UNL     1      -6.679  29.257  14.886  1.00  0.00     0.689 C 
HETATM    4  N5  UNL     1      -6.429  28.874  16.061  1.00  0.00    -0.163 N 
ATOM      5  H5  UNL     1      -5.554  29.183  16.484  1.00  0.00     0.187 HD
HETATM    6  C8  UNL     1      -7.258  28.064  16.818  1.00  0.00     0.200 C 
HETATM    7  N6  UNL     1      -6.838  27.615  17.957  1.00  0.00    -0.373 N 
ATOM      8  H61 UNL     1      -7.449  27.018  18.515  1.00  0.00     0.158 HD
ATOM      9  H62 UNL     1      -5.899  27.874  18.257  1.00  0.00     0.158 HD
HETATM   10  N7  UNL     1      -8.547  27.707  16.406  1.00  0.00    -0.063 NA
HETATM   11  N8  UNL     1      -7.864  28.886  14.214  1.00  0.00    -0.126 N 
ATOM     12  H8  UNL     1      -7.995  27.919  13.919  1.00  0.00     0.197 HD
HETATM   13  C9  UNL     1      -8.878  29.847  13.945  1.00  0.00     0.196 C 
HETATM   14  N9  UNL     1      -9.700  30.629  13.736  1.00  0.00    -0.171 NA
ENDROOT
BRANCH   1  15
HETATM   15  C6  UNL     1      -5.212  29.696  12.959  1.00  0.00     0.180 C 
BRANCH  15  16
HETATM   16  C5  UNL     1      -5.227  30.823  11.966  1.00  0.00     0.293 C 
BRANCH  16  17
HETATM   17  C4  UNL     1      -5.974  30.418  10.761  1.00  0.00     0.257 C 
HETATM   18  N2  UNL     1      -6.937  29.373  10.854  1.00  0.00    -0.277 N 
HETATM   19  C3  UNL     1      -7.661  28.965   9.710  1.00  0.00     0.324 C 
ATOM     20  H2  UNL     1      -7.106  28.917  11.750  1.00  0.00     0.173 HD
HETATM   21  N1  UNL     1      -8.601  27.932   9.815  1.00  0.00    -0.343 N 
HETATM   22  O1  UNL     1      -7.446  29.547   8.596  1.00  0.00    -0.247 OA
HETATM   23  C1  UNL     1      -9.336  27.514   8.655  1.00  0.00     0.154 C 
HETATM   24  C2  UNL     1      -8.835  27.287  11.074  1.00  0.00     0.154 C 
HETATM   25  O2  UNL     1      -5.760  30.995   9.666  1.00  0.00    -0.271 OA
ENDBRANCH  16  17
BRANCH  16  26
HETATM   26  N3  UNL     1      -5.765  32.025  12.544  1.00  0.00    -0.065 N 
ATOM     27  H33 UNL     1      -6.362  31.820  13.344  1.00  0.00     0.275 HD
ATOM     28  H32 UNL     1      -5.043  32.566  13.021  1.00  0.00     0.275 HD
ATOM     29  H31 UNL     1      -6.255  32.589  11.848  1.00  0.00     0.275 HD
ENDBRANCH  16  26
ENDBRANCH  15  16
ENDBRANCH   1  15
TORSDOF 4
ENDMDL
