MODEL 1
REMARK VINA RESULT: -7.413672056      0.000      0.000
REMARK  13 active torsions:
REMARK  status: ('A' for Active; 'I' for Inactive)
REMARK    1  A    between atoms: C2_2  and  C4_4 
REMARK       I    between atoms: C4_4  and  N1_6 
REMARK    2  A    between atoms: N1_6  and  S1_8 
REMARK    3  A    between atoms: S1_8  and  O4_11 
REMARK    4  A    between atoms: O4_11  and  C5_12 
REMARK    5  A    between atoms: C9_16  and  N2_17 
REMARK    6  A    between atoms: C10_21  and  O5_22 
REMARK    7  A    between atoms: O5_22  and  C11_23 
REMARK    8  A    between atoms: C11_23  and  N3_24 
REMARK    9  A    between atoms: C11_23  and  C12_28 
REMARK   10  A    between atoms: C12_28  and  C13_29 
REMARK   11  A    between atoms: C12_28  and  C16_34 
REMARK   12  A    between atoms: C13_29  and  C14_30 
REMARK   13  A    between atoms: C14_30  and  C15_31 
ROOT
HETATM    1  C5  UNL     1      -7.669 -24.024 -89.938  1.00  0.00     0.175 C 
HETATM    2  C6  UNL     1      -8.217 -24.526 -88.624  1.00  0.00     0.036 C 
HETATM    3  C7  UNL     1      -7.702 -25.891 -88.285  1.00  0.00     0.005 C 
HETATM    4  C8  UNL     1      -7.114 -26.633 -89.433  1.00  0.00     0.035 C 
HETATM    5  C9  UNL     1      -7.599 -26.286 -90.800  1.00  0.00     0.215 C 
HETATM    6  C10 UNL     1      -8.231 -24.984 -91.011  1.00  0.00     0.185 C 
ENDROOT
BRANCH   6   7
HETATM    7  O5  UNL     1      -7.858 -24.369 -92.207  1.00  0.00    -0.348 OA
BRANCH   7   8
HETATM    8  C11 UNL     1      -8.717 -24.609 -93.234  1.00  0.00     0.333 C 
BRANCH   8   9
HETATM    9  N3  UNL     1      -9.522 -23.311 -93.431  1.00  0.00    -0.052 N 
ATOM     10  H33 UNL     1     -10.465 -23.356 -93.046  1.00  0.00     0.277 HD
ATOM     11  H32 UNL     1      -9.190 -22.536 -92.857  1.00  0.00     0.277 HD
ATOM     12  H31 UNL     1      -9.499 -23.114 -94.432  1.00  0.00     0.277 HD
ENDBRANCH   8   9
BRANCH   8  13
HETATM   13  C12 UNL     1      -8.045 -24.835 -94.554  1.00  0.00     0.143 C 
BRANCH  13  14
HETATM   14  C13 UNL     1      -7.708 -23.569 -95.252  1.00  0.00     0.028 C 
BRANCH  14  15
HETATM   15  C14 UNL     1      -8.154 -23.431 -96.654  1.00  0.00     0.100 C 
BRANCH  15  16
HETATM   16  C15 UNL     1      -7.454 -24.097 -97.728  1.00  0.00     0.231 C 
HETATM   17  N4  UNL     1      -8.135 -24.957 -98.662  1.00  0.00    -0.062 NA
HETATM   18  O6  UNL     1      -6.205 -23.935 -97.881  1.00  0.00    -0.277 OA
ENDBRANCH  15  16
ENDBRANCH  14  15
ENDBRANCH  13  14
BRANCH  13  19
HETATM   19  C16 UNL     1      -7.020 -25.868 -94.542  1.00  0.00     0.181 C 
HETATM   20  O7  UNL     1      -7.316 -27.073 -94.180  1.00  0.00    -0.648 OA
HETATM   21  O8  UNL     1      -5.695 -25.711 -94.889  1.00  0.00    -0.648 OA
ENDBRANCH  13  19
ENDBRANCH   8  13
ENDBRANCH   7   8
ENDBRANCH   6   7
BRANCH   1  22
HETATM   22  O4  UNL     1      -6.291 -24.135 -89.868  1.00  0.00    -0.251 OA
BRANCH  22  23
HETATM   23  S1  UNL     1      -5.504 -22.696 -89.564  1.00  0.00     0.364 S 
HETATM   24  O2  UNL     1      -6.345 -21.941 -88.554  1.00  0.00    -0.175 OA
HETATM   25  O3  UNL     1      -4.137 -22.896 -88.966  1.00  0.00    -0.175 OA
BRANCH  23  26
HETATM   26  N1  UNL     1      -5.351 -21.694 -90.952  1.00  0.00    -0.231 N 
HETATM   27  C4  UNL     1      -4.664 -20.462 -90.922  1.00  0.00     0.236 C 
HETATM   28  O1  UNL     1      -4.152 -20.101 -89.827  1.00  0.00    -0.272 OA
ATOM     29  H1  UNL     1      -5.771 -22.001 -91.830  1.00  0.00     0.183 HD
BRANCH  27  30
HETATM   30  C2  UNL     1      -4.537 -19.624 -92.115  1.00  0.00     0.071 C 
HETATM   31  C1  UNL     1      -4.479 -20.463 -93.380  1.00  0.00     0.019 C 
HETATM   32  C3  UNL     1      -3.404 -18.632 -92.065  1.00  0.00     0.019 C 
ENDBRANCH  27  30
ENDBRANCH  23  26
ENDBRANCH  22  23
ENDBRANCH   1  22
BRANCH   5  33
HETATM   33  N2  UNL     1      -8.538 -27.363 -91.223  1.00  0.00    -0.072 N 
ATOM     34  H23 UNL     1      -8.063 -28.225 -91.491  1.00  0.00     0.274 HD
ATOM     35  H22 UNL     1      -9.079 -27.747 -90.448  1.00  0.00     0.274 HD
ATOM     36  H21 UNL     1      -9.121 -26.981 -91.967  1.00  0.00     0.274 HD
ENDBRANCH   5  33
TORSDOF 13
ENDMDL
MODEL 2
REMARK VINA RESULT: -7.370754989      2.586      5.869
REMARK  13 active torsions:
REMARK  status: ('A' for Active; 'I' for Inactive)
REMARK    1  A    between atoms: C2_2  and  C4_4 
REMARK       I    between atoms: C4_4  and  N1_6 
REMARK    2  A    between atoms: N1_6  and  S1_8 
REMARK    3  A    between atoms: S1_8  and  O4_11 
REMARK    4  A    between atoms: O4_11  and  C5_12 
REMARK    5  A    between atoms: C9_16  and  N2_17 
REMARK    6  A    between atoms: C10_21  and  O5_22 
REMARK    7  A    between atoms: O5_22  and  C11_23 
REMARK    8  A    between atoms: C11_23  and  N3_24 
REMARK    9  A    between atoms: C11_23  and  C12_28 
REMARK   10  A    between atoms: C12_28  and  C13_29 
REMARK   11  A    between atoms: C12_28  and  C16_34 
REMARK   12  A    between atoms: C13_29  and  C14_30 
REMARK   13  A    between atoms: C14_30  and  C15_31 
ROOT
HETATM    1  C5  UNL     1      -6.882 -25.043 -93.010  1.00  0.00     0.175 C 
HETATM    2  C6  UNL     1      -6.260 -25.640 -94.248  1.00  0.00     0.036 C 
HETATM    3  C7  UNL     1      -6.395 -24.738 -95.436  1.00  0.00     0.005 C 
HETATM    4  C8  UNL     1      -7.424 -23.672 -95.289  1.00  0.00     0.035 C 
HETATM    5  C9  UNL     1      -8.560 -23.933 -94.358  1.00  0.00     0.215 C 
HETATM    6  C10 UNL     1      -8.394 -24.946 -93.316  1.00  0.00     0.185 C 
ENDROOT
BRANCH   6   7
HETATM    7  O5  UNL     1      -8.939 -24.576 -92.086  1.00  0.00    -0.348 OA
BRANCH   7   8
HETATM    8  C11 UNL     1      -8.345 -25.181 -91.022  1.00  0.00     0.333 C 
BRANCH   8   9
HETATM    9  N3  UNL     1      -8.067 -24.067 -89.997  1.00  0.00    -0.052 N 
ATOM     10  H33 UNL     1      -7.585 -24.396 -89.160  1.00  0.00     0.277 HD
ATOM     11  H32 UNL     1      -7.352 -23.405 -90.299  1.00  0.00     0.277 HD
ATOM     12  H31 UNL     1      -8.968 -23.630 -89.802  1.00  0.00     0.277 HD
ENDBRANCH   8   9
BRANCH   8  13
HETATM   13  C12 UNL     1      -9.230 -26.146 -90.293  1.00  0.00     0.143 C 
BRANCH  13  14
HETATM   14  C13 UNL     1      -8.518 -27.380 -89.879  1.00  0.00     0.028 C 
BRANCH  14  15
HETATM   15  C14 UNL     1      -9.329 -28.458 -89.273  1.00  0.00     0.100 C 
BRANCH  15  16
HETATM   16  C15 UNL     1      -8.902 -29.120 -88.062  1.00  0.00     0.231 C 
HETATM   17  N4  UNL     1      -9.717 -29.131 -86.874  1.00  0.00    -0.062 NA
HETATM   18  O6  UNL     1      -7.787 -29.723 -88.016  1.00  0.00    -0.277 OA
ENDBRANCH  15  16
ENDBRANCH  14  15
ENDBRANCH  13  14
BRANCH  13  19
HETATM   19  C16 UNL     1     -10.107 -25.534 -89.306  1.00  0.00     0.181 C 
HETATM   20  O7  UNL     1      -9.840 -25.638 -88.045  1.00  0.00    -0.648 OA
HETATM   21  O8  UNL     1     -11.254 -24.815 -89.564  1.00  0.00    -0.648 OA
ENDBRANCH  13  19
ENDBRANCH   8  13
ENDBRANCH   7   8
ENDBRANCH   6   7
BRANCH   1  22
HETATM   22  O4  UNL     1      -6.341 -23.778 -92.856  1.00  0.00    -0.251 OA
BRANCH  22  23
HETATM   23  S1  UNL     1      -4.926 -23.743 -91.973  1.00  0.00     0.364 S 
HETATM   24  O2  UNL     1      -5.009 -24.873 -90.967  1.00  0.00    -0.175 OA
HETATM   25  O3  UNL     1      -3.705 -23.972 -92.823  1.00  0.00    -0.175 OA
BRANCH  23  26
HETATM   26  N1  UNL     1      -4.709 -22.286 -91.087  1.00  0.00    -0.231 N 
HETATM   27  C4  UNL     1      -4.683 -21.021 -91.711  1.00  0.00     0.236 C 
HETATM   28  O1  UNL     1      -4.824 -20.980 -92.964  1.00  0.00    -0.272 OA
ATOM     29  H1  UNL     1      -4.596 -22.338 -90.075  1.00  0.00     0.183 HD
BRANCH  27  30
HETATM   30  C2  UNL     1      -4.504 -19.789 -90.941  1.00  0.00     0.071 C 
HETATM   31  C1  UNL     1      -3.486 -18.868 -91.594  1.00  0.00     0.019 C 
HETATM   32  C3  UNL     1      -4.190 -20.002 -89.483  1.00  0.00     0.019 C 
ENDBRANCH  27  30
ENDBRANCH  23  26
ENDBRANCH  22  23
ENDBRANCH   1  22
BRANCH   5  33
HETATM   33  N2  UNL     1      -9.746 -24.276 -95.193  1.00  0.00    -0.072 N 
ATOM     34  H23 UNL     1      -9.625 -25.139 -95.724  1.00  0.00     0.274 HD
ATOM     35  H22 UNL     1     -10.550 -24.575 -94.640  1.00  0.00     0.274 HD
ATOM     36  H21 UNL     1      -9.945 -23.469 -95.783  1.00  0.00     0.274 HD
ENDBRANCH   5  33
TORSDOF 13
ENDMDL
MODEL 3
REMARK VINA RESULT: -7.339222835      3.867      6.969
REMARK  13 active torsions:
REMARK  status: ('A' for Active; 'I' for Inactive)
REMARK    1  A    between atoms: C2_2  and  C4_4 
REMARK       I    between atoms: C4_4  and  N1_6 
REMARK    2  A    between atoms: N1_6  and  S1_8 
REMARK    3  A    between atoms: S1_8  and  O4_11 
REMARK    4  A    between atoms: O4_11  and  C5_12 
REMARK    5  A    between atoms: C9_16  and  N2_17 
REMARK    6  A    between atoms: C10_21  and  O5_22 
REMARK    7  A    between atoms: O5_22  and  C11_23 
REMARK    8  A    between atoms: C11_23  and  N3_24 
REMARK    9  A    between atoms: C11_23  and  C12_28 
REMARK   10  A    between atoms: C12_28  and  C13_29 
REMARK   11  A    between atoms: C12_28  and  C16_34 
REMARK   12  A    between atoms: C13_29  and  C14_30 
REMARK   13  A    between atoms: C14_30  and  C15_31 
ROOT
HETATM    1  C5  UNL     1      -5.113 -22.714 -90.626  1.00  0.00     0.175 C 
HETATM    2  C6  UNL     1      -4.858 -21.262 -90.952  1.00  0.00     0.036 C 
HETATM    3  C7  UNL     1      -4.542 -20.459 -89.728  1.00  0.00     0.005 C 
HETATM    4  C8  UNL     1      -4.928 -21.109 -88.445  1.00  0.00     0.035 C 
HETATM    5  C9  UNL     1      -6.047 -22.094 -88.479  1.00  0.00     0.215 C 
HETATM    6  C10 UNL     1      -6.389 -22.722 -89.756  1.00  0.00     0.185 C 
ENDROOT
BRANCH   6   7
HETATM    7  O5  UNL     1      -6.686 -24.081 -89.648  1.00  0.00    -0.348 OA
BRANCH   7   8
HETATM    8  C11 UNL     1      -8.018 -24.345 -89.578  1.00  0.00     0.333 C 
BRANCH   8   9
HETATM    9  N3  UNL     1      -8.634 -23.777 -90.870  1.00  0.00    -0.052 N 
ATOM     10  H33 UNL     1      -8.540 -22.765 -90.955  1.00  0.00     0.277 HD
ATOM     11  H32 UNL     1      -8.112 -24.021 -91.711  1.00  0.00     0.277 HD
ATOM     12  H31 UNL     1      -9.603 -24.098 -90.887  1.00  0.00     0.277 HD
ENDBRANCH   8   9
BRANCH   8  13
HETATM   13  C12 UNL     1      -8.358 -25.804 -89.614  1.00  0.00     0.143 C 
BRANCH  13  14
HETATM   14  C13 UNL     1      -7.563 -26.604 -88.649  1.00  0.00     0.028 C 
BRANCH  14  15
HETATM   15  C14 UNL     1      -8.252 -27.065 -87.425  1.00  0.00     0.100 C 
BRANCH  15  16
HETATM   16  C15 UNL     1      -8.174 -26.309 -86.196  1.00  0.00     0.231 C 
HETATM   17  N4  UNL     1      -7.409 -26.771 -85.067  1.00  0.00    -0.062 NA
HETATM   18  O6  UNL     1      -8.782 -25.202 -86.082  1.00  0.00    -0.277 OA
ENDBRANCH  15  16
ENDBRANCH  14  15
ENDBRANCH  13  14
BRANCH  13  19
HETATM   19  C16 UNL     1      -9.782 -26.091 -89.685  1.00  0.00     0.181 C 
HETATM   20  O7  UNL     1     -10.217 -27.046 -90.441  1.00  0.00    -0.648 OA
HETATM   21  O8  UNL     1     -10.785 -25.432 -89.007  1.00  0.00    -0.648 OA
ENDBRANCH  13  19
ENDBRANCH   8  13
ENDBRANCH   7   8
ENDBRANCH   6   7
BRANCH   1  22
HETATM   22  O4  UNL     1      -4.027 -23.159 -89.892  1.00  0.00    -0.251 OA
BRANCH  22  23
HETATM   23  S1  UNL     1      -3.332 -24.558 -90.478  1.00  0.00     0.364 S 
HETATM   24  O2  UNL     1      -4.145 -24.978 -91.686  1.00  0.00    -0.175 OA
HETATM   25  O3  UNL     1      -1.910 -24.356 -90.928  1.00  0.00    -0.175 OA
BRANCH  23  26
HETATM   26  N1  UNL     1      -3.370 -25.861 -89.357  1.00  0.00    -0.231 N 
HETATM   27  C4  UNL     1      -2.810 -25.763 -88.067  1.00  0.00     0.236 C 
HETATM   28  O1  UNL     1      -2.265 -24.672 -87.744  1.00  0.00    -0.272 OA
ATOM     29  H1  UNL     1      -3.814 -26.736 -89.636  1.00  0.00     0.183 HD
BRANCH  27  30
HETATM   30  C2  UNL     1      -2.856 -26.879 -87.122  1.00  0.00     0.071 C 
HETATM   31  C1  UNL     1      -4.269 -27.418 -86.967  1.00  0.00     0.019 C 
HETATM   32  C3  UNL     1      -2.232 -26.592 -85.781  1.00  0.00     0.019 C 
ENDBRANCH  27  30
ENDBRANCH  23  26
ENDBRANCH  22  23
ENDBRANCH   1  22
BRANCH   5  33
HETATM   33  N2  UNL     1      -7.252 -21.415 -87.926  1.00  0.00    -0.072 N 
ATOM     34  H23 UNL     1      -7.025 -20.586 -87.376  1.00  0.00     0.274 HD
ATOM     35  H22 UNL     1      -7.811 -20.949 -88.642  1.00  0.00     0.274 HD
ATOM     36  H21 UNL     1      -7.777 -22.111 -87.400  1.00  0.00     0.274 HD
ENDBRANCH   5  33
TORSDOF 13
ENDMDL
MODEL 4
REMARK VINA RESULT: -7.322159697      2.523      6.669
REMARK  13 active torsions:
REMARK  status: ('A' for Active; 'I' for Inactive)
REMARK    1  A    between atoms: C2_2  and  C4_4 
REMARK       I    between atoms: C4_4  and  N1_6 
REMARK    2  A    between atoms: N1_6  and  S1_8 
REMARK    3  A    between atoms: S1_8  and  O4_11 
REMARK    4  A    between atoms: O4_11  and  C5_12 
REMARK    5  A    between atoms: C9_16  and  N2_17 
REMARK    6  A    between atoms: C10_21  and  O5_22 
REMARK    7  A    between atoms: O5_22  and  C11_23 
REMARK    8  A    between atoms: C11_23  and  N3_24 
REMARK    9  A    between atoms: C11_23  and  C12_28 
REMARK   10  A    between atoms: C12_28  and  C13_29 
REMARK   11  A    between atoms: C12_28  and  C16_34 
REMARK   12  A    between atoms: C13_29  and  C14_30 
REMARK   13  A    between atoms: C14_30  and  C15_31 
ROOT
HETATM    1  C5  UNL     1      -6.692 -23.230 -93.809  1.00  0.00     0.175 C 
HETATM    2  C6  UNL     1      -6.640 -22.956 -95.292  1.00  0.00     0.036 C 
HETATM    3  C7  UNL     1      -5.641 -23.826 -95.990  1.00  0.00     0.005 C 
HETATM    4  C8  UNL     1      -4.642 -24.465 -95.090  1.00  0.00     0.035 C 
HETATM    5  C9  UNL     1      -4.333 -23.778 -93.803  1.00  0.00     0.215 C 
HETATM    6  C10 UNL     1      -5.303 -22.823 -93.268  1.00  0.00     0.185 C 
ENDROOT
BRANCH   6   7
HETATM    7  O5  UNL     1      -5.469 -22.911 -91.885  1.00  0.00    -0.348 OA
BRANCH   7   8
HETATM    8  C11 UNL     1      -5.642 -21.706 -91.278  1.00  0.00     0.333 C 
BRANCH   8   9
HETATM    9  N3  UNL     1      -6.900 -21.846 -90.402  1.00  0.00    -0.052 N 
ATOM     10  H33 UNL     1      -6.799 -22.529 -89.651  1.00  0.00     0.277 HD
ATOM     11  H32 UNL     1      -7.074 -21.035 -89.808  1.00  0.00     0.277 HD
ATOM     12  H31 UNL     1      -7.668 -22.053 -91.040  1.00  0.00     0.277 HD
ENDBRANCH   8   9
BRANCH   8  13
HETATM   13  C12 UNL     1      -4.554 -21.344 -90.313  1.00  0.00     0.143 C 
BRANCH  13  14
HETATM   14  C13 UNL     1      -4.199 -19.904 -90.360  1.00  0.00     0.028 C 
BRANCH  14  15
HETATM   15  C14 UNL     1      -4.559 -19.159 -91.585  1.00  0.00     0.100 C 
BRANCH  15  16
HETATM   16  C15 UNL     1      -3.573 -18.877 -92.602  1.00  0.00     0.231 C 
HETATM   17  N4  UNL     1      -3.074 -19.902 -93.483  1.00  0.00    -0.062 NA
HETATM   18  O6  UNL     1      -3.120 -17.702 -92.752  1.00  0.00    -0.277 OA
ENDBRANCH  15  16
ENDBRANCH  14  15
ENDBRANCH  13  14
BRANCH  13  19
HETATM   19  C16 UNL     1      -4.694 -21.940 -88.993  1.00  0.00     0.181 C 
HETATM   20  O7  UNL     1      -4.249 -23.133 -88.768  1.00  0.00    -0.648 OA
HETATM   21  O8  UNL     1      -5.278 -21.357 -87.889  1.00  0.00    -0.648 OA
ENDBRANCH  13  19
ENDBRANCH   8  13
ENDBRANCH   7   8
ENDBRANCH   6   7
BRANCH   1  22
HETATM   22  O4  UNL     1      -6.887 -24.593 -93.658  1.00  0.00    -0.251 OA
BRANCH  22  23
HETATM   23  S1  UNL     1      -8.119 -24.994 -92.608  1.00  0.00     0.364 S 
HETATM   24  O2  UNL     1      -9.113 -23.851 -92.641  1.00  0.00    -0.175 OA
HETATM   25  O3  UNL     1      -8.846 -26.247 -93.017  1.00  0.00    -0.175 OA
BRANCH  23  26
HETATM   26  N1  UNL     1      -7.599 -25.172 -90.979  1.00  0.00    -0.231 N 
HETATM   27  C4  UNL     1      -8.503 -25.193 -89.897  1.00  0.00     0.236 C 
HETATM   28  O1  UNL     1      -9.732 -25.075 -90.154  1.00  0.00    -0.272 OA
ATOM     29  H1  UNL     1      -6.601 -25.265 -90.789  1.00  0.00     0.183 HD
BRANCH  27  30
HETATM   30  C2  UNL     1      -8.044 -25.351 -88.516  1.00  0.00     0.071 C 
HETATM   31  C1  UNL     1      -7.949 -24.012 -87.804  1.00  0.00     0.019 C 
HETATM   32  C3  UNL     1      -6.768 -26.140 -88.367  1.00  0.00     0.019 C 
ENDBRANCH  27  30
ENDBRANCH  23  26
ENDBRANCH  22  23
ENDBRANCH   1  22
BRANCH   5  33
HETATM   33  N2  UNL     1      -3.016 -23.101 -93.969  1.00  0.00    -0.072 N 
ATOM     34  H23 UNL     1      -2.541 -23.357 -94.835  1.00  0.00     0.274 HD
ATOM     35  H22 UNL     1      -3.102 -22.102 -94.157  1.00  0.00     0.274 HD
ATOM     36  H21 UNL     1      -2.464 -23.304 -93.136  1.00  0.00     0.274 HD
ENDBRANCH   5  33
TORSDOF 13
ENDMDL
MODEL 5
REMARK VINA RESULT: -7.314626785      2.332      4.961
REMARK  13 active torsions:
REMARK  status: ('A' for Active; 'I' for Inactive)
REMARK    1  A    between atoms: C2_2  and  C4_4 
REMARK       I    between atoms: C4_4  and  N1_6 
REMARK    2  A    between atoms: N1_6  and  S1_8 
REMARK    3  A    between atoms: S1_8  and  O4_11 
REMARK    4  A    between atoms: O4_11  and  C5_12 
REMARK    5  A    between atoms: C9_16  and  N2_17 
REMARK    6  A    between atoms: C10_21  and  O5_22 
REMARK    7  A    between atoms: O5_22  and  C11_23 
REMARK    8  A    between atoms: C11_23  and  N3_24 
REMARK    9  A    between atoms: C11_23  and  C12_28 
REMARK   10  A    between atoms: C12_28  and  C13_29 
REMARK   11  A    between atoms: C12_28  and  C16_34 
REMARK   12  A    between atoms: C13_29  and  C14_30 
REMARK   13  A    between atoms: C14_30  and  C15_31 
ROOT
HETATM    1  C5  UNL     1      -6.807 -24.994 -93.030  1.00  0.00     0.175 C 
HETATM    2  C6  UNL     1      -6.309 -25.773 -94.222  1.00  0.00     0.036 C 
HETATM    3  C7  UNL     1      -6.443 -24.998 -95.497  1.00  0.00     0.005 C 
HETATM    4  C8  UNL     1      -7.374 -23.839 -95.421  1.00  0.00     0.035 C 
HETATM    5  C9  UNL     1      -8.469 -23.899 -94.410  1.00  0.00     0.215 C 
HETATM    6  C10 UNL     1      -8.322 -24.802 -93.269  1.00  0.00     0.185 C 
ENDROOT
BRANCH   6   7
HETATM    7  O5  UNL     1      -8.762 -24.255 -92.063  1.00  0.00    -0.348 OA
BRANCH   7   8
HETATM    8  C11 UNL     1      -8.298 -24.911 -90.965  1.00  0.00     0.333 C 
BRANCH   8   9
HETATM    9  N3  UNL     1      -8.221 -23.861 -89.841  1.00  0.00    -0.052 N 
ATOM     10  H33 UNL     1      -7.322 -23.382 -89.793  1.00  0.00     0.277 HD
ATOM     11  H32 UNL     1      -8.794 -23.035 -90.016  1.00  0.00     0.277 HD
ATOM     12  H31 UNL     1      -8.468 -24.351 -88.980  1.00  0.00     0.277 HD
ENDBRANCH   8   9
BRANCH   8  13
HETATM   13  C12 UNL     1      -9.231 -25.957 -90.436  1.00  0.00     0.143 C 
BRANCH  13  14
HETATM   14  C13 UNL     1      -8.588 -27.287 -90.302  1.00  0.00     0.028 C 
BRANCH  14  15
HETATM   15  C14 UNL     1      -9.169 -28.400 -91.083  1.00  0.00     0.100 C 
BRANCH  15  16
HETATM   16  C15 UNL     1      -9.679 -28.186 -92.418  1.00  0.00     0.231 C 
HETATM   17  N4  UNL     1      -8.858 -28.380 -93.586  1.00  0.00    -0.062 NA
HETATM   18  O6  UNL     1     -10.881 -27.824 -92.598  1.00  0.00    -0.277 OA
ENDBRANCH  15  16
ENDBRANCH  14  15
ENDBRANCH  13  14
BRANCH  13  19
HETATM   19  C16 UNL     1     -10.063 -25.518 -89.325  1.00  0.00     0.181 C 
HETATM   20  O7  UNL     1     -11.155 -24.864 -89.549  1.00  0.00    -0.648 OA
HETATM   21  O8  UNL     1      -9.815 -25.724 -87.985  1.00  0.00    -0.648 OA
ENDBRANCH  13  19
ENDBRANCH   8  13
ENDBRANCH   7   8
ENDBRANCH   6   7
BRANCH   1  22
HETATM   22  O4  UNL     1      -6.159 -23.771 -93.048  1.00  0.00    -0.251 OA
BRANCH  22  23
HETATM   23  S1  UNL     1      -4.755 -23.728 -92.148  1.00  0.00     0.364 S 
HETATM   24  O2  UNL     1      -4.821 -24.889 -91.177  1.00  0.00    -0.175 OA
HETATM   25  O3  UNL     1      -3.520 -23.901 -92.990  1.00  0.00    -0.175 OA
BRANCH  23  26
HETATM   26  N1  UNL     1      -4.584 -22.293 -91.217  1.00  0.00    -0.231 N 
HETATM   27  C4  UNL     1      -4.633 -21.007 -91.796  1.00  0.00     0.236 C 
HETATM   28  O1  UNL     1      -4.808 -20.931 -93.043  1.00  0.00    -0.272 OA
ATOM     29  H1  UNL     1      -4.443 -22.374 -90.210  1.00  0.00     0.183 HD
BRANCH  27  30
HETATM   30  C2  UNL     1      -4.492 -19.796 -90.989  1.00  0.00     0.071 C 
HETATM   31  C1  UNL     1      -3.477 -18.839 -91.593  1.00  0.00     0.019 C 
HETATM   32  C3  UNL     1      -4.206 -20.045 -89.530  1.00  0.00     0.019 C 
ENDBRANCH  27  30
ENDBRANCH  23  26
ENDBRANCH  22  23
ENDBRANCH   1  22
BRANCH   5  33
HETATM   33  N2  UNL     1      -9.726 -24.228 -95.139  1.00  0.00    -0.072 N 
ATOM     34  H23 UNL     1     -10.146 -23.419 -95.598  1.00  0.00     0.274 HD
ATOM     35  H22 UNL     1      -9.566 -24.786 -95.978  1.00  0.00     0.274 HD
ATOM     36  H21 UNL     1     -10.353 -24.679 -94.473  1.00  0.00     0.274 HD
ENDBRANCH   5  33
TORSDOF 13
ENDMDL
