MODEL 1
REMARK VINA RESULT: -7.129041844      0.000      0.000
REMARK  13 active torsions:
REMARK  status: ('A' for Active; 'I' for Inactive)
REMARK    1  A    between atoms: O1_2  and  C2_3 
REMARK    2  A    between atoms: C3_4  and  N1_5 
REMARK       I    between atoms: N1_5  and  C4_7 
REMARK    3  A    between atoms: C6_10  and  N2_11 
REMARK    4  A    between atoms: N2_11  and  N3_13 
REMARK    5  A    between atoms: C7_18  and  C8_19 
REMARK    6  A    between atoms: C8_19  and  C9_20 
REMARK    7  A    between atoms: C9_20  and  O3_21 
REMARK    8  A    between atoms: C9_20  and  C10_23 
REMARK    9  A    between atoms: C10_23  and  C11_24 
REMARK   10  A    between atoms: C10_23  and  N6_31 
REMARK   11  A    between atoms: C11_24  and  C12_25 
REMARK   12  A    between atoms: C17_36  and  C18_37 
REMARK   13  A    between atoms: C18_37  and  O5_39 
ROOT
HETATM    1  N6  UNL     1      -8.048 -27.467 -87.998  1.00  0.00    -0.321 N 
ATOM      2  H6  UNL     1      -7.105 -27.230 -87.690  1.00  0.00     0.172 HD
HETATM    3  C16 UNL     1      -8.837 -28.362 -87.268  1.00  0.00     0.177 C 
HETATM    4  N7  UNL     1      -9.482 -29.111 -86.657  1.00  0.00    -0.172 NA
ENDROOT
BRANCH   1   5
HETATM    5  C10 UNL     1      -8.596 -26.889 -89.191  1.00  0.00     0.126 C 
BRANCH   5   6
HETATM    6  C9  UNL     1      -9.239 -25.543 -88.922  1.00  0.00     0.144 C 
BRANCH   6   7
HETATM    7  C8  UNL     1      -9.261 -24.692 -90.179  1.00  0.00     0.068 C 
BRANCH   7   8
HETATM    8  C7  UNL     1      -7.880 -24.589 -90.785  1.00  0.00     0.151 C 
HETATM    9  C6  UNL     1      -8.023 -24.559 -92.288  1.00  0.00     0.155 C 
HETATM   10  C3  UNL     1      -6.688 -24.402 -92.982  1.00  0.00     0.142 C 
HETATM   11  C2  UNL     1      -5.699 -23.668 -92.078  1.00  0.00     0.177 C 
HETATM   12  C17 UNL     1      -6.464 -22.771 -91.118  1.00  0.00     0.181 C 
HETATM   13  O4  UNL     1      -7.208 -23.529 -90.230  1.00  0.00    -0.373 OA
BRANCH   9  14
HETATM   14  N2  UNL     1      -9.004 -23.611 -92.720  1.00  0.00    -0.313 N 
ATOM     15  H2  UNL     1      -9.323 -22.926 -92.035  1.00  0.00     0.182 HD
BRANCH  14  16
HETATM   16  N3  UNL     1      -9.493 -23.552 -93.837  1.00  0.00    -0.253 N 
HETATM   17  N4  UNL     1      -9.595 -23.942 -95.021  1.00  0.00    -0.331 N 
ATOM     18  H42 UNL     1      -8.911 -24.698 -95.049  1.00  0.00     0.178 HD
ATOM     19  H41 UNL     1     -10.003 -23.893 -95.955  1.00  0.00     0.178 HD
ATOM     20  H3  UNL     1     -10.168 -22.790 -93.771  1.00  0.00     0.207 HD
ENDBRANCH  14  16
ENDBRANCH   9  14
BRANCH  10  21
HETATM   21  N1  UNL     1      -6.140 -25.715 -93.239  1.00  0.00    -0.352 N 
HETATM   22  C4  UNL     1      -6.361 -26.432 -94.435  1.00  0.00     0.214 C 
HETATM   23  C5  UNL     1      -5.781 -27.770 -94.653  1.00  0.00     0.117 C 
HETATM   24  O2  UNL     1      -7.067 -25.912 -95.324  1.00  0.00    -0.274 OA
ATOM     25  H1  UNL     1      -5.562 -26.145 -92.516  1.00  0.00     0.163 HD
ENDBRANCH  10  21
BRANCH  11  26
HETATM   26  O1  UNL     1      -4.775 -22.982 -92.842  1.00  0.00    -0.386 OA
HETATM   27  C1  UNL     1      -5.336 -22.427 -93.999  1.00  0.00     0.202 C 
ENDBRANCH  11  26
BRANCH  12  28
HETATM   28  C18 UNL     1      -5.466 -21.976 -90.320  1.00  0.00     0.145 C 
HETATM   29  C19 UNL     1      -5.925 -21.741 -88.899  1.00  0.00     0.042 C 
BRANCH  28  30
HETATM   30  O5  UNL     1      -5.188 -20.726 -90.861  1.00  0.00    -0.393 OA
ATOM     31  H5  UNL     1      -5.923 -20.338 -91.322  1.00  0.00     0.210 HD
ENDBRANCH  28  30
ENDBRANCH  12  28
ENDBRANCH   7   8
ENDBRANCH   6   7
BRANCH   6  32
HETATM   32  O3  UNL     1     -10.541 -25.802 -88.500  1.00  0.00    -0.393 OA
ATOM     33  H3  UNL     1     -10.943 -25.003 -88.178  1.00  0.00     0.210 HD
ENDBRANCH   6  32
ENDBRANCH   5   6
BRANCH   5  34
HETATM   34  C11 UNL     1      -9.657 -27.787 -89.798  1.00  0.00     0.085 C 
BRANCH  34  35
HETATM   35  C12 UNL     1      -9.245 -28.395 -91.082  1.00  0.00     0.011 A 
HETATM   36  C13 UNL     1      -9.631 -27.974 -92.341  1.00  0.00     0.026 A 
HETATM   37  C14 UNL     1      -9.037 -28.800 -93.282  1.00  0.00     0.019 A 
HETATM   38  C15 UNL     1      -8.301 -29.707 -92.589  1.00  0.00     0.088 A 
HETATM   39  N5  UNL     1      -8.441 -29.444 -91.282  1.00  0.00    -0.369 N 
ATOM     40  H5  UNL     1      -7.992 -29.976 -90.535  1.00  0.00     0.165 HD
ENDBRANCH  34  35
ENDBRANCH   5  34
ENDBRANCH   1   5
TORSDOF 13
ENDMDL
MODEL 2
REMARK VINA RESULT: -7.062018929      2.905      6.889
REMARK  13 active torsions:
REMARK  status: ('A' for Active; 'I' for Inactive)
REMARK    1  A    between atoms: O1_2  and  C2_3 
REMARK    2  A    between atoms: C3_4  and  N1_5 
REMARK       I    between atoms: N1_5  and  C4_7 
REMARK    3  A    between atoms: C6_10  and  N2_11 
REMARK    4  A    between atoms: N2_11  and  N3_13 
REMARK    5  A    between atoms: C7_18  and  C8_19 
REMARK    6  A    between atoms: C8_19  and  C9_20 
REMARK    7  A    between atoms: C9_20  and  O3_21 
REMARK    8  A    between atoms: C9_20  and  C10_23 
REMARK    9  A    between atoms: C10_23  and  C11_24 
REMARK   10  A    between atoms: C10_23  and  N6_31 
REMARK   11  A    between atoms: C11_24  and  C12_25 
REMARK   12  A    between atoms: C17_36  and  C18_37 
REMARK   13  A    between atoms: C18_37  and  O5_39 
ROOT
HETATM    1  N6  UNL     1      -7.776 -24.886 -96.034  1.00  0.00    -0.321 N 
ATOM      2  H6  UNL     1      -8.214 -25.806 -95.992  1.00  0.00     0.172 HD
HETATM    3  C16 UNL     1      -7.595 -24.236 -97.259  1.00  0.00     0.177 C 
HETATM    4  N7  UNL     1      -7.443 -23.707 -98.283  1.00  0.00    -0.172 NA
ENDROOT
BRANCH   1   5
HETATM    5  C10 UNL     1      -7.333 -24.229 -94.839  1.00  0.00     0.126 C 
BRANCH   5   6
HETATM    6  C9  UNL     1      -8.385 -24.270 -93.749  1.00  0.00     0.144 C 
BRANCH   6   7
HETATM    7  C8  UNL     1      -7.898 -23.560 -92.498  1.00  0.00     0.068 C 
BRANCH   7   8
HETATM    8  C7  UNL     1      -7.624 -24.549 -91.389  1.00  0.00     0.151 C 
HETATM    9  C6  UNL     1      -6.758 -23.872 -90.354  1.00  0.00     0.155 C 
HETATM   10  C3  UNL     1      -6.475 -24.774 -89.172  1.00  0.00     0.142 C 
HETATM   11  C2  UNL     1      -7.604 -25.789 -88.994  1.00  0.00     0.177 C 
HETATM   12  C17 UNL     1      -8.894 -25.212 -89.554  1.00  0.00     0.181 C 
HETATM   13  O4  UNL     1      -8.808 -25.068 -90.928  1.00  0.00    -0.373 OA
BRANCH   9  14
HETATM   14  N2  UNL     1      -7.264 -22.587 -89.981  1.00  0.00    -0.313 N 
ATOM     15  H2  UNL     1      -7.770 -22.061 -90.693  1.00  0.00     0.182 HD
BRANCH  14  16
HETATM   16  N3  UNL     1      -7.143 -22.066 -88.883  1.00  0.00    -0.253 N 
HETATM   17  N4  UNL     1      -7.608 -21.656 -87.797  1.00  0.00    -0.331 N 
ATOM     18  H42 UNL     1      -8.597 -21.882 -87.897  1.00  0.00     0.178 HD
ATOM     19  H41 UNL     1      -7.507 -21.220 -86.879  1.00  0.00     0.178 HD
ATOM     20  H3  UNL     1      -6.147 -21.855 -88.819  1.00  0.00     0.207 HD
ENDBRANCH  14  16
ENDBRANCH   9  14
BRANCH  10  21
HETATM   21  N1  UNL     1      -5.267 -25.522 -89.437  1.00  0.00    -0.352 N 
HETATM   22  C4  UNL     1      -3.970 -24.976 -89.315  1.00  0.00     0.214 C 
HETATM   23  C5  UNL     1      -2.763 -25.777 -89.595  1.00  0.00     0.117 C 
HETATM   24  O2  UNL     1      -3.852 -23.785 -88.960  1.00  0.00    -0.274 OA
ATOM     25  H1  UNL     1      -5.356 -26.496 -89.727  1.00  0.00     0.163 HD
ENDBRANCH  10  21
BRANCH  11  26
HETATM   26  O1  UNL     1      -7.706 -26.158 -87.665  1.00  0.00    -0.386 OA
HETATM   27  C1  UNL     1      -7.838 -25.058 -86.808  1.00  0.00     0.202 C 
ENDBRANCH  11  26
BRANCH  12  28
HETATM   28  C18 UNL     1     -10.008 -26.179 -89.262  1.00  0.00     0.145 C 
HETATM   29  C19 UNL     1     -10.106 -27.273 -90.301  1.00  0.00     0.042 C 
BRANCH  28  30
HETATM   30  O5  UNL     1     -11.262 -25.582 -89.193  1.00  0.00    -0.393 OA
ATOM     31  H5  UNL     1     -11.950 -26.091 -89.606  1.00  0.00     0.210 HD
ENDBRANCH  28  30
ENDBRANCH  12  28
ENDBRANCH   7   8
ENDBRANCH   6   7
BRANCH   6  32
HETATM   32  O3  UNL     1      -9.509 -23.621 -94.257  1.00  0.00    -0.393 OA
ATOM     33  H3  UNL     1     -10.274 -24.177 -94.163  1.00  0.00     0.210 HD
ENDBRANCH   6  32
ENDBRANCH   5   6
BRANCH   5  34
HETATM   34  C11 UNL     1      -7.007 -22.771 -95.104  1.00  0.00     0.085 C 
BRANCH  34  35
HETATM   35  C12 UNL     1      -5.577 -22.446 -94.913  1.00  0.00     0.011 A 
HETATM   36  C13 UNL     1      -5.070 -21.249 -94.445  1.00  0.00     0.026 A 
HETATM   37  C14 UNL     1      -3.689 -21.338 -94.412  1.00  0.00     0.019 A 
HETATM   38  C15 UNL     1      -3.372 -22.581 -94.858  1.00  0.00     0.088 A 
HETATM   39  N5  UNL     1      -4.513 -23.222 -95.149  1.00  0.00    -0.369 N 
ATOM     40  H5  UNL     1      -4.564 -24.177 -95.505  1.00  0.00     0.165 HD
ENDBRANCH  34  35
ENDBRANCH   5  34
ENDBRANCH   1   5
TORSDOF 13
ENDMDL
MODEL 3
REMARK VINA RESULT: -7.031245476      2.931      6.726
REMARK  13 active torsions:
REMARK  status: ('A' for Active; 'I' for Inactive)
REMARK    1  A    between atoms: O1_2  and  C2_3 
REMARK    2  A    between atoms: C3_4  and  N1_5 
REMARK       I    between atoms: N1_5  and  C4_7 
REMARK    3  A    between atoms: C6_10  and  N2_11 
REMARK    4  A    between atoms: N2_11  and  N3_13 
REMARK    5  A    between atoms: C7_18  and  C8_19 
REMARK    6  A    between atoms: C8_19  and  C9_20 
REMARK    7  A    between atoms: C9_20  and  O3_21 
REMARK    8  A    between atoms: C9_20  and  C10_23 
REMARK    9  A    between atoms: C10_23  and  C11_24 
REMARK   10  A    between atoms: C10_23  and  N6_31 
REMARK   11  A    between atoms: C11_24  and  C12_25 
REMARK   12  A    between atoms: C17_36  and  C18_37 
REMARK   13  A    between atoms: C18_37  and  O5_39 
ROOT
HETATM    1  N6  UNL     1      -9.083 -23.595 -95.776  1.00  0.00    -0.321 N 
ATOM      2  H6  UNL     1      -9.970 -23.238 -95.420  1.00  0.00     0.172 HD
HETATM    3  C16 UNL     1      -8.829 -23.634 -97.152  1.00  0.00     0.177 C 
HETATM    4  N7  UNL     1      -8.630 -23.668 -98.296  1.00  0.00    -0.172 NA
ENDROOT
BRANCH   1   5
HETATM    5  C10 UNL     1      -8.069 -24.067 -94.880  1.00  0.00     0.126 C 
BRANCH   5   6
HETATM    6  C9  UNL     1      -8.593 -24.224 -93.466  1.00  0.00     0.144 C 
BRANCH   6   7
HETATM    7  C8  UNL     1      -7.611 -23.654 -92.458  1.00  0.00     0.068 C 
BRANCH   7   8
HETATM    8  C7  UNL     1      -7.401 -24.614 -91.309  1.00  0.00     0.151 C 
HETATM    9  C6  UNL     1      -6.615 -23.901 -90.235  1.00  0.00     0.155 C 
HETATM   10  C3  UNL     1      -6.402 -24.771 -89.015  1.00  0.00     0.142 C 
HETATM   11  C2  UNL     1      -7.528 -25.796 -88.888  1.00  0.00     0.177 C 
HETATM   12  C17 UNL     1      -8.784 -25.249 -89.547  1.00  0.00     0.181 C 
HETATM   13  O4  UNL     1      -8.608 -25.136 -90.915  1.00  0.00    -0.373 OA
BRANCH   9  14
HETATM   14  N2  UNL     1      -7.159 -22.615 -89.928  1.00  0.00    -0.313 N 
ATOM     15  H2  UNL     1      -7.653 -22.127 -90.676  1.00  0.00     0.182 HD
BRANCH  14  16
HETATM   16  N3  UNL     1      -7.084 -22.049 -88.848  1.00  0.00    -0.253 N 
HETATM   17  N4  UNL     1      -7.583 -21.647 -87.773  1.00  0.00    -0.331 N 
ATOM     18  H42 UNL     1      -8.549 -21.964 -87.863  1.00  0.00     0.178 HD
ATOM     19  H41 UNL     1      -7.521 -21.175 -86.871  1.00  0.00     0.178 HD
ATOM     20  H3  UNL     1      -6.111 -21.748 -88.794  1.00  0.00     0.207 HD
ENDBRANCH  14  16
ENDBRANCH   9  14
BRANCH  10  21
HETATM   21  N1  UNL     1      -5.170 -25.509 -89.180  1.00  0.00    -0.352 N 
HETATM   22  C4  UNL     1      -3.891 -24.912 -89.134  1.00  0.00     0.214 C 
HETATM   23  C5  UNL     1      -2.659 -25.704 -89.307  1.00  0.00     0.117 C 
HETATM   24  O2  UNL     1      -3.811 -23.681 -88.942  1.00  0.00    -0.274 OA
ATOM     25  H1  UNL     1      -5.228 -26.516 -89.337  1.00  0.00     0.163 HD
ENDBRANCH  10  21
BRANCH  11  26
HETATM   26  O1  UNL     1      -7.715 -26.135 -87.561  1.00  0.00    -0.386 OA
HETATM   27  C1  UNL     1      -7.821 -25.014 -86.727  1.00  0.00     0.202 C 
ENDBRANCH  11  26
BRANCH  12  28
HETATM   28  C18 UNL     1      -9.905 -26.224 -89.307  1.00  0.00     0.145 C 
HETATM   29  C19 UNL     1     -10.001 -27.268 -90.396  1.00  0.00     0.042 C 
BRANCH  28  30
HETATM   30  O5  UNL     1     -11.156 -25.624 -89.217  1.00  0.00    -0.393 OA
ATOM     31  H5  UNL     1     -11.839 -26.210 -88.909  1.00  0.00     0.210 HD
ENDBRANCH  28  30
ENDBRANCH  12  28
ENDBRANCH   7   8
ENDBRANCH   6   7
BRANCH   6  32
HETATM   32  O3  UNL     1      -9.795 -23.522 -93.408  1.00  0.00    -0.393 OA
ATOM     33  H3  UNL     1      -9.685 -22.657 -93.786  1.00  0.00     0.210 HD
ENDBRANCH   6  32
ENDBRANCH   5   6
BRANCH   5  34
HETATM   34  C11 UNL     1      -6.894 -23.108 -94.826  1.00  0.00     0.085 C 
BRANCH  34  35
HETATM   35  C12 UNL     1      -5.719 -23.579 -95.590  1.00  0.00     0.011 A 
HETATM   36  C13 UNL     1      -4.409 -23.186 -95.391  1.00  0.00     0.026 A 
HETATM   37  C14 UNL     1      -3.607 -23.847 -96.306  1.00  0.00     0.019 A 
HETATM   38  C15 UNL     1      -4.432 -24.630 -97.048  1.00  0.00     0.088 A 
HETATM   39  N5  UNL     1      -5.685 -24.453 -96.602  1.00  0.00    -0.369 N 
ATOM     40  H5  UNL     1      -6.505 -24.924 -96.984  1.00  0.00     0.165 HD
ENDBRANCH  34  35
ENDBRANCH   5  34
ENDBRANCH   1   5
TORSDOF 13
ENDMDL
MODEL 4
REMARK VINA RESULT: -7.001117919      3.191      6.883
REMARK  13 active torsions:
REMARK  status: ('A' for Active; 'I' for Inactive)
REMARK    1  A    between atoms: O1_2  and  C2_3 
REMARK    2  A    between atoms: C3_4  and  N1_5 
REMARK       I    between atoms: N1_5  and  C4_7 
REMARK    3  A    between atoms: C6_10  and  N2_11 
REMARK    4  A    between atoms: N2_11  and  N3_13 
REMARK    5  A    between atoms: C7_18  and  C8_19 
REMARK    6  A    between atoms: C8_19  and  C9_20 
REMARK    7  A    between atoms: C9_20  and  O3_21 
REMARK    8  A    between atoms: C9_20  and  C10_23 
REMARK    9  A    between atoms: C10_23  and  C11_24 
REMARK   10  A    between atoms: C10_23  and  N6_31 
REMARK   11  A    between atoms: C11_24  and  C12_25 
REMARK   12  A    between atoms: C17_36  and  C18_37 
REMARK   13  A    between atoms: C18_37  and  O5_39 
ROOT
HETATM    1  N6  UNL     1      -5.988 -23.294 -93.787  1.00  0.00    -0.321 N 
ATOM      2  H6  UNL     1      -5.444 -23.962 -93.242  1.00  0.00     0.172 HD
HETATM    3  C16 UNL     1      -5.424 -22.085 -94.207  1.00  0.00     0.177 C 
HETATM    4  N7  UNL     1      -4.947 -21.080 -94.546  1.00  0.00    -0.172 NA
ENDROOT
BRANCH   1   5
HETATM    5  C10 UNL     1      -7.350 -23.572 -94.141  1.00  0.00     0.126 C 
BRANCH   5   6
HETATM    6  C9  UNL     1      -8.117 -24.192 -92.990  1.00  0.00     0.144 C 
BRANCH   6   7
HETATM    7  C8  UNL     1      -7.445 -23.886 -91.663  1.00  0.00     0.068 C 
BRANCH   7   8
HETATM    8  C7  UNL     1      -7.648 -25.018 -90.682  1.00  0.00     0.151 C 
HETATM    9  C6  UNL     1      -7.012 -24.628 -89.370  1.00  0.00     0.155 C 
HETATM   10  C3  UNL     1      -7.213 -25.683 -88.305  1.00  0.00     0.142 C 
HETATM   11  C2  UNL     1      -8.490 -26.478 -88.576  1.00  0.00     0.177 C 
HETATM   12  C17 UNL     1      -9.467 -25.612 -89.355  1.00  0.00     0.181 C 
HETATM   13  O4  UNL     1      -8.979 -25.347 -90.623  1.00  0.00    -0.373 OA
BRANCH   9  14
HETATM   14  N2  UNL     1      -7.396 -23.315 -88.951  1.00  0.00    -0.313 N 
ATOM     15  H2  UNL     1      -8.027 -22.796 -89.563  1.00  0.00     0.182 HD
BRANCH  14  16
HETATM   16  N3  UNL     1      -7.035 -22.761 -87.924  1.00  0.00    -0.253 N 
HETATM   17  N4  UNL     1      -7.165 -21.896 -87.030  1.00  0.00    -0.331 N 
ATOM     18  H42 UNL     1      -8.014 -21.416 -87.330  1.00  0.00     0.178 HD
ATOM     19  H41 UNL     1      -6.863 -21.432 -86.172  1.00  0.00     0.178 HD
ATOM     20  H3  UNL     1      -6.189 -23.266 -87.656  1.00  0.00     0.207 HD
ENDBRANCH  14  16
ENDBRANCH   9  14
BRANCH  10  21
HETATM   21  N1  UNL     1      -6.110 -26.615 -88.359  1.00  0.00    -0.352 N 
HETATM   22  C4  UNL     1      -5.501 -27.171 -87.212  1.00  0.00     0.214 C 
HETATM   23  C5  UNL     1      -4.377 -28.120 -87.315  1.00  0.00     0.117 C 
HETATM   24  O2  UNL     1      -5.933 -26.845 -86.087  1.00  0.00    -0.274 OA
ATOM     25  H1  UNL     1      -5.752 -26.886 -89.276  1.00  0.00     0.163 HD
ENDBRANCH  10  21
BRANCH  11  26
HETATM   26  O1  UNL     1      -9.014 -26.954 -87.389  1.00  0.00    -0.386 OA
HETATM   27  C1  UNL     1      -8.949 -28.350 -87.291  1.00  0.00     0.202 C 
ENDBRANCH  11  26
BRANCH  12  28
HETATM   28  C18 UNL     1     -10.754 -26.375 -89.507  1.00  0.00     0.145 C 
HETATM   29  C19 UNL     1     -10.664 -27.448 -90.569  1.00  0.00     0.042 C 
BRANCH  28  30
HETATM   30  O5  UNL     1     -11.841 -25.574 -89.841  1.00  0.00    -0.393 OA
ATOM     31  H5  UNL     1     -12.043 -24.913 -89.189  1.00  0.00     0.210 HD
ENDBRANCH  28  30
ENDBRANCH  12  28
ENDBRANCH   7   8
ENDBRANCH   6   7
BRANCH   6  32
HETATM   32  O3  UNL     1      -9.393 -23.634 -93.016  1.00  0.00    -0.393 OA
ATOM     33  H3  UNL     1      -9.929 -24.080 -93.662  1.00  0.00     0.210 HD
ENDBRANCH   6  32
ENDBRANCH   5   6
BRANCH   5  34
HETATM   34  C11 UNL     1      -7.427 -24.536 -95.311  1.00  0.00     0.085 C 
BRANCH  34  35
HETATM   35  C12 UNL     1      -8.480 -24.188 -96.288  1.00  0.00     0.011 A 
HETATM   36  C13 UNL     1      -8.311 -24.056 -97.653  1.00  0.00     0.026 A 
HETATM   37  C14 UNL     1      -9.531 -23.720 -98.217  1.00  0.00     0.019 A 
HETATM   38  C15 UNL     1     -10.423 -23.653 -97.196  1.00  0.00     0.088 A 
HETATM   39  N5  UNL     1      -9.773 -23.936 -96.057  1.00  0.00    -0.369 N 
ATOM     40  H5  UNL     1     -10.209 -23.956 -95.134  1.00  0.00     0.165 HD
ENDBRANCH  34  35
ENDBRANCH   5  34
ENDBRANCH   1   5
TORSDOF 13
ENDMDL
MODEL 5
REMARK VINA RESULT: -6.947665171      1.146      1.371
REMARK  13 active torsions:
REMARK  status: ('A' for Active; 'I' for Inactive)
REMARK    1  A    between atoms: O1_2  and  C2_3 
REMARK    2  A    between atoms: C3_4  and  N1_5 
REMARK       I    between atoms: N1_5  and  C4_7 
REMARK    3  A    between atoms: C6_10  and  N2_11 
REMARK    4  A    between atoms: N2_11  and  N3_13 
REMARK    5  A    between atoms: C7_18  and  C8_19 
REMARK    6  A    between atoms: C8_19  and  C9_20 
REMARK    7  A    between atoms: C9_20  and  O3_21 
REMARK    8  A    between atoms: C9_20  and  C10_23 
REMARK    9  A    between atoms: C10_23  and  C11_24 
REMARK   10  A    between atoms: C10_23  and  N6_31 
REMARK   11  A    between atoms: C11_24  and  C12_25 
REMARK   12  A    between atoms: C17_36  and  C18_37 
REMARK   13  A    between atoms: C18_37  and  O5_39 
ROOT
HETATM    1  N6  UNL     1      -6.657 -26.620 -87.576  1.00  0.00    -0.321 N 
ATOM      2  H6  UNL     1      -5.683 -26.667 -87.873  1.00  0.00     0.172 HD
HETATM    3  C16 UNL     1      -6.997 -26.683 -86.220  1.00  0.00     0.177 C 
HETATM    4  N7  UNL     1      -7.268 -26.742 -85.092  1.00  0.00    -0.172 NA
ENDROOT
BRANCH   1   5
HETATM    5  C10 UNL     1      -7.711 -26.488 -88.539  1.00  0.00     0.126 C 
BRANCH   5   6
HETATM    6  C9  UNL     1      -8.607 -25.303 -88.236  1.00  0.00     0.144 C 
BRANCH   6   7
HETATM    7  C8  UNL     1      -8.773 -24.421 -89.461  1.00  0.00     0.068 C 
BRANCH   7   8
HETATM    8  C7  UNL     1      -7.511 -24.411 -90.293  1.00  0.00     0.151 C 
HETATM    9  C6  UNL     1      -7.902 -24.528 -91.747  1.00  0.00     0.155 C 
HETATM   10  C3  UNL     1      -6.700 -24.471 -92.664  1.00  0.00     0.142 C 
HETATM   11  C2  UNL     1      -5.570 -23.674 -92.014  1.00  0.00     0.177 C 
HETATM   12  C17 UNL     1      -6.159 -22.668 -91.038  1.00  0.00     0.181 C 
HETATM   13  O4  UNL     1      -6.750 -23.316 -89.968  1.00  0.00    -0.373 OA
BRANCH   9  14
HETATM   14  N2  UNL     1      -8.935 -23.606 -92.106  1.00  0.00    -0.313 N 
ATOM     15  H2  UNL     1      -9.284 -22.988 -91.373  1.00  0.00     0.182 HD
BRANCH  14  16
HETATM   16  N3  UNL     1      -9.437 -23.495 -93.214  1.00  0.00    -0.253 N 
HETATM   17  N4  UNL     1      -9.510 -23.786 -94.428  1.00  0.00    -0.331 N 
ATOM     18  H42 UNL     1      -8.756 -24.466 -94.524  1.00  0.00     0.178 HD
ATOM     19  H41 UNL     1      -9.929 -23.693 -95.354  1.00  0.00     0.178 HD
ATOM     20  H3  UNL     1     -10.182 -22.811 -93.080  1.00  0.00     0.207 HD
ENDBRANCH  14  16
ENDBRANCH   9  14
BRANCH  10  21
HETATM   21  N1  UNL     1      -6.209 -25.815 -92.872  1.00  0.00    -0.352 N 
HETATM   22  C4  UNL     1      -6.640 -26.648 -93.928  1.00  0.00     0.214 C 
HETATM   23  C5  UNL     1      -6.112 -28.014 -94.101  1.00  0.00     0.117 C 
HETATM   24  O2  UNL     1      -7.489 -26.208 -94.730  1.00  0.00    -0.274 OA
ATOM     25  H1  UNL     1      -5.515 -26.181 -92.220  1.00  0.00     0.163 HD
ENDBRANCH  10  21
BRANCH  11  26
HETATM   26  O1  UNL     1      -4.781 -23.088 -92.986  1.00  0.00    -0.386 OA
HETATM   27  C1  UNL     1      -5.523 -22.640 -94.086  1.00  0.00     0.202 C 
ENDBRANCH  11  26
BRANCH  12  28
HETATM   28  C18 UNL     1      -5.039 -21.821 -90.501  1.00  0.00     0.145 C 
HETATM   29  C19 UNL     1      -5.207 -21.511 -89.030  1.00  0.00     0.042 C 
BRANCH  28  30
HETATM   30  O5  UNL     1      -4.901 -20.600 -91.152  1.00  0.00    -0.393 OA
ATOM     31  H5  UNL     1      -5.625 -20.393 -91.733  1.00  0.00     0.210 HD
ENDBRANCH  28  30
ENDBRANCH  12  28
ENDBRANCH   7   8
ENDBRANCH   6   7
BRANCH   6  32
HETATM   32  O3  UNL     1      -9.841 -25.825 -87.855  1.00  0.00    -0.393 OA
ATOM     33  H3  UNL     1     -10.158 -25.376 -87.079  1.00  0.00     0.210 HD
ENDBRANCH   6  32
ENDBRANCH   5   6
BRANCH   5  34
HETATM   34  C11 UNL     1      -8.588 -27.726 -88.567  1.00  0.00     0.085 C 
BRANCH  34  35
HETATM   35  C12 UNL     1      -9.206 -27.976 -89.887  1.00  0.00     0.011 A 
HETATM   36  C13 UNL     1      -8.541 -28.361 -91.036  1.00  0.00     0.026 A 
HETATM   37  C14 UNL     1      -9.468 -28.491 -92.057  1.00  0.00     0.019 A 
HETATM   38  C15 UNL     1     -10.678 -28.186 -91.522  1.00  0.00     0.088 A 
HETATM   39  N5  UNL     1     -10.496 -27.883 -90.228  1.00  0.00    -0.369 N 
ATOM     40  H5  UNL     1     -11.244 -27.616 -89.587  1.00  0.00     0.165 HD
ENDBRANCH  34  35
ENDBRANCH   5  34
ENDBRANCH   1   5
TORSDOF 13
ENDMDL
