MODEL 1
REMARK VINA RESULT: -7.310212073      0.000      0.000
REMARK  13 active torsions:
REMARK  status: ('A' for Active; 'I' for Inactive)
REMARK    1  A    between atoms: C2_2  and  C3_3 
REMARK    2  A    between atoms: C3_3  and  C4_4 
REMARK    3  A    between atoms: C4_4  and  S1_5 
REMARK    4  A    between atoms: S1_5  and  C5_6 
REMARK    5  A    between atoms: C5_6  and  C6_7 
REMARK    6  A    between atoms: C6_7  and  N1_8 
REMARK    7  A    between atoms: N1_8  and  C7_10 
REMARK    8  A    between atoms: C7_10  and  C8_14 
REMARK    9  A    between atoms: C9_15  and  C10_16 
REMARK       I    between atoms: C10_16  and  N3_18 
REMARK   10  A    between atoms: N3_18  and  C11_20 
REMARK   11  A    between atoms: C11_20  and  C12_21 
REMARK   12  A    between atoms: C13_23  and  O3_24 
REMARK   13  A    between atoms: C14_26  and  O4_27 
ROOT
HETATM    1  C8  UNL     1      -8.060 -25.126 -89.539  1.00  0.00     0.082 C 
HETATM    2  C9  UNL     1      -7.255 -25.294 -90.778  1.00  0.00     0.151 C 
HETATM    3  S2  UNL     1      -7.034 -27.101 -90.807  1.00  0.00    -0.147 SA
HETATM    4  C15 UNL     1      -8.552 -27.511 -89.922  1.00  0.00     0.080 C 
HETATM    5  C16 UNL     1      -8.344 -28.511 -88.825  1.00  0.00     0.247 C 
HETATM    6  N4  UNL     1      -9.339 -28.097 -87.854  1.00  0.00    -0.074 N 
ATOM      7  H41 UNL     1      -9.287 -28.558 -86.945  1.00  0.00     0.277 HD
ATOM      8  H42 UNL     1     -10.295 -28.395 -88.046  1.00  0.00     0.277 HD
HETATM    9  C17 UNL     1      -9.113 -26.641 -87.844  1.00  0.00     0.239 C 
HETATM   10  C18 UNL     1      -8.984 -26.226 -89.295  1.00  0.00     0.039 C 
ENDROOT
BRANCH   1  11
HETATM   11  C7  UNL     1      -7.166 -24.738 -88.400  1.00  0.00     0.076 C 
HETATM   12  N2  UNL     1      -6.155 -25.451 -88.184  1.00  0.00    -0.389 N 
ATOM     13  H22 UNL     1      -5.547 -25.188 -87.409  1.00  0.00     0.157 HD
ATOM     14  H21 UNL     1      -5.935 -26.259 -88.767  1.00  0.00     0.157 HD
BRANCH  11  15
HETATM   15  N1  UNL     1      -7.471 -23.618 -87.592  1.00  0.00    -0.379 N 
ATOM     16  H1  UNL     1      -7.977 -23.853 -86.738  1.00  0.00     0.160 HD
BRANCH  15  17
HETATM   17  C6  UNL     1      -7.210 -22.240 -87.738  1.00  0.00     0.131 C 
BRANCH  17  18
HETATM   18  C5  UNL     1      -6.027 -21.756 -88.471  1.00  0.00     0.093 C 
BRANCH  18  19
HETATM   19  S1  UNL     1      -6.027 -21.768 -90.241  1.00  0.00    -0.168 SA
BRANCH  19  20
HETATM   20  C4  UNL     1      -4.544 -21.082 -90.992  1.00  0.00     0.074 C 
BRANCH  20  21
HETATM   21  C3  UNL     1      -4.114 -19.773 -90.379  1.00  0.00     0.010 C 
BRANCH  21  22
HETATM   22  C2  UNL     1      -3.631 -18.876 -91.521  1.00  0.00    -0.004 C 
HETATM   23  C1  UNL     1      -3.594 -19.741 -92.769  1.00  0.00     0.005 C 
ENDBRANCH  21  22
ENDBRANCH  20  21
ENDBRANCH  19  20
ENDBRANCH  18  19
ENDBRANCH  17  18
ENDBRANCH  15  17
ENDBRANCH  11  15
ENDBRANCH   1  11
BRANCH   2  24
HETATM   24  C10 UNL     1      -8.060 -24.886 -91.969  1.00  0.00     0.232 C 
HETATM   25  O1  UNL     1      -9.012 -24.084 -91.857  1.00  0.00    -0.272 OA
HETATM   26  N3  UNL     1      -7.752 -25.412 -93.240  1.00  0.00    -0.358 N 
ATOM     27  H3  UNL     1      -6.973 -26.064 -93.324  1.00  0.00     0.162 HD
BRANCH  26  28
HETATM   28  C11 UNL     1      -8.501 -25.059 -94.441  1.00  0.00     0.157 C 
BRANCH  28  29
HETATM   29  C12 UNL     1      -7.516 -24.516 -95.453  1.00  0.00     0.176 C 
HETATM   30  O2  UNL     1      -7.487 -25.152 -96.685  1.00  0.00    -0.349 OA
HETATM   31  C13 UNL     1      -7.053 -23.912 -97.212  1.00  0.00     0.288 C 
HETATM   32  C14 UNL     1      -8.024 -23.283 -96.203  1.00  0.00     0.203 C 
BRANCH  31  33
HETATM   33  O3  UNL     1      -7.409 -23.662 -98.513  1.00  0.00    -0.369 OA
ATOM     34  H3  UNL     1      -8.272 -23.285 -98.638  1.00  0.00     0.212 HD
ENDBRANCH  31  33
BRANCH  32  35
HETATM   35  O4  UNL     1      -9.314 -23.391 -96.695  1.00  0.00    -0.388 OA
ATOM     36  H4  UNL     1      -9.974 -23.594 -96.042  1.00  0.00     0.210 HD
ENDBRANCH  32  35
ENDBRANCH  28  29
ENDBRANCH  26  28
ENDBRANCH   2  24
TORSDOF 13
ENDMDL
MODEL 2
REMARK VINA RESULT: -7.249656050      2.103      3.146
REMARK  13 active torsions:
REMARK  status: ('A' for Active; 'I' for Inactive)
REMARK    1  A    between atoms: C2_2  and  C3_3 
REMARK    2  A    between atoms: C3_3  and  C4_4 
REMARK    3  A    between atoms: C4_4  and  S1_5 
REMARK    4  A    between atoms: S1_5  and  C5_6 
REMARK    5  A    between atoms: C5_6  and  C6_7 
REMARK    6  A    between atoms: C6_7  and  N1_8 
REMARK    7  A    between atoms: N1_8  and  C7_10 
REMARK    8  A    between atoms: C7_10  and  C8_14 
REMARK    9  A    between atoms: C9_15  and  C10_16 
REMARK       I    between atoms: C10_16  and  N3_18 
REMARK   10  A    between atoms: N3_18  and  C11_20 
REMARK   11  A    between atoms: C11_20  and  C12_21 
REMARK   12  A    between atoms: C13_23  and  O3_24 
REMARK   13  A    between atoms: C14_26  and  O4_27 
ROOT
HETATM    1  C8  UNL     1      -6.103 -23.877 -90.317  1.00  0.00     0.082 C 
HETATM    2  C9  UNL     1      -6.680 -25.221 -90.581  1.00  0.00     0.151 C 
HETATM    3  S2  UNL     1      -7.625 -25.502 -89.051  1.00  0.00    -0.147 SA
HETATM    4  C15 UNL     1      -7.944 -23.765 -88.680  1.00  0.00     0.080 C 
HETATM    5  C16 UNL     1      -7.664 -23.405 -87.253  1.00  0.00     0.247 C 
HETATM    6  N4  UNL     1      -7.218 -22.030 -87.375  1.00  0.00    -0.074 N 
ATOM      7  H41 UNL     1      -6.833 -21.614 -86.527  1.00  0.00     0.277 HD
ATOM      8  H42 UNL     1      -7.955 -21.334 -87.485  1.00  0.00     0.277 HD
HETATM    9  C17 UNL     1      -6.282 -22.153 -88.507  1.00  0.00     0.239 C 
HETATM   10  C18 UNL     1      -6.982 -23.012 -89.539  1.00  0.00     0.039 C 
ENDROOT
BRANCH   1  11
HETATM   11  C7  UNL     1      -4.695 -24.016 -89.824  1.00  0.00     0.076 C 
HETATM   12  N2  UNL     1      -4.500 -24.729 -88.809  1.00  0.00    -0.389 N 
ATOM     13  H22 UNL     1      -3.542 -24.824 -88.473  1.00  0.00     0.157 HD
ATOM     14  H21 UNL     1      -5.266 -25.213 -88.339  1.00  0.00     0.157 HD
BRANCH  11  15
HETATM   15  N1  UNL     1      -3.633 -23.346 -90.475  1.00  0.00    -0.379 N 
ATOM     16  H1  UNL     1      -3.433 -22.422 -90.092  1.00  0.00     0.160 HD
BRANCH  15  17
HETATM   17  C6  UNL     1      -2.796 -23.709 -91.551  1.00  0.00     0.131 C 
BRANCH  17  18
HETATM   18  C5  UNL     1      -2.835 -22.981 -92.833  1.00  0.00     0.093 C 
BRANCH  18  19
HETATM   19  S1  UNL     1      -4.358 -22.272 -93.391  1.00  0.00    -0.168 SA
BRANCH  19  20
HETATM   20  C4  UNL     1      -4.576 -20.539 -92.960  1.00  0.00     0.074 C 
BRANCH  20  21
HETATM   21  C3  UNL     1      -5.129 -20.333 -91.572  1.00  0.00     0.010 C 
BRANCH  21  22
HETATM   22  C2  UNL     1      -4.091 -19.530 -90.786  1.00  0.00    -0.004 C 
HETATM   23  C1  UNL     1      -3.354 -18.665 -91.795  1.00  0.00     0.005 C 
ENDBRANCH  21  22
ENDBRANCH  20  21
ENDBRANCH  19  20
ENDBRANCH  18  19
ENDBRANCH  17  18
ENDBRANCH  15  17
ENDBRANCH  11  15
ENDBRANCH   1  11
BRANCH   2  24
HETATM   24  C10 UNL     1      -7.633 -25.151 -91.731  1.00  0.00     0.232 C 
HETATM   25  O1  UNL     1      -8.762 -25.684 -91.664  1.00  0.00    -0.272 OA
HETATM   26  N3  UNL     1      -7.261 -24.479 -92.913  1.00  0.00    -0.358 N 
ATOM     27  H3  UNL     1      -6.339 -24.046 -92.960  1.00  0.00     0.162 HD
BRANCH  26  28
HETATM   28  C11 UNL     1      -8.140 -24.379 -94.072  1.00  0.00     0.157 C 
BRANCH  28  29
HETATM   29  C12 UNL     1      -7.286 -24.539 -95.311  1.00  0.00     0.176 C 
HETATM   30  O2  UNL     1      -7.955 -24.880 -96.477  1.00  0.00    -0.349 OA
HETATM   31  C13 UNL     1      -6.909 -24.215 -97.162  1.00  0.00     0.288 C 
HETATM   32  C14 UNL     1      -6.950 -23.214 -95.999  1.00  0.00     0.203 C 
BRANCH  31  33
HETATM   33  O3  UNL     1      -7.252 -23.645 -98.361  1.00  0.00    -0.369 OA
ATOM     34  H3  UNL     1      -6.527 -23.341 -98.894  1.00  0.00     0.212 HD
ENDBRANCH  31  33
BRANCH  32  35
HETATM   35  O4  UNL     1      -8.026 -22.362 -96.179  1.00  0.00    -0.388 OA
ATOM     36  H4  UNL     1      -7.918 -21.723 -96.875  1.00  0.00     0.210 HD
ENDBRANCH  32  35
ENDBRANCH  28  29
ENDBRANCH  26  28
ENDBRANCH   2  24
TORSDOF 13
ENDMDL
MODEL 3
REMARK VINA RESULT: -6.966238681      1.572      2.018
REMARK  13 active torsions:
REMARK  status: ('A' for Active; 'I' for Inactive)
REMARK    1  A    between atoms: C2_2  and  C3_3 
REMARK    2  A    between atoms: C3_3  and  C4_4 
REMARK    3  A    between atoms: C4_4  and  S1_5 
REMARK    4  A    between atoms: S1_5  and  C5_6 
REMARK    5  A    between atoms: C5_6  and  C6_7 
REMARK    6  A    between atoms: C6_7  and  N1_8 
REMARK    7  A    between atoms: N1_8  and  C7_10 
REMARK    8  A    between atoms: C7_10  and  C8_14 
REMARK    9  A    between atoms: C9_15  and  C10_16 
REMARK       I    between atoms: C10_16  and  N3_18 
REMARK   10  A    between atoms: N3_18  and  C11_20 
REMARK   11  A    between atoms: C11_20  and  C12_21 
REMARK   12  A    between atoms: C13_23  and  O3_24 
REMARK   13  A    between atoms: C14_26  and  O4_27 
ROOT
HETATM    1  C8  UNL     1      -7.602 -24.085 -89.861  1.00  0.00     0.082 C 
HETATM    2  C9  UNL     1      -6.979 -24.837 -90.982  1.00  0.00     0.151 C 
HETATM    3  S2  UNL     1      -6.710 -26.461 -90.205  1.00  0.00    -0.147 SA
HETATM    4  C15 UNL     1      -8.072 -26.357 -89.026  1.00  0.00     0.080 C 
HETATM    5  C16 UNL     1      -7.679 -26.746 -87.633  1.00  0.00     0.247 C 
HETATM    6  N4  UNL     1      -8.535 -25.892 -86.833  1.00  0.00    -0.074 N 
ATOM      7  H41 UNL     1      -8.340 -25.885 -85.832  1.00  0.00     0.277 HD
ATOM      8  H42 UNL     1      -9.500 -26.208 -86.729  1.00  0.00     0.277 HD
HETATM    9  C17 UNL     1      -8.355 -24.606 -87.528  1.00  0.00     0.239 C 
HETATM   10  C18 UNL     1      -8.448 -24.912 -89.009  1.00  0.00     0.039 C 
ENDROOT
BRANCH   1  11
HETATM   11  C7  UNL     1      -6.566 -23.252 -89.169  1.00  0.00     0.076 C 
HETATM   12  N2  UNL     1      -6.866 -22.067 -88.883  1.00  0.00    -0.389 N 
ATOM     13  H22 UNL     1      -6.160 -21.500 -88.413  1.00  0.00     0.157 HD
ATOM     14  H21 UNL     1      -7.785 -21.681 -89.098  1.00  0.00     0.157 HD
BRANCH  11  15
HETATM   15  N1  UNL     1      -5.291 -23.788 -88.871  1.00  0.00    -0.379 N 
ATOM     16  H1  UNL     1      -5.316 -24.567 -88.213  1.00  0.00     0.160 HD
BRANCH  15  17
HETATM   17  C6  UNL     1      -3.992 -23.453 -89.307  1.00  0.00     0.131 C 
BRANCH  17  18
HETATM   18  C5  UNL     1      -3.475 -23.922 -90.606  1.00  0.00     0.093 C 
BRANCH  18  19
HETATM   19  S1  UNL     1      -3.766 -22.960 -92.063  1.00  0.00    -0.168 SA
BRANCH  19  20
HETATM   20  C4  UNL     1      -4.650 -21.421 -91.776  1.00  0.00     0.074 C 
BRANCH  20  21
HETATM   21  C3  UNL     1      -3.966 -20.217 -92.374  1.00  0.00     0.010 C 
BRANCH  21  22
HETATM   22  C2  UNL     1      -3.924 -19.137 -91.292  1.00  0.00    -0.004 C 
HETATM   23  C1  UNL     1      -4.165 -19.838 -89.966  1.00  0.00     0.005 C 
ENDBRANCH  21  22
ENDBRANCH  20  21
ENDBRANCH  19  20
ENDBRANCH  18  19
ENDBRANCH  17  18
ENDBRANCH  15  17
ENDBRANCH  11  15
ENDBRANCH   1  11
BRANCH   2  24
HETATM   24  C10 UNL     1      -7.959 -24.993 -92.100  1.00  0.00     0.232 C 
HETATM   25  O1  UNL     1      -8.697 -25.999 -92.173  1.00  0.00    -0.272 OA
HETATM   26  N3  UNL     1      -8.057 -23.997 -93.093  1.00  0.00    -0.358 N 
ATOM     27  H3  UNL     1      -7.453 -23.178 -93.026  1.00  0.00     0.162 HD
BRANCH  26  28
HETATM   28  C11 UNL     1      -8.988 -24.090 -94.212  1.00  0.00     0.157 C 
BRANCH  28  29
HETATM   29  C12 UNL     1      -8.201 -24.533 -95.426  1.00  0.00     0.176 C 
HETATM   30  O2  UNL     1      -8.852 -24.438 -96.647  1.00  0.00    -0.349 OA
HETATM   31  C13 UNL     1      -7.565 -24.282 -97.216  1.00  0.00     0.288 C 
HETATM   32  C14 UNL     1      -7.241 -23.466 -95.958  1.00  0.00     0.203 C 
BRANCH  31  33
HETATM   33  O3  UNL     1      -7.509 -23.529 -98.362  1.00  0.00    -0.369 OA
ATOM     34  H3  UNL     1      -7.883 -22.658 -98.299  1.00  0.00     0.212 HD
ENDBRANCH  31  33
BRANCH  32  35
HETATM   35  O4  UNL     1      -7.790 -22.202 -96.089  1.00  0.00    -0.388 OA
ATOM     36  H4  UNL     1      -8.733 -22.186 -96.206  1.00  0.00     0.210 HD
ENDBRANCH  32  35
ENDBRANCH  28  29
ENDBRANCH  26  28
ENDBRANCH   2  24
TORSDOF 13
ENDMDL
MODEL 4
REMARK VINA RESULT: -6.883665864      1.570      1.947
REMARK  13 active torsions:
REMARK  status: ('A' for Active; 'I' for Inactive)
REMARK    1  A    between atoms: C2_2  and  C3_3 
REMARK    2  A    between atoms: C3_3  and  C4_4 
REMARK    3  A    between atoms: C4_4  and  S1_5 
REMARK    4  A    between atoms: S1_5  and  C5_6 
REMARK    5  A    between atoms: C5_6  and  C6_7 
REMARK    6  A    between atoms: C6_7  and  N1_8 
REMARK    7  A    between atoms: N1_8  and  C7_10 
REMARK    8  A    between atoms: C7_10  and  C8_14 
REMARK    9  A    between atoms: C9_15  and  C10_16 
REMARK       I    between atoms: C10_16  and  N3_18 
REMARK   10  A    between atoms: N3_18  and  C11_20 
REMARK   11  A    between atoms: C11_20  and  C12_21 
REMARK   12  A    between atoms: C13_23  and  O3_24 
REMARK   13  A    between atoms: C14_26  and  O4_27 
ROOT
HETATM    1  C8  UNL     1      -7.171 -24.073 -90.358  1.00  0.00     0.082 C 
HETATM    2  C9  UNL     1      -6.092 -24.576 -91.249  1.00  0.00     0.151 C 
HETATM    3  S2  UNL     1      -6.667 -26.273 -91.569  1.00  0.00    -0.147 SA
HETATM    4  C15 UNL     1      -8.429 -25.939 -91.367  1.00  0.00     0.080 C 
HETATM    5  C16 UNL     1      -9.124 -26.940 -90.494  1.00  0.00     0.247 C 
HETATM    6  N4  UNL     1     -10.145 -26.126 -89.864  1.00  0.00    -0.074 N 
ATOM      7  H41 UNL     1     -10.663 -26.574 -89.108  1.00  0.00     0.277 HD
ATOM      8  H42 UNL     1     -10.971 -25.935 -90.432  1.00  0.00     0.277 HD
HETATM    9  C17 UNL     1      -9.348 -24.947 -89.479  1.00  0.00     0.239 C 
HETATM   10  C18 UNL     1      -8.485 -24.614 -90.679  1.00  0.00     0.039 C 
ENDROOT
BRANCH   1  11
HETATM   11  C7  UNL     1      -6.737 -24.174 -88.927  1.00  0.00     0.076 C 
HETATM   12  N2  UNL     1      -6.221 -25.254 -88.549  1.00  0.00    -0.389 N 
ATOM     13  H22 UNL     1      -5.927 -25.323 -87.575  1.00  0.00     0.157 HD
ATOM     14  H21 UNL     1      -6.085 -26.036 -89.190  1.00  0.00     0.157 HD
BRANCH  11  15
HETATM   15  N1  UNL     1      -6.926 -23.090 -88.038  1.00  0.00    -0.379 N 
ATOM     16  H1  UNL     1      -7.420 -23.341 -87.182  1.00  0.00     0.160 HD
BRANCH  15  17
HETATM   17  C6  UNL     1      -6.562 -21.729 -88.106  1.00  0.00     0.131 C 
BRANCH  17  18
HETATM   18  C5  UNL     1      -5.165 -21.318 -88.333  1.00  0.00     0.093 C 
BRANCH  18  19
HETATM   19  S1  UNL     1      -4.519 -21.284 -89.981  1.00  0.00    -0.168 SA
BRANCH  19  20
HETATM   20  C4  UNL     1      -4.052 -19.648 -90.565  1.00  0.00     0.074 C 
BRANCH  20  21
HETATM   21  C3  UNL     1      -4.593 -19.325 -91.935  1.00  0.00     0.010 C 
BRANCH  21  22
HETATM   22  C2  UNL     1      -3.548 -19.784 -92.954  1.00  0.00    -0.004 C 
HETATM   23  C1  UNL     1      -4.312 -20.385 -94.121  1.00  0.00     0.005 C 
ENDBRANCH  21  22
ENDBRANCH  20  21
ENDBRANCH  19  20
ENDBRANCH  18  19
ENDBRANCH  17  18
ENDBRANCH  15  17
ENDBRANCH  11  15
ENDBRANCH   1  11
BRANCH   2  24
HETATM   24  C10 UNL     1      -6.095 -23.815 -92.535  1.00  0.00     0.232 C 
HETATM   25  O1  UNL     1      -6.333 -22.588 -92.555  1.00  0.00    -0.272 OA
HETATM   26  N3  UNL     1      -5.830 -24.482 -93.749  1.00  0.00    -0.358 N 
ATOM     27  H3  UNL     1      -5.635 -25.482 -93.724  1.00  0.00     0.162 HD
BRANCH  26  28
HETATM   28  C11 UNL     1      -5.823 -23.798 -95.037  1.00  0.00     0.157 C 
BRANCH  28  29
HETATM   29  C12 UNL     1      -7.183 -23.997 -95.669  1.00  0.00     0.176 C 
HETATM   30  O2  UNL     1      -7.747 -22.884 -96.275  1.00  0.00    -0.349 OA
HETATM   31  C13 UNL     1      -8.424 -23.801 -97.116  1.00  0.00     0.288 C 
HETATM   32  C14 UNL     1      -7.126 -24.618 -97.066  1.00  0.00     0.203 C 
BRANCH  31  33
HETATM   33  O3  UNL     1      -8.714 -23.347 -98.377  1.00  0.00    -0.369 OA
ATOM     34  H3  UNL     1      -8.082 -23.571 -99.050  1.00  0.00     0.212 HD
ENDBRANCH  31  33
BRANCH  32  35
HETATM   35  O4  UNL     1      -6.201 -24.042 -97.922  1.00  0.00    -0.388 OA
ATOM     36  H4  UNL     1      -6.486 -23.234 -98.332  1.00  0.00     0.210 HD
ENDBRANCH  32  35
ENDBRANCH  28  29
ENDBRANCH  26  28
ENDBRANCH   2  24
TORSDOF 13
ENDMDL
MODEL 5
REMARK VINA RESULT: -6.796199165      3.067      6.452
REMARK  13 active torsions:
REMARK  status: ('A' for Active; 'I' for Inactive)
REMARK    1  A    between atoms: C2_2  and  C3_3 
REMARK    2  A    between atoms: C3_3  and  C4_4 
REMARK    3  A    between atoms: C4_4  and  S1_5 
REMARK    4  A    between atoms: S1_5  and  C5_6 
REMARK    5  A    between atoms: C5_6  and  C6_7 
REMARK    6  A    between atoms: C6_7  and  N1_8 
REMARK    7  A    between atoms: N1_8  and  C7_10 
REMARK    8  A    between atoms: C7_10  and  C8_14 
REMARK    9  A    between atoms: C9_15  and  C10_16 
REMARK       I    between atoms: C10_16  and  N3_18 
REMARK   10  A    between atoms: N3_18  and  C11_20 
REMARK   11  A    between atoms: C11_20  and  C12_21 
REMARK   12  A    between atoms: C13_23  and  O3_24 
REMARK   13  A    between atoms: C14_26  and  O4_27 
ROOT
HETATM    1  C8  UNL     1      -6.448 -25.191 -92.811  1.00  0.00     0.082 C 
HETATM    2  C9  UNL     1      -7.390 -24.678 -91.781  1.00  0.00     0.151 C 
HETATM    3  S2  UNL     1      -8.676 -23.927 -92.827  1.00  0.00    -0.147 SA
HETATM    4  C15 UNL     1      -8.437 -25.001 -94.257  1.00  0.00     0.080 C 
HETATM    5  C16 UNL     1      -8.360 -24.252 -95.552  1.00  0.00     0.247 C 
HETATM    6  N4  UNL     1      -7.445 -25.077 -96.318  1.00  0.00    -0.074 N 
ATOM      7  H41 UNL     1      -7.129 -24.681 -97.203  1.00  0.00     0.277 HD
ATOM      8  H42 UNL     1      -7.850 -25.913 -96.739  1.00  0.00     0.277 HD
HETATM    9  C17 UNL     1      -6.393 -25.313 -95.313  1.00  0.00     0.239 C 
HETATM   10  C18 UNL     1      -7.112 -25.651 -94.024  1.00  0.00     0.039 C 
ENDROOT
BRANCH   1  11
HETATM   11  C7  UNL     1      -5.318 -24.224 -92.993  1.00  0.00     0.076 C 
HETATM   12  N2  UNL     1      -4.148 -24.664 -92.870  1.00  0.00    -0.389 N 
ATOM     13  H22 UNL     1      -3.379 -24.006 -92.994  1.00  0.00     0.157 HD
ATOM     14  H21 UNL     1      -3.965 -25.647 -92.668  1.00  0.00     0.157 HD
BRANCH  11  15
HETATM   15  N1  UNL     1      -5.573 -22.861 -93.274  1.00  0.00    -0.379 N 
ATOM     16  H1  UNL     1      -5.942 -22.339 -92.479  1.00  0.00     0.160 HD
BRANCH  15  17
HETATM   17  C6  UNL     1      -5.415 -22.084 -94.440  1.00  0.00     0.131 C 
BRANCH  17  18
HETATM   18  C5  UNL     1      -4.524 -20.909 -94.465  1.00  0.00     0.093 C 
BRANCH  18  19
HETATM   19  S1  UNL     1      -3.376 -20.653 -93.143  1.00  0.00    -0.168 SA
BRANCH  19  20
HETATM   20  C4  UNL     1      -3.446 -19.016 -92.401  1.00  0.00     0.074 C 
BRANCH  20  21
HETATM   21  C3  UNL     1      -3.969 -19.022 -90.986  1.00  0.00     0.010 C 
BRANCH  21  22
HETATM   22  C2  UNL     1      -4.469 -20.438 -90.695  1.00  0.00    -0.004 C 
HETATM   23  C1  UNL     1      -4.487 -20.590 -89.183  1.00  0.00     0.005 C 
ENDBRANCH  21  22
ENDBRANCH  20  21
ENDBRANCH  19  20
ENDBRANCH  18  19
ENDBRANCH  17  18
ENDBRANCH  15  17
ENDBRANCH  11  15
ENDBRANCH   1  11
BRANCH   2  24
HETATM   24  C10 UNL     1      -7.989 -25.819 -91.023  1.00  0.00     0.232 C 
HETATM   25  O1  UNL     1      -9.211 -26.070 -91.099  1.00  0.00    -0.272 OA
HETATM   26  N3  UNL     1      -7.172 -26.627 -90.206  1.00  0.00    -0.358 N 
ATOM     27  H3  UNL     1      -6.176 -26.417 -90.150  1.00  0.00     0.162 HD
BRANCH  26  28
HETATM   28  C11 UNL     1      -7.695 -27.751 -89.437  1.00  0.00     0.157 C 
BRANCH  28  29
HETATM   29  C12 UNL     1      -7.644 -27.368 -87.974  1.00  0.00     0.176 C 
HETATM   30  O2  UNL     1      -7.334 -26.046 -87.696  1.00  0.00    -0.349 OA
HETATM   31  C13 UNL     1      -8.085 -26.216 -86.508  1.00  0.00     0.288 C 
HETATM   32  C14 UNL     1      -9.018 -27.079 -87.367  1.00  0.00     0.203 C 
BRANCH  31  33
HETATM   33  O3  UNL     1      -8.702 -25.089 -86.028  1.00  0.00    -0.369 OA
ATOM     34  H3  UNL     1      -9.320 -25.228 -85.321  1.00  0.00     0.212 HD
ENDBRANCH  31  33
BRANCH  32  35
HETATM   35  O4  UNL     1      -9.826 -26.248 -88.125  1.00  0.00    -0.388 OA
ATOM     36  H4  UNL     1     -10.479 -26.696 -88.650  1.00  0.00     0.210 HD
ENDBRANCH  32  35
ENDBRANCH  28  29
ENDBRANCH  26  28
ENDBRANCH   2  24
TORSDOF 13
ENDMDL
