MODEL 1
REMARK VINA RESULT: -8.088797030      0.000      0.000
REMARK  11 active torsions:
REMARK  status: ('A' for Active; 'I' for Inactive)
REMARK    1  A    between atoms: C2_2  and  C3_3 
REMARK    2  A    between atoms: C3_3  and  C4_4 
REMARK    3  A    between atoms: C4_4  and  O1_5 
REMARK    4  A    between atoms: O1_5  and  N1_6 
REMARK       I    between atoms: C5_8  and  N2_9 
REMARK       I    between atoms: C5_8  and  N4_13 
REMARK    5  A    between atoms: N4_13  and  C7_15 
REMARK    6  A    between atoms: C9_17  and  O2_18 
REMARK    7  A    between atoms: O2_18  and  C10_19 
REMARK    8  A    between atoms: C13_26  and  O3_27 
REMARK    9  A    between atoms: O3_27  and  C14_28 
REMARK   10  A    between atoms: C14_28  and  C15_30 
REMARK   11  A    between atoms: C15_30  and  N7_31 
REMARK       I    between atoms: N7_31  and  C16_33 
REMARK       I    between atoms: C16_33  and  N8_35 
ROOT
HETATM    1  N1  UNL     1      -4.857 -22.558 -90.615  1.00  0.00    -0.096 N 
ATOM      2  H1  UNL     1      -4.459 -22.849 -89.722  1.00  0.00     0.213 HD
HETATM    3  C5  UNL     1      -4.924 -23.435 -91.557  1.00  0.00     0.707 C 
HETATM    4  N2  UNL     1      -4.444 -24.739 -91.302  1.00  0.00    -0.124 N 
ATOM      5  H2  UNL     1      -4.219 -25.359 -92.080  1.00  0.00     0.197 HD
HETATM    6  C6  UNL     1      -4.274 -25.187 -89.977  1.00  0.00     0.196 C 
HETATM    7  N3  UNL     1      -4.136 -25.563 -88.908  1.00  0.00    -0.171 NA
HETATM    8  N4  UNL     1      -5.454 -23.124 -92.837  1.00  0.00    -0.216 N 
ATOM      9  H4  UNL     1      -5.060 -22.320 -93.326  1.00  0.00     0.178 HD
ENDROOT
BRANCH   1  10
HETATM   10  O1  UNL     1      -5.284 -21.266 -90.731  1.00  0.00    -0.266 OA
BRANCH  10  11
HETATM   11  C4  UNL     1      -4.377 -20.209 -90.475  1.00  0.00     0.202 C 
BRANCH  11  12
HETATM   12  C3  UNL     1      -4.566 -19.076 -91.458  1.00  0.00     0.028 C 
BRANCH  12  13
HETATM   13  C2  UNL     1      -3.319 -18.987 -92.310  1.00  0.00    -0.002 C 
HETATM   14  C1  UNL     1      -3.353 -20.120 -93.308  1.00  0.00     0.005 C 
ENDBRANCH  12  13
ENDBRANCH  11  12
ENDBRANCH  10  11
ENDBRANCH   1  10
BRANCH   8  15
HETATM   15  C7  UNL     1      -6.506 -23.855 -93.501  1.00  0.00     0.135 C 
HETATM   16  C8  UNL     1      -6.671 -23.246 -94.874  1.00  0.00     0.065 C 
HETATM   17  C9  UNL     1      -7.785 -23.920 -95.631  1.00  0.00     0.156 C 
HETATM   18  C11 UNL     1      -9.026 -24.018 -94.783  1.00  0.00     0.004 C 
HETATM   19  C12 UNL     1      -8.988 -23.970 -93.488  1.00  0.00     0.006 C 
HETATM   20  C13 UNL     1      -7.738 -23.815 -92.681  1.00  0.00     0.177 C 
BRANCH  17  21
HETATM   21  O2  UNL     1      -8.037 -23.321 -96.859  1.00  0.00    -0.315 OA
BRANCH  21  22
HETATM   22  C10 UNL     1      -8.604 -24.031 -97.929  1.00  0.00     0.225 C 
HETATM   23  N5  UNL     1      -9.806 -23.668 -98.235  1.00  0.00    -0.368 N 
ATOM     24  H52 UNL     1     -10.304 -22.927 -97.743  1.00  0.00     0.159 HD
ATOM     25  H51 UNL     1     -10.218 -24.183 -99.013  1.00  0.00     0.159 HD
HETATM   26  N6  UNL     1      -7.910 -25.062 -98.615  1.00  0.00    -0.057 NA
ENDBRANCH  21  22
ENDBRANCH  17  21
BRANCH  20  27
HETATM   27  O3  UNL     1      -7.829 -24.817 -91.679  1.00  0.00    -0.309 OA
BRANCH  27  28
HETATM   28  C14 UNL     1      -8.294 -24.567 -90.414  1.00  0.00     0.277 C 
HETATM   29  O4  UNL     1      -7.556 -23.907 -89.630  1.00  0.00    -0.263 OA
BRANCH  28  30
HETATM   30  C15 UNL     1      -9.603 -25.018 -89.899  1.00  0.00     0.235 C 
BRANCH  30  31
HETATM   31  N7  UNL     1      -9.767 -26.437 -90.035  1.00  0.00    -0.333 N 
HETATM   32  C16 UNL     1      -9.507 -27.275 -88.921  1.00  0.00     0.329 C 
HETATM   33  O5  UNL     1      -9.141 -26.811 -87.827  1.00  0.00    -0.246 OA
HETATM   34  N8  UNL     1      -9.668 -28.699 -89.043  1.00  0.00    -0.245 N 
HETATM   35  C17 UNL     1      -9.419 -29.547 -87.963  1.00  0.00     0.185 C 
ATOM     36  H8  UNL     1      -9.968 -29.096 -89.933  1.00  0.00     0.183 HD
HETATM   37  N9  UNL     1      -9.191 -30.261 -87.062  1.00  0.00    -0.172 NA
ATOM     38  H7  UNL     1     -10.067 -26.838 -90.923  1.00  0.00     0.164 HD
ENDBRANCH  30  31
ENDBRANCH  28  30
ENDBRANCH  27  28
ENDBRANCH  20  27
ENDBRANCH   8  15
TORSDOF 11
ENDMDL
MODEL 2
REMARK VINA RESULT: -7.797515210      2.137      3.539
REMARK  11 active torsions:
REMARK  status: ('A' for Active; 'I' for Inactive)
REMARK    1  A    between atoms: C2_2  and  C3_3 
REMARK    2  A    between atoms: C3_3  and  C4_4 
REMARK    3  A    between atoms: C4_4  and  O1_5 
REMARK    4  A    between atoms: O1_5  and  N1_6 
REMARK       I    between atoms: C5_8  and  N2_9 
REMARK       I    between atoms: C5_8  and  N4_13 
REMARK    5  A    between atoms: N4_13  and  C7_15 
REMARK    6  A    between atoms: C9_17  and  O2_18 
REMARK    7  A    between atoms: O2_18  and  C10_19 
REMARK    8  A    between atoms: C13_26  and  O3_27 
REMARK    9  A    between atoms: O3_27  and  C14_28 
REMARK   10  A    between atoms: C14_28  and  C15_30 
REMARK   11  A    between atoms: C15_30  and  N7_31 
REMARK       I    between atoms: N7_31  and  C16_33 
REMARK       I    between atoms: C16_33  and  N8_35 
ROOT
HETATM    1  N1  UNL     1      -3.452 -20.769 -93.604  1.00  0.00    -0.096 N 
ATOM      2  H1  UNL     1      -2.448 -20.677 -93.448  1.00  0.00     0.213 HD
HETATM    3  C5  UNL     1      -3.845 -21.555 -94.546  1.00  0.00     0.707 C 
HETATM    4  N2  UNL     1      -2.870 -22.241 -95.305  1.00  0.00    -0.124 N 
ATOM      5  H2  UNL     1      -3.117 -22.633 -96.214  1.00  0.00     0.197 HD
HETATM    6  C6  UNL     1      -1.558 -22.384 -94.813  1.00  0.00     0.196 C 
HETATM    7  N3  UNL     1      -0.493 -22.511 -94.422  1.00  0.00    -0.171 NA
HETATM    8  N4  UNL     1      -5.220 -21.741 -94.845  1.00  0.00    -0.216 N 
ATOM      9  H4  UNL     1      -5.780 -20.907 -95.021  1.00  0.00     0.178 HD
ENDROOT
BRANCH   1  10
HETATM   10  O1  UNL     1      -4.289 -20.049 -92.799  1.00  0.00    -0.266 OA
BRANCH  10  11
HETATM   11  C4  UNL     1      -3.778 -18.942 -92.079  1.00  0.00     0.202 C 
BRANCH  11  12
HETATM   12  C3  UNL     1      -3.821 -19.193 -90.588  1.00  0.00     0.028 C 
BRANCH  12  13
HETATM   13  C2  UNL     1      -4.741 -20.367 -90.340  1.00  0.00    -0.002 C 
HETATM   14  C1  UNL     1      -4.575 -20.795 -88.901  1.00  0.00     0.005 C 
ENDBRANCH  12  13
ENDBRANCH  11  12
ENDBRANCH  10  11
ENDBRANCH   1  10
BRANCH   8  15
HETATM   15  C7  UNL     1      -5.889 -23.017 -94.919  1.00  0.00     0.135 C 
HETATM   16  C8  UNL     1      -7.130 -22.820 -95.759  1.00  0.00     0.065 C 
HETATM   17  C9  UNL     1      -7.922 -24.097 -95.858  1.00  0.00     0.156 C 
HETATM   18  C11 UNL     1      -8.120 -24.712 -94.497  1.00  0.00     0.004 C 
HETATM   19  C12 UNL     1      -7.340 -24.445 -93.495  1.00  0.00     0.006 C 
HETATM   20  C13 UNL     1      -6.169 -23.517 -93.553  1.00  0.00     0.177 C 
BRANCH  17  21
HETATM   21  O2  UNL     1      -9.123 -23.932 -96.536  1.00  0.00    -0.315 OA
BRANCH  21  22
HETATM   22  C10 UNL     1      -9.213 -24.062 -97.930  1.00  0.00     0.225 C 
HETATM   23  N5  UNL     1     -10.289 -23.565 -98.446  1.00  0.00    -0.368 N 
ATOM     24  H52 UNL     1     -11.015 -23.115 -97.888  1.00  0.00     0.159 HD
ATOM     25  H51 UNL     1     -10.355 -23.659 -99.459  1.00  0.00     0.159 HD
HETATM   26  N6  UNL     1      -8.203 -24.689 -98.706  1.00  0.00    -0.057 NA
ENDBRANCH  21  22
ENDBRANCH  17  21
BRANCH  20  27
HETATM   27  O3  UNL     1      -5.107 -24.237 -92.945  1.00  0.00    -0.309 OA
BRANCH  27  28
HETATM   28  C14 UNL     1      -4.616 -23.933 -91.702  1.00  0.00     0.277 C 
HETATM   29  O4  UNL     1      -3.659 -23.113 -91.626  1.00  0.00    -0.263 OA
BRANCH  28  30
HETATM   30  C15 UNL     1      -5.130 -24.499 -90.437  1.00  0.00     0.235 C 
BRANCH  30  31
HETATM   31  N7  UNL     1      -6.369 -23.888 -90.048  1.00  0.00    -0.333 N 
HETATM   32  C16 UNL     1      -7.535 -24.688 -89.944  1.00  0.00     0.329 C 
HETATM   33  O5  UNL     1      -7.511 -25.909 -90.181  1.00  0.00    -0.246 OA
HETATM   34  N8  UNL     1      -8.783 -24.089 -89.554  1.00  0.00    -0.245 N 
HETATM   35  C17 UNL     1      -9.945 -24.853 -89.443  1.00  0.00     0.185 C 
ATOM     36  H8  UNL     1      -8.819 -23.090 -89.355  1.00  0.00     0.183 HD
HETATM   37  N9  UNL     1     -10.925 -25.492 -89.370  1.00  0.00    -0.172 NA
ATOM     38  H7  UNL     1      -6.410 -22.889 -89.848  1.00  0.00     0.164 HD
ENDBRANCH  30  31
ENDBRANCH  28  30
ENDBRANCH  27  28
ENDBRANCH  20  27
ENDBRANCH   8  15
TORSDOF 11
ENDMDL
MODEL 3
REMARK VINA RESULT: -7.756110672      2.031      6.721
REMARK  11 active torsions:
REMARK  status: ('A' for Active; 'I' for Inactive)
REMARK    1  A    between atoms: C2_2  and  C3_3 
REMARK    2  A    between atoms: C3_3  and  C4_4 
REMARK    3  A    between atoms: C4_4  and  O1_5 
REMARK    4  A    between atoms: O1_5  and  N1_6 
REMARK       I    between atoms: C5_8  and  N2_9 
REMARK       I    between atoms: C5_8  and  N4_13 
REMARK    5  A    between atoms: N4_13  and  C7_15 
REMARK    6  A    between atoms: C9_17  and  O2_18 
REMARK    7  A    between atoms: O2_18  and  C10_19 
REMARK    8  A    between atoms: C13_26  and  O3_27 
REMARK    9  A    between atoms: O3_27  and  C14_28 
REMARK   10  A    between atoms: C14_28  and  C15_30 
REMARK   11  A    between atoms: C15_30  and  N7_31 
REMARK       I    between atoms: N7_31  and  C16_33 
REMARK       I    between atoms: C16_33  and  N8_35 
ROOT
HETATM    1  N1  UNL     1      -4.284 -22.578 -88.523  1.00  0.00    -0.096 N 
ATOM      2  H1  UNL     1      -3.398 -22.729 -88.042  1.00  0.00     0.213 HD
HETATM    3  C5  UNL     1      -4.765 -23.554 -89.215  1.00  0.00     0.707 C 
HETATM    4  N2  UNL     1      -4.041 -24.766 -89.268  1.00  0.00    -0.124 N 
ATOM      5  H2  UNL     1      -4.232 -25.440 -90.010  1.00  0.00     0.197 HD
HETATM    6  C6  UNL     1      -3.058 -25.050 -88.300  1.00  0.00     0.196 C 
HETATM    7  N3  UNL     1      -2.262 -25.292 -87.519  1.00  0.00    -0.171 NA
HETATM    8  N4  UNL     1      -5.987 -23.438 -89.928  1.00  0.00    -0.216 N 
ATOM      9  H4  UNL     1      -6.082 -22.655 -90.575  1.00  0.00     0.178 HD
ENDROOT
BRANCH   1  10
HETATM   10  O1  UNL     1      -4.881 -21.357 -88.391  1.00  0.00    -0.266 OA
BRANCH  10  11
HETATM   11  C4  UNL     1      -4.258 -20.215 -88.950  1.00  0.00     0.202 C 
BRANCH  11  12
HETATM   12  C3  UNL     1      -4.211 -20.301 -90.458  1.00  0.00     0.028 C 
BRANCH  12  13
HETATM   13  C2  UNL     1      -4.384 -18.903 -91.010  1.00  0.00    -0.002 C 
HETATM   14  C1  UNL     1      -3.398 -18.720 -92.139  1.00  0.00     0.005 C 
ENDBRANCH  12  13
ENDBRANCH  11  12
ENDBRANCH  10  11
ENDBRANCH   1  10
BRANCH   8  15
HETATM   15  C7  UNL     1      -7.106 -24.341 -89.809  1.00  0.00     0.135 C 
HETATM   16  C8  UNL     1      -7.412 -24.478 -88.336  1.00  0.00     0.065 C 
HETATM   17  C9  UNL     1      -8.546 -25.442 -88.109  1.00  0.00     0.156 C 
HETATM   18  C11 UNL     1      -8.323 -26.722 -88.873  1.00  0.00     0.004 C 
HETATM   19  C12 UNL     1      -7.545 -26.785 -89.909  1.00  0.00     0.006 C 
HETATM   20  C13 UNL     1      -6.785 -25.626 -90.471  1.00  0.00     0.177 C 
BRANCH  17  21
HETATM   21  O2  UNL     1      -8.791 -25.675 -86.761  1.00  0.00    -0.315 OA
BRANCH  21  22
HETATM   22  C10 UNL     1      -8.096 -26.658 -86.039  1.00  0.00     0.225 C 
HETATM   23  N5  UNL     1      -8.678 -27.812 -86.009  1.00  0.00    -0.368 N 
ATOM     24  H52 UNL     1      -9.569 -27.996 -86.471  1.00  0.00     0.159 HD
ATOM     25  H51 UNL     1      -8.173 -28.526 -85.485  1.00  0.00     0.159 HD
HETATM   26  N6  UNL     1      -6.857 -26.401 -85.396  1.00  0.00    -0.057 NA
ENDBRANCH  21  22
ENDBRANCH  17  21
BRANCH  20  27
HETATM   27  O3  UNL     1      -7.045 -25.667 -91.866  1.00  0.00    -0.309 OA
BRANCH  27  28
HETATM   28  C14 UNL     1      -8.250 -25.303 -92.411  1.00  0.00     0.277 C 
HETATM   29  O4  UNL     1      -9.079 -26.216 -92.681  1.00  0.00    -0.263 OA
BRANCH  28  30
HETATM   30  C15 UNL     1      -8.649 -23.911 -92.707  1.00  0.00     0.235 C 
BRANCH  30  31
HETATM   31  N7  UNL     1      -9.296 -23.805 -93.983  1.00  0.00    -0.333 N 
HETATM   32  C16 UNL     1      -8.515 -23.869 -95.165  1.00  0.00     0.329 C 
HETATM   33  O5  UNL     1      -7.281 -24.016 -95.123  1.00  0.00    -0.246 OA
HETATM   34  N8  UNL     1      -9.151 -23.765 -96.451  1.00  0.00    -0.245 N 
HETATM   35  C17 UNL     1      -8.407 -23.825 -97.629  1.00  0.00     0.185 C 
ATOM     36  H8  UNL     1     -10.163 -23.646 -96.502  1.00  0.00     0.183 HD
HETATM   37  N9  UNL     1      -7.779 -23.856 -98.619  1.00  0.00    -0.172 NA
ATOM     38  H7  UNL     1     -10.307 -23.685 -94.039  1.00  0.00     0.164 HD
ENDBRANCH  30  31
ENDBRANCH  28  30
ENDBRANCH  27  28
ENDBRANCH  20  27
ENDBRANCH   8  15
TORSDOF 11
ENDMDL
MODEL 4
REMARK VINA RESULT: -7.637372119      2.682      7.173
REMARK  11 active torsions:
REMARK  status: ('A' for Active; 'I' for Inactive)
REMARK    1  A    between atoms: C2_2  and  C3_3 
REMARK    2  A    between atoms: C3_3  and  C4_4 
REMARK    3  A    between atoms: C4_4  and  O1_5 
REMARK    4  A    between atoms: O1_5  and  N1_6 
REMARK       I    between atoms: C5_8  and  N2_9 
REMARK       I    between atoms: C5_8  and  N4_13 
REMARK    5  A    between atoms: N4_13  and  C7_15 
REMARK    6  A    between atoms: C9_17  and  O2_18 
REMARK    7  A    between atoms: O2_18  and  C10_19 
REMARK    8  A    between atoms: C13_26  and  O3_27 
REMARK    9  A    between atoms: O3_27  and  C14_28 
REMARK   10  A    between atoms: C14_28  and  C15_30 
REMARK   11  A    between atoms: C15_30  and  N7_31 
REMARK       I    between atoms: N7_31  and  C16_33 
REMARK       I    between atoms: C16_33  and  N8_35 
ROOT
HETATM    1  N1  UNL     1      -6.955 -23.412 -92.922  1.00  0.00    -0.096 N 
ATOM      2  H1  UNL     1      -6.850 -23.343 -93.935  1.00  0.00     0.213 HD
HETATM    3  C5  UNL     1      -8.127 -23.672 -92.456  1.00  0.00     0.707 C 
HETATM    4  N2  UNL     1      -9.194 -23.844 -93.367  1.00  0.00    -0.124 N 
ATOM      5  H2  UNL     1     -10.158 -23.767 -93.042  1.00  0.00     0.197 HD
HETATM    6  C6  UNL     1      -8.933 -24.123 -94.723  1.00  0.00     0.196 C 
HETATM    7  N3  UNL     1      -8.734 -24.353 -95.823  1.00  0.00    -0.171 NA
HETATM    8  N4  UNL     1      -8.375 -23.780 -91.063  1.00  0.00    -0.216 N 
ATOM      9  H4  UNL     1      -8.083 -23.001 -90.472  1.00  0.00     0.178 HD
ENDROOT
BRANCH   1  10
HETATM   10  O1  UNL     1      -5.842 -23.222 -92.153  1.00  0.00    -0.266 OA
BRANCH  10  11
HETATM   11  C4  UNL     1      -5.167 -21.979 -92.202  1.00  0.00     0.202 C 
BRANCH  11  12
HETATM   12  C3  UNL     1      -5.544 -21.105 -91.027  1.00  0.00     0.028 C 
BRANCH  12  13
HETATM   13  C2  UNL     1      -4.302 -20.370 -90.577  1.00  0.00    -0.002 C 
HETATM   14  C1  UNL     1      -4.259 -19.041 -91.293  1.00  0.00     0.005 C 
ENDBRANCH  12  13
ENDBRANCH  11  12
ENDBRANCH  10  11
ENDBRANCH   1  10
BRANCH   8  15
HETATM   15  C7  UNL     1      -9.008 -24.903 -90.415  1.00  0.00     0.135 C 
HETATM   16  C8  UNL     1      -8.809 -24.728 -88.928  1.00  0.00     0.065 C 
HETATM   17  C9  UNL     1      -9.402 -25.883 -88.166  1.00  0.00     0.156 C 
HETATM   18  C11 UNL     1      -8.961 -27.198 -88.755  1.00  0.00     0.004 C 
HETATM   19  C12 UNL     1      -8.544 -27.304 -89.979  1.00  0.00     0.006 C 
HETATM   20  C13 UNL     1      -8.449 -26.167 -90.946  1.00  0.00     0.177 C 
BRANCH  17  21
HETATM   21  O2  UNL     1      -9.149 -25.812 -86.801  1.00  0.00    -0.315 OA
BRANCH  21  22
HETATM   22  C10 UNL     1      -7.989 -26.360 -86.231  1.00  0.00     0.225 C 
HETATM   23  N5  UNL     1      -6.936 -25.621 -86.348  1.00  0.00    -0.368 N 
ATOM     24  H52 UNL     1      -6.943 -24.714 -86.815  1.00  0.00     0.159 HD
ATOM     25  H51 UNL     1      -6.093 -26.018 -85.934  1.00  0.00     0.159 HD
HETATM   26  N6  UNL     1      -7.980 -27.622 -85.582  1.00  0.00    -0.057 NA
ENDBRANCH  21  22
ENDBRANCH  17  21
BRANCH  20  27
HETATM   27  O3  UNL     1      -9.064 -26.649 -92.131  1.00  0.00    -0.309 OA
BRANCH  27  28
HETATM   28  C14 UNL     1      -8.413 -27.442 -93.040  1.00  0.00     0.277 C 
HETATM   29  O4  UNL     1      -9.068 -28.365 -93.599  1.00  0.00    -0.263 OA
BRANCH  28  30
HETATM   30  C15 UNL     1      -6.991 -27.292 -93.414  1.00  0.00     0.235 C 
BRANCH  30  31
HETATM   31  N7  UNL     1      -6.843 -26.880 -94.781  1.00  0.00    -0.333 N 
HETATM   32  C16 UNL     1      -5.815 -25.965 -95.122  1.00  0.00     0.329 C 
HETATM   33  O5  UNL     1      -5.037 -25.510 -94.266  1.00  0.00    -0.246 OA
HETATM   34  N8  UNL     1      -5.654 -25.544 -96.488  1.00  0.00    -0.245 N 
HETATM   35  C17 UNL     1      -4.651 -24.645 -96.852  1.00  0.00     0.185 C 
ATOM     36  H8  UNL     1      -6.284 -25.909 -97.203  1.00  0.00     0.183 HD
HETATM   37  N9  UNL     1      -3.822 -23.874 -97.154  1.00  0.00    -0.172 NA
ATOM     38  H7  UNL     1      -7.470 -27.242 -95.499  1.00  0.00     0.164 HD
ENDBRANCH  30  31
ENDBRANCH  28  30
ENDBRANCH  27  28
ENDBRANCH  20  27
ENDBRANCH   8  15
TORSDOF 11
ENDMDL
MODEL 5
REMARK VINA RESULT: -7.471701459      1.433      1.767
REMARK  11 active torsions:
REMARK  status: ('A' for Active; 'I' for Inactive)
REMARK    1  A    between atoms: C2_2  and  C3_3 
REMARK    2  A    between atoms: C3_3  and  C4_4 
REMARK    3  A    between atoms: C4_4  and  O1_5 
REMARK    4  A    between atoms: O1_5  and  N1_6 
REMARK       I    between atoms: C5_8  and  N2_9 
REMARK       I    between atoms: C5_8  and  N4_13 
REMARK    5  A    between atoms: N4_13  and  C7_15 
REMARK    6  A    between atoms: C9_17  and  O2_18 
REMARK    7  A    between atoms: O2_18  and  C10_19 
REMARK    8  A    between atoms: C13_26  and  O3_27 
REMARK    9  A    between atoms: O3_27  and  C14_28 
REMARK   10  A    between atoms: C14_28  and  C15_30 
REMARK   11  A    between atoms: C15_30  and  N7_31 
REMARK       I    between atoms: N7_31  and  C16_33 
REMARK       I    between atoms: C16_33  and  N8_35 
ROOT
HETATM    1  N1  UNL     1      -4.337 -24.127 -89.660  1.00  0.00    -0.096 N 
ATOM      2  H1  UNL     1      -4.350 -24.373 -88.670  1.00  0.00     0.213 HD
HETATM    3  C5  UNL     1      -4.723 -25.019 -90.506  1.00  0.00     0.707 C 
HETATM    4  N2  UNL     1      -5.137 -26.279 -90.018  1.00  0.00    -0.124 N 
ATOM      5  H2  UNL     1      -5.173 -27.081 -90.647  1.00  0.00     0.197 HD
HETATM    6  C6  UNL     1      -5.501 -26.433 -88.666  1.00  0.00     0.196 C 
HETATM    7  N3  UNL     1      -5.803 -26.568 -87.573  1.00  0.00    -0.171 NA
HETATM    8  N4  UNL     1      -4.733 -24.774 -91.904  1.00  0.00    -0.216 N 
ATOM      9  H4  UNL     1      -3.867 -24.443 -92.329  1.00  0.00     0.178 HD
ENDROOT
BRANCH   1  10
HETATM   10  O1  UNL     1      -3.913 -22.873 -89.998  1.00  0.00    -0.266 OA
BRANCH  10  11
HETATM   11  C4  UNL     1      -4.732 -21.758 -89.701  1.00  0.00     0.202 C 
BRANCH  11  12
HETATM   12  C3  UNL     1      -5.287 -21.136 -90.963  1.00  0.00     0.028 C 
BRANCH  12  13
HETATM   13  C2  UNL     1      -4.132 -20.535 -91.732  1.00  0.00    -0.002 C 
HETATM   14  C1  UNL     1      -3.835 -19.176 -91.145  1.00  0.00     0.005 C 
ENDBRANCH  12  13
ENDBRANCH  11  12
ENDBRANCH  10  11
ENDBRANCH   1  10
BRANCH   8  15
HETATM   15  C7  UNL     1      -5.871 -24.958 -92.772  1.00  0.00     0.135 C 
HETATM   16  C8  UNL     1      -5.464 -24.476 -94.145  1.00  0.00     0.065 C 
HETATM   17  C9  UNL     1      -6.610 -24.589 -95.116  1.00  0.00     0.156 C 
HETATM   18  C11 UNL     1      -7.865 -23.990 -94.536  1.00  0.00     0.004 C 
HETATM   19  C12 UNL     1      -8.039 -23.847 -93.259  1.00  0.00     0.006 C 
HETATM   20  C13 UNL     1      -7.045 -24.246 -92.216  1.00  0.00     0.177 C 
BRANCH  17  21
HETATM   21  O2  UNL     1      -6.308 -24.060 -96.365  1.00  0.00    -0.315 OA
BRANCH  21  22
HETATM   22  C10 UNL     1      -6.949 -24.501 -97.533  1.00  0.00     0.225 C 
HETATM   23  N5  UNL     1      -6.824 -25.767 -97.767  1.00  0.00    -0.368 N 
ATOM     24  H52 UNL     1      -6.303 -26.395 -97.155  1.00  0.00     0.159 HD
ATOM     25  H51 UNL     1      -7.290 -26.088 -98.615  1.00  0.00     0.159 HD
HETATM   26  N6  UNL     1      -7.673 -23.627 -98.385  1.00  0.00    -0.057 NA
ENDBRANCH  21  22
ENDBRANCH  17  21
BRANCH  20  27
HETATM   27  O3  UNL     1      -7.798 -24.979 -91.261  1.00  0.00    -0.309 OA
BRANCH  27  28
HETATM   28  C14 UNL     1      -8.199 -24.449 -90.062  1.00  0.00     0.277 C 
HETATM   29  O4  UNL     1      -7.503 -23.523 -89.559  1.00  0.00    -0.263 OA
BRANCH  28  30
HETATM   30  C15 UNL     1      -9.396 -24.886 -89.312  1.00  0.00     0.235 C 
BRANCH  30  31
HETATM   31  N7  UNL     1      -9.046 -25.711 -88.191  1.00  0.00    -0.333 N 
HETATM   32  C16 UNL     1      -9.198 -27.117 -88.290  1.00  0.00     0.329 C 
HETATM   33  O5  UNL     1      -9.625 -27.655 -89.327  1.00  0.00    -0.246 OA
HETATM   34  N8  UNL     1      -8.851 -27.956 -87.175  1.00  0.00    -0.245 N 
HETATM   35  C17 UNL     1      -8.989 -29.343 -87.246  1.00  0.00     0.185 C 
ATOM     36  H8  UNL     1      -8.498 -27.531 -86.318  1.00  0.00     0.183 HD
HETATM   37  N9  UNL     1      -9.125 -30.505 -87.298  1.00  0.00    -0.172 NA
ATOM     38  H7  UNL     1      -8.693 -25.290 -87.332  1.00  0.00     0.164 HD
ENDBRANCH  30  31
ENDBRANCH  28  30
ENDBRANCH  27  28
ENDBRANCH  20  27
ENDBRANCH   8  15
TORSDOF 11
ENDMDL
