MODEL 1
REMARK VINA RESULT: -7.435728579      0.000      0.000
REMARK  17 active torsions:
REMARK  status: ('A' for Active; 'I' for Inactive)
REMARK    1  A    between atoms: C2_2  and  C3_3 
REMARK    2  A    between atoms: C3_3  and  C4_4 
REMARK    3  A    between atoms: C8_8  and  C9_9 
REMARK    4  A    between atoms: C9_9  and  C10_10 
REMARK    5  A    between atoms: C9_9  and  O2_13 
REMARK    6  A    between atoms: C10_10  and  O1_11 
REMARK    7  A    between atoms: O2_13  and  C11_14 
REMARK    8  A    between atoms: C11_14  and  O3_15 
REMARK    9  A    between atoms: C11_14  and  C12_17 
REMARK   10  A    between atoms: C12_17  and  N1_18 
REMARK   11  A    between atoms: N1_18  and  C13_21 
REMARK   12  A    between atoms: C14_22  and  O4_23 
REMARK   13  A    between atoms: C15_25  and  N2_26 
REMARK       I    between atoms: N2_26  and  C16_28 
REMARK   14  A    between atoms: C18_31  and  O6_32 
REMARK   15  A    between atoms: C19_34  and  N3_35 
REMARK   16  A    between atoms: N3_35  and  N4_37 
REMARK   17  A    between atoms: N4_37  and  N5_38 
ROOT
HETATM    1  N1  UNL     1      -8.655 -26.051 -91.835  1.00  0.00    -0.062 N 
ATOM      2  H11 UNL     1      -8.587 -26.987 -91.434  1.00  0.00     0.277 HD
ATOM      3  H12 UNL     1      -9.469 -26.190 -92.434  1.00  0.00     0.277 HD
ENDROOT
BRANCH   1   4
HETATM    4  C12 UNL     1      -7.481 -25.728 -92.612  1.00  0.00     0.293 C 
BRANCH   4   5
HETATM    5  C11 UNL     1      -7.993 -25.113 -93.916  1.00  0.00     0.283 C 
BRANCH   5   6
HETATM    6  O2  UNL     1      -7.589 -23.818 -94.106  1.00  0.00    -0.350 OA
BRANCH   6   7
HETATM    7  C9  UNL     1      -6.495 -23.673 -94.916  1.00  0.00     0.177 C 
BRANCH   7   8
HETATM    8  C8  UNL     1      -5.574 -22.515 -94.474  1.00  0.00     0.153 C 
HETATM    9  C7  UNL     1      -4.258 -22.721 -95.131  1.00  0.00     0.035 C 
HETATM   10  C6  UNL     1      -3.076 -22.237 -94.387  1.00  0.00     0.005 C 
HETATM   11  C5  UNL     1      -3.252 -22.130 -92.902  1.00  0.00     0.032 C 
HETATM   12  C4  UNL     1      -4.628 -21.833 -92.438  1.00  0.00     0.122 C 
HETATM   13  O7  UNL     1      -5.614 -22.498 -93.124  1.00  0.00    -0.378 OA
BRANCH  12  14
HETATM   14  C3  UNL     1      -4.905 -20.396 -92.130  1.00  0.00     0.032 C 
BRANCH  14  15
HETATM   15  C2  UNL     1      -3.887 -19.624 -91.407  1.00  0.00    -0.002 C 
HETATM   16  C1  UNL     1      -3.458 -18.445 -92.299  1.00  0.00     0.005 C 
ENDBRANCH  14  15
ENDBRANCH  12  14
ENDBRANCH   7   8
BRANCH   7  17
HETATM   17  C10 UNL     1      -6.991 -23.376 -96.333  1.00  0.00     0.198 C 
BRANCH  17  18
HETATM   18  O1  UNL     1      -7.923 -22.331 -96.193  1.00  0.00    -0.398 OA
ATOM     19  H1  UNL     1      -8.582 -22.490 -96.858  1.00  0.00     0.209 HD
ENDBRANCH  17  18
ENDBRANCH   7  17
ENDBRANCH   6   7
ENDBRANCH   5   6
BRANCH   5  20
HETATM   20  O3  UNL     1      -9.379 -25.278 -93.907  1.00  0.00    -0.370 OA
ATOM     21  H3  UNL     1      -9.686 -25.919 -93.276  1.00  0.00     0.212 HD
ENDBRANCH   5  20
ENDBRANCH   4   5
ENDBRANCH   1   4
BRANCH   1  22
HETATM   22  C13 UNL     1      -8.920 -25.059 -90.813  1.00  0.00     0.244 C 
HETATM   23  C14 UNL     1      -7.684 -24.195 -90.689  1.00  0.00     0.176 C 
HETATM   24  C15 UNL     1      -7.306 -24.184 -89.225  1.00  0.00     0.146 C 
HETATM   25  C18 UNL     1      -8.533 -24.664 -88.482  1.00  0.00     0.170 C 
HETATM   26  C19 UNL     1      -9.124 -25.658 -89.462  1.00  0.00     0.178 C 
BRANCH  23  27
HETATM   27  O4  UNL     1      -7.916 -22.916 -91.174  1.00  0.00    -0.391 OA
ATOM     28  H4  UNL     1      -8.135 -22.317 -90.471  1.00  0.00     0.210 HD
ENDBRANCH  23  27
BRANCH  24  29
HETATM   29  N2  UNL     1      -6.911 -22.862 -88.855  1.00  0.00    -0.352 N 
HETATM   30  C16 UNL     1      -5.542 -22.502 -88.871  1.00  0.00     0.214 C 
HETATM   31  C17 UNL     1      -5.112 -21.135 -88.490  1.00  0.00     0.117 C 
HETATM   32  O5  UNL     1      -4.657 -23.329 -89.208  1.00  0.00    -0.274 OA
ATOM     33  H2  UNL     1      -7.615 -22.179 -88.578  1.00  0.00     0.163 HD
ENDBRANCH  24  29
BRANCH  25  34
HETATM   34  O6  UNL     1      -8.091 -25.345 -87.342  1.00  0.00    -0.391 OA
ATOM     35  H6  UNL     1      -8.862 -25.612 -86.855  1.00  0.00     0.210 HD
ENDBRANCH  25  34
BRANCH  26  36
HETATM   36  N3  UNL     1     -10.535 -25.820 -89.135  1.00  0.00    -0.243 N 
ATOM     37  H3  UNL     1     -10.872 -26.608 -88.582  1.00  0.00     0.197 HD
BRANCH  36  38
HETATM   38  N4  UNL     1     -11.298 -24.954 -89.562  1.00  0.00    -0.248 NA
BRANCH  38  39
HETATM   39  N5  UNL     1     -12.235 -24.179 -89.849  1.00  0.00    -0.261 N 
ATOM     40  H52 UNL     1     -12.849 -24.695 -89.218  1.00  0.00     0.193 HD
ATOM     41  H51 UNL     1     -12.867 -23.459 -90.200  1.00  0.00     0.193 HD
ENDBRANCH  38  39
ENDBRANCH  36  38
ENDBRANCH  26  36
ENDBRANCH   1  22
TORSDOF 17
ENDMDL
MODEL 2
REMARK VINA RESULT: -7.328637824      2.013      2.340
REMARK  17 active torsions:
REMARK  status: ('A' for Active; 'I' for Inactive)
REMARK    1  A    between atoms: C2_2  and  C3_3 
REMARK    2  A    between atoms: C3_3  and  C4_4 
REMARK    3  A    between atoms: C8_8  and  C9_9 
REMARK    4  A    between atoms: C9_9  and  C10_10 
REMARK    5  A    between atoms: C9_9  and  O2_13 
REMARK    6  A    between atoms: C10_10  and  O1_11 
REMARK    7  A    between atoms: O2_13  and  C11_14 
REMARK    8  A    between atoms: C11_14  and  O3_15 
REMARK    9  A    between atoms: C11_14  and  C12_17 
REMARK   10  A    between atoms: C12_17  and  N1_18 
REMARK   11  A    between atoms: N1_18  and  C13_21 
REMARK   12  A    between atoms: C14_22  and  O4_23 
REMARK   13  A    between atoms: C15_25  and  N2_26 
REMARK       I    between atoms: N2_26  and  C16_28 
REMARK   14  A    between atoms: C18_31  and  O6_32 
REMARK   15  A    between atoms: C19_34  and  N3_35 
REMARK   16  A    between atoms: N3_35  and  N4_37 
REMARK   17  A    between atoms: N4_37  and  N5_38 
ROOT
HETATM    1  N1  UNL     1      -8.705 -23.971 -91.203  1.00  0.00    -0.062 N 
ATOM      2  H11 UNL     1      -9.643 -23.612 -91.383  1.00  0.00     0.277 HD
ATOM      3  H12 UNL     1      -8.181 -23.099 -91.276  1.00  0.00     0.277 HD
ENDROOT
BRANCH   1   4
HETATM    4  C12 UNL     1      -8.300 -24.913 -92.221  1.00  0.00     0.293 C 
BRANCH   4   5
HETATM    5  C11 UNL     1      -8.619 -24.250 -93.561  1.00  0.00     0.283 C 
BRANCH   5   6
HETATM    6  O2  UNL     1      -7.581 -23.514 -94.069  1.00  0.00    -0.350 OA
BRANCH   6   7
HETATM    7  C9  UNL     1      -6.337 -24.009 -93.785  1.00  0.00     0.177 C 
BRANCH   7   8
HETATM    8  C8  UNL     1      -5.388 -22.941 -93.201  1.00  0.00     0.153 C 
HETATM    9  C7  UNL     1      -4.072 -23.591 -92.978  1.00  0.00     0.035 C 
HETATM   10  C6  UNL     1      -3.269 -23.068 -91.852  1.00  0.00     0.005 C 
HETATM   11  C5  UNL     1      -4.050 -22.387 -90.768  1.00  0.00     0.032 C 
HETATM   12  C4  UNL     1      -5.298 -21.715 -91.203  1.00  0.00     0.122 C 
HETATM   13  O7  UNL     1      -6.025 -22.415 -92.133  1.00  0.00    -0.378 OA
BRANCH  12  14
HETATM   14  C3  UNL     1      -5.185 -20.242 -91.438  1.00  0.00     0.032 C 
BRANCH  14  15
HETATM   15  C2  UNL     1      -4.027 -19.530 -90.883  1.00  0.00    -0.002 C 
HETATM   16  C1  UNL     1      -3.280 -18.853 -92.046  1.00  0.00     0.005 C 
ENDBRANCH  14  15
ENDBRANCH  12  14
ENDBRANCH   7   8
BRANCH   7  17
HETATM   17  C10 UNL     1      -5.726 -24.533 -95.086  1.00  0.00     0.198 C 
BRANCH  17  18
HETATM   18  O1  UNL     1      -6.232 -23.699 -96.100  1.00  0.00    -0.398 OA
ATOM     19  H1  UNL     1      -5.774 -23.956 -96.892  1.00  0.00     0.209 HD
ENDBRANCH  17  18
ENDBRANCH   7  17
ENDBRANCH   6   7
ENDBRANCH   5   6
BRANCH   5  20
HETATM   20  O3  UNL     1      -9.790 -23.515 -93.364  1.00  0.00    -0.370 OA
ATOM     21  H3  UNL     1     -10.420 -23.941 -92.794  1.00  0.00     0.212 HD
ENDBRANCH   5  20
ENDBRANCH   4   5
ENDBRANCH   1   4
BRANCH   1  22
HETATM   22  C13 UNL     1      -8.605 -24.533 -89.872  1.00  0.00     0.244 C 
HETATM   23  C14 UNL     1      -7.136 -24.569 -89.505  1.00  0.00     0.176 C 
HETATM   24  C15 UNL     1      -6.831 -25.984 -89.068  1.00  0.00     0.146 C 
HETATM   25  C18 UNL     1      -8.173 -26.621 -88.779  1.00  0.00     0.170 C 
HETATM   26  C19 UNL     1      -9.066 -25.950 -89.803  1.00  0.00     0.178 C 
BRANCH  23  27
HETATM   27  O4  UNL     1      -6.846 -23.646 -88.511  1.00  0.00    -0.391 OA
ATOM     28  H4  UNL     1      -7.210 -23.914 -87.676  1.00  0.00     0.210 HD
ENDBRANCH  23  27
BRANCH  24  29
HETATM   29  N2  UNL     1      -5.973 -25.946 -87.927  1.00  0.00    -0.352 N 
HETATM   30  C16 UNL     1      -5.055 -26.997 -87.697  1.00  0.00     0.214 C 
HETATM   31  C17 UNL     1      -4.156 -26.977 -86.518  1.00  0.00     0.117 C 
HETATM   32  O5  UNL     1      -4.976 -27.975 -88.484  1.00  0.00    -0.274 OA
ATOM     33  H2  UNL     1      -6.023 -25.162 -87.277  1.00  0.00     0.163 HD
ENDBRANCH  24  29
BRANCH  25  34
HETATM   34  O6  UNL     1      -8.062 -27.983 -89.082  1.00  0.00    -0.391 OA
ATOM     35  H6  UNL     1      -7.715 -28.417 -88.311  1.00  0.00     0.210 HD
ENDBRANCH  25  34
BRANCH  26  36
HETATM   36  N3  UNL     1     -10.442 -26.063 -89.335  1.00  0.00    -0.243 N 
ATOM     37  H3  UNL     1     -10.761 -26.865 -88.793  1.00  0.00     0.197 HD
BRANCH  36  38
HETATM   38  N4  UNL     1     -11.196 -25.137 -89.629  1.00  0.00    -0.248 NA
BRANCH  38  39
HETATM   39  N5  UNL     1     -12.087 -24.266 -89.732  1.00  0.00    -0.261 N 
ATOM     40  H52 UNL     1     -12.588 -24.692 -88.952  1.00  0.00     0.193 HD
ATOM     41  H51 UNL     1     -12.703 -23.486 -89.965  1.00  0.00     0.193 HD
ENDBRANCH  38  39
ENDBRANCH  36  38
ENDBRANCH  26  36
ENDBRANCH   1  22
TORSDOF 17
ENDMDL
MODEL 3
REMARK VINA RESULT: -7.196577252      2.732      6.829
REMARK  17 active torsions:
REMARK  status: ('A' for Active; 'I' for Inactive)
REMARK    1  A    between atoms: C2_2  and  C3_3 
REMARK    2  A    between atoms: C3_3  and  C4_4 
REMARK    3  A    between atoms: C8_8  and  C9_9 
REMARK    4  A    between atoms: C9_9  and  C10_10 
REMARK    5  A    between atoms: C9_9  and  O2_13 
REMARK    6  A    between atoms: C10_10  and  O1_11 
REMARK    7  A    between atoms: O2_13  and  C11_14 
REMARK    8  A    between atoms: C11_14  and  O3_15 
REMARK    9  A    between atoms: C11_14  and  C12_17 
REMARK   10  A    between atoms: C12_17  and  N1_18 
REMARK   11  A    between atoms: N1_18  and  C13_21 
REMARK   12  A    between atoms: C14_22  and  O4_23 
REMARK   13  A    between atoms: C15_25  and  N2_26 
REMARK       I    between atoms: N2_26  and  C16_28 
REMARK   14  A    between atoms: C18_31  and  O6_32 
REMARK   15  A    between atoms: C19_34  and  N3_35 
REMARK   16  A    between atoms: N3_35  and  N4_37 
REMARK   17  A    between atoms: N4_37  and  N5_38 
ROOT
HETATM    1  N1  UNL     1      -6.804 -24.457 -88.211  1.00  0.00    -0.062 N 
ATOM      2  H11 UNL     1      -6.537 -25.344 -88.638  1.00  0.00     0.277 HD
ATOM      3  H12 UNL     1      -6.236 -24.507 -87.365  1.00  0.00     0.277 HD
ENDROOT
BRANCH   1   4
HETATM    4  C12 UNL     1      -8.214 -24.432 -87.895  1.00  0.00     0.293 C 
BRANCH   4   5
HETATM    5  C11 UNL     1      -8.506 -25.741 -87.160  1.00  0.00     0.283 C 
BRANCH   5   6
HETATM    6  O2  UNL     1      -9.429 -26.530 -87.794  1.00  0.00    -0.350 OA
BRANCH   6   7
HETATM    7  C9  UNL     1      -8.908 -27.376 -88.736  1.00  0.00     0.177 C 
BRANCH   7   8
HETATM    8  C8  UNL     1      -9.321 -26.995 -90.175  1.00  0.00     0.153 C 
HETATM    9  C7  UNL     1     -10.322 -27.994 -90.627  1.00  0.00     0.035 C 
HETATM   10  C6  UNL     1     -10.340 -28.288 -92.075  1.00  0.00     0.005 C 
HETATM   11  C5  UNL     1      -9.057 -28.014 -92.802  1.00  0.00     0.032 C 
HETATM   12  C4  UNL     1      -8.228 -26.917 -92.249  1.00  0.00     0.122 C 
HETATM   13  O7  UNL     1      -8.173 -26.883 -90.878  1.00  0.00    -0.378 OA
BRANCH  12  14
HETATM   14  C3  UNL     1      -8.380 -25.593 -92.928  1.00  0.00     0.032 C 
BRANCH  14  15
HETATM   15  C2  UNL     1      -7.946 -25.467 -94.325  1.00  0.00    -0.002 C 
HETATM   16  C1  UNL     1      -8.746 -24.322 -94.972  1.00  0.00     0.005 C 
ENDBRANCH  14  15
ENDBRANCH  12  14
ENDBRANCH   7   8
BRANCH   7  17
HETATM   17  C10 UNL     1      -9.427 -28.786 -88.446  1.00  0.00     0.198 C 
BRANCH  17  18
HETATM   18  O1  UNL     1      -9.809 -28.775 -87.093  1.00  0.00    -0.398 OA
ATOM     19  H1  UNL     1      -9.006 -28.641 -86.604  1.00  0.00     0.209 HD
ENDBRANCH  17  18
ENDBRANCH   7  17
ENDBRANCH   6   7
ENDBRANCH   5   6
BRANCH   5  20
HETATM   20  O3  UNL     1      -8.863 -25.387 -85.858  1.00  0.00    -0.370 OA
ATOM     21  H3  UNL     1      -8.225 -24.836 -85.421  1.00  0.00     0.212 HD
ENDBRANCH   5  20
ENDBRANCH   4   5
ENDBRANCH   1   4
BRANCH   1  22
HETATM   22  C13 UNL     1      -6.413 -23.335 -89.040  1.00  0.00     0.244 C 
HETATM   23  C14 UNL     1      -6.778 -23.679 -90.468  1.00  0.00     0.176 C 
HETATM   24  C15 UNL     1      -5.531 -23.473 -91.298  1.00  0.00     0.146 C 
HETATM   25  C18 UNL     1      -4.611 -22.623 -90.448  1.00  0.00     0.170 C 
HETATM   26  C19 UNL     1      -4.939 -23.107 -89.050  1.00  0.00     0.178 C 
BRANCH  23  27
HETATM   27  O4  UNL     1      -7.834 -22.899 -90.917  1.00  0.00    -0.391 OA
ATOM     28  H4  UNL     1      -8.348 -23.360 -91.570  1.00  0.00     0.210 HD
ENDBRANCH  23  27
BRANCH  24  29
HETATM   29  N2  UNL     1      -5.889 -22.846 -92.531  1.00  0.00    -0.352 N 
HETATM   30  C16 UNL     1      -5.128 -23.096 -93.698  1.00  0.00     0.214 C 
HETATM   31  C17 UNL     1      -5.482 -22.456 -94.987  1.00  0.00     0.117 C 
HETATM   32  O5  UNL     1      -4.134 -23.865 -93.673  1.00  0.00    -0.274 OA
ATOM     33  H2  UNL     1      -6.692 -22.219 -92.570  1.00  0.00     0.163 HD
ENDBRANCH  24  29
BRANCH  25  34
HETATM   34  O6  UNL     1      -3.297 -22.984 -90.767  1.00  0.00    -0.391 OA
ATOM     35  H6  UNL     1      -2.764 -22.200 -90.701  1.00  0.00     0.210 HD
ENDBRANCH  25  34
BRANCH  26  36
HETATM   36  N3  UNL     1      -4.533 -22.067 -88.113  1.00  0.00    -0.243 N 
ATOM     37  H3  UNL     1      -4.452 -22.247 -87.112  1.00  0.00     0.197 HD
BRANCH  36  38
HETATM   38  N4  UNL     1      -4.293 -20.961 -88.595  1.00  0.00    -0.248 NA
BRANCH  38  39
HETATM   39  N5  UNL     1      -3.937 -19.796 -88.873  1.00  0.00    -0.261 N 
ATOM     40  H52 UNL     1      -3.515 -19.709 -87.949  1.00  0.00     0.193 HD
ATOM     41  H51 UNL     1      -3.735 -18.880 -89.274  1.00  0.00     0.193 HD
ENDBRANCH  38  39
ENDBRANCH  36  38
ENDBRANCH  26  36
ENDBRANCH   1  22
TORSDOF 17
ENDMDL
MODEL 4
REMARK VINA RESULT: -7.150666026      2.019      3.477
REMARK  17 active torsions:
REMARK  status: ('A' for Active; 'I' for Inactive)
REMARK    1  A    between atoms: C2_2  and  C3_3 
REMARK    2  A    between atoms: C3_3  and  C4_4 
REMARK    3  A    between atoms: C8_8  and  C9_9 
REMARK    4  A    between atoms: C9_9  and  C10_10 
REMARK    5  A    between atoms: C9_9  and  O2_13 
REMARK    6  A    between atoms: C10_10  and  O1_11 
REMARK    7  A    between atoms: O2_13  and  C11_14 
REMARK    8  A    between atoms: C11_14  and  O3_15 
REMARK    9  A    between atoms: C11_14  and  C12_17 
REMARK   10  A    between atoms: C12_17  and  N1_18 
REMARK   11  A    between atoms: N1_18  and  C13_21 
REMARK   12  A    between atoms: C14_22  and  O4_23 
REMARK   13  A    between atoms: C15_25  and  N2_26 
REMARK       I    between atoms: N2_26  and  C16_28 
REMARK   14  A    between atoms: C18_31  and  O6_32 
REMARK   15  A    between atoms: C19_34  and  N3_35 
REMARK   16  A    between atoms: N3_35  and  N4_37 
REMARK   17  A    between atoms: N4_37  and  N5_38 
ROOT
HETATM    1  N1  UNL     1      -7.806 -23.480 -91.790  1.00  0.00    -0.062 N 
ATOM      2  H11 UNL     1      -8.741 -23.274 -91.436  1.00  0.00     0.277 HD
ATOM      3  H12 UNL     1      -7.612 -22.595 -92.258  1.00  0.00     0.277 HD
ENDROOT
BRANCH   1   4
HETATM    4  C12 UNL     1      -7.833 -24.576 -92.731  1.00  0.00     0.293 C 
BRANCH   4   5
HETATM    5  C11 UNL     1      -8.673 -24.096 -93.915  1.00  0.00     0.283 C 
BRANCH   5   6
HETATM    6  O2  UNL     1      -7.981 -23.306 -94.794  1.00  0.00    -0.350 OA
BRANCH   6   7
HETATM    7  C9  UNL     1      -6.803 -23.844 -95.239  1.00  0.00     0.177 C 
BRANCH   7   8
HETATM    8  C8  UNL     1      -5.628 -22.844 -95.173  1.00  0.00     0.153 C 
HETATM    9  C7  UNL     1      -4.442 -23.514 -95.764  1.00  0.00     0.035 C 
HETATM   10  C6  UNL     1      -3.128 -23.115 -95.217  1.00  0.00     0.005 C 
HETATM   11  C5  UNL     1      -3.155 -22.556 -93.826  1.00  0.00     0.032 C 
HETATM   12  C4  UNL     1      -4.397 -21.841 -93.445  1.00  0.00     0.122 C 
HETATM   13  O7  UNL     1      -5.552 -22.437 -93.888  1.00  0.00    -0.378 OA
BRANCH  12  14
HETATM   14  C3  UNL     1      -4.343 -20.352 -93.569  1.00  0.00     0.032 C 
BRANCH  14  15
HETATM   15  C2  UNL     1      -3.320 -19.621 -92.811  1.00  0.00    -0.002 C 
HETATM   16  C1  UNL     1      -4.035 -18.731 -91.779  1.00  0.00     0.005 C 
ENDBRANCH  14  15
ENDBRANCH  12  14
ENDBRANCH   7   8
BRANCH   7  17
HETATM   17  C10 UNL     1      -6.993 -24.262 -96.698  1.00  0.00     0.198 C 
BRANCH  17  18
HETATM   18  O1  UNL     1      -7.727 -23.221 -97.295  1.00  0.00    -0.398 OA
ATOM     19  H1  UNL     1      -7.354 -23.112 -98.161  1.00  0.00     0.209 HD
ENDBRANCH  17  18
ENDBRANCH   7  17
ENDBRANCH   6   7
ENDBRANCH   5   6
BRANCH   5  20
HETATM   20  O3  UNL     1      -9.801 -23.480 -93.369  1.00  0.00    -0.370 OA
ATOM     21  H3  UNL     1     -10.623 -23.790 -93.732  1.00  0.00     0.212 HD
ENDBRANCH   5  20
ENDBRANCH   4   5
ENDBRANCH   1   4
BRANCH   1  22
HETATM   22  C13 UNL     1      -6.875 -23.716 -90.706  1.00  0.00     0.244 C 
HETATM   23  C14 UNL     1      -7.508 -24.730 -89.777  1.00  0.00     0.176 C 
HETATM   24  C15 UNL     1      -7.462 -24.135 -88.388  1.00  0.00     0.146 C 
HETATM   25  C18 UNL     1      -6.446 -23.015 -88.456  1.00  0.00     0.170 C 
HETATM   26  C19 UNL     1      -6.637 -22.504 -89.870  1.00  0.00     0.178 C 
BRANCH  23  27
HETATM   27  O4  UNL     1      -6.849 -25.949 -89.841  1.00  0.00    -0.391 OA
ATOM     28  H4  UNL     1      -7.448 -26.652 -90.064  1.00  0.00     0.210 HD
ENDBRANCH  23  27
BRANCH  24  29
HETATM   29  N2  UNL     1      -7.107 -25.155 -87.454  1.00  0.00    -0.352 N 
HETATM   30  C16 UNL     1      -8.117 -25.874 -86.772  1.00  0.00     0.214 C 
HETATM   31  C17 UNL     1      -7.769 -26.936 -85.799  1.00  0.00     0.117 C 
HETATM   32  O5  UNL     1      -9.335 -25.631 -86.972  1.00  0.00    -0.274 OA
ATOM     33  H2  UNL     1      -6.125 -25.365 -87.278  1.00  0.00     0.163 HD
ENDBRANCH  24  29
BRANCH  25  34
HETATM   34  O6  UNL     1      -6.851 -22.029 -87.549  1.00  0.00    -0.391 OA
ATOM     35  H6  UNL     1      -6.714 -21.187 -87.967  1.00  0.00     0.210 HD
ENDBRANCH  25  34
BRANCH  26  36
HETATM   36  N3  UNL     1      -5.423 -21.796 -90.254  1.00  0.00    -0.243 N 
ATOM     37  H3  UNL     1      -5.111 -21.750 -91.224  1.00  0.00     0.197 HD
BRANCH  36  38
HETATM   38  N4  UNL     1      -4.795 -21.256 -89.345  1.00  0.00    -0.248 NA
BRANCH  38  39
HETATM   39  N5  UNL     1      -4.177 -20.507 -88.557  1.00  0.00    -0.261 N 
ATOM     40  H52 UNL     1      -5.053 -20.295 -88.079  1.00  0.00     0.193 HD
ATOM     41  H51 UNL     1      -3.513 -19.950 -88.018  1.00  0.00     0.193 HD
ENDBRANCH  38  39
ENDBRANCH  36  38
ENDBRANCH  26  36
ENDBRANCH   1  22
TORSDOF 17
ENDMDL
MODEL 5
REMARK VINA RESULT: -7.089911968      1.866      4.890
REMARK  17 active torsions:
REMARK  status: ('A' for Active; 'I' for Inactive)
REMARK    1  A    between atoms: C2_2  and  C3_3 
REMARK    2  A    between atoms: C3_3  and  C4_4 
REMARK    3  A    between atoms: C8_8  and  C9_9 
REMARK    4  A    between atoms: C9_9  and  C10_10 
REMARK    5  A    between atoms: C9_9  and  O2_13 
REMARK    6  A    between atoms: C10_10  and  O1_11 
REMARK    7  A    between atoms: O2_13  and  C11_14 
REMARK    8  A    between atoms: C11_14  and  O3_15 
REMARK    9  A    between atoms: C11_14  and  C12_17 
REMARK   10  A    between atoms: C12_17  and  N1_18 
REMARK   11  A    between atoms: N1_18  and  C13_21 
REMARK   12  A    between atoms: C14_22  and  O4_23 
REMARK   13  A    between atoms: C15_25  and  N2_26 
REMARK       I    between atoms: N2_26  and  C16_28 
REMARK   14  A    between atoms: C18_31  and  O6_32 
REMARK   15  A    between atoms: C19_34  and  N3_35 
REMARK   16  A    between atoms: N3_35  and  N4_37 
REMARK   17  A    between atoms: N4_37  and  N5_38 
ROOT
HETATM    1  N1  UNL     1      -6.730 -23.033 -89.557  1.00  0.00    -0.062 N 
ATOM      2  H11 UNL     1      -7.055 -22.121 -89.878  1.00  0.00     0.277 HD
ATOM      3  H12 UNL     1      -7.271 -23.103 -88.695  1.00  0.00     0.277 HD
ENDROOT
BRANCH   1   4
HETATM    4  C12 UNL     1      -5.311 -23.015 -89.283  1.00  0.00     0.293 C 
BRANCH   4   5
HETATM    5  C11 UNL     1      -4.920 -21.541 -89.168  1.00  0.00     0.283 C 
BRANCH   5   6
HETATM    6  O2  UNL     1      -4.011 -21.141 -90.112  1.00  0.00    -0.350 OA
BRANCH   6   7
HETATM    7  C9  UNL     1      -4.562 -20.600 -91.243  1.00  0.00     0.177 C 
BRANCH   7   8
HETATM    8  C8  UNL     1      -3.769 -20.954 -92.520  1.00  0.00     0.153 C 
HETATM    9  C7  UNL     1      -4.671 -20.727 -93.678  1.00  0.00     0.035 C 
HETATM   10  C6  UNL     1      -4.455 -21.599 -94.851  1.00  0.00     0.005 C 
HETATM   11  C5  UNL     1      -3.794 -22.914 -94.562  1.00  0.00     0.032 C 
HETATM   12  C4  UNL     1      -2.856 -22.921 -93.414  1.00  0.00     0.122 C 
HETATM   13  O7  UNL     1      -3.283 -22.199 -92.328  1.00  0.00    -0.378 OA
BRANCH  12  14
HETATM   14  C3  UNL     1      -1.410 -22.773 -93.767  1.00  0.00     0.032 C 
BRANCH  14  15
HETATM   15  C2  UNL     1      -1.061 -22.258 -95.097  1.00  0.00    -0.002 C 
HETATM   16  C1  UNL     1      -0.831 -20.742 -94.976  1.00  0.00     0.005 C 
ENDBRANCH  14  15
ENDBRANCH  12  14
ENDBRANCH   7   8
BRANCH   7  17
HETATM   17  C10 UNL     1      -4.566 -19.078 -91.088  1.00  0.00     0.198 C 
BRANCH  17  18
HETATM   18  O1  UNL     1      -3.227 -18.722 -90.841  1.00  0.00    -0.398 OA
ATOM     19  H1  UNL     1      -2.812 -18.689 -91.695  1.00  0.00     0.209 HD
ENDBRANCH  17  18
ENDBRANCH   7  17
ENDBRANCH   6   7
ENDBRANCH   5   6
BRANCH   5  20
HETATM   20  O3  UNL     1      -4.492 -21.352 -87.853  1.00  0.00    -0.370 OA
ATOM     21  H3  UNL     1      -3.547 -21.339 -87.755  1.00  0.00     0.212 HD
ENDBRANCH   5  20
ENDBRANCH   4   5
ENDBRANCH   1   4
BRANCH   1  22
HETATM   22  C13 UNL     1      -7.091 -24.079 -90.490  1.00  0.00     0.244 C 
HETATM   23  C14 UNL     1      -6.335 -23.819 -91.776  1.00  0.00     0.176 C 
HETATM   24  C15 UNL     1      -7.358 -23.818 -92.889  1.00  0.00     0.146 C 
HETATM   25  C18 UNL     1      -8.588 -24.487 -92.315  1.00  0.00     0.170 C 
HETATM   26  C19 UNL     1      -8.534 -24.051 -90.865  1.00  0.00     0.178 C 
BRANCH  23  27
HETATM   27  O4  UNL     1      -5.349 -24.774 -91.980  1.00  0.00    -0.391 OA
ATOM     28  H4  UNL     1      -4.818 -24.890 -91.201  1.00  0.00     0.210 HD
ENDBRANCH  23  27
BRANCH  24  29
HETATM   29  N2  UNL     1      -6.822 -24.509 -94.018  1.00  0.00    -0.352 N 
HETATM   30  C16 UNL     1      -7.190 -24.119 -95.328  1.00  0.00     0.214 C 
HETATM   31  C17 UNL     1      -6.645 -24.825 -96.512  1.00  0.00     0.117 C 
HETATM   32  O5  UNL     1      -7.988 -23.167 -95.521  1.00  0.00    -0.274 OA
ATOM     33  H2  UNL     1      -6.174 -25.284 -93.880  1.00  0.00     0.163 HD
ENDBRANCH  24  29
BRANCH  25  34
HETATM   34  O6  UNL     1      -9.703 -23.909 -92.931  1.00  0.00    -0.391 OA
ATOM     35  H6  UNL     1      -9.776 -23.019 -92.607  1.00  0.00     0.210 HD
ENDBRANCH  25  34
BRANCH  26  36
HETATM   36  N3  UNL     1      -9.327 -24.995 -90.087  1.00  0.00    -0.243 N 
ATOM     37  H3  UNL     1      -8.899 -25.783 -89.600  1.00  0.00     0.197 HD
BRANCH  36  38
HETATM   38  N4  UNL     1     -10.539 -24.789 -90.049  1.00  0.00    -0.248 NA
BRANCH  38  39
HETATM   39  N5  UNL     1     -11.724 -24.487 -89.792  1.00  0.00    -0.261 N 
ATOM     40  H52 UNL     1     -11.417 -23.566 -89.479  1.00  0.00     0.193 HD
ATOM     41  H51 UNL     1     -12.732 -24.423 -89.647  1.00  0.00     0.193 HD
ENDBRANCH  38  39
ENDBRANCH  36  38
ENDBRANCH  26  36
ENDBRANCH   1  22
TORSDOF 17
ENDMDL
