MODEL 1
REMARK VINA RESULT: -7.260555449      0.000      0.000
REMARK  14 active torsions:
REMARK  status: ('A' for Active; 'I' for Inactive)
REMARK    1  A    between atoms: C2_2  and  C3_3 
REMARK       I    between atoms: C3_3  and  N1_5 
REMARK    2  A    between atoms: N1_5  and  C4_7 
REMARK    3  A    between atoms: C5_8  and  O2_9 
REMARK    4  A    between atoms: O2_9  and  C6_10 
REMARK    5  A    between atoms: C6_10  and  C7_12 
REMARK    6  A    between atoms: C7_12  and  N2_13 
REMARK    7  A    between atoms: N2_13  and  C8_15 
REMARK    8  A    between atoms: C8_15  and  C9_16 
REMARK    9  A    between atoms: C8_15  and  C12_19 
REMARK   10  A    between atoms: C12_19  and  O4_20 
REMARK   11  A    between atoms: C12_19  and  C13_22 
REMARK   12  A    between atoms: C16_26  and  C17_27 
REMARK   13  A    between atoms: C18_30  and  O8_31 
REMARK   14  A    between atoms: C19_33  and  O9_34 
ROOT
HETATM    1  C4  UNL     1      -8.956 -25.221 -90.063  1.00  0.00     0.171 C 
HETATM    2  C5  UNL     1      -7.803 -24.763 -89.163  1.00  0.00     0.296 C 
HETATM    3  O5  UNL     1      -7.223 -25.773 -88.493  1.00  0.00    -0.340 OA
HETATM    4  C16 UNL     1      -7.994 -26.558 -87.678  1.00  0.00     0.256 C 
HETATM    5  C18 UNL     1      -9.342 -26.867 -88.198  1.00  0.00     0.188 C 
HETATM    6  C19 UNL     1      -9.827 -26.219 -89.423  1.00  0.00     0.177 C 
ENDROOT
BRANCH   2   7
HETATM    7  O2  UNL     1      -8.245 -23.753 -88.275  1.00  0.00    -0.283 OA
BRANCH   7   8
HETATM    8  C6  UNL     1      -7.447 -22.769 -87.770  1.00  0.00     0.300 C 
HETATM    9  O3  UNL     1      -7.450 -22.525 -86.550  1.00  0.00    -0.259 OA
BRANCH   8  10
HETATM   10  C7  UNL     1      -6.532 -21.949 -88.677  1.00  0.00     0.166 C 
BRANCH  10  11
HETATM   11  N2  UNL     1      -5.267 -22.535 -88.786  1.00  0.00    -0.387 N 
ATOM     12  H2  UNL     1      -4.794 -22.981 -88.000  1.00  0.00     0.159 HD
BRANCH  11  13
HETATM   13  C8  UNL     1      -4.685 -22.457 -90.111  1.00  0.00     0.113 C 
BRANCH  13  14
HETATM   14  C9  UNL     1      -4.161 -23.816 -90.474  1.00  0.00     0.003 C 
HETATM   15  C10 UNL     1      -3.890 -24.618 -89.185  1.00  0.00     0.011 C 
HETATM   16  C11 UNL     1      -2.862 -23.840 -91.223  1.00  0.00     0.011 C 
ENDBRANCH  13  14
BRANCH  13  17
HETATM   17  C12 UNL     1      -5.528 -21.761 -91.089  1.00  0.00     0.144 C 
BRANCH  17  18
HETATM   18  O4  UNL     1      -6.063 -22.614 -92.041  1.00  0.00    -0.393 OA
ATOM     19  H4  UNL     1      -7.009 -22.679 -91.988  1.00  0.00     0.210 HD
ENDBRANCH  17  18
BRANCH  17  20
HETATM   20  C13 UNL     1      -5.057 -20.509 -91.733  1.00  0.00     0.008 C 
HETATM   21  C14 UNL     1      -4.111 -19.786 -90.731  1.00  0.00     0.012 C 
HETATM   22  C15 UNL     1      -4.180 -20.809 -92.954  1.00  0.00     0.012 C 
ENDBRANCH  17  20
ENDBRANCH  13  17
ENDBRANCH  11  13
ENDBRANCH  10  11
ENDBRANCH   8  10
ENDBRANCH   7   8
ENDBRANCH   2   7
BRANCH   1  23
HETATM   23  N1  UNL     1      -8.417 -25.667 -91.329  1.00  0.00    -0.349 N 
HETATM   24  C3  UNL     1      -8.464 -24.983 -92.546  1.00  0.00     0.217 C 
HETATM   25  O1  UNL     1      -9.014 -23.859 -92.617  1.00  0.00    -0.274 OA
ATOM     26  H1  UNL     1      -7.955 -26.576 -91.335  1.00  0.00     0.163 HD
BRANCH  24  27
HETATM   27  C2  UNL     1      -7.871 -25.566 -93.764  1.00  0.00     0.098 C 
HETATM   28  C1  UNL     1      -8.017 -24.608 -94.916  1.00  0.00     0.014 C 
ENDBRANCH  24  27
ENDBRANCH   1  23
BRANCH   6  29
HETATM   29  O9  UNL     1     -11.123 -25.687 -89.181  1.00  0.00    -0.391 OA
ATOM     30  H9  UNL     1     -11.090 -24.745 -89.064  1.00  0.00     0.210 HD
ENDBRANCH   6  29
BRANCH   4  31
HETATM   31  C17 UNL     1      -8.001 -26.116 -86.265  1.00  0.00     0.206 C 
HETATM   32  O6  UNL     1      -8.931 -25.441 -85.819  1.00  0.00    -0.646 OA
HETATM   33  O7  UNL     1      -6.953 -26.467 -85.451  1.00  0.00    -0.646 OA
ENDBRANCH   4  31
BRANCH   5  34
HETATM   34  O8  UNL     1      -9.471 -28.277 -88.304  1.00  0.00    -0.390 OA
ATOM     35  H8  UNL     1     -10.381 -28.508 -88.160  1.00  0.00     0.210 HD
ENDBRANCH   5  34
TORSDOF 14
ENDMDL
MODEL 2
REMARK VINA RESULT: -7.015794264      1.347      2.125
REMARK  14 active torsions:
REMARK  status: ('A' for Active; 'I' for Inactive)
REMARK    1  A    between atoms: C2_2  and  C3_3 
REMARK       I    between atoms: C3_3  and  N1_5 
REMARK    2  A    between atoms: N1_5  and  C4_7 
REMARK    3  A    between atoms: C5_8  and  O2_9 
REMARK    4  A    between atoms: O2_9  and  C6_10 
REMARK    5  A    between atoms: C6_10  and  C7_12 
REMARK    6  A    between atoms: C7_12  and  N2_13 
REMARK    7  A    between atoms: N2_13  and  C8_15 
REMARK    8  A    between atoms: C8_15  and  C9_16 
REMARK    9  A    between atoms: C8_15  and  C12_19 
REMARK   10  A    between atoms: C12_19  and  O4_20 
REMARK   11  A    between atoms: C12_19  and  C13_22 
REMARK   12  A    between atoms: C16_26  and  C17_27 
REMARK   13  A    between atoms: C18_30  and  O8_31 
REMARK   14  A    between atoms: C19_33  and  O9_34 
ROOT
HETATM    1  C4  UNL     1      -8.430 -25.059 -90.156  1.00  0.00     0.171 C 
HETATM    2  C5  UNL     1      -7.205 -24.940 -89.242  1.00  0.00     0.296 C 
HETATM    3  O5  UNL     1      -6.948 -26.066 -88.555  1.00  0.00    -0.340 OA
HETATM    4  C16 UNL     1      -7.922 -26.585 -87.745  1.00  0.00     0.256 C 
HETATM    5  C18 UNL     1      -9.295 -26.500 -88.282  1.00  0.00     0.188 C 
HETATM    6  C19 UNL     1      -9.558 -25.756 -89.520  1.00  0.00     0.177 C 
ENDROOT
BRANCH   2   7
HETATM    7  O2  UNL     1      -7.347 -23.835 -88.370  1.00  0.00    -0.283 OA
BRANCH   7   8
HETATM    8  C6  UNL     1      -6.927 -22.569 -88.656  1.00  0.00     0.300 C 
HETATM    9  O3  UNL     1      -6.793 -21.734 -87.743  1.00  0.00    -0.259 OA
BRANCH   8  10
HETATM   10  C7  UNL     1      -6.608 -22.145 -90.087  1.00  0.00     0.166 C 
BRANCH  10  11
HETATM   11  N2  UNL     1      -5.229 -22.018 -90.283  1.00  0.00    -0.387 N 
ATOM     12  H2  UNL     1      -4.540 -22.458 -89.672  1.00  0.00     0.159 HD
BRANCH  11  13
HETATM   13  C8  UNL     1      -4.861 -21.210 -91.429  1.00  0.00     0.113 C 
BRANCH  13  14
HETATM   14  C9  UNL     1      -4.014 -20.069 -90.944  1.00  0.00     0.003 C 
HETATM   15  C10 UNL     1      -4.120 -19.973 -89.408  1.00  0.00     0.011 C 
HETATM   16  C11 UNL     1      -4.399 -18.708 -91.443  1.00  0.00     0.011 C 
ENDBRANCH  13  14
BRANCH  13  17
HETATM   17  C12 UNL     1      -4.376 -21.989 -92.573  1.00  0.00     0.144 C 
BRANCH  17  18
HETATM   18  O4  UNL     1      -3.011 -21.854 -92.776  1.00  0.00    -0.393 OA
ATOM     19  H4  UNL     1      -2.498 -22.430 -92.223  1.00  0.00     0.210 HD
ENDBRANCH  17  18
BRANCH  17  20
HETATM   20  C13 UNL     1      -5.091 -21.941 -93.873  1.00  0.00     0.008 C 
HETATM   21  C14 UNL     1      -4.750 -20.584 -94.554  1.00  0.00     0.012 C 
HETATM   22  C15 UNL     1      -4.561 -23.009 -94.837  1.00  0.00     0.012 C 
ENDBRANCH  17  20
ENDBRANCH  13  17
ENDBRANCH  11  13
ENDBRANCH  10  11
ENDBRANCH   8  10
ENDBRANCH   7   8
ENDBRANCH   2   7
BRANCH   1  23
HETATM   23  N1  UNL     1      -8.027 -25.657 -91.410  1.00  0.00    -0.349 N 
HETATM   24  C3  UNL     1      -8.374 -25.225 -92.691  1.00  0.00     0.217 C 
HETATM   25  O1  UNL     1      -9.105 -24.218 -92.842  1.00  0.00    -0.274 OA
ATOM     26  H1  UNL     1      -7.429 -26.480 -91.352  1.00  0.00     0.163 HD
BRANCH  24  27
HETATM   27  C2  UNL     1      -7.888 -25.941 -93.887  1.00  0.00     0.098 C 
HETATM   28  C1  UNL     1      -7.636 -24.963 -95.004  1.00  0.00     0.014 C 
ENDBRANCH  24  27
ENDBRANCH   1  23
BRANCH   6  29
HETATM   29  O9  UNL     1     -10.650 -24.870 -89.302  1.00  0.00    -0.391 OA
ATOM     30  H9  UNL     1     -10.826 -24.347 -90.075  1.00  0.00     0.210 HD
ENDBRANCH   6  29
BRANCH   4  31
HETATM   31  C17 UNL     1      -7.818 -26.142 -86.336  1.00  0.00     0.206 C 
HETATM   32  O6  UNL     1      -6.910 -26.554 -85.610  1.00  0.00    -0.646 OA
HETATM   33  O7  UNL     1      -8.748 -25.261 -85.843  1.00  0.00    -0.646 OA
ENDBRANCH   4  31
BRANCH   5  34
HETATM   34  O8  UNL     1      -9.824 -27.815 -88.377  1.00  0.00    -0.390 OA
ATOM     35  H8  UNL     1     -10.445 -27.838 -89.095  1.00  0.00     0.210 HD
ENDBRANCH   5  34
TORSDOF 14
ENDMDL
MODEL 3
REMARK VINA RESULT: -6.989517559      1.227      2.232
REMARK  14 active torsions:
REMARK  status: ('A' for Active; 'I' for Inactive)
REMARK    1  A    between atoms: C2_2  and  C3_3 
REMARK       I    between atoms: C3_3  and  N1_5 
REMARK    2  A    between atoms: N1_5  and  C4_7 
REMARK    3  A    between atoms: C5_8  and  O2_9 
REMARK    4  A    between atoms: O2_9  and  C6_10 
REMARK    5  A    between atoms: C6_10  and  C7_12 
REMARK    6  A    between atoms: C7_12  and  N2_13 
REMARK    7  A    between atoms: N2_13  and  C8_15 
REMARK    8  A    between atoms: C8_15  and  C9_16 
REMARK    9  A    between atoms: C8_15  and  C12_19 
REMARK   10  A    between atoms: C12_19  and  O4_20 
REMARK   11  A    between atoms: C12_19  and  C13_22 
REMARK   12  A    between atoms: C16_26  and  C17_27 
REMARK   13  A    between atoms: C18_30  and  O8_31 
REMARK   14  A    between atoms: C19_33  and  O9_34 
ROOT
HETATM    1  C4  UNL     1      -8.647 -24.886 -90.273  1.00  0.00     0.171 C 
HETATM    2  C5  UNL     1      -7.412 -24.680 -89.390  1.00  0.00     0.296 C 
HETATM    3  O5  UNL     1      -7.066 -25.781 -88.701  1.00  0.00    -0.340 OA
HETATM    4  C16 UNL     1      -7.985 -26.356 -87.865  1.00  0.00     0.256 C 
HETATM    5  C18 UNL     1      -9.373 -26.365 -88.370  1.00  0.00     0.188 C 
HETATM    6  C19 UNL     1      -9.713 -25.650 -89.606  1.00  0.00     0.177 C 
ENDROOT
BRANCH   2   7
HETATM    7  O2  UNL     1      -7.606 -23.579 -88.522  1.00  0.00    -0.283 OA
BRANCH   7   8
HETATM    8  C6  UNL     1      -6.730 -22.542 -88.385  1.00  0.00     0.300 C 
HETATM    9  O3  UNL     1      -6.977 -21.616 -87.592  1.00  0.00    -0.259 OA
BRANCH   8  10
HETATM   10  C7  UNL     1      -5.433 -22.491 -89.188  1.00  0.00     0.166 C 
BRANCH  10  11
HETATM   11  N2  UNL     1      -5.425 -21.405 -90.071  1.00  0.00    -0.387 N 
ATOM     12  H2  UNL     1      -5.759 -20.478 -89.810  1.00  0.00     0.159 HD
BRANCH  11  13
HETATM   13  C8  UNL     1      -4.901 -21.710 -91.387  1.00  0.00     0.113 C 
BRANCH  13  14
HETATM   14  C9  UNL     1      -3.975 -20.600 -91.791  1.00  0.00     0.003 C 
HETATM   15  C10 UNL     1      -4.182 -19.396 -90.849  1.00  0.00     0.011 C 
HETATM   16  C11 UNL     1      -4.175 -20.048 -93.171  1.00  0.00     0.011 C 
ENDBRANCH  13  14
BRANCH  13  17
HETATM   17  C12 UNL     1      -4.423 -23.090 -91.530  1.00  0.00     0.144 C 
BRANCH  17  18
HETATM   18  O4  UNL     1      -3.042 -23.177 -91.596  1.00  0.00    -0.393 OA
ATOM     19  H4  UNL     1      -2.739 -23.687 -92.338  1.00  0.00     0.210 HD
ENDBRANCH  17  18
BRANCH  17  20
HETATM   20  C13 UNL     1      -5.039 -23.999 -92.530  1.00  0.00     0.008 C 
HETATM   21  C14 UNL     1      -4.414 -23.673 -93.917  1.00  0.00     0.012 C 
HETATM   22  C15 UNL     1      -4.658 -25.459 -92.260  1.00  0.00     0.012 C 
ENDBRANCH  17  20
ENDBRANCH  13  17
ENDBRANCH  11  13
ENDBRANCH  10  11
ENDBRANCH   8  10
ENDBRANCH   7   8
ENDBRANCH   2   7
BRANCH   1  23
HETATM   23  N1  UNL     1      -8.236 -25.467 -91.532  1.00  0.00    -0.349 N 
HETATM   24  C3  UNL     1      -8.542 -24.995 -92.810  1.00  0.00     0.217 C 
HETATM   25  O1  UNL     1      -9.240 -23.964 -92.952  1.00  0.00    -0.274 OA
ATOM     26  H1  UNL     1      -7.663 -26.308 -91.482  1.00  0.00     0.163 HD
BRANCH  24  27
HETATM   27  C2  UNL     1      -8.053 -25.697 -94.012  1.00  0.00     0.098 C 
HETATM   28  C1  UNL     1      -7.788 -24.706 -95.114  1.00  0.00     0.014 C 
ENDBRANCH  24  27
ENDBRANCH   1  23
BRANCH   6  29
HETATM   29  O9  UNL     1     -10.855 -24.835 -89.368  1.00  0.00    -0.391 OA
ATOM     30  H9  UNL     1     -11.428 -24.820 -90.125  1.00  0.00     0.210 HD
ENDBRANCH   6  29
BRANCH   4  31
HETATM   31  C17 UNL     1      -7.876 -25.895 -86.462  1.00  0.00     0.206 C 
HETATM   32  O6  UNL     1      -8.695 -25.101 -85.993  1.00  0.00    -0.646 OA
HETATM   33  O7  UNL     1      -6.848 -26.364 -85.683  1.00  0.00    -0.646 OA
ENDBRANCH   4  31
BRANCH   5  34
HETATM   34  O8  UNL     1      -9.816 -27.712 -88.444  1.00  0.00    -0.390 OA
ATOM     35  H8  UNL     1     -10.059 -27.900 -89.342  1.00  0.00     0.210 HD
ENDBRANCH   5  34
TORSDOF 14
ENDMDL
MODEL 4
REMARK VINA RESULT: -6.964303527      1.458      2.314
REMARK  14 active torsions:
REMARK  status: ('A' for Active; 'I' for Inactive)
REMARK    1  A    between atoms: C2_2  and  C3_3 
REMARK       I    between atoms: C3_3  and  N1_5 
REMARK    2  A    between atoms: N1_5  and  C4_7 
REMARK    3  A    between atoms: C5_8  and  O2_9 
REMARK    4  A    between atoms: O2_9  and  C6_10 
REMARK    5  A    between atoms: C6_10  and  C7_12 
REMARK    6  A    between atoms: C7_12  and  N2_13 
REMARK    7  A    between atoms: N2_13  and  C8_15 
REMARK    8  A    between atoms: C8_15  and  C9_16 
REMARK    9  A    between atoms: C8_15  and  C12_19 
REMARK   10  A    between atoms: C12_19  and  O4_20 
REMARK   11  A    between atoms: C12_19  and  C13_22 
REMARK   12  A    between atoms: C16_26  and  C17_27 
REMARK   13  A    between atoms: C18_30  and  O8_31 
REMARK   14  A    between atoms: C19_33  and  O9_34 
ROOT
HETATM    1  C4  UNL     1      -8.574 -25.901 -89.981  1.00  0.00     0.171 C 
HETATM    2  C5  UNL     1      -7.345 -25.511 -89.154  1.00  0.00     0.296 C 
HETATM    3  O5  UNL     1      -6.957 -26.473 -88.299  1.00  0.00    -0.340 OA
HETATM    4  C16 UNL     1      -7.852 -26.937 -87.373  1.00  0.00     0.256 C 
HETATM    5  C18 UNL     1      -9.240 -27.076 -87.858  1.00  0.00     0.188 C 
HETATM    6  C19 UNL     1      -9.610 -26.583 -89.190  1.00  0.00     0.177 C 
ENDROOT
BRANCH   2   7
HETATM    7  O2  UNL     1      -7.575 -24.291 -88.474  1.00  0.00    -0.283 OA
BRANCH   7   8
HETATM    8  C6  UNL     1      -7.016 -23.097 -88.823  1.00  0.00     0.300 C 
HETATM    9  O3  UNL     1      -6.970 -22.165 -88.001  1.00  0.00    -0.259 OA
BRANCH   8  10
HETATM   10  C7  UNL     1      -6.431 -22.874 -90.215  1.00  0.00     0.166 C 
BRANCH  10  11
HETATM   11  N2  UNL     1      -6.173 -21.519 -90.446  1.00  0.00    -0.387 N 
ATOM     12  H2  UNL     1      -6.649 -20.771 -89.942  1.00  0.00     0.159 HD
BRANCH  11  13
HETATM   13  C8  UNL     1      -5.169 -21.267 -91.461  1.00  0.00     0.113 C 
BRANCH  13  14
HETATM   14  C9  UNL     1      -4.146 -20.332 -90.885  1.00  0.00     0.003 C 
HETATM   15  C10 UNL     1      -4.341 -20.239 -89.358  1.00  0.00     0.011 C 
HETATM   16  C11 UNL     1      -4.208 -18.913 -91.369  1.00  0.00     0.011 C 
ENDBRANCH  13  14
BRANCH  13  17
HETATM   17  C12 UNL     1      -4.692 -22.478 -92.136  1.00  0.00     0.144 C 
BRANCH  17  18
HETATM   18  O4  UNL     1      -3.417 -22.848 -91.740  1.00  0.00    -0.393 OA
ATOM     19  H4  UNL     1      -2.760 -22.678 -92.405  1.00  0.00     0.210 HD
ENDBRANCH  17  18
BRANCH  17  20
HETATM   20  C13 UNL     1      -4.831 -22.624 -93.607  1.00  0.00     0.008 C 
HETATM   21  C14 UNL     1      -6.193 -23.324 -93.889  1.00  0.00     0.012 C 
HETATM   22  C15 UNL     1      -4.943 -21.258 -94.292  1.00  0.00     0.012 C 
ENDBRANCH  17  20
ENDBRANCH  13  17
ENDBRANCH  11  13
ENDBRANCH  10  11
ENDBRANCH   8  10
ENDBRANCH   7   8
ENDBRANCH   2   7
BRANCH   1  23
HETATM   23  N1  UNL     1      -8.146 -26.663 -91.133  1.00  0.00    -0.349 N 
HETATM   24  C3  UNL     1      -8.360 -26.342 -92.475  1.00  0.00     0.217 C 
HETATM   25  O1  UNL     1      -8.979 -25.297 -92.784  1.00  0.00    -0.274 OA
ATOM     26  H1  UNL     1      -7.635 -27.525 -90.946  1.00  0.00     0.163 HD
BRANCH  24  27
HETATM   27  C2  UNL     1      -7.865 -27.223 -93.551  1.00  0.00     0.098 C 
HETATM   28  C1  UNL     1      -8.438 -28.606 -93.386  1.00  0.00     0.014 C 
ENDBRANCH  24  27
ENDBRANCH   1  23
BRANCH   6  29
HETATM   29  O9  UNL     1     -10.779 -25.781 -89.077  1.00  0.00    -0.391 OA
ATOM     30  H9  UNL     1     -11.530 -26.304 -88.822  1.00  0.00     0.210 HD
ENDBRANCH   6  29
BRANCH   4  31
HETATM   31  C17 UNL     1      -7.757 -26.251 -86.064  1.00  0.00     0.206 C 
HETATM   32  O6  UNL     1      -6.841 -26.512 -85.280  1.00  0.00    -0.646 OA
HETATM   33  O7  UNL     1      -8.704 -25.316 -85.730  1.00  0.00    -0.646 OA
ENDBRANCH   4  31
BRANCH   5  34
HETATM   34  O8  UNL     1      -9.635 -28.432 -87.708  1.00  0.00    -0.390 OA
ATOM     35  H8  UNL     1     -10.584 -28.467 -87.668  1.00  0.00     0.210 HD
ENDBRANCH   5  34
TORSDOF 14
ENDMDL
MODEL 5
REMARK VINA RESULT: -6.924925267      2.191      5.857
REMARK  14 active torsions:
REMARK  status: ('A' for Active; 'I' for Inactive)
REMARK    1  A    between atoms: C2_2  and  C3_3 
REMARK       I    between atoms: C3_3  and  N1_5 
REMARK    2  A    between atoms: N1_5  and  C4_7 
REMARK    3  A    between atoms: C5_8  and  O2_9 
REMARK    4  A    between atoms: O2_9  and  C6_10 
REMARK    5  A    between atoms: C6_10  and  C7_12 
REMARK    6  A    between atoms: C7_12  and  N2_13 
REMARK    7  A    between atoms: N2_13  and  C8_15 
REMARK    8  A    between atoms: C8_15  and  C9_16 
REMARK    9  A    between atoms: C8_15  and  C12_19 
REMARK   10  A    between atoms: C12_19  and  O4_20 
REMARK   11  A    between atoms: C12_19  and  C13_22 
REMARK   12  A    between atoms: C16_26  and  C17_27 
REMARK   13  A    between atoms: C18_30  and  O8_31 
REMARK   14  A    between atoms: C19_33  and  O9_34 
ROOT
HETATM    1  C4  UNL     1      -7.408 -23.647 -88.390  1.00  0.00     0.171 C 
HETATM    2  C5  UNL     1      -6.824 -24.073 -89.741  1.00  0.00     0.296 C 
HETATM    3  O5  UNL     1      -5.500 -23.864 -89.833  1.00  0.00    -0.340 OA
HETATM    4  C16 UNL     1      -5.013 -22.599 -89.640  1.00  0.00     0.256 C 
HETATM    5  C18 UNL     1      -5.678 -21.828 -88.570  1.00  0.00     0.188 C 
HETATM    6  C19 UNL     1      -6.874 -22.364 -87.909  1.00  0.00     0.177 C 
ENDROOT
BRANCH   2   7
HETATM    7  O2  UNL     1      -7.513 -23.432 -90.799  1.00  0.00    -0.283 OA
BRANCH   7   8
HETATM    8  C6  UNL     1      -8.525 -24.000 -91.515  1.00  0.00     0.300 C 
HETATM    9  O3  UNL     1      -9.407 -24.660 -90.936  1.00  0.00    -0.259 OA
BRANCH   8  10
HETATM   10  C7  UNL     1      -8.610 -23.839 -93.031  1.00  0.00     0.166 C 
BRANCH  10  11
HETATM   11  N2  UNL     1      -7.480 -24.371 -93.662  1.00  0.00    -0.387 N 
ATOM     12  H2  UNL     1      -7.231 -25.358 -93.609  1.00  0.00     0.159 HD
BRANCH  11  13
HETATM   13  C8  UNL     1      -6.694 -23.400 -94.396  1.00  0.00     0.113 C 
BRANCH  13  14
HETATM   14  C9  UNL     1      -5.251 -23.598 -94.037  1.00  0.00     0.003 C 
HETATM   15  C10 UNL     1      -4.362 -22.982 -95.137  1.00  0.00     0.011 C 
HETATM   16  C11 UNL     1      -4.792 -25.023 -93.926  1.00  0.00     0.011 C 
ENDBRANCH  13  14
BRANCH  13  17
HETATM   17  C12 UNL     1      -7.043 -23.307 -95.818  1.00  0.00     0.144 C 
BRANCH  17  18
HETATM   18  O4  UNL     1      -7.827 -22.202 -96.108  1.00  0.00    -0.393 OA
ATOM     19  H4  UNL     1      -8.013 -21.670 -95.344  1.00  0.00     0.210 HD
ENDBRANCH  17  18
BRANCH  17  20
HETATM   20  C13 UNL     1      -7.550 -24.497 -96.547  1.00  0.00     0.008 C 
HETATM   21  C14 UNL     1      -8.433 -23.992 -97.726  1.00  0.00     0.012 C 
HETATM   22  C15 UNL     1      -6.406 -25.267 -97.216  1.00  0.00     0.012 C 
ENDBRANCH  17  20
ENDBRANCH  13  17
ENDBRANCH  11  13
ENDBRANCH  10  11
ENDBRANCH   8  10
ENDBRANCH   7   8
ENDBRANCH   2   7
BRANCH   1  23
HETATM   23  N1  UNL     1      -7.237 -24.725 -87.441  1.00  0.00    -0.349 N 
HETATM   24  C3  UNL     1      -8.204 -25.651 -87.044  1.00  0.00     0.217 C 
HETATM   25  O1  UNL     1      -9.360 -25.601 -87.523  1.00  0.00    -0.274 OA
ATOM     26  H1  UNL     1      -6.314 -24.818 -87.018  1.00  0.00     0.163 HD
BRANCH  24  27
HETATM   27  C2  UNL     1      -7.884 -26.701 -86.058  1.00  0.00     0.098 C 
HETATM   28  C1  UNL     1      -8.522 -28.002 -86.467  1.00  0.00     0.014 C 
ENDBRANCH  24  27
ENDBRANCH   1  23
BRANCH   6  29
HETATM   29  O9  UNL     1      -7.883 -21.361 -87.897  1.00  0.00    -0.391 OA
ATOM     30  H9  UNL     1      -7.533 -20.527 -87.607  1.00  0.00     0.210 HD
ENDBRANCH   6  29
BRANCH   4  31
HETATM   31  C17 UNL     1      -4.846 -21.831 -90.896  1.00  0.00     0.206 C 
HETATM   32  O6  UNL     1      -5.670 -20.975 -91.226  1.00  0.00    -0.646 OA
HETATM   33  O7  UNL     1      -3.759 -22.086 -91.694  1.00  0.00    -0.646 OA
ENDBRANCH   4  31
BRANCH   5  34
HETATM   34  O8  UNL     1      -4.703 -21.465 -87.604  1.00  0.00    -0.390 OA
ATOM     35  H8  UNL     1      -4.063 -22.164 -87.545  1.00  0.00     0.210 HD
ENDBRANCH   5  34
TORSDOF 14
ENDMDL
