MODEL 1
REMARK VINA RESULT: -6.259591824      0.000      0.000
REMARK  8 active torsions:
REMARK  status: ('A' for Active; 'I' for Inactive)
REMARK    1  A    between atoms: C2_2  and  N1_3 
REMARK    2  A    between atoms: C2_2  and  C6_10 
REMARK    3  A    between atoms: C10_21  and  N7_22 
REMARK    4  A    between atoms: N7_22  and  C11_24 
REMARK    5  A    between atoms: C11_24  and  C12_25 
REMARK    6  A    between atoms: C12_25  and  O1_26 
REMARK    7  A    between atoms: C12_25  and  C13_28 
REMARK    8  A    between atoms: C13_28  and  O2_29 
ROOT
HETATM    1  C6  UNL     1      21.234  16.361  15.527  1.00  0.00     0.066 A 
HETATM    2  N3  UNL     1      20.483  16.158  14.427  1.00  0.00    -0.298 N 
ATOM      3  H3  UNL     1      19.484  15.950  14.437  1.00  0.00     0.187 HD
HETATM    4  N4  UNL     1      21.218  16.264  13.331  1.00  0.00    -0.280 N 
HETATM    5  C7  UNL     1      20.827  16.126  11.942  1.00  0.00     0.179 C 
HETATM    6  C8  UNL     1      22.481  16.545  13.726  1.00  0.00     0.139 A 
HETATM    7  N5  UNL     1      23.599  16.745  13.011  1.00  0.00    -0.337 N 
ATOM      8  H5  UNL     1      23.557  16.694  11.992  1.00  0.00     0.168 HD
HETATM    9  C9  UNL     1      24.785  17.014  13.617  1.00  0.00     0.183 A 
HETATM   10  N6  UNL     1      24.802  17.075  14.959  1.00  0.00    -0.338 N 
ATOM     11  H6  UNL     1      25.691  17.278  15.417  1.00  0.00     0.168 HD
HETATM   12  C10 UNL     1      23.721  16.884  15.734  1.00  0.00     0.118 A 
HETATM   13  C14 UNL     1      22.525  16.611  15.093  1.00  0.00     0.079 A 
ENDROOT
BRANCH   1  14
HETATM   14  C2  UNL     1      20.797  16.346  16.969  1.00  0.00     0.131 C 
HETATM   15  C1  UNL     1      19.999  15.056  17.148  1.00  0.00     0.039 C 
BRANCH  14  16
HETATM   16  N1  UNL     1      19.865  17.443  17.186  1.00  0.00    -0.370 N 
HETATM   17  C3  UNL     1      19.514  17.751  18.386  1.00  0.00     0.074 C 
HETATM   18  C4  UNL     1      19.744  17.348  19.791  1.00  0.00     0.095 C 
HETATM   19  N2  UNL     1      18.627  18.754  18.857  1.00  0.00    -0.380 N 
HETATM   20  C5  UNL     1      19.403  18.815  20.068  1.00  0.00     0.128 C 
ATOM     21  H2  UNL     1      17.800  19.228  18.495  1.00  0.00     0.160 HD
ATOM     22  H1  UNL     1      19.492  17.964  16.393  1.00  0.00     0.161 HD
ENDBRANCH  14  16
ENDBRANCH   1  14
BRANCH  12  23
HETATM   23  N7  UNL     1      23.714  16.930  17.000  1.00  0.00    -0.373 N 
ATOM     24  H7  UNL     1      23.433  17.812  17.429  1.00  0.00     0.161 HD
BRANCH  23  25
HETATM   25  C11 UNL     1      24.065  15.851  17.893  1.00  0.00     0.155 C 
BRANCH  25  26
HETATM   26  C12 UNL     1      23.473  16.059  19.274  1.00  0.00     0.159 C 
BRANCH  26  27
HETATM   27  O1  UNL     1      22.371  15.229  19.483  1.00  0.00    -0.392 OA
ATOM     28  H1  UNL     1      22.639  14.327  19.613  1.00  0.00     0.210 HD
ENDBRANCH  26  27
BRANCH  26  29
HETATM   29  C13 UNL     1      23.089  17.515  19.423  1.00  0.00     0.197 C 
BRANCH  29  30
HETATM   30  O2  UNL     1      24.205  18.318  19.575  1.00  0.00    -0.398 OA
ATOM     31  H2  UNL     1      24.085  19.161  19.157  1.00  0.00     0.209 HD
ENDBRANCH  29  30
ENDBRANCH  26  29
ENDBRANCH  25  26
ENDBRANCH  23  25
ENDBRANCH  12  23
TORSDOF 8
ENDMDL
MODEL 2
REMARK VINA RESULT: -5.645125916      0.417      1.226
REMARK  8 active torsions:
REMARK  status: ('A' for Active; 'I' for Inactive)
REMARK    1  A    between atoms: C2_2  and  N1_3 
REMARK    2  A    between atoms: C2_2  and  C6_10 
REMARK    3  A    between atoms: C10_21  and  N7_22 
REMARK    4  A    between atoms: N7_22  and  C11_24 
REMARK    5  A    between atoms: C11_24  and  C12_25 
REMARK    6  A    between atoms: C12_25  and  O1_26 
REMARK    7  A    between atoms: C12_25  and  C13_28 
REMARK    8  A    between atoms: C13_28  and  O2_29 
ROOT
HETATM    1  C6  UNL     1      21.187  16.273  15.375  1.00  0.00     0.066 A 
HETATM    2  N3  UNL     1      20.437  16.127  14.265  1.00  0.00    -0.298 N 
ATOM      3  H3  UNL     1      19.433  15.945  14.263  1.00  0.00     0.187 HD
HETATM    4  N4  UNL     1      21.181  16.253  13.177  1.00  0.00    -0.280 N 
HETATM    5  C7  UNL     1      20.795  16.173  11.782  1.00  0.00     0.179 C 
HETATM    6  C8  UNL     1      22.448  16.488  13.588  1.00  0.00     0.139 A 
HETATM    7  N5  UNL     1      23.575  16.683  12.885  1.00  0.00    -0.337 N 
ATOM      8  H5  UNL     1      23.538  16.669  11.866  1.00  0.00     0.168 HD
HETATM    9  C9  UNL     1      24.764  16.901  13.507  1.00  0.00     0.183 A 
HETATM   10  N6  UNL     1      24.775  16.915  14.850  1.00  0.00    -0.338 N 
ATOM     11  H6  UNL     1      25.665  17.080  15.320  1.00  0.00     0.168 HD
HETATM   12  C10 UNL     1      23.684  16.725  15.613  1.00  0.00     0.118 A 
HETATM   13  C14 UNL     1      22.485  16.506  14.957  1.00  0.00     0.079 A 
ENDROOT
BRANCH   1  14
HETATM   14  C2  UNL     1      20.741  16.220  16.814  1.00  0.00     0.131 C 
HETATM   15  C1  UNL     1      19.913  14.943  16.944  1.00  0.00     0.039 C 
BRANCH  14  16
HETATM   16  N1  UNL     1      19.832  17.329  17.063  1.00  0.00    -0.370 N 
HETATM   17  C3  UNL     1      19.544  17.655  18.274  1.00  0.00     0.074 C 
HETATM   18  C4  UNL     1      19.839  17.266  19.671  1.00  0.00     0.095 C 
HETATM   19  N2  UNL     1      18.693  18.674  18.777  1.00  0.00    -0.380 N 
HETATM   20  C5  UNL     1      19.528  18.740  19.947  1.00  0.00     0.128 C 
ATOM     21  H2  UNL     1      17.853  19.152  18.450  1.00  0.00     0.160 HD
ATOM     22  H1  UNL     1      19.426  17.845  16.283  1.00  0.00     0.161 HD
ENDBRANCH  14  16
ENDBRANCH   1  14
BRANCH  12  23
HETATM   23  N7  UNL     1      23.671  16.727  16.879  1.00  0.00    -0.373 N 
ATOM     24  H7  UNL     1      23.916  15.853  17.346  1.00  0.00     0.161 HD
BRANCH  23  25
HETATM   25  C11 UNL     1      23.341  17.850  17.726  1.00  0.00     0.155 C 
BRANCH  25  26
HETATM   26  C12 UNL     1      23.192  17.427  19.174  1.00  0.00     0.159 C 
BRANCH  26  27
HETATM   27  O1  UNL     1      24.067  18.134  20.000  1.00  0.00    -0.392 OA
ATOM     28  H1  UNL     1      24.237  17.662  20.807  1.00  0.00     0.210 HD
ENDBRANCH  26  27
BRANCH  26  29
HETATM   29  C13 UNL     1      23.439  15.938  19.274  1.00  0.00     0.197 C 
BRANCH  29  30
HETATM   30  O2  UNL     1      22.259  15.243  19.466  1.00  0.00    -0.398 OA
ATOM     31  H2  UNL     1      21.519  15.833  19.545  1.00  0.00     0.209 HD
ENDBRANCH  29  30
ENDBRANCH  26  29
ENDBRANCH  25  26
ENDBRANCH  23  25
ENDBRANCH  12  23
TORSDOF 8
ENDMDL
MODEL 3
REMARK VINA RESULT: -5.348956024      2.259      3.680
REMARK  8 active torsions:
REMARK  status: ('A' for Active; 'I' for Inactive)
REMARK    1  A    between atoms: C2_2  and  N1_3 
REMARK    2  A    between atoms: C2_2  and  C6_10 
REMARK    3  A    between atoms: C10_21  and  N7_22 
REMARK    4  A    between atoms: N7_22  and  C11_24 
REMARK    5  A    between atoms: C11_24  and  C12_25 
REMARK    6  A    between atoms: C12_25  and  O1_26 
REMARK    7  A    between atoms: C12_25  and  C13_28 
REMARK    8  A    between atoms: C13_28  and  O2_29 
ROOT
HETATM    1  C6  UNL     1      21.901  16.983  11.890  1.00  0.00     0.066 A 
HETATM    2  N3  UNL     1      21.260  17.584  10.869  1.00  0.00    -0.298 N 
ATOM      3  H3  UNL     1      20.246  17.629  10.768  1.00  0.00     0.187 HD
HETATM    4  N4  UNL     1      22.125  18.106  10.014  1.00  0.00    -0.280 N 
HETATM    5  C7  UNL     1      21.881  18.838   8.787  1.00  0.00     0.179 C 
HETATM    6  C8  UNL     1      23.363  17.840  10.490  1.00  0.00     0.139 A 
HETATM    7  N5  UNL     1      24.575  18.146  10.001  1.00  0.00    -0.337 N 
ATOM      8  H5  UNL     1      24.644  18.670   9.128  1.00  0.00     0.168 HD
HETATM    9  C9  UNL     1      25.711  17.772  10.647  1.00  0.00     0.183 A 
HETATM   10  N6  UNL     1      25.581  17.086  11.794  1.00  0.00    -0.338 N 
ATOM     11  H6  UNL     1      26.432  16.805  12.282  1.00  0.00     0.168 HD
HETATM   12  C10 UNL     1      24.400  16.746  12.338  1.00  0.00     0.118 A 
HETATM   13  C14 UNL     1      23.257  17.138  11.662  1.00  0.00     0.079 A 
ENDROOT
BRANCH   1  14
HETATM   14  C2  UNL     1      21.302  16.280  13.081  1.00  0.00     0.131 C 
HETATM   15  C1  UNL     1      19.870  15.933  12.682  1.00  0.00     0.039 C 
BRANCH  14  16
HETATM   16  N1  UNL     1      21.207  17.226  14.183  1.00  0.00    -0.370 N 
HETATM   17  C3  UNL     1      20.785  16.825  15.331  1.00  0.00     0.074 C 
HETATM   18  C4  UNL     1      20.308  15.605  16.019  1.00  0.00     0.095 C 
HETATM   19  N2  UNL     1      20.594  17.538  16.543  1.00  0.00    -0.380 N 
HETATM   20  C5  UNL     1      20.858  16.317  17.258  1.00  0.00     0.128 C 
ATOM     21  H2  UNL     1      20.368  18.500  16.798  1.00  0.00     0.160 HD
ATOM     22  H1  UNL     1      21.473  18.201  14.047  1.00  0.00     0.161 HD
ENDBRANCH  14  16
ENDBRANCH   1  14
BRANCH  12  23
HETATM   23  N7  UNL     1      24.252  16.094  13.414  1.00  0.00    -0.373 N 
ATOM     24  H7  UNL     1      23.569  15.337  13.405  1.00  0.00     0.161 HD
BRANCH  23  25
HETATM   25  C11 UNL     1      24.961  16.321  14.651  1.00  0.00     0.155 C 
BRANCH  25  26
HETATM   26  C12 UNL     1      24.009  16.663  15.781  1.00  0.00     0.159 C 
BRANCH  26  27
HETATM   27  O1  UNL     1      23.730  18.031  15.811  1.00  0.00    -0.392 OA
ATOM     28  H1  UNL     1      23.296  18.312  15.013  1.00  0.00     0.210 HD
ENDBRANCH  26  27
BRANCH  26  29
HETATM   29  C13 UNL     1      24.620  16.208  17.087  1.00  0.00     0.197 C 
BRANCH  29  30
HETATM   30  O2  UNL     1      24.195  16.992  18.144  1.00  0.00    -0.398 OA
ATOM     31  H2  UNL     1      23.779  17.789  17.838  1.00  0.00     0.209 HD
ENDBRANCH  29  30
ENDBRANCH  26  29
ENDBRANCH  25  26
ENDBRANCH  23  25
ENDBRANCH  12  23
TORSDOF 8
ENDMDL
MODEL 4
REMARK VINA RESULT: -4.953527534      3.275      7.040
REMARK  8 active torsions:
REMARK  status: ('A' for Active; 'I' for Inactive)
REMARK    1  A    between atoms: C2_2  and  N1_3 
REMARK    2  A    between atoms: C2_2  and  C6_10 
REMARK    3  A    between atoms: C10_21  and  N7_22 
REMARK    4  A    between atoms: N7_22  and  C11_24 
REMARK    5  A    between atoms: C11_24  and  C12_25 
REMARK    6  A    between atoms: C12_25  and  O1_26 
REMARK    7  A    between atoms: C12_25  and  C13_28 
REMARK    8  A    between atoms: C13_28  and  O2_29 
ROOT
HETATM    1  C6  UNL     1      23.617  16.634  15.038  1.00  0.00     0.066 A 
HETATM    2  N3  UNL     1      23.969  17.022  16.279  1.00  0.00    -0.298 N 
ATOM      3  H3  UNL     1      24.926  17.206  16.579  1.00  0.00     0.187 HD
HETATM    4  N4  UNL     1      22.902  17.133  17.056  1.00  0.00    -0.280 N 
HETATM    5  C7  UNL     1      22.813  17.521  18.449  1.00  0.00     0.179 C 
HETATM    6  C8  UNL     1      21.827  16.809  16.301  1.00  0.00     0.139 A 
HETATM    7  N5  UNL     1      20.522  16.760  16.611  1.00  0.00    -0.337 N 
ATOM      8  H5  UNL     1      20.223  16.998  17.557  1.00  0.00     0.168 HD
HETATM    9  C9  UNL     1      19.592  16.399  15.688  1.00  0.00     0.183 A 
HETATM   10  N6  UNL     1      20.021  16.094  14.453  1.00  0.00    -0.338 N 
ATOM     11  H6  UNL     1      19.326  15.824  13.757  1.00  0.00     0.168 HD
HETATM   12  C10 UNL     1      21.312  16.121  14.077  1.00  0.00     0.118 A 
HETATM   13  C14 UNL     1      22.240  16.492  15.034  1.00  0.00     0.079 A 
ENDROOT
BRANCH   1  14
HETATM   14  C2  UNL     1      24.510  16.403  13.846  1.00  0.00     0.131 C 
HETATM   15  C1  UNL     1      25.936  16.383  14.393  1.00  0.00     0.039 C 
BRANCH  14  16
HETATM   16  N1  UNL     1      24.422  17.559  12.965  1.00  0.00    -0.370 N 
HETATM   17  C3  UNL     1      24.989  17.523  11.810  1.00  0.00     0.074 C 
HETATM   18  C4  UNL     1      25.791  16.624  10.950  1.00  0.00     0.095 C 
HETATM   19  N2  UNL     1      25.057  18.503  10.785  1.00  0.00    -0.380 N 
HETATM   20  C5  UNL     1      25.144  17.436   9.824  1.00  0.00     0.128 C 
ATOM     21  H2  UNL     1      25.048  19.523  10.748  1.00  0.00     0.160 HD
ATOM     22  H1  UNL     1      23.914  18.392  13.261  1.00  0.00     0.161 HD
ENDBRANCH  14  16
ENDBRANCH   1  14
BRANCH  12  23
HETATM   23  N7  UNL     1      21.742  15.831  12.921  1.00  0.00    -0.373 N 
ATOM     24  H7  UNL     1      22.602  15.284  12.872  1.00  0.00     0.161 HD
BRANCH  23  25
HETATM   25  C11 UNL     1      21.129  16.202  11.667  1.00  0.00     0.155 C 
BRANCH  25  26
HETATM   26  C12 UNL     1      21.393  17.656  11.330  1.00  0.00     0.159 C 
BRANCH  26  27
HETATM   27  O1  UNL     1      20.254  18.438  11.534  1.00  0.00    -0.392 OA
ATOM     28  H1  UNL     1      20.437  19.358  11.384  1.00  0.00     0.210 HD
ENDBRANCH  26  27
BRANCH  26  29
HETATM   29  C13 UNL     1      21.859  17.745   9.893  1.00  0.00     0.197 C 
BRANCH  29  30
HETATM   30  O2  UNL     1      22.085  19.057   9.517  1.00  0.00    -0.398 OA
ATOM     31  H2  UNL     1      21.280  19.561   9.518  1.00  0.00     0.209 HD
ENDBRANCH  29  30
ENDBRANCH  26  29
ENDBRANCH  25  26
ENDBRANCH  23  25
ENDBRANCH  12  23
TORSDOF 8
ENDMDL
MODEL 5
REMARK VINA RESULT: -4.858046761      2.321      5.568
REMARK  8 active torsions:
REMARK  status: ('A' for Active; 'I' for Inactive)
REMARK    1  A    between atoms: C2_2  and  N1_3 
REMARK    2  A    between atoms: C2_2  and  C6_10 
REMARK    3  A    between atoms: C10_21  and  N7_22 
REMARK    4  A    between atoms: N7_22  and  C11_24 
REMARK    5  A    between atoms: C11_24  and  C12_25 
REMARK    6  A    between atoms: C12_25  and  O1_26 
REMARK    7  A    between atoms: C12_25  and  C13_28 
REMARK    8  A    between atoms: C13_28  and  O2_29 
ROOT
HETATM    1  C6  UNL     1      22.594  16.864  12.569  1.00  0.00     0.066 A 
HETATM    2  N3  UNL     1      23.660  16.778  11.750  1.00  0.00    -0.298 N 
ATOM      3  H3  UNL     1      23.612  16.804  10.731  1.00  0.00     0.187 HD
HETATM    4  N4  UNL     1      24.778  16.655  12.448  1.00  0.00    -0.280 N 
HETATM    5  C7  UNL     1      26.146  16.535  11.983  1.00  0.00     0.179 C 
HETATM    6  C8  UNL     1      24.432  16.662  13.756  1.00  0.00     0.139 A 
HETATM    7  N5  UNL     1      25.186  16.564  14.862  1.00  0.00    -0.337 N 
ATOM      8  H5  UNL     1      26.198  16.469  14.771  1.00  0.00     0.168 HD
HETATM    9  C9  UNL     1      24.627  16.588  16.101  1.00  0.00     0.183 A 
HETATM   10  N6  UNL     1      23.292  16.716  16.182  1.00  0.00    -0.338 N 
ATOM     11  H6  UNL     1      22.869  16.737  17.110  1.00  0.00     0.168 HD
HETATM   12  C10 UNL     1      22.480  16.818  15.116  1.00  0.00     0.118 A 
HETATM   13  C14 UNL     1      23.073  16.791  13.865  1.00  0.00     0.079 A 
ENDROOT
BRANCH   1  14
HETATM   14  C2  UNL     1      21.142  17.026  12.195  1.00  0.00     0.131 C 
HETATM   15  C1  UNL     1      20.805  15.829  11.309  1.00  0.00     0.039 C 
BRANCH  14  16
HETATM   16  N1  UNL     1      21.005  18.211  11.359  1.00  0.00    -0.370 N 
HETATM   17  C3  UNL     1      21.716  18.322  10.292  1.00  0.00     0.074 C 
HETATM   18  C4  UNL     1      22.743  17.595   9.514  1.00  0.00     0.095 C 
HETATM   19  N2  UNL     1      21.776  19.363   9.329  1.00  0.00    -0.380 N 
HETATM   20  C5  UNL     1      22.138  18.378   8.345  1.00  0.00     0.128 C 
ATOM     21  H2  UNL     1      21.626  20.372   9.333  1.00  0.00     0.160 HD
ATOM     22  H1  UNL     1      20.349  18.947  11.618  1.00  0.00     0.161 HD
ENDBRANCH  14  16
ENDBRANCH   1  14
BRANCH  12  23
HETATM   23  N7  UNL     1      21.220  16.933  15.167  1.00  0.00    -0.373 N 
ATOM     24  H7  UNL     1      20.731  17.060  14.280  1.00  0.00     0.161 HD
BRANCH  23  25
HETATM   25  C11 UNL     1      20.409  16.899  16.362  1.00  0.00     0.155 C 
BRANCH  25  26
HETATM   26  C12 UNL     1      20.470  15.542  17.035  1.00  0.00     0.159 C 
BRANCH  26  27
HETATM   27  O1  UNL     1      19.278  14.837  16.861  1.00  0.00    -0.392 OA
ATOM     28  H1  UNL     1      19.102  14.680  15.940  1.00  0.00     0.210 HD
ENDBRANCH  26  27
BRANCH  26  29
HETATM   29  C13 UNL     1      20.770  15.742  18.505  1.00  0.00     0.197 C 
BRANCH  29  30
HETATM   30  O2  UNL     1      19.631  16.089  19.209  1.00  0.00    -0.398 OA
ATOM     31  H2  UNL     1      19.748  15.960  20.142  1.00  0.00     0.209 HD
ENDBRANCH  29  30
ENDBRANCH  26  29
ENDBRANCH  25  26
ENDBRANCH  23  25
ENDBRANCH  12  23
TORSDOF 8
ENDMDL
