MODEL 1
REMARK VINA RESULT: -6.568625886      0.000      0.000
REMARK  6 active torsions:
REMARK  status: ('A' for Active; 'I' for Inactive)
REMARK    1  A    between atoms: S1_2  and  C2_3 
REMARK    2  A    between atoms: C3_6  and  N2_7 
REMARK    3  A    between atoms: N3_13  and  C9_14 
REMARK    4  A    between atoms: C9_14  and  C10_15 
REMARK    5  A    between atoms: C10_15  and  O1_16 
REMARK    6  A    between atoms: C12_22  and  N6_23 
ROOT
HETATM    1  C2  UNL     1      21.705  15.807  18.070  1.00  0.00     0.174 A 
HETATM    2  N1  UNL     1      22.151  16.121  16.846  1.00  0.00    -0.169 N 
ATOM      3  H1  UNL     1      23.013  16.659  16.749  1.00  0.00     0.186 HD
HETATM    4  C3  UNL     1      21.482  15.739  15.736  1.00  0.00     0.696 A 
HETATM    5  N5  UNL     1      20.358  15.033  15.933  1.00  0.00    -0.022 N 
ATOM      6  H5  UNL     1      19.828  14.726  15.117  1.00  0.00     0.203 HD
HETATM    7  C12 UNL     1      19.897  14.711  17.150  1.00  0.00     0.692 A 
HETATM    8  N7  UNL     1      20.561  15.092  18.242  1.00  0.00    -0.170 N 
ATOM      9  H7  UNL     1      20.222  14.854  19.175  1.00  0.00     0.186 HD
ENDROOT
BRANCH   4  10
HETATM   10  N2  UNL     1      21.941  16.062  14.427  1.00  0.00    -0.215 N 
HETATM   11  C4  UNL     1      22.383  15.075  13.462  1.00  0.00     0.143 C 
HETATM   12  C5  UNL     1      21.929  15.710  12.145  1.00  0.00     0.050 C 
HETATM   13  C6  UNL     1      22.259  17.146  12.381  1.00  0.00     0.064 C 
HETATM   14  C7  UNL     1      23.690  17.376  11.936  1.00  0.00     0.046 C 
HETATM   15  N4  UNL     1      21.533  18.051  11.522  1.00  0.00    -0.153 NA
HETATM   16  C11 UNL     1      22.048  17.387  13.834  1.00  0.00     0.169 C 
HETATM   17  C8  UNL     1      23.471  17.553  10.427  1.00  0.00     0.111 C 
HETATM   18  N3  UNL     1      22.060  17.761  10.270  1.00  0.00    -0.232 NA
BRANCH  18  19
HETATM   19  C9  UNL     1      21.763  18.788   9.292  1.00  0.00     0.135 C 
BRANCH  19  20
HETATM   20  C10 UNL     1      22.572  18.576   8.049  1.00  0.00     0.180 C 
BRANCH  20  21
HETATM   21  O1  UNL     1      22.245  19.516   7.085  1.00  0.00    -0.400 OA
ATOM     22  H1  UNL     1      22.985  20.085   6.906  1.00  0.00     0.209 HD
ENDBRANCH  20  21
ENDBRANCH  19  20
ENDBRANCH  18  19
ENDBRANCH   4  10
BRANCH   1  23
HETATM   23  S1  UNL     1      22.660  16.360  19.470  1.00  0.00    -0.097 SA
HETATM   24  C1  UNL     1      23.426  17.962  19.175  1.00  0.00     0.099 C 
ENDBRANCH   1  23
BRANCH   7  25
HETATM   25  N6  UNL     1      18.804  14.027  17.271  1.00  0.00    -0.234 N 
ATOM     26  H62 UNL     1      18.092  14.079  16.541  1.00  0.00     0.174 HD
ATOM     27  H61 UNL     1      18.656  13.441  18.092  1.00  0.00     0.174 HD
ENDBRANCH   7  25
TORSDOF 6
ENDMDL
MODEL 2
REMARK VINA RESULT: -6.464286649      4.230      7.881
REMARK  6 active torsions:
REMARK  status: ('A' for Active; 'I' for Inactive)
REMARK    1  A    between atoms: S1_2  and  C2_3 
REMARK    2  A    between atoms: C3_6  and  N2_7 
REMARK    3  A    between atoms: N3_13  and  C9_14 
REMARK    4  A    between atoms: C9_14  and  C10_15 
REMARK    5  A    between atoms: C10_15  and  O1_16 
REMARK    6  A    between atoms: C12_22  and  N6_23 
ROOT
HETATM    1  C2  UNL     1      22.890  17.681  10.944  1.00  0.00     0.174 A 
HETATM    2  N1  UNL     1      22.559  17.472  12.226  1.00  0.00    -0.169 N 
ATOM      3  H1  UNL     1      21.613  17.686  12.541  1.00  0.00     0.186 HD
HETATM    4  C3  UNL     1      23.455  16.982  13.110  1.00  0.00     0.696 A 
HETATM    5  N5  UNL     1      24.682  16.719  12.631  1.00  0.00    -0.022 N 
ATOM      6  H5  UNL     1      25.383  16.346  13.271  1.00  0.00     0.203 HD
HETATM    7  C12 UNL     1      25.030  16.924  11.353  1.00  0.00     0.692 A 
HETATM    8  N7  UNL     1      24.141  17.408  10.484  1.00  0.00    -0.170 N 
ATOM      9  H7  UNL     1      24.392  17.569   9.508  1.00  0.00     0.186 HD
ENDROOT
BRANCH   4  10
HETATM   10  N2  UNL     1      23.123  16.752  14.476  1.00  0.00    -0.215 N 
HETATM   11  C4  UNL     1      24.014  17.043  15.581  1.00  0.00     0.143 C 
HETATM   12  C5  UNL     1      23.023  17.460  16.672  1.00  0.00     0.050 C 
HETATM   13  C6  UNL     1      21.922  16.475  16.462  1.00  0.00     0.064 C 
HETATM   14  C7  UNL     1      22.233  15.244  17.292  1.00  0.00     0.046 C 
HETATM   15  N4  UNL     1      20.660  16.897  17.020  1.00  0.00    -0.153 NA
HETATM   16  C11 UNL     1      21.880  16.204  14.999  1.00  0.00     0.169 C 
HETATM   17  C8  UNL     1      21.713  15.711  18.658  1.00  0.00     0.111 C 
HETATM   18  N3  UNL     1      20.913  16.870  18.385  1.00  0.00    -0.232 NA
BRANCH  18  19
HETATM   19  C9  UNL     1      19.698  16.896  19.175  1.00  0.00     0.135 C 
BRANCH  19  20
HETATM   20  C10 UNL     1      19.608  18.175  19.951  1.00  0.00     0.180 C 
BRANCH  20  21
HETATM   21  O1  UNL     1      18.298  18.427  20.328  1.00  0.00    -0.400 OA
ATOM     22  H1  UNL     1      18.259  19.152  20.940  1.00  0.00     0.209 HD
ENDBRANCH  20  21
ENDBRANCH  19  20
ENDBRANCH  18  19
ENDBRANCH   4  10
BRANCH   1  23
HETATM   23  S1  UNL     1      21.636  18.332   9.858  1.00  0.00    -0.097 SA
HETATM   24  C1  UNL     1      22.275  18.657   8.207  1.00  0.00     0.099 C 
ENDBRANCH   1  23
BRANCH   7  25
HETATM   25  N6  UNL     1      26.231  16.650  10.955  1.00  0.00    -0.234 N 
ATOM     26  H62 UNL     1      26.987  16.585  11.637  1.00  0.00     0.174 HD
ATOM     27  H61 UNL     1      26.420  16.500   9.964  1.00  0.00     0.174 HD
ENDBRANCH   7  25
TORSDOF 6
ENDMDL
MODEL 3
REMARK VINA RESULT: -6.347414215      4.014      7.918
REMARK  6 active torsions:
REMARK  status: ('A' for Active; 'I' for Inactive)
REMARK    1  A    between atoms: S1_2  and  C2_3 
REMARK    2  A    between atoms: C3_6  and  N2_7 
REMARK    3  A    between atoms: N3_13  and  C9_14 
REMARK    4  A    between atoms: C9_14  and  C10_15 
REMARK    5  A    between atoms: C10_15  and  O1_16 
REMARK    6  A    between atoms: C12_22  and  N6_23 
ROOT
HETATM    1  C2  UNL     1      22.881  17.822   9.927  1.00  0.00     0.174 A 
HETATM    2  N1  UNL     1      22.299  17.552  11.104  1.00  0.00    -0.169 N 
ATOM      3  H1  UNL     1      21.282  17.516  11.164  1.00  0.00     0.186 HD
HETATM    4  C3  UNL     1      23.035  17.325  12.214  1.00  0.00     0.696 A 
HETATM    5  N5  UNL     1      24.369  17.385  12.067  1.00  0.00    -0.022 N 
ATOM      6  H5  UNL     1      24.955  17.217  12.884  1.00  0.00     0.203 HD
HETATM    7  C12 UNL     1      24.966  17.655  10.897  1.00  0.00     0.692 A 
HETATM    8  N7  UNL     1      24.235  17.878   9.805  1.00  0.00    -0.170 N 
ATOM      9  H7  UNL     1      24.676  18.085   8.908  1.00  0.00     0.186 HD
ENDROOT
BRANCH   4  10
HETATM   10  N2  UNL     1      22.436  17.036  13.473  1.00  0.00    -0.215 N 
HETATM   11  C4  UNL     1      21.279  16.179  13.636  1.00  0.00     0.143 C 
HETATM   12  C5  UNL     1      21.568  15.529  14.992  1.00  0.00     0.050 C 
HETATM   13  C6  UNL     1      22.117  16.684  15.761  1.00  0.00     0.064 C 
HETATM   14  C7  UNL     1      20.954  17.403  16.416  1.00  0.00     0.046 C 
HETATM   15  N4  UNL     1      22.903  16.290  16.906  1.00  0.00    -0.153 NA
HETATM   16  C11 UNL     1      22.853  17.525  14.779  1.00  0.00     0.169 C 
HETATM   17  C8  UNL     1      20.761  16.519  17.655  1.00  0.00     0.111 C 
HETATM   18  N3  UNL     1      21.950  15.720  17.741  1.00  0.00    -0.232 NA
BRANCH  18  19
HETATM   19  C9  UNL     1      22.420  15.581  19.104  1.00  0.00     0.135 C 
BRANCH  19  20
HETATM   20  C10 UNL     1      22.595  16.928  19.737  1.00  0.00     0.180 C 
BRANCH  20  21
HETATM   21  O1  UNL     1      23.849  17.445  19.448  1.00  0.00    -0.400 OA
ATOM     22  H1  UNL     1      24.025  18.213  19.978  1.00  0.00     0.209 HD
ENDBRANCH  20  21
ENDBRANCH  19  20
ENDBRANCH  18  19
ENDBRANCH   4  10
BRANCH   1  23
HETATM   23  S1  UNL     1      21.821  18.107   8.522  1.00  0.00    -0.097 SA
HETATM   24  C1  UNL     1      22.500  19.342   7.403  1.00  0.00     0.099 C 
ENDBRANCH   1  23
BRANCH   7  25
HETATM   25  N6  UNL     1      26.258  17.699  10.824  1.00  0.00    -0.234 N 
ATOM     26  H62 UNL     1      26.803  17.949  11.649  1.00  0.00     0.174 HD
ATOM     27  H61 UNL     1      26.728  17.483   9.944  1.00  0.00     0.174 HD
ENDBRANCH   7  25
TORSDOF 6
ENDMDL
MODEL 4
REMARK VINA RESULT: -6.282888238      1.281      1.312
REMARK  6 active torsions:
REMARK  status: ('A' for Active; 'I' for Inactive)
REMARK    1  A    between atoms: S1_2  and  C2_3 
REMARK    2  A    between atoms: C3_6  and  N2_7 
REMARK    3  A    between atoms: N3_13  and  C9_14 
REMARK    4  A    between atoms: C9_14  and  C10_15 
REMARK    5  A    between atoms: C10_15  and  O1_16 
REMARK    6  A    between atoms: C12_22  and  N6_23 
ROOT
HETATM    1  C2  UNL     1      20.803  16.516  17.965  1.00  0.00     0.174 A 
HETATM    2  N1  UNL     1      21.524  16.725  16.854  1.00  0.00    -0.169 N 
ATOM      3  H1  UNL     1      22.229  17.462  16.845  1.00  0.00     0.186 HD
HETATM    4  C3  UNL     1      21.334  15.979  15.745  1.00  0.00     0.696 A 
HETATM    5  N5  UNL     1      20.392  15.025  15.823  1.00  0.00    -0.022 N 
ATOM      6  H5  UNL     1      20.224  14.441  15.004  1.00  0.00     0.203 HD
HETATM    7  C12 UNL     1      19.663  14.803  16.926  1.00  0.00     0.692 A 
HETATM    8  N7  UNL     1      19.854  15.544  18.018  1.00  0.00    -0.170 N 
ATOM      9  H7  UNL     1      19.306  15.386  18.864  1.00  0.00     0.186 HD
ENDROOT
BRANCH   4  10
HETATM   10  N2  UNL     1      22.089  16.185  14.555  1.00  0.00    -0.215 N 
HETATM   11  C4  UNL     1      22.582  15.109  13.717  1.00  0.00     0.143 C 
HETATM   12  C5  UNL     1      22.497  15.743  12.325  1.00  0.00     0.050 C 
HETATM   13  C6  UNL     1      22.962  17.132  12.605  1.00  0.00     0.064 C 
HETATM   14  C7  UNL     1      24.471  17.157  12.464  1.00  0.00     0.046 C 
HETATM   15  N4  UNL     1      22.556  18.086  11.601  1.00  0.00    -0.153 NA
HETATM   16  C11 UNL     1      22.493  17.460  13.978  1.00  0.00     0.169 C 
HETATM   17  C8  UNL     1      24.591  17.298  10.940  1.00  0.00     0.111 C 
HETATM   18  N3  UNL     1      23.283  17.679  10.490  1.00  0.00    -0.232 NA
BRANCH  18  19
HETATM   19  C9  UNL     1      23.333  18.694   9.457  1.00  0.00     0.135 C 
BRANCH  19  20
HETATM   20  C10 UNL     1      22.390  18.353   8.344  1.00  0.00     0.180 C 
BRANCH  20  21
HETATM   21  O1  UNL     1      21.089  18.692   8.682  1.00  0.00    -0.400 OA
ATOM     22  H1  UNL     1      20.720  19.287   8.041  1.00  0.00     0.209 HD
ENDBRANCH  20  21
ENDBRANCH  19  20
ENDBRANCH  18  19
ENDBRANCH   4  10
BRANCH   1  23
HETATM   23  S1  UNL     1      21.130  17.556  19.375  1.00  0.00    -0.097 SA
HETATM   24  C1  UNL     1      19.614  18.111  20.171  1.00  0.00     0.099 C 
ENDBRANCH   1  23
BRANCH   7  25
HETATM   25  N6  UNL     1      18.768  13.866  16.935  1.00  0.00    -0.234 N 
ATOM     26  H62 UNL     1      17.789  14.104  17.095  1.00  0.00     0.174 HD
ATOM     27  H61 UNL     1      19.043  12.896  16.782  1.00  0.00     0.174 HD
ENDBRANCH   7  25
TORSDOF 6
ENDMDL
MODEL 5
REMARK VINA RESULT: -6.077486527      4.213      7.964
REMARK  6 active torsions:
REMARK  status: ('A' for Active; 'I' for Inactive)
REMARK    1  A    between atoms: S1_2  and  C2_3 
REMARK    2  A    between atoms: C3_6  and  N2_7 
REMARK    3  A    between atoms: N3_13  and  C9_14 
REMARK    4  A    between atoms: C9_14  and  C10_15 
REMARK    5  A    between atoms: C10_15  and  O1_16 
REMARK    6  A    between atoms: C12_22  and  N6_23 
ROOT
HETATM    1  C2  UNL     1      23.081  17.923  10.262  1.00  0.00     0.174 A 
HETATM    2  N1  UNL     1      22.795  17.531  11.512  1.00  0.00    -0.169 N 
ATOM      3  H1  UNL     1      21.821  17.416  11.790  1.00  0.00     0.186 HD
HETATM    4  C3  UNL     1      23.773  17.285  12.411  1.00  0.00     0.696 A 
HETATM    5  N5  UNL     1      25.034  17.453  11.980  1.00  0.00    -0.022 N 
ATOM      6  H5  UNL     1      25.797  17.274  12.633  1.00  0.00     0.203 HD
HETATM    7  C12 UNL     1      25.337  17.844  10.734  1.00  0.00     0.692 A 
HETATM    8  N7  UNL     1      24.368  18.087   9.851  1.00  0.00    -0.170 N 
ATOM      9  H7  UNL     1      24.584  18.386   8.900  1.00  0.00     0.186 HD
ENDROOT
BRANCH   4  10
HETATM   10  N2  UNL     1      23.489  16.867  13.742  1.00  0.00    -0.215 N 
HETATM   11  C4  UNL     1      24.417  16.117  14.566  1.00  0.00     0.143 C 
HETATM   12  C5  UNL     1      24.095  16.661  15.961  1.00  0.00     0.050 C 
HETATM   13  C6  UNL     1      22.607  16.758  15.904  1.00  0.00     0.064 C 
HETATM   14  C7  UNL     1      22.035  15.427  16.351  1.00  0.00     0.046 C 
HETATM   15  N4  UNL     1      22.053  17.662  16.884  1.00  0.00    -0.153 NA
HETATM   16  C11 UNL     1      22.267  17.104  14.498  1.00  0.00     0.169 C 
HETATM   17  C8  UNL     1      22.106  15.608  17.874  1.00  0.00     0.111 C 
HETATM   18  N3  UNL     1      22.326  17.011  18.079  1.00  0.00    -0.232 NA
BRANCH  18  19
HETATM   19  C9  UNL     1      21.548  17.532  19.185  1.00  0.00     0.135 C 
BRANCH  19  20
HETATM   20  C10 UNL     1      20.084  17.434  18.885  1.00  0.00     0.180 C 
BRANCH  20  21
HETATM   21  O1  UNL     1      19.375  17.059  20.016  1.00  0.00    -0.400 OA
ATOM     22  H1  UNL     1      18.592  17.587  20.111  1.00  0.00     0.209 HD
ENDBRANCH  20  21
ENDBRANCH  19  20
ENDBRANCH  18  19
ENDBRANCH   4  10
BRANCH   1  23
HETATM   23  S1  UNL     1      21.719  18.223   9.153  1.00  0.00    -0.097 SA
HETATM   24  C1  UNL     1      22.250  19.029   7.634  1.00  0.00     0.099 C 
ENDBRANCH   1  23
BRANCH   7  25
HETATM   25  N6  UNL     1      26.575  17.988  10.383  1.00  0.00    -0.234 N 
ATOM     26  H62 UNL     1      26.812  18.089   9.396  1.00  0.00     0.174 HD
ATOM     27  H61 UNL     1      27.309  18.000  11.091  1.00  0.00     0.174 HD
ENDBRANCH   7  25
TORSDOF 6
ENDMDL
