MODEL 1
REMARK VINA RESULT: -5.176270123      0.000      0.000
REMARK  6 active torsions:
REMARK  status: ('A' for Active; 'I' for Inactive)
REMARK    1  A    between atoms: C2_2  and  O1_3 
REMARK    2  A    between atoms: O1_3  and  C3_4 
REMARK    3  A    between atoms: C3_4  and  N1_5 
REMARK    4  A    between atoms: C5_12  and  N4_13 
REMARK    5  A    between atoms: C8_18  and  O2_19 
REMARK    6  A    between atoms: C9_21  and  O3_22 
ROOT
HETATM    1  N4  UNL     1      19.099  16.018  14.016  1.00  0.00    -0.278 N 
ATOM      2  H4  UNL     1      18.797  15.928  14.986  1.00  0.00     0.179 HD
HETATM    3  C6  UNL     1      18.163  15.801  13.023  1.00  0.00     0.183 C 
HETATM    4  N5  UNL     1      17.379  15.636  12.189  1.00  0.00    -0.172 NA
ENDROOT
BRANCH   1   5
HETATM    5  C5  UNL     1      20.315  16.325  13.794  1.00  0.00     0.145 A 
HETATM    6  N3  UNL     1      20.677  16.620  12.536  1.00  0.00    -0.175 N 
HETATM    7  C4  UNL     1      21.935  16.944  12.259  1.00  0.00     0.682 A 
ATOM      8  H3  UNL     1      19.984  16.595  11.788  1.00  0.00     0.186 HD
HETATM    9  N1  UNL     1      22.931  17.003  13.198  1.00  0.00    -0.155 N 
HETATM   10  N2  UNL     1      22.308  17.239  11.043  1.00  0.00    -0.234 N 
HETATM   11  C13 UNL     1      22.574  16.707  14.477  1.00  0.00     0.139 A 
HETATM   12  C7  UNL     1      21.244  16.359  14.794  1.00  0.00     0.080 A 
HETATM   13  C12 UNL     1      23.515  16.749  15.483  1.00  0.00     0.278 A 
HETATM   14  C8  UNL     1      20.937  16.072  16.108  1.00  0.00     0.134 A 
HETATM   15  C9  UNL     1      21.944  16.129  17.107  1.00  0.00     0.181 A 
HETATM   16  N6  UNL     1      23.168  16.460  16.754  1.00  0.00    -0.295 N 
HETATM   17  C11 UNL     1      24.236  16.531  17.761  1.00  0.00     0.162 C 
HETATM   18  O4  UNL     1      24.693  17.056  15.218  1.00  0.00    -0.265 OA
ATOM     19  H22 UNL     1      23.274  17.488  10.830  1.00  0.00     0.174 HD
ATOM     20  H21 UNL     1      21.567  17.195  10.343  1.00  0.00     0.174 HD
BRANCH   9  21
HETATM   21  C3  UNL     1      24.261  17.353  12.845  1.00  0.00     0.324 C 
BRANCH  21  22
HETATM   22  O1  UNL     1      24.893  16.451  11.957  1.00  0.00    -0.344 OA
BRANCH  22  23
HETATM   23  C2  UNL     1      25.651  16.809  10.869  1.00  0.00     0.126 C 
HETATM   24  C1  UNL     1      25.666  18.062  10.480  1.00  0.00     0.037 C 
ENDBRANCH  22  23
ENDBRANCH  21  22
ENDBRANCH   9  21
BRANCH  14  25
HETATM   25  O2  UNL     1      19.710  15.732  16.511  1.00  0.00    -0.356 OA
ATOM     26  H2  UNL     1      19.411  15.841  17.406  1.00  0.00     0.218 HD
ENDBRANCH  14  25
BRANCH  15  27
HETATM   27  O3  UNL     1      21.641  15.848  18.395  1.00  0.00    -0.338 OA
HETATM   28  C10 UNL     1      21.122  16.662  19.390  1.00  0.00     0.211 C 
ENDBRANCH  15  27
ENDBRANCH   1   5
TORSDOF 6
ENDMDL
MODEL 2
REMARK VINA RESULT: -5.008020179      1.820      5.250
REMARK  6 active torsions:
REMARK  status: ('A' for Active; 'I' for Inactive)
REMARK    1  A    between atoms: C2_2  and  O1_3 
REMARK    2  A    between atoms: O1_3  and  C3_4 
REMARK    3  A    between atoms: C3_4  and  N1_5 
REMARK    4  A    between atoms: C5_12  and  N4_13 
REMARK    5  A    between atoms: C8_18  and  O2_19 
REMARK    6  A    between atoms: C9_21  and  O3_22 
ROOT
HETATM    1  N4  UNL     1      19.542  16.312  12.146  1.00  0.00    -0.278 N 
ATOM      2  H4  UNL     1      19.665  16.556  11.163  1.00  0.00     0.179 HD
HETATM    3  C6  UNL     1      18.272  15.977  12.577  1.00  0.00     0.183 C 
HETATM    4  N5  UNL     1      17.215  15.681  12.938  1.00  0.00    -0.172 NA
ENDROOT
BRANCH   1   5
HETATM    5  C5  UNL     1      20.568  16.333  12.900  1.00  0.00     0.145 A 
HETATM    6  N3  UNL     1      20.433  15.919  14.170  1.00  0.00    -0.175 N 
HETATM    7  C4  UNL     1      21.476  15.926  14.991  1.00  0.00     0.682 A 
ATOM      8  H3  UNL     1      19.525  15.599  14.506  1.00  0.00     0.186 HD
HETATM    9  N1  UNL     1      22.731  16.338  14.626  1.00  0.00    -0.155 N 
HETATM   10  N2  UNL     1      21.368  15.523  16.229  1.00  0.00    -0.234 N 
HETATM   11  C13 UNL     1      22.879  16.758  13.340  1.00  0.00     0.139 A 
HETATM   12  C7  UNL     1      21.785  16.761  12.451  1.00  0.00     0.080 A 
HETATM   13  C12 UNL     1      24.110  17.183  12.892  1.00  0.00     0.278 A 
HETATM   14  C8  UNL     1      21.993  17.194  11.157  1.00  0.00     0.134 A 
HETATM   15  C9  UNL     1      23.280  17.622  10.745  1.00  0.00     0.181 A 
HETATM   16  N6  UNL     1      24.266  17.598  11.618  1.00  0.00    -0.295 N 
HETATM   17  C11 UNL     1      25.613  18.033  11.225  1.00  0.00     0.162 C 
HETATM   18  O4  UNL     1      25.086  17.185  13.666  1.00  0.00    -0.265 OA
ATOM     19  H22 UNL     1      22.170  15.528  16.860  1.00  0.00     0.174 HD
ATOM     20  H21 UNL     1      20.434  15.216  16.501  1.00  0.00     0.174 HD
BRANCH   9  21
HETATM   21  C3  UNL     1      23.811  16.326  15.548  1.00  0.00     0.324 C 
BRANCH  21  22
HETATM   22  O1  UNL     1      23.628  17.152  16.683  1.00  0.00    -0.344 OA
BRANCH  22  23
HETATM   23  C2  UNL     1      23.833  16.767  17.985  1.00  0.00     0.126 C 
HETATM   24  C1  UNL     1      23.151  17.349  18.943  1.00  0.00     0.037 C 
ENDBRANCH  22  23
ENDBRANCH  21  22
ENDBRANCH   9  21
BRANCH  14  25
HETATM   25  O2  UNL     1      21.023  17.235  10.239  1.00  0.00    -0.356 OA
ATOM     26  H2  UNL     1      21.001  17.876   9.539  1.00  0.00     0.218 HD
ENDBRANCH  14  25
BRANCH  15  27
HETATM   27  O3  UNL     1      23.483  18.045   9.476  1.00  0.00    -0.338 OA
HETATM   28  C10 UNL     1      22.675  18.806   8.646  1.00  0.00     0.211 C 
ENDBRANCH  15  27
ENDBRANCH   1   5
TORSDOF 6
ENDMDL
MODEL 3
REMARK VINA RESULT: -4.568335214      1.587      4.971
REMARK  6 active torsions:
REMARK  status: ('A' for Active; 'I' for Inactive)
REMARK    1  A    between atoms: C2_2  and  O1_3 
REMARK    2  A    between atoms: O1_3  and  C3_4 
REMARK    3  A    between atoms: C3_4  and  N1_5 
REMARK    4  A    between atoms: C5_12  and  N4_13 
REMARK    5  A    between atoms: C8_18  and  O2_19 
REMARK    6  A    between atoms: C9_21  and  O3_22 
ROOT
HETATM    1  N4  UNL     1      19.564  16.382  13.177  1.00  0.00    -0.278 N 
ATOM      2  H4  UNL     1      20.037  16.814  12.384  1.00  0.00     0.179 HD
HETATM    3  C6  UNL     1      18.222  16.077  13.045  1.00  0.00     0.183 C 
HETATM    4  N5  UNL     1      17.104  15.805  12.933  1.00  0.00    -0.172 NA
ENDROOT
BRANCH   1   5
HETATM    5  C5  UNL     1      20.245  16.158  14.229  1.00  0.00     0.145 A 
HETATM    6  N3  UNL     1      19.613  15.656  15.302  1.00  0.00    -0.175 N 
HETATM    7  C4  UNL     1      20.284  15.408  16.421  1.00  0.00     0.682 A 
ATOM      8  H3  UNL     1      18.612  15.466  15.259  1.00  0.00     0.186 HD
HETATM    9  N1  UNL     1      21.627  15.632  16.568  1.00  0.00    -0.155 N 
HETATM   10  N2  UNL     1      19.689  14.916  17.474  1.00  0.00    -0.234 N 
HETATM   11  C13 UNL     1      22.279  16.138  15.486  1.00  0.00     0.139 A 
HETATM   12  C7  UNL     1      21.586  16.412  14.288  1.00  0.00     0.080 A 
HETATM   13  C12 UNL     1      23.632  16.387  15.550  1.00  0.00     0.278 A 
HETATM   14  C8  UNL     1      22.297  16.921  13.221  1.00  0.00     0.134 A 
HETATM   15  C9  UNL     1      23.690  17.159  13.339  1.00  0.00     0.181 A 
HETATM   16  N6  UNL     1      24.286  16.885  14.481  1.00  0.00    -0.295 N 
HETATM   17  C11 UNL     1      25.728  17.118  14.638  1.00  0.00     0.162 C 
HETATM   18  O4  UNL     1      24.258  16.149  16.601  1.00  0.00    -0.265 OA
ATOM     19  H22 UNL     1      20.205  14.725  18.333  1.00  0.00     0.174 HD
ATOM     20  H21 UNL     1      18.689  14.749  17.365  1.00  0.00     0.174 HD
BRANCH   9  21
HETATM   21  C3  UNL     1      22.294  15.349  17.789  1.00  0.00     0.324 C 
BRANCH  21  22
HETATM   22  O1  UNL     1      21.773  16.026  18.918  1.00  0.00    -0.344 OA
BRANCH  22  23
HETATM   23  C2  UNL     1      21.945  17.362  19.190  1.00  0.00     0.126 C 
HETATM   24  C1  UNL     1      23.157  17.861  19.215  1.00  0.00     0.037 C 
ENDBRANCH  22  23
ENDBRANCH  21  22
ENDBRANCH   9  21
BRANCH  14  25
HETATM   25  O2  UNL     1      21.734  17.212  12.045  1.00  0.00    -0.356 OA
ATOM     26  H2  UNL     1      20.944  17.732  11.965  1.00  0.00     0.218 HD
ENDBRANCH  14  25
BRANCH  15  27
HETATM   27  O3  UNL     1      24.386  17.658  12.292  1.00  0.00    -0.338 OA
HETATM   28  C10 UNL     1      24.941  17.013  11.198  1.00  0.00     0.211 C 
ENDBRANCH  15  27
ENDBRANCH   1   5
TORSDOF 6
ENDMDL
MODEL 4
REMARK VINA RESULT: -4.480047158      2.124      5.209
REMARK  6 active torsions:
REMARK  status: ('A' for Active; 'I' for Inactive)
REMARK    1  A    between atoms: C2_2  and  O1_3 
REMARK    2  A    between atoms: O1_3  and  C3_4 
REMARK    3  A    between atoms: C3_4  and  N1_5 
REMARK    4  A    between atoms: C5_12  and  N4_13 
REMARK    5  A    between atoms: C8_18  and  O2_19 
REMARK    6  A    between atoms: C9_21  and  O3_22 
ROOT
HETATM    1  N4  UNL     1      19.228  14.727  15.889  1.00  0.00    -0.278 N 
ATOM      2  H4  UNL     1      18.870  15.154  15.035  1.00  0.00     0.179 HD
HETATM    3  C6  UNL     1      18.429  13.801  16.535  1.00  0.00     0.183 C 
HETATM    4  N5  UNL     1      17.772  13.015  17.069  1.00  0.00    -0.172 NA
ENDROOT
BRANCH   1   5
HETATM    5  C5  UNL     1      20.382  15.077  16.295  1.00  0.00     0.145 A 
HETATM    6  N3  UNL     1      20.698  14.860  17.582  1.00  0.00    -0.175 N 
HETATM    7  C4  UNL     1      21.891  15.211  18.048  1.00  0.00     0.682 A 
ATOM      8  H3  UNL     1      20.018  14.424  18.204  1.00  0.00     0.186 HD
HETATM    9  N1  UNL     1      22.863  15.801  17.285  1.00  0.00    -0.155 N 
HETATM   10  N2  UNL     1      22.220  15.005  19.295  1.00  0.00    -0.234 N 
HETATM   11  C13 UNL     1      22.555  16.025  15.978  1.00  0.00     0.139 A 
HETATM   12  C7  UNL     1      21.294  15.661  15.461  1.00  0.00     0.080 A 
HETATM   13  C12 UNL     1      23.480  16.608  15.141  1.00  0.00     0.278 A 
HETATM   14  C8  UNL     1      21.036  15.907  14.129  1.00  0.00     0.134 A 
HETATM   15  C9  UNL     1      22.023  16.511  13.309  1.00  0.00     0.181 A 
HETATM   16  N6  UNL     1      23.183  16.829  13.844  1.00  0.00    -0.295 N 
HETATM   17  C11 UNL     1      24.230  17.456  13.025  1.00  0.00     0.162 C 
HETATM   18  O4  UNL     1      24.599  16.933  15.583  1.00  0.00    -0.265 OA
ATOM     19  H22 UNL     1      23.136  15.275  19.653  1.00  0.00     0.174 HD
ATOM     20  H21 UNL     1      21.496  14.566  19.863  1.00  0.00     0.174 HD
BRANCH   9  21
HETATM   21  C3  UNL     1      24.122  16.158  17.837  1.00  0.00     0.324 C 
BRANCH  21  22
HETATM   22  O1  UNL     1      24.056  17.081  18.908  1.00  0.00    -0.344 OA
BRANCH  22  23
HETATM   23  C2  UNL     1      23.381  18.277  18.883  1.00  0.00     0.126 C 
HETATM   24  C1  UNL     1      22.129  18.317  19.271  1.00  0.00     0.037 C 
ENDBRANCH  22  23
ENDBRANCH  21  22
ENDBRANCH   9  21
BRANCH  14  25
HETATM   25  O2  UNL     1      19.874  15.601  13.544  1.00  0.00    -0.356 OA
ATOM     26  H2  UNL     1      19.722  14.778  13.095  1.00  0.00     0.218 HD
ENDBRANCH  14  25
BRANCH  15  27
HETATM   27  O3  UNL     1      21.769  16.751  12.002  1.00  0.00    -0.338 OA
HETATM   28  C10 UNL     1      21.227  17.869  11.386  1.00  0.00     0.211 C 
ENDBRANCH  15  27
ENDBRANCH   1   5
TORSDOF 6
ENDMDL
MODEL 5
REMARK VINA RESULT: -3.898318639      2.019      2.964
REMARK  6 active torsions:
REMARK  status: ('A' for Active; 'I' for Inactive)
REMARK    1  A    between atoms: C2_2  and  O1_3 
REMARK    2  A    between atoms: O1_3  and  C3_4 
REMARK    3  A    between atoms: C3_4  and  N1_5 
REMARK    4  A    between atoms: C5_12  and  N4_13 
REMARK    5  A    between atoms: C8_18  and  O2_19 
REMARK    6  A    between atoms: C9_21  and  O3_22 
ROOT
HETATM    1  N4  UNL     1      19.548  15.388  16.599  1.00  0.00    -0.278 N 
ATOM      2  H4  UNL     1      19.605  16.064  17.361  1.00  0.00     0.179 HD
HETATM    3  C6  UNL     1      18.919  14.183  16.847  1.00  0.00     0.183 C 
HETATM    4  N5  UNL     1      18.378  13.180  17.045  1.00  0.00    -0.172 NA
ENDROOT
BRANCH   1   5
HETATM    5  C5  UNL     1      20.062  15.706  15.479  1.00  0.00     0.145 A 
HETATM    6  N3  UNL     1      19.269  15.717  14.395  1.00  0.00    -0.175 N 
HETATM    7  C4  UNL     1      19.764  16.042  13.206  1.00  0.00     0.682 A 
ATOM      8  H3  UNL     1      18.283  15.476  14.485  1.00  0.00     0.186 HD
HETATM    9  N1  UNL     1      21.074  16.380  12.992  1.00  0.00    -0.155 N 
HETATM   10  N2  UNL     1      19.009  16.064  12.140  1.00  0.00    -0.234 N 
HETATM   11  C13 UNL     1      21.887  16.373  14.084  1.00  0.00     0.139 A 
HETATM   12  C7  UNL     1      21.384  16.030  15.357  1.00  0.00     0.080 A 
HETATM   13  C12 UNL     1      23.216  16.707  13.956  1.00  0.00     0.278 A 
HETATM   14  C8  UNL     1      22.251  16.043  16.429  1.00  0.00     0.134 A 
HETATM   15  C9  UNL     1      23.613  16.394  16.244  1.00  0.00     0.181 A 
HETATM   16  N6  UNL     1      24.027  16.705  15.033  1.00  0.00    -0.295 N 
HETATM   17  C11 UNL     1      25.431  17.075  14.804  1.00  0.00     0.162 C 
HETATM   18  O4  UNL     1      23.675  17.013  12.838  1.00  0.00    -0.265 OA
ATOM     19  H22 UNL     1      19.389  16.313  11.227  1.00  0.00     0.174 HD
ATOM     20  H21 UNL     1      18.034  15.812  12.299  1.00  0.00     0.174 HD
BRANCH   9  21
HETATM   21  C3  UNL     1      21.549  16.716  11.697  1.00  0.00     0.324 C 
BRANCH  21  22
HETATM   22  O1  UNL     1      21.063  17.946  11.192  1.00  0.00    -0.344 OA
BRANCH  22  23
HETATM   23  C2  UNL     1      21.594  18.630  10.125  1.00  0.00     0.126 C 
HETATM   24  C1  UNL     1      22.596  18.105   9.460  1.00  0.00     0.037 C 
ENDBRANCH  22  23
ENDBRANCH  21  22
ENDBRANCH   9  21
BRANCH  14  25
HETATM   25  O2  UNL     1      21.874  15.735  17.673  1.00  0.00    -0.356 OA
ATOM     26  H2  UNL     1      22.054  14.894  18.075  1.00  0.00     0.218 HD
ENDBRANCH  14  25
BRANCH  15  27
HETATM   27  O3  UNL     1      24.462  16.407  17.296  1.00  0.00    -0.338 OA
HETATM   28  C10 UNL     1      24.227  16.693  18.632  1.00  0.00     0.211 C 
ENDBRANCH  15  27
ENDBRANCH   1   5
TORSDOF 6
ENDMDL
