MODEL 1
REMARK VINA RESULT: -7.269806685      0.000      0.000
REMARK  5 active torsions:
REMARK  status: ('A' for Active; 'I' for Inactive)
REMARK    1  A    between atoms: N2_6  and  C4_8 
REMARK    2  A    between atoms: C10_20  and  N7_21 
REMARK    3  A    between atoms: N7_21  and  C11_23 
REMARK    4  A    between atoms: C11_23  and  C12_24 
REMARK    5  A    between atoms: C12_24  and  O1_26 
ROOT
HETATM    1  C1  UNL     1      53.037  37.902 167.512  1.00  0.00     0.089 C 
HETATM    2  C2  UNL     1      53.622  39.113 166.879  1.00  0.00     0.095 A 
HETATM    3  N1  UNL     1      54.866  39.083 166.365  1.00  0.00    -0.179 N 
ATOM      4  H1  UNL     1      55.412  38.222 166.410  1.00  0.00     0.185 HD
HETATM    5  C3  UNL     1      55.392  40.181 165.793  1.00  0.00     0.703 A 
HETATM    6  N2  UNL     1      56.593  40.193 165.283  1.00  0.00    -0.220 N 
ATOM      7  H2  UNL     1      56.941  41.054 164.862  1.00  0.00     0.178 HD
HETATM    8  N3  UNL     1      54.716  41.347 165.705  1.00  0.00    -0.064 N 
HETATM    9  N4  UNL     1      55.258  42.417 165.136  1.00  0.00    -0.250 N 
ATOM     10  H4  UNL     1      56.205  42.347 164.762  1.00  0.00     0.191 HD
HETATM   11  C9  UNL     1      54.609  43.593 165.034  1.00  0.00     0.209 A 
HETATM   12  N5  UNL     1      55.189  44.735 164.425  1.00  0.00    -0.062 NA
HETATM   13  N6  UNL     1      53.360  43.647 165.543  1.00  0.00    -0.312 N 
ATOM     14  H6  UNL     1      52.839  44.522 165.483  1.00  0.00     0.170 HD
HETATM   15  C10 UNL     1      52.776  42.577 166.129  1.00  0.00     0.151 A 
HETATM   16  C14 UNL     1      53.474  41.374 166.220  1.00  0.00     0.191 A 
HETATM   17  N8  UNL     1      52.936  40.277 166.797  1.00  0.00    -0.327 N 
ATOM     18  H8  UNL     1      51.992  40.327 167.179  1.00  0.00     0.169 HD
ENDROOT
BRANCH   6  19
HETATM   19  C4  UNL     1      57.451  39.021 165.296  1.00  0.00     0.099 C 
HETATM   20  C5  UNL     1      58.431  39.058 164.144  1.00  0.00     0.026 C 
HETATM   21  C6  UNL     1      58.655  37.578 163.879  1.00  0.00     0.002 C 
HETATM   22  C7  UNL     1      57.268  37.014 163.952  1.00  0.00     0.002 C 
HETATM   23  C8  UNL     1      56.654  37.749 165.103  1.00  0.00     0.026 C 
ENDBRANCH   6  19
BRANCH  15  24
HETATM   24  N7  UNL     1      51.601  42.596 166.618  1.00  0.00    -0.371 N 
ATOM     25  H7  UNL     1      51.191  41.697 166.871  1.00  0.00     0.161 HD
BRANCH  24  26
HETATM   26  C11 UNL     1      50.798  43.764 166.846  1.00  0.00     0.152 C 
BRANCH  26  27
HETATM   27  C12 UNL     1      51.294  44.498 168.077  1.00  0.00     0.132 C 
HETATM   28  C13 UNL     1      51.952  43.536 169.045  1.00  0.00     0.041 C 
BRANCH  27  29
HETATM   29  O1  UNL     1      52.220  45.468 167.756  1.00  0.00    -0.394 OA
ATOM     30  H1  UNL     1      52.901  45.537 168.414  1.00  0.00     0.210 HD
ENDBRANCH  27  29
ENDBRANCH  26  27
ENDBRANCH  24  26
ENDBRANCH  15  24
TORSDOF 5
ENDMDL
MODEL 2
REMARK VINA RESULT: -7.163001710      0.744      1.156
REMARK  5 active torsions:
REMARK  status: ('A' for Active; 'I' for Inactive)
REMARK    1  A    between atoms: N2_6  and  C4_8 
REMARK    2  A    between atoms: C10_20  and  N7_21 
REMARK    3  A    between atoms: N7_21  and  C11_23 
REMARK    4  A    between atoms: C11_23  and  C12_24 
REMARK    5  A    between atoms: C12_24  and  O1_26 
ROOT
HETATM    1  C1  UNL     1      52.905  37.939 167.467  1.00  0.00     0.089 C 
HETATM    2  C2  UNL     1      53.490  39.166 166.866  1.00  0.00     0.095 A 
HETATM    3  N1  UNL     1      54.744  39.157 166.376  1.00  0.00    -0.179 N 
ATOM      4  H1  UNL     1      55.298  38.301 166.417  1.00  0.00     0.185 HD
HETATM    5  C3  UNL     1      55.269  40.269 165.832  1.00  0.00     0.703 A 
HETATM    6  N2  UNL     1      56.480  40.302 165.345  1.00  0.00    -0.220 N 
ATOM      7  H2  UNL     1      56.827  41.173 164.945  1.00  0.00     0.178 HD
HETATM    8  N3  UNL     1      54.583  41.431 165.750  1.00  0.00    -0.064 N 
HETATM    9  N4  UNL     1      55.125  42.515 165.209  1.00  0.00    -0.250 N 
ATOM     10  H4  UNL     1      56.079  42.460 164.852  1.00  0.00     0.191 HD
HETATM   11  C9  UNL     1      54.466  43.685 165.114  1.00  0.00     0.209 A 
HETATM   12  N5  UNL     1      55.045  44.843 164.536  1.00  0.00    -0.062 NA
HETATM   13  N6  UNL     1      53.207  43.719 165.600  1.00  0.00    -0.312 N 
ATOM     14  H6  UNL     1      52.679  44.590 165.544  1.00  0.00     0.170 HD
HETATM   15  C10 UNL     1      52.624  42.633 166.158  1.00  0.00     0.151 A 
HETATM   16  C14 UNL     1      53.331  41.436 166.242  1.00  0.00     0.191 A 
HETATM   17  N8  UNL     1      52.794  40.325 166.790  1.00  0.00    -0.327 N 
ATOM     18  H8  UNL     1      51.843  40.359 167.155  1.00  0.00     0.169 HD
ENDROOT
BRANCH   6  19
HETATM   19  C4  UNL     1      57.349  39.138 165.355  1.00  0.00     0.099 C 
HETATM   20  C5  UNL     1      58.336  39.194 164.209  1.00  0.00     0.026 C 
HETATM   21  C6  UNL     1      58.576  37.717 163.935  1.00  0.00     0.002 C 
HETATM   22  C7  UNL     1      57.194  37.139 163.995  1.00  0.00     0.002 C 
HETATM   23  C8  UNL     1      56.566  37.860 165.148  1.00  0.00     0.026 C 
ENDBRANCH   6  19
BRANCH  15  24
HETATM   24  N7  UNL     1      51.439  42.633 166.624  1.00  0.00    -0.371 N 
ATOM     25  H7  UNL     1      50.948  41.739 166.635  1.00  0.00     0.161 HD
BRANCH  24  26
HETATM   26  C11 UNL     1      50.730  43.772 167.135  1.00  0.00     0.152 C 
BRANCH  26  27
HETATM   27  C12 UNL     1      50.369  44.708 165.997  1.00  0.00     0.132 C 
HETATM   28  C13 UNL     1      48.912  45.111 166.077  1.00  0.00     0.041 C 
BRANCH  27  29
HETATM   29  O1  UNL     1      51.125  45.861 166.025  1.00  0.00    -0.394 OA
ATOM     30  H1  UNL     1      51.727  45.871 166.760  1.00  0.00     0.210 HD
ENDBRANCH  27  29
ENDBRANCH  26  27
ENDBRANCH  24  26
ENDBRANCH  15  24
TORSDOF 5
ENDMDL
MODEL 3
REMARK VINA RESULT: -7.041212625      2.900      7.335
REMARK  5 active torsions:
REMARK  status: ('A' for Active; 'I' for Inactive)
REMARK    1  A    between atoms: N2_6  and  C4_8 
REMARK    2  A    between atoms: C10_20  and  N7_21 
REMARK    3  A    between atoms: N7_21  and  C11_23 
REMARK    4  A    between atoms: C11_23  and  C12_24 
REMARK    5  A    between atoms: C12_24  and  O1_26 
ROOT
HETATM    1  C1  UNL     1      55.234  43.583 164.770  1.00  0.00     0.089 C 
HETATM    2  C2  UNL     1      54.849  42.247 165.297  1.00  0.00     0.095 A 
HETATM    3  N1  UNL     1      53.744  42.102 166.050  1.00  0.00    -0.179 N 
ATOM      4  H1  UNL     1      53.164  42.914 166.263  1.00  0.00     0.185 HD
HETATM    5  C3  UNL     1      53.398  40.891 166.525  1.00  0.00     0.703 A 
HETATM    6  N2  UNL     1      52.335  40.707 167.258  1.00  0.00    -0.220 N 
ATOM      7  H2  UNL     1      52.122  39.767 167.591  1.00  0.00     0.178 HD
HETATM    8  N3  UNL     1      54.126  39.780 166.276  1.00  0.00    -0.064 N 
HETATM    9  N4  UNL     1      53.764  38.597 166.757  1.00  0.00    -0.250 N 
ATOM     10  H4  UNL     1      52.919  38.536 167.324  1.00  0.00     0.191 HD
HETATM   11  C9  UNL     1      54.470  37.473 166.525  1.00  0.00     0.209 A 
HETATM   12  N5  UNL     1      54.082  36.209 167.038  1.00  0.00    -0.062 NA
HETATM   13  N6  UNL     1      55.583  37.595 165.771  1.00  0.00    -0.312 N 
ATOM     14  H6  UNL     1      56.142  36.763 165.577  1.00  0.00     0.170 HD
HETATM   15  C10 UNL     1      55.982  38.784 165.266  1.00  0.00     0.151 A 
HETATM   16  C14 UNL     1      55.231  39.930 165.523  1.00  0.00     0.191 A 
HETATM   17  N8  UNL     1      55.586  41.141 165.042  1.00  0.00    -0.327 N 
ATOM     18  H8  UNL     1      56.429  41.223 164.474  1.00  0.00     0.169 HD
ENDROOT
BRANCH   6  19
HETATM   19  C4  UNL     1      51.445  41.798 167.616  1.00  0.00     0.099 C 
HETATM   20  C5  UNL     1      51.157  42.674 166.416  1.00  0.00     0.026 C 
HETATM   21  C6  UNL     1      50.915  44.026 167.070  1.00  0.00     0.002 C 
HETATM   22  C7  UNL     1      52.014  44.106 168.086  1.00  0.00     0.002 C 
HETATM   23  C8  UNL     1      52.077  42.716 168.640  1.00  0.00     0.026 C 
ENDBRANCH   6  19
BRANCH  15  24
HETATM   24  N7  UNL     1      57.025  38.931 164.553  1.00  0.00    -0.371 N 
ATOM     25  H7  UNL     1      56.968  39.597 163.782  1.00  0.00     0.161 HD
BRANCH  24  26
HETATM   26  C11 UNL     1      58.276  38.248 164.731  1.00  0.00     0.152 C 
BRANCH  26  27
HETATM   27  C12 UNL     1      58.953  38.055 163.388  1.00  0.00     0.132 C 
HETATM   28  C13 UNL     1      60.150  38.973 163.254  1.00  0.00     0.041 C 
BRANCH  27  29
HETATM   29  O1  UNL     1      59.398  36.760 163.222  1.00  0.00    -0.394 OA
ATOM     30  H1  UNL     1      59.241  36.443 162.340  1.00  0.00     0.210 HD
ENDBRANCH  27  29
ENDBRANCH  26  27
ENDBRANCH  24  26
ENDBRANCH  15  24
TORSDOF 5
ENDMDL
MODEL 4
REMARK VINA RESULT: -6.639596434      2.487      7.273
REMARK  5 active torsions:
REMARK  status: ('A' for Active; 'I' for Inactive)
REMARK    1  A    between atoms: N2_6  and  C4_8 
REMARK    2  A    between atoms: C10_20  and  N7_21 
REMARK    3  A    between atoms: N7_21  and  C11_23 
REMARK    4  A    between atoms: C11_23  and  C12_24 
REMARK    5  A    between atoms: C12_24  and  O1_26 
ROOT
HETATM    1  C1  UNL     1      55.080  44.202 164.831  1.00  0.00     0.089 C 
HETATM    2  C2  UNL     1      54.628  42.887 165.357  1.00  0.00     0.095 A 
HETATM    3  N1  UNL     1      53.481  42.788 166.054  1.00  0.00    -0.179 N 
ATOM      4  H1  UNL     1      52.916  43.620 166.224  1.00  0.00     0.185 HD
HETATM    5  C3  UNL     1      53.075  41.596 166.529  1.00  0.00     0.703 A 
HETATM    6  N2  UNL     1      51.969  41.456 167.208  1.00  0.00    -0.220 N 
ATOM      7  H2  UNL     1      51.711  40.529 167.544  1.00  0.00     0.178 HD
HETATM    8  N3  UNL     1      53.781  40.460 166.336  1.00  0.00    -0.064 N 
HETATM    9  N4  UNL     1      53.358  39.296 166.816  1.00  0.00    -0.250 N 
ATOM     10  H4  UNL     1      52.483  39.270 167.339  1.00  0.00     0.191 HD
HETATM   11  C9  UNL     1      54.040  38.148 166.639  1.00  0.00     0.209 A 
HETATM   12  N5  UNL     1      53.588  36.906 167.151  1.00  0.00    -0.062 NA
HETATM   13  N6  UNL     1      55.194  38.224 165.943  1.00  0.00    -0.312 N 
ATOM     14  H6  UNL     1      55.737  37.373 165.792  1.00  0.00     0.170 HD
HETATM   15  C10 UNL     1      55.655  39.393 165.441  1.00  0.00     0.151 A 
HETATM   16  C14 UNL     1      54.926  40.564 165.640  1.00  0.00     0.191 A 
HETATM   17  N8  UNL     1      55.343  41.755 165.159  1.00  0.00    -0.327 N 
ATOM     18  H8  UNL     1      56.217  41.803 164.635  1.00  0.00     0.169 HD
ENDROOT
BRANCH   6  19
HETATM   19  C4  UNL     1      51.095  42.579 167.502  1.00  0.00     0.099 C 
HETATM   20  C5  UNL     1      50.723  43.317 166.234  1.00  0.00     0.026 C 
HETATM   21  C6  UNL     1      50.512  44.732 166.750  1.00  0.00     0.002 C 
HETATM   22  C7  UNL     1      51.675  44.925 167.677  1.00  0.00     0.002 C 
HETATM   23  C8  UNL     1      51.785  43.605 168.375  1.00  0.00     0.026 C 
ENDBRANCH   6  19
BRANCH  15  24
HETATM   24  N7  UNL     1      56.738  39.496 164.781  1.00  0.00    -0.371 N 
ATOM     25  H7  UNL     1      56.801  40.266 164.114  1.00  0.00     0.161 HD
BRANCH  24  26
HETATM   26  C11 UNL     1      57.880  38.632 164.886  1.00  0.00     0.152 C 
BRANCH  26  27
HETATM   27  C12 UNL     1      57.850  37.600 163.776  1.00  0.00     0.132 C 
HETATM   28  C13 UNL     1      59.183  36.890 163.668  1.00  0.00     0.041 C 
BRANCH  27  29
HETATM   29  O1  UNL     1      56.881  36.643 163.994  1.00  0.00    -0.394 OA
ATOM     30  H1  UNL     1      57.240  35.865 164.405  1.00  0.00     0.210 HD
ENDBRANCH  27  29
ENDBRANCH  26  27
ENDBRANCH  24  26
ENDBRANCH  15  24
TORSDOF 5
ENDMDL
MODEL 5
REMARK VINA RESULT: -5.852981024      9.707     11.758
REMARK  5 active torsions:
REMARK  status: ('A' for Active; 'I' for Inactive)
REMARK    1  A    between atoms: N2_6  and  C4_8 
REMARK    2  A    between atoms: C10_20  and  N7_21 
REMARK    3  A    between atoms: N7_21  and  C11_23 
REMARK    4  A    between atoms: C11_23  and  C12_24 
REMARK    5  A    between atoms: C12_24  and  O1_26 
ROOT
HETATM    1  C1  UNL     1      55.037  38.911 175.671  1.00  0.00     0.089 C 
HETATM    2  C2  UNL     1      53.561  39.041 175.554  1.00  0.00     0.095 A 
HETATM    3  N1  UNL     1      52.986  40.256 175.484  1.00  0.00    -0.179 N 
ATOM      4  H1  UNL     1      53.566  41.095 175.511  1.00  0.00     0.185 HD
HETATM    5  C3  UNL     1      51.650  40.370 175.378  1.00  0.00     0.703 A 
HETATM    6  N2  UNL     1      51.053  41.529 175.306  1.00  0.00    -0.220 N 
ATOM      7  H2  UNL     1      50.036  41.556 175.227  1.00  0.00     0.178 HD
HETATM    8  N3  UNL     1      50.831  39.296 175.337  1.00  0.00    -0.064 N 
HETATM    9  N4  UNL     1      49.515  39.436 175.233  1.00  0.00    -0.250 N 
ATOM     10  H4  UNL     1      49.124  40.377 175.184  1.00  0.00     0.191 HD
HETATM   11  C9  UNL     1      48.675  38.384 175.190  1.00  0.00     0.209 A 
HETATM   12  N5  UNL     1      47.269  38.535 175.078  1.00  0.00    -0.062 NA
HETATM   13  N6  UNL     1      49.229  37.156 175.259  1.00  0.00    -0.312 N 
ATOM     14  H6  UNL     1      48.621  36.337 175.230  1.00  0.00     0.170 HD
HETATM   15  C10 UNL     1      50.566  36.976 175.367  1.00  0.00     0.151 A 
HETATM   16  C14 UNL     1      51.410  38.084 175.408  1.00  0.00     0.191 A 
HETATM   17  N8  UNL     1      52.750  37.958 175.516  1.00  0.00    -0.327 N 
ATOM     18  H8  UNL     1      53.160  37.026 175.568  1.00  0.00     0.169 HD
ENDROOT
BRANCH   6  19
HETATM   19  C4  UNL     1      51.789  42.781 175.336  1.00  0.00     0.099 C 
HETATM   20  C5  UNL     1      50.936  43.893 175.908  1.00  0.00     0.026 C 
HETATM   21  C6  UNL     1      51.503  45.113 175.200  1.00  0.00     0.002 C 
HETATM   22  C7  UNL     1      51.653  44.638 173.786  1.00  0.00     0.002 C 
HETATM   23  C8  UNL     1      52.162  43.238 173.943  1.00  0.00     0.026 C 
ENDBRANCH   6  19
BRANCH  15  24
HETATM   24  N7  UNL     1      51.118  35.832 175.434  1.00  0.00    -0.371 N 
ATOM     25  H7  UNL     1      51.382  35.500 176.362  1.00  0.00     0.161 HD
BRANCH  24  26
HETATM   26  C11 UNL     1      51.406  34.964 174.327  1.00  0.00     0.152 C 
BRANCH  26  27
HETATM   27  C12 UNL     1      52.867  34.558 174.356  1.00  0.00     0.132 C 
HETATM   28  C13 UNL     1      53.074  33.367 175.268  1.00  0.00     0.041 C 
BRANCH  27  29
HETATM   29  O1  UNL     1      53.326  34.211 173.102  1.00  0.00    -0.394 OA
ATOM     30  H1  UNL     1      52.844  34.653 172.415  1.00  0.00     0.210 HD
ENDBRANCH  27  29
ENDBRANCH  26  27
ENDBRANCH  24  26
ENDBRANCH  15  24
TORSDOF 5
ENDMDL
