MODEL 1
REMARK VINA RESULT: -6.848298688      0.000      0.000
REMARK  6 active torsions:
REMARK  status: ('A' for Active; 'I' for Inactive)
REMARK    1  A    between atoms: C2_3  and  N2_4 
REMARK    2  A    between atoms: C5_15  and  S1_16 
REMARK    3  A    between atoms: S1_16  and  C6_17 
REMARK    4  A    between atoms: C6_17  and  C7_18 
REMARK    5  A    between atoms: C7_18  and  N6_19 
REMARK    6  A    between atoms: C11_26  and  N8_27 
ROOT
HETATM    1  C1  UNL     1      56.684  40.527 165.758  1.00  0.00     0.176 C 
HETATM    2  N1  UNL     1      56.720  39.117 165.381  1.00  0.00    -0.181 N 
HETATM    3  C2  UNL     1      57.639  38.500 164.615  1.00  0.00     0.680 A 
HETATM    4  N3  UNL     1      57.332  37.190 164.497  1.00  0.00    -0.174 N 
ATOM      5  H3  UNL     1      57.864  36.497 163.970  1.00  0.00     0.186 HD
HETATM    6  C3  UNL     1      56.189  36.954 165.202  1.00  0.00     0.152 A 
HETATM    7  N4  UNL     1      55.472  35.818 165.405  1.00  0.00    -0.336 N 
ATOM      8  H4  UNL     1      55.760  34.930 164.994  1.00  0.00     0.168 HD
HETATM    9  C4  UNL     1      54.368  35.906 166.166  1.00  0.00     0.183 A 
HETATM   10  N5  UNL     1      54.030  37.079 166.683  1.00  0.00    -0.345 N 
ATOM     11  H5  UNL     1      53.186  37.099 167.255  1.00  0.00     0.167 HD
HETATM   12  C5  UNL     1      54.674  38.236 166.534  1.00  0.00     0.102 A 
HETATM   13  C13 UNL     1      55.832  38.159 165.738  1.00  0.00     0.129 A 
ENDROOT
BRANCH  12  14
HETATM   14  S1  UNL     1      54.260  39.787 167.191  1.00  0.00    -0.108 SA
BRANCH  14  15
HETATM   15  C6  UNL     1      52.743  40.572 166.835  1.00  0.00     0.100 C 
BRANCH  15  16
HETATM   16  C7  UNL     1      52.716  41.712 165.877  1.00  0.00     0.127 C 
BRANCH  16  17
HETATM   17  N6  UNL     1      53.523  42.828 166.199  1.00  0.00    -0.408 N 
HETATM   18  C8  UNL     1      54.021  43.533 165.032  1.00  0.00     0.144 C 
HETATM   19  C9  UNL     1      53.214  44.767 164.722  1.00  0.00     0.251 C 
HETATM   20  N7  UNL     1      53.231  45.731 165.780  1.00  0.00    -0.072 N 
HETATM   21  C10 UNL     1      52.010  45.734 166.565  1.00  0.00     0.266 C 
ATOM     22  H72 UNL     1      54.047  45.602 166.377  1.00  0.00     0.277 HD
ATOM     23  H71 UNL     1      53.434  46.664 165.419  1.00  0.00     0.277 HD
HETATM   24  C11 UNL     1      51.736  44.268 166.927  1.00  0.00     0.226 C 
HETATM   25  C12 UNL     1      53.065  43.656 167.255  1.00  0.00     0.151 C 
BRANCH  24  26
HETATM   26  N8  UNL     1      50.836  44.190 168.063  1.00  0.00    -0.072 N 
ATOM     27  H83 UNL     1      49.857  44.183 167.774  1.00  0.00     0.274 HD
ATOM     28  H82 UNL     1      50.867  43.274 168.512  1.00  0.00     0.274 HD
ATOM     29  H81 UNL     1      51.032  44.943 168.722  1.00  0.00     0.274 HD
ENDBRANCH  24  26
ENDBRANCH  16  17
ENDBRANCH  15  16
ENDBRANCH  14  15
ENDBRANCH  12  14
BRANCH   3  30
HETATM   30  N2  UNL     1      58.678  39.017 164.049  1.00  0.00    -0.234 N 
ATOM     31  H22 UNL     1      58.610  39.804 163.403  1.00  0.00     0.174 HD
ATOM     32  H21 UNL     1      59.653  38.738 164.153  1.00  0.00     0.174 HD
ENDBRANCH   3  30
TORSDOF 6
ENDMDL
MODEL 2
REMARK VINA RESULT: -6.815748439      0.850      1.790
REMARK  6 active torsions:
REMARK  status: ('A' for Active; 'I' for Inactive)
REMARK    1  A    between atoms: C2_3  and  N2_4 
REMARK    2  A    between atoms: C5_15  and  S1_16 
REMARK    3  A    between atoms: S1_16  and  C6_17 
REMARK    4  A    between atoms: C6_17  and  C7_18 
REMARK    5  A    between atoms: C7_18  and  N6_19 
REMARK    6  A    between atoms: C11_26  and  N8_27 
ROOT
HETATM    1  C1  UNL     1      56.853  40.584 165.668  1.00  0.00     0.176 C 
HETATM    2  N1  UNL     1      56.790  39.162 165.350  1.00  0.00    -0.181 N 
HETATM    3  C2  UNL     1      57.663  38.451 164.611  1.00  0.00     0.680 A 
HETATM    4  N3  UNL     1      57.266  37.162 164.546  1.00  0.00    -0.174 N 
ATOM      5  H3  UNL     1      57.748  36.413 164.049  1.00  0.00     0.186 HD
HETATM    6  C3  UNL     1      56.111  37.034 165.259  1.00  0.00     0.152 A 
HETATM    7  N4  UNL     1      55.316  35.960 165.508  1.00  0.00    -0.336 N 
ATOM      8  H4  UNL     1      55.542  35.039 165.134  1.00  0.00     0.168 HD
HETATM    9  C4  UNL     1      54.223  36.156 166.264  1.00  0.00     0.183 A 
HETATM   10  N5  UNL     1      53.968  37.370 166.731  1.00  0.00    -0.345 N 
ATOM     11  H5  UNL     1      53.129  37.472 167.301  1.00  0.00     0.167 HD
HETATM   12  C5  UNL     1      54.690  38.473 166.535  1.00  0.00     0.102 A 
HETATM   13  C13 UNL     1      55.839  38.283 165.745  1.00  0.00     0.129 A 
ENDROOT
BRANCH  12  14
HETATM   14  S1  UNL     1      54.386  40.074 167.128  1.00  0.00    -0.108 SA
BRANCH  14  15
HETATM   15  C6  UNL     1      52.773  40.727 167.255  1.00  0.00     0.100 C 
BRANCH  15  16
HETATM   16  C7  UNL     1      52.589  42.154 167.639  1.00  0.00     0.127 C 
BRANCH  16  17
HETATM   17  N6  UNL     1      51.854  42.961 166.741  1.00  0.00    -0.408 N 
HETATM   18  C8  UNL     1      51.296  44.150 167.361  1.00  0.00     0.144 C 
HETATM   19  C9  UNL     1      52.124  45.378 167.089  1.00  0.00     0.251 C 
HETATM   20  N7  UNL     1      52.225  45.693 165.696  1.00  0.00    -0.072 N 
HETATM   21  C10 UNL     1      53.501  45.312 165.120  1.00  0.00     0.266 C 
ATOM     22  H72 UNL     1      51.452  45.282 165.173  1.00  0.00     0.277 HD
ATOM     23  H71 UNL     1      52.031  46.681 165.532  1.00  0.00     0.277 HD
HETATM   24  C11 UNL     1      53.745  43.860 165.553  1.00  0.00     0.226 C 
HETATM   25  C12 UNL     1      52.422  43.160 165.458  1.00  0.00     0.151 C 
BRANCH  24  26
HETATM   26  N8  UNL     1      54.725  43.233 164.684  1.00  0.00    -0.072 N 
ATOM     27  H83 UNL     1      55.005  42.314 165.026  1.00  0.00     0.274 HD
ATOM     28  H82 UNL     1      54.316  42.944 163.795  1.00  0.00     0.274 HD
ATOM     29  H81 UNL     1      55.526  43.850 164.551  1.00  0.00     0.274 HD
ENDBRANCH  24  26
ENDBRANCH  16  17
ENDBRANCH  15  16
ENDBRANCH  14  15
ENDBRANCH  12  14
BRANCH   3  30
HETATM   30  N2  UNL     1      58.734  38.871 164.025  1.00  0.00    -0.234 N 
ATOM     31  H22 UNL     1      59.638  38.897 164.498  1.00  0.00     0.174 HD
ATOM     32  H21 UNL     1      58.833  39.216 163.070  1.00  0.00     0.174 HD
ENDBRANCH   3  30
TORSDOF 6
ENDMDL
MODEL 3
REMARK VINA RESULT: -6.558277431      1.480      2.217
REMARK  6 active torsions:
REMARK  status: ('A' for Active; 'I' for Inactive)
REMARK    1  A    between atoms: C2_3  and  N2_4 
REMARK    2  A    between atoms: C5_15  and  S1_16 
REMARK    3  A    between atoms: S1_16  and  C6_17 
REMARK    4  A    between atoms: C6_17  and  C7_18 
REMARK    5  A    between atoms: C7_18  and  N6_19 
REMARK    6  A    between atoms: C11_26  and  N8_27 
ROOT
HETATM    1  C1  UNL     1      57.497  38.909 164.481  1.00  0.00     0.176 C 
HETATM    2  N1  UNL     1      56.439  38.044 164.993  1.00  0.00    -0.181 N 
HETATM    3  C2  UNL     1      56.274  36.729 164.758  1.00  0.00     0.680 A 
HETATM    4  N3  UNL     1      55.181  36.280 165.411  1.00  0.00    -0.174 N 
ATOM      5  H3  UNL     1      54.831  35.322 165.402  1.00  0.00     0.186 HD
HETATM    6  C3  UNL     1      54.626  37.328 166.085  1.00  0.00     0.152 A 
HETATM    7  N4  UNL     1      53.531  37.409 166.886  1.00  0.00    -0.336 N 
ATOM      8  H4  UNL     1      52.953  36.590 167.076  1.00  0.00     0.168 HD
HETATM    9  C4  UNL     1      53.236  38.607 167.418  1.00  0.00     0.183 A 
HETATM   10  N5  UNL     1      54.014  39.645 167.146  1.00  0.00    -0.345 N 
ATOM     11  H5  UNL     1      53.753  40.534 167.573  1.00  0.00     0.167 HD
HETATM   12  C5  UNL     1      55.101  39.653 166.375  1.00  0.00     0.102 A 
HETATM   13  C13 UNL     1      55.422  38.404 165.810  1.00  0.00     0.129 A 
ENDROOT
BRANCH  12  14
HETATM   14  S1  UNL     1      56.138  40.990 165.997  1.00  0.00    -0.108 SA
BRANCH  14  15
HETATM   15  C6  UNL     1      55.645  42.275 164.925  1.00  0.00     0.100 C 
BRANCH  15  16
HETATM   16  C7  UNL     1      54.217  42.698 164.898  1.00  0.00     0.127 C 
BRANCH  16  17
HETATM   17  N6  UNL     1      53.873  43.814 165.696  1.00  0.00    -0.408 N 
HETATM   18  C8  UNL     1      53.507  44.985 164.920  1.00  0.00     0.144 C 
HETATM   19  C9  UNL     1      52.015  45.159 164.818  1.00  0.00     0.251 C 
HETATM   20  N7  UNL     1      51.379  45.336 166.089  1.00  0.00    -0.072 N 
HETATM   21  C10 UNL     1      50.709  44.139 166.559  1.00  0.00     0.266 C 
ATOM     22  H72 UNL     1      52.044  45.678 166.783  1.00  0.00     0.277 HD
ATOM     23  H71 UNL     1      50.738  46.129 166.067  1.00  0.00     0.277 HD
HETATM   24  C11 UNL     1      51.724  42.998 166.411  1.00  0.00     0.226 C 
HETATM   25  C12 UNL     1      53.053  43.556 166.824  1.00  0.00     0.151 C 
BRANCH  24  26
HETATM   26  N8  UNL     1      51.349  41.877 167.256  1.00  0.00    -0.072 N 
ATOM     27  H83 UNL     1      51.708  41.980 168.205  1.00  0.00     0.274 HD
ATOM     28  H82 UNL     1      50.352  41.880 167.471  1.00  0.00     0.274 HD
ATOM     29  H81 UNL     1      51.644  40.999 166.830  1.00  0.00     0.274 HD
ENDBRANCH  24  26
ENDBRANCH  16  17
ENDBRANCH  15  16
ENDBRANCH  14  15
ENDBRANCH  12  14
BRANCH   3  30
HETATM   30  N2  UNL     1      57.008  35.954 164.031  1.00  0.00    -0.234 N 
ATOM     31  H22 UNL     1      56.778  35.742 163.060  1.00  0.00     0.174 HD
ATOM     32  H21 UNL     1      57.865  35.471 164.298  1.00  0.00     0.174 HD
ENDBRANCH   3  30
TORSDOF 6
ENDMDL
MODEL 4
REMARK VINA RESULT: -6.399473401      1.062      1.951
REMARK  6 active torsions:
REMARK  status: ('A' for Active; 'I' for Inactive)
REMARK    1  A    between atoms: C2_3  and  N2_4 
REMARK    2  A    between atoms: C5_15  and  S1_16 
REMARK    3  A    between atoms: S1_16  and  C6_17 
REMARK    4  A    between atoms: C6_17  and  C7_18 
REMARK    5  A    between atoms: C7_18  and  N6_19 
REMARK    6  A    between atoms: C11_26  and  N8_27 
ROOT
HETATM    1  C1  UNL     1      57.319  40.486 165.634  1.00  0.00     0.176 C 
HETATM    2  N1  UNL     1      56.966  39.105 165.322  1.00  0.00    -0.181 N 
HETATM    3  C2  UNL     1      57.642  38.248 164.533  1.00  0.00     0.680 A 
HETATM    4  N3  UNL     1      57.002  37.060 164.493  1.00  0.00    -0.174 N 
ATOM      5  H3  UNL     1      57.302  36.237 163.970  1.00  0.00     0.186 HD
HETATM    6  C3  UNL     1      55.887  37.149 165.273  1.00  0.00     0.152 A 
HETATM    7  N4  UNL     1      54.917  36.244 165.569  1.00  0.00    -0.336 N 
ATOM      8  H4  UNL     1      54.939  35.300 165.184  1.00  0.00     0.168 HD
HETATM    9  C4  UNL     1      53.927  36.639 166.387  1.00  0.00     0.183 A 
HETATM   10  N5  UNL     1      53.937  37.874 166.868  1.00  0.00    -0.345 N 
ATOM     11  H5  UNL     1      53.167  38.129 167.486  1.00  0.00     0.167 HD
HETATM   12  C5  UNL     1      54.845  38.820 166.629  1.00  0.00     0.102 A 
HETATM   13  C13 UNL     1      55.888  38.421 165.773  1.00  0.00     0.129 A 
ENDROOT
BRANCH  12  14
HETATM   14  S1  UNL     1      54.888  40.443 167.236  1.00  0.00    -0.108 SA
BRANCH  14  15
HETATM   15  C6  UNL     1      54.165  41.778 166.375  1.00  0.00     0.100 C 
BRANCH  15  16
HETATM   16  C7  UNL     1      52.889  41.566 165.637  1.00  0.00     0.127 C 
BRANCH  16  17
HETATM   17  N6  UNL     1      51.734  42.170 166.184  1.00  0.00    -0.408 N 
HETATM   18  C8  UNL     1      51.408  41.690 167.514  1.00  0.00     0.144 C 
HETATM   19  C9  UNL     1      51.870  42.634 168.593  1.00  0.00     0.251 C 
HETATM   20  N7  UNL     1      51.268  43.930 168.503  1.00  0.00    -0.072 N 
HETATM   21  C10 UNL     1      52.154  44.930 167.938  1.00  0.00     0.266 C 
ATOM     22  H72 UNL     1      50.390  43.887 167.987  1.00  0.00     0.277 HD
ATOM     23  H71 UNL     1      50.913  44.229 169.412  1.00  0.00     0.277 HD
HETATM   24  C11 UNL     1      52.730  44.310 166.657  1.00  0.00     0.226 C 
HETATM   25  C12 UNL     1      51.604  43.570 166.000  1.00  0.00     0.151 C 
BRANCH  24  26
HETATM   26  N8  UNL     1      53.247  45.349 165.784  1.00  0.00    -0.072 N 
ATOM     27  H83 UNL     1      52.511  45.767 165.214  1.00  0.00     0.274 HD
ATOM     28  H82 UNL     1      53.525  46.181 166.305  1.00  0.00     0.274 HD
ATOM     29  H81 UNL     1      54.009  44.985 165.214  1.00  0.00     0.274 HD
ENDBRANCH  24  26
ENDBRANCH  16  17
ENDBRANCH  15  16
ENDBRANCH  14  15
ENDBRANCH  12  14
BRANCH   3  30
HETATM   30  N2  UNL     1      58.739  38.461 163.885  1.00  0.00    -0.234 N 
ATOM     31  H22 UNL     1      59.302  39.299 164.031  1.00  0.00     0.174 HD
ATOM     32  H21 UNL     1      59.176  37.868 163.181  1.00  0.00     0.174 HD
ENDBRANCH   3  30
TORSDOF 6
ENDMDL
MODEL 5
REMARK VINA RESULT: -6.386107156      0.874      2.514
REMARK  6 active torsions:
REMARK  status: ('A' for Active; 'I' for Inactive)
REMARK    1  A    between atoms: C2_3  and  N2_4 
REMARK    2  A    between atoms: C5_15  and  S1_16 
REMARK    3  A    between atoms: S1_16  and  C6_17 
REMARK    4  A    between atoms: C6_17  and  C7_18 
REMARK    5  A    between atoms: C7_18  and  N6_19 
REMARK    6  A    between atoms: C11_26  and  N8_27 
ROOT
HETATM    1  C1  UNL     1      53.430  37.110 166.555  1.00  0.00     0.176 C 
HETATM    2  N1  UNL     1      54.757  37.363 166.004  1.00  0.00    -0.181 N 
HETATM    3  C2  UNL     1      55.558  36.487 165.368  1.00  0.00     0.680 A 
HETATM    4  N3  UNL     1      56.705  37.097 165.002  1.00  0.00    -0.174 N 
ATOM      5  H3  UNL     1      57.482  36.660 164.506  1.00  0.00     0.186 HD
HETATM    6  C3  UNL     1      56.647  38.398 165.410  1.00  0.00     0.152 A 
HETATM    7  N4  UNL     1      57.530  39.423 165.287  1.00  0.00    -0.336 N 
ATOM      8  H4  UNL     1      58.429  39.294 164.822  1.00  0.00     0.168 HD
HETATM    9  C4  UNL     1      57.177  40.613 165.801  1.00  0.00     0.183 A 
HETATM   10  N5  UNL     1      55.999  40.738 166.396  1.00  0.00    -0.345 N 
ATOM     11  H5  UNL     1      55.772  41.660 166.769  1.00  0.00     0.167 HD
HETATM   12  C5  UNL     1      55.078  39.788 166.558  1.00  0.00     0.102 A 
HETATM   13  C13 UNL     1      55.435  38.535 166.025  1.00  0.00     0.129 A 
ENDROOT
BRANCH  12  14
HETATM   14  S1  UNL     1      53.531  39.915 167.331  1.00  0.00    -0.108 SA
BRANCH  14  15
HETATM   15  C6  UNL     1      52.143  40.601 166.526  1.00  0.00     0.100 C 
BRANCH  15  16
HETATM   16  C7  UNL     1      52.318  41.801 165.661  1.00  0.00     0.127 C 
BRANCH  16  17
HETATM   17  N6  UNL     1      53.189  42.805 166.142  1.00  0.00    -0.408 N 
HETATM   18  C8  UNL     1      53.978  43.431 165.096  1.00  0.00     0.144 C 
HETATM   19  C9  UNL     1      53.407  44.756 164.665  1.00  0.00     0.251 C 
HETATM   20  N7  UNL     1      53.354  45.719 165.724  1.00  0.00    -0.072 N 
HETATM   21  C10 UNL     1      52.022  45.885 166.274  1.00  0.00     0.266 C 
ATOM     22  H72 UNL     1      54.025  45.490 166.457  1.00  0.00     0.277 HD
ATOM     23  H71 UNL     1      53.738  46.614 165.421  1.00  0.00     0.277 HD
HETATM   24  C11 UNL     1      51.500  44.470 166.556  1.00  0.00     0.226 C 
HETATM   25  C12 UNL     1      52.657  43.694 167.110  1.00  0.00     0.151 C 
BRANCH  24  26
HETATM   26  N8  UNL     1      50.405  44.518 167.509  1.00  0.00    -0.072 N 
ATOM     27  H83 UNL     1      49.798  43.702 167.433  1.00  0.00     0.274 HD
ATOM     28  H82 UNL     1      50.728  44.377 168.467  1.00  0.00     0.274 HD
ATOM     29  H81 UNL     1      49.886  45.390 167.407  1.00  0.00     0.274 HD
ENDBRANCH  24  26
ENDBRANCH  16  17
ENDBRANCH  15  16
ENDBRANCH  14  15
ENDBRANCH  12  14
BRANCH   3  30
HETATM   30  N2  UNL     1      55.328  35.243 165.112  1.00  0.00    -0.234 N 
ATOM     31  H22 UNL     1      54.497  34.762 165.456  1.00  0.00     0.174 HD
ATOM     32  H21 UNL     1      55.901  34.598 164.567  1.00  0.00     0.174 HD
ENDBRANCH   3  30
TORSDOF 6
ENDMDL
