MODEL 1
REMARK VINA RESULT: -7.448493365      0.000      0.000
REMARK  7 active torsions:
REMARK  status: ('A' for Active; 'I' for Inactive)
REMARK    1  A    between atoms: O1_2  and  C2_3 
REMARK    2  A    between atoms: C7_8  and  C8_9 
REMARK    3  A    between atoms: C8_9  and  O2_10 
REMARK    4  A    between atoms: C8_9  and  N1_12 
REMARK    5  A    between atoms: N1_12  and  N2_14 
REMARK       I    between atoms: N2_14  and  C9_16 
REMARK    6  A    between atoms: C9_16  and  C10_18 
REMARK    7  A    between atoms: C10_18  and  N3_20 
REMARK       I    between atoms: N3_20  and  C12_22 
ROOT
HETATM    1  N1  UNL     1     -32.836   4.599  96.586  1.00  0.00    -0.277 N 
ATOM      2  H1  UNL     1     -32.830   3.585  96.474  1.00  0.00     0.189 HD
ENDROOT
BRANCH   1   3
HETATM    3  C8  UNL     1     -31.918   5.396  95.911  1.00  0.00     0.168 C 
BRANCH   3   4
HETATM    4  C7  UNL     1     -32.201   6.482  95.007  1.00  0.00     0.049 A 
HETATM    5  C2  UNL     1     -31.816   7.767  95.206  1.00  0.00     0.082 A 
HETATM    6  C3  UNL     1     -32.117   8.784  94.296  1.00  0.00     0.038 A 
HETATM    7  C4  UNL     1     -32.823   8.498  93.154  1.00  0.00     0.003 A 
HETATM    8  C5  UNL     1     -33.218   7.205  92.938  1.00  0.00     0.001 A 
HETATM    9  C6  UNL     1     -32.920   6.230  93.830  1.00  0.00     0.018 A 
BRANCH   5  10
HETATM   10  O1  UNL     1     -31.107   8.131  96.326  1.00  0.00    -0.355 OA
HETATM   11  C1  UNL     1     -30.750   9.472  96.547  1.00  0.00     0.210 C 
ENDBRANCH   5  10
ENDBRANCH   3   4
BRANCH   3  12
HETATM   12  O2  UNL     1     -30.671   5.099  96.147  1.00  0.00    -0.344 OA
ATOM     13  H2  UNL     1     -30.105   4.917  95.407  1.00  0.00     0.219 HD
ENDBRANCH   3  12
ENDBRANCH   1   3
BRANCH   1  14
HETATM   14  N2  UNL     1     -33.785   5.235  97.436  1.00  0.00    -0.266 N 
HETATM   15  C9  UNL     1     -35.101   5.445  96.983  1.00  0.00     0.258 C 
HETATM   16  O3  UNL     1     -35.426   5.073  95.840  1.00  0.00    -0.269 OA
ATOM     17  H2  UNL     1     -33.511   5.537  98.371  1.00  0.00     0.190 HD
BRANCH  15  18
HETATM   18  C10 UNL     1     -36.077   6.103  97.870  1.00  0.00     0.174 C 
HETATM   19  C11 UNL     1     -35.542   7.437  98.272  1.00  0.00     0.042 C 
BRANCH  18  20
HETATM   20  N3  UNL     1     -37.397   6.175  97.281  1.00  0.00    -0.348 N 
HETATM   21  C12 UNL     1     -38.569   6.060  98.051  1.00  0.00     0.214 C 
HETATM   22  C13 UNL     1     -39.909   6.137  97.422  1.00  0.00     0.117 C 
HETATM   23  O4  UNL     1     -38.494   5.890  99.288  1.00  0.00    -0.274 OA
ATOM     24  H3  UNL     1     -37.481   6.312  96.274  1.00  0.00     0.163 HD
ENDBRANCH  18  20
ENDBRANCH  15  18
ENDBRANCH   1  14
TORSDOF 7
ENDMDL
MODEL 2
REMARK VINA RESULT: -6.902149799      1.113      2.158
REMARK  7 active torsions:
REMARK  status: ('A' for Active; 'I' for Inactive)
REMARK    1  A    between atoms: O1_2  and  C2_3 
REMARK    2  A    between atoms: C7_8  and  C8_9 
REMARK    3  A    between atoms: C8_9  and  O2_10 
REMARK    4  A    between atoms: C8_9  and  N1_12 
REMARK    5  A    between atoms: N1_12  and  N2_14 
REMARK       I    between atoms: N2_14  and  C9_16 
REMARK    6  A    between atoms: C9_16  and  C10_18 
REMARK    7  A    between atoms: C10_18  and  N3_20 
REMARK       I    between atoms: N3_20  and  C12_22 
ROOT
HETATM    1  N1  UNL     1     -32.979   5.166  95.635  1.00  0.00    -0.277 N 
ATOM      2  H1  UNL     1     -33.135   4.576  94.817  1.00  0.00     0.189 HD
ENDROOT
BRANCH   1   3
HETATM    3  C8  UNL     1     -31.811   5.908  95.766  1.00  0.00     0.168 C 
BRANCH   3   4
HETATM    4  C7  UNL     1     -31.643   7.321  95.537  1.00  0.00     0.049 A 
HETATM    5  C2  UNL     1     -31.806   7.929  94.335  1.00  0.00     0.082 A 
HETATM    6  C3  UNL     1     -31.631   9.306  94.167  1.00  0.00     0.038 A 
HETATM    7  C4  UNL     1     -31.285  10.090  95.238  1.00  0.00     0.003 A 
HETATM    8  C5  UNL     1     -31.117   9.493  96.459  1.00  0.00     0.001 A 
HETATM    9  C6  UNL     1     -31.289   8.157  96.606  1.00  0.00     0.018 A 
BRANCH   5  10
HETATM   10  O1  UNL     1     -32.152   7.209  93.217  1.00  0.00    -0.355 OA
HETATM   11  C1  UNL     1     -33.330   7.503  92.508  1.00  0.00     0.210 C 
ENDBRANCH   5  10
ENDBRANCH   3   4
BRANCH   3  12
HETATM   12  O2  UNL     1     -30.771   5.216  96.138  1.00  0.00    -0.344 OA
ATOM     13  H2  UNL     1     -30.214   5.574  96.820  1.00  0.00     0.219 HD
ENDBRANCH   3  12
ENDBRANCH   1   3
BRANCH   1  14
HETATM   14  N2  UNL     1     -33.951   5.250  96.672  1.00  0.00    -0.266 N 
HETATM   15  C9  UNL     1     -35.012   6.168  96.565  1.00  0.00     0.258 C 
HETATM   16  O3  UNL     1     -35.092   6.903  95.563  1.00  0.00    -0.269 OA
ATOM     17  H2  UNL     1     -33.878   4.645  97.490  1.00  0.00     0.190 HD
BRANCH  15  18
HETATM   18  C10 UNL     1     -36.015   6.248  97.643  1.00  0.00     0.174 C 
HETATM   19  C11 UNL     1     -35.680   7.401  98.529  1.00  0.00     0.042 C 
BRANCH  18  20
HETATM   20  N3  UNL     1     -37.369   6.297  97.134  1.00  0.00    -0.348 N 
HETATM   21  C12 UNL     1     -38.488   6.070  97.956  1.00  0.00     0.214 C 
HETATM   22  C13 UNL     1     -39.864   6.127  97.409  1.00  0.00     0.117 C 
HETATM   23  O4  UNL     1     -38.334   5.816  99.171  1.00  0.00    -0.274 OA
ATOM     24  H3  UNL     1     -37.517   6.502  96.145  1.00  0.00     0.163 HD
ENDBRANCH  18  20
ENDBRANCH  15  18
ENDBRANCH   1  14
TORSDOF 7
ENDMDL
MODEL 3
REMARK VINA RESULT: -6.800045714      1.591      2.446
REMARK  7 active torsions:
REMARK  status: ('A' for Active; 'I' for Inactive)
REMARK    1  A    between atoms: O1_2  and  C2_3 
REMARK    2  A    between atoms: C7_8  and  C8_9 
REMARK    3  A    between atoms: C8_9  and  O2_10 
REMARK    4  A    between atoms: C8_9  and  N1_12 
REMARK    5  A    between atoms: N1_12  and  N2_14 
REMARK       I    between atoms: N2_14  and  C9_16 
REMARK    6  A    between atoms: C9_16  and  C10_18 
REMARK    7  A    between atoms: C10_18  and  N3_20 
REMARK       I    between atoms: N3_20  and  C12_22 
ROOT
HETATM    1  N1  UNL     1     -33.890   6.156  94.200  1.00  0.00    -0.277 N 
ATOM      2  H1  UNL     1     -33.832   5.214  93.814  1.00  0.00     0.189 HD
ENDROOT
BRANCH   1   3
HETATM    3  C8  UNL     1     -33.133   7.193  93.667  1.00  0.00     0.168 C 
BRANCH   3   4
HETATM    4  C7  UNL     1     -32.413   8.212  94.389  1.00  0.00     0.049 A 
HETATM    5  C2  UNL     1     -31.809   8.020  95.589  1.00  0.00     0.082 A 
HETATM    6  C3  UNL     1     -31.122   9.043  96.249  1.00  0.00     0.038 A 
HETATM    7  C4  UNL     1     -31.041  10.291  95.685  1.00  0.00     0.003 A 
HETATM    8  C5  UNL     1     -31.645  10.501  94.474  1.00  0.00     0.001 A 
HETATM    9  C6  UNL     1     -32.308   9.500  93.846  1.00  0.00     0.018 A 
BRANCH   5  10
HETATM   10  O1  UNL     1     -31.847   6.797  96.216  1.00  0.00    -0.355 OA
HETATM   11  C1  UNL     1     -31.088   5.717  95.733  1.00  0.00     0.210 C 
ENDBRANCH   5  10
ENDBRANCH   3   4
BRANCH   3  12
HETATM   12  O2  UNL     1     -33.093   7.216  92.364  1.00  0.00    -0.344 OA
ATOM     13  H2  UNL     1     -32.991   6.392  91.904  1.00  0.00     0.219 HD
ENDBRANCH   3  12
ENDBRANCH   1   3
BRANCH   1  14
HETATM   14  N2  UNL     1     -34.748   6.444  95.299  1.00  0.00    -0.266 N 
HETATM   15  C9  UNL     1     -34.894   5.506  96.339  1.00  0.00     0.258 C 
HETATM   16  O3  UNL     1     -34.271   4.430  96.289  1.00  0.00    -0.269 OA
ATOM     17  H2  UNL     1     -35.256   7.328  95.333  1.00  0.00     0.190 HD
BRANCH  15  18
HETATM   18  C10 UNL     1     -35.784   5.813  97.473  1.00  0.00     0.174 C 
HETATM   19  C11 UNL     1     -35.298   7.053  98.147  1.00  0.00     0.042 C 
BRANCH  18  20
HETATM   20  N3  UNL     1     -37.174   5.890  97.078  1.00  0.00    -0.348 N 
HETATM   21  C12 UNL     1     -38.209   6.093  98.010  1.00  0.00     0.214 C 
HETATM   22  C13 UNL     1     -39.625   6.167  97.579  1.00  0.00     0.117 C 
HETATM   23  O4  UNL     1     -37.944   6.215  99.226  1.00  0.00    -0.274 OA
ATOM     24  H3  UNL     1     -37.413   5.792  96.091  1.00  0.00     0.163 HD
ENDBRANCH  18  20
ENDBRANCH  15  18
ENDBRANCH   1  14
TORSDOF 7
ENDMDL
MODEL 4
REMARK VINA RESULT: -6.467702885      2.248      3.896
REMARK  7 active torsions:
REMARK  status: ('A' for Active; 'I' for Inactive)
REMARK    1  A    between atoms: O1_2  and  C2_3 
REMARK    2  A    between atoms: C7_8  and  C8_9 
REMARK    3  A    between atoms: C8_9  and  O2_10 
REMARK    4  A    between atoms: C8_9  and  N1_12 
REMARK    5  A    between atoms: N1_12  and  N2_14 
REMARK       I    between atoms: N2_14  and  C9_16 
REMARK    6  A    between atoms: C9_16  and  C10_18 
REMARK    7  A    between atoms: C10_18  and  N3_20 
REMARK       I    between atoms: N3_20  and  C12_22 
ROOT
HETATM    1  N1  UNL     1     -36.227   6.638  96.929  1.00  0.00    -0.277 N 
ATOM      2  H1  UNL     1     -36.197   7.612  96.624  1.00  0.00     0.189 HD
ENDROOT
BRANCH   1   3
HETATM    3  C8  UNL     1     -35.061   5.959  97.263  1.00  0.00     0.168 C 
BRANCH   3   4
HETATM    4  C7  UNL     1     -34.164   5.271  96.369  1.00  0.00     0.049 A 
HETATM    5  C2  UNL     1     -33.646   5.810  95.236  1.00  0.00     0.082 A 
HETATM    6  C3  UNL     1     -32.778   5.099  94.402  1.00  0.00     0.038 A 
HETATM    7  C4  UNL     1     -32.423   3.812  94.718  1.00  0.00     0.003 A 
HETATM    8  C5  UNL     1     -32.937   3.253  95.858  1.00  0.00     0.001 A 
HETATM    9  C6  UNL     1     -33.778   3.955  96.656  1.00  0.00     0.018 A 
BRANCH   5  10
HETATM   10  O1  UNL     1     -33.956   7.094  94.854  1.00  0.00    -0.355 OA
HETATM   11  C1  UNL     1     -33.288   7.705  93.779  1.00  0.00     0.210 C 
ENDBRANCH   5  10
ENDBRANCH   3   4
BRANCH   3  12
HETATM   12  O2  UNL     1     -34.779   5.966  98.535  1.00  0.00    -0.344 OA
ATOM     13  H2  UNL     1     -34.695   6.805  98.972  1.00  0.00     0.219 HD
ENDBRANCH   3  12
ENDBRANCH   1   3
BRANCH   1  14
HETATM   14  N2  UNL     1     -37.465   5.941  97.024  1.00  0.00    -0.266 N 
HETATM   15  C9  UNL     1     -38.210   5.996  98.217  1.00  0.00     0.258 C 
HETATM   16  O3  UNL     1     -37.781   6.654  99.182  1.00  0.00    -0.269 OA
ATOM     17  H2  UNL     1     -37.810   5.402  96.229  1.00  0.00     0.190 HD
BRANCH  15  18
HETATM   18  C10 UNL     1     -39.491   5.270  98.306  1.00  0.00     0.174 C 
HETATM   19  C11 UNL     1     -39.656   4.750  99.695  1.00  0.00     0.042 C 
BRANCH  18  20
HETATM   20  N3  UNL     1     -40.611   6.074  97.864  1.00  0.00    -0.348 N 
HETATM   21  C12 UNL     1     -41.663   5.537  97.098  1.00  0.00     0.214 C 
HETATM   22  C13 UNL     1     -42.798   6.382  96.659  1.00  0.00     0.117 C 
HETATM   23  O4  UNL     1     -41.652   4.329  96.775  1.00  0.00    -0.274 OA
ATOM     24  H3  UNL     1     -40.639   7.062  98.116  1.00  0.00     0.163 HD
ENDBRANCH  18  20
ENDBRANCH  15  18
ENDBRANCH   1  14
TORSDOF 7
ENDMDL
MODEL 5
REMARK VINA RESULT: -6.320197771      2.172      3.687
REMARK  7 active torsions:
REMARK  status: ('A' for Active; 'I' for Inactive)
REMARK    1  A    between atoms: O1_2  and  C2_3 
REMARK    2  A    between atoms: C7_8  and  C8_9 
REMARK    3  A    between atoms: C8_9  and  O2_10 
REMARK    4  A    between atoms: C8_9  and  N1_12 
REMARK    5  A    between atoms: N1_12  and  N2_14 
REMARK       I    between atoms: N2_14  and  C9_16 
REMARK    6  A    between atoms: C9_16  and  C10_18 
REMARK    7  A    between atoms: C10_18  and  N3_20 
REMARK       I    between atoms: N3_20  and  C12_22 
ROOT
HETATM    1  N1  UNL     1     -36.061   6.771  97.014  1.00  0.00    -0.277 N 
ATOM      2  H1  UNL     1     -36.074   7.787  97.115  1.00  0.00     0.189 HD
ENDROOT
BRANCH   1   3
HETATM    3  C8  UNL     1     -34.863   6.087  96.846  1.00  0.00     0.168 C 
BRANCH   3   4
HETATM    4  C7  UNL     1     -33.948   6.185  95.737  1.00  0.00     0.049 A 
HETATM    5  C2  UNL     1     -33.046   5.229  95.400  1.00  0.00     0.082 A 
HETATM    6  C3  UNL     1     -32.180   5.374  94.312  1.00  0.00     0.038 A 
HETATM    7  C4  UNL     1     -32.225   6.510  93.544  1.00  0.00     0.003 A 
HETATM    8  C5  UNL     1     -33.130   7.484  93.871  1.00  0.00     0.001 A 
HETATM    9  C6  UNL     1     -33.963   7.330  94.929  1.00  0.00     0.018 A 
BRANCH   5  10
HETATM   10  O1  UNL     1     -32.942   4.064  96.121  1.00  0.00    -0.355 OA
HETATM   11  C1  UNL     1     -33.009   2.813  95.482  1.00  0.00     0.210 C 
ENDBRANCH   5  10
ENDBRANCH   3   4
BRANCH   3  12
HETATM   12  O2  UNL     1     -34.567   5.273  97.821  1.00  0.00    -0.344 OA
ATOM     13  H2  UNL     1     -34.865   5.493  98.695  1.00  0.00     0.219 HD
ENDBRANCH   3  12
ENDBRANCH   1   3
BRANCH   1  14
HETATM   14  N2  UNL     1     -37.270   6.020  97.041  1.00  0.00    -0.266 N 
HETATM   15  C9  UNL     1     -38.082   6.039  98.191  1.00  0.00     0.258 C 
HETATM   16  O3  UNL     1     -37.736   6.715  99.177  1.00  0.00    -0.269 OA
ATOM     17  H2  UNL     1     -37.547   5.468  96.229  1.00  0.00     0.190 HD
BRANCH  15  18
HETATM   18  C10 UNL     1     -39.333   5.258  98.209  1.00  0.00     0.174 C 
HETATM   19  C11 UNL     1     -39.571   4.763  99.597  1.00  0.00     0.042 C 
BRANCH  18  20
HETATM   20  N3  UNL     1     -40.453   5.999  97.670  1.00  0.00    -0.348 N 
HETATM   21  C12 UNL     1     -41.475   5.378  96.929  1.00  0.00     0.214 C 
HETATM   22  C13 UNL     1     -42.612   6.160  96.387  1.00  0.00     0.117 C 
HETATM   23  O4  UNL     1     -41.437   4.146  96.715  1.00  0.00    -0.274 OA
ATOM     24  H3  UNL     1     -40.503   7.005  97.832  1.00  0.00     0.163 HD
ENDBRANCH  18  20
ENDBRANCH  15  18
ENDBRANCH   1  14
TORSDOF 7
ENDMDL
