MODEL 1
REMARK VINA RESULT: -5.947842900      0.000      0.000
REMARK  8 active torsions:
REMARK  status: ('A' for Active; 'I' for Inactive)
REMARK    1  A    between atoms: C2_2  and  N1_4 
REMARK    2  A    between atoms: N1_4  and  C4_5 
REMARK    3  A    between atoms: N1_4  and  N3_9 
REMARK    4  A    between atoms: C4_5  and  C5_6 
REMARK    5  A    between atoms: N3_9  and  C6_11 
REMARK    6  A    between atoms: C6_11  and  N4_13 
REMARK    7  A    between atoms: N4_13  and  N5_15 
REMARK       I    between atoms: N5_15  and  C7_17 
REMARK    8  A    between atoms: C7_17  and  C8_19 
ROOT
HETATM    1  C6  UNL     1     -34.945   6.127  96.454  1.00  0.00     0.205 C 
HETATM    2  S1  UNL     1     -34.425   5.030  97.528  1.00  0.00    -0.038 SA
ENDROOT
BRANCH   1   3
HETATM    3  N3  UNL     1     -34.331   6.262  95.166  1.00  0.00    -0.277 N 
ATOM      4  H3  UNL     1     -34.902   6.022  94.355  1.00  0.00     0.189 HD
BRANCH   3   5
HETATM    5  N1  UNL     1     -33.050   6.682  94.920  1.00  0.00    -0.313 N 
BRANCH   5   6
HETATM    6  C2  UNL     1     -32.143   5.658  94.525  1.00  0.00     0.094 C 
HETATM    7  C1  UNL     1     -32.956   4.427  94.071  1.00  0.00     0.033 C 
HETATM    8  C3  UNL     1     -31.219   5.170  95.595  1.00  0.00     0.033 C 
ENDBRANCH   5   6
BRANCH   5   9
HETATM    9  C4  UNL     1     -32.955   7.892  94.185  1.00  0.00     0.242 C 
BRANCH   9  10
HETATM   10  C5  UNL     1     -31.867   8.775  94.672  1.00  0.00     0.250 C 
HETATM   11  N2  UNL     1     -31.467   8.785  96.028  1.00  0.00    -0.061 NA
HETATM   12  O1  UNL     1     -31.290   9.532  93.874  1.00  0.00    -0.275 OA
ENDBRANCH   9  10
ENDBRANCH   5   9
ENDBRANCH   3   5
ENDBRANCH   1   3
BRANCH   1  13
HETATM   13  N4  UNL     1     -36.041   6.993  96.769  1.00  0.00    -0.272 N 
ATOM     14  H4  UNL     1     -35.885   7.990  96.916  1.00  0.00     0.189 HD
BRANCH  13  15
HETATM   15  N5  UNL     1     -37.303   6.465  96.871  1.00  0.00    -0.267 N 
HETATM   16  C7  UNL     1     -37.962   6.343  98.104  1.00  0.00     0.243 C 
HETATM   17  O2  UNL     1     -37.359   6.736  99.141  1.00  0.00    -0.271 OA
ATOM     18  H5  UNL     1     -37.778   6.152  96.024  1.00  0.00     0.190 HD
BRANCH  16  19
HETATM   19  C8  UNL     1     -39.347   5.764  98.206  1.00  0.00     0.032 C 
HETATM   20  C9  UNL     1     -39.981   6.287  99.468  1.00  0.00     0.025 C 
HETATM   21  C10 UNL     1     -39.220   4.242  98.362  1.00  0.00     0.025 C 
HETATM   22  C11 UNL     1     -40.177   6.052  96.991  1.00  0.00     0.025 C 
ENDBRANCH  16  19
ENDBRANCH  13  15
ENDBRANCH   1  13
TORSDOF 8
ENDMDL
MODEL 2
REMARK VINA RESULT: -5.943179392      1.518      2.786
REMARK  8 active torsions:
REMARK  status: ('A' for Active; 'I' for Inactive)
REMARK    1  A    between atoms: C2_2  and  N1_4 
REMARK    2  A    between atoms: N1_4  and  C4_5 
REMARK    3  A    between atoms: N1_4  and  N3_9 
REMARK    4  A    between atoms: C4_5  and  C5_6 
REMARK    5  A    between atoms: N3_9  and  C6_11 
REMARK    6  A    between atoms: C6_11  and  N4_13 
REMARK    7  A    between atoms: N4_13  and  N5_15 
REMARK       I    between atoms: N5_15  and  C7_17 
REMARK    8  A    between atoms: C7_17  and  C8_19 
ROOT
HETATM    1  C6  UNL     1     -34.375   6.174  96.617  1.00  0.00     0.205 C 
HETATM    2  S1  UNL     1     -34.407   4.696  97.280  1.00  0.00    -0.038 SA
ENDROOT
BRANCH   1   3
HETATM    3  N3  UNL     1     -33.151   6.757  96.149  1.00  0.00    -0.277 N 
ATOM      4  H3  UNL     1     -32.465   7.019  96.857  1.00  0.00     0.189 HD
BRANCH   3   5
HETATM    5  N1  UNL     1     -32.816   6.994  94.842  1.00  0.00    -0.313 N 
BRANCH   5   6
HETATM    6  C2  UNL     1     -31.922   8.082  94.635  1.00  0.00     0.094 C 
HETATM    7  C1  UNL     1     -31.565   8.695  96.006  1.00  0.00     0.033 C 
HETATM    8  C3  UNL     1     -32.459   9.207  93.809  1.00  0.00     0.033 C 
ENDBRANCH   5   6
BRANCH   5   9
HETATM    9  C4  UNL     1     -32.538   5.828  94.081  1.00  0.00     0.242 C 
BRANCH   9  10
HETATM   10  C5  UNL     1     -31.759   4.820  94.840  1.00  0.00     0.250 C 
HETATM   11  N2  UNL     1     -31.993   3.433  94.694  1.00  0.00    -0.061 NA
HETATM   12  O1  UNL     1     -30.879   5.195  95.631  1.00  0.00    -0.275 OA
ENDBRANCH   9  10
ENDBRANCH   5   9
ENDBRANCH   3   5
ENDBRANCH   1   3
BRANCH   1  13
HETATM   13  N4  UNL     1     -35.577   6.939  96.482  1.00  0.00    -0.272 N 
ATOM     14  H4  UNL     1     -35.537   7.919  96.199  1.00  0.00     0.189 HD
BRANCH  13  15
HETATM   15  N5  UNL     1     -36.785   6.339  96.736  1.00  0.00    -0.267 N 
HETATM   16  C7  UNL     1     -37.445   6.486  97.966  1.00  0.00     0.243 C 
HETATM   17  O2  UNL     1     -36.895   7.195  98.854  1.00  0.00    -0.271 OA
ATOM     18  H5  UNL     1     -37.215   5.768  96.009  1.00  0.00     0.190 HD
BRANCH  16  19
HETATM   19  C8  UNL     1     -38.769   5.824  98.236  1.00  0.00     0.032 C 
HETATM   20  C9  UNL     1     -39.723   6.222  97.141  1.00  0.00     0.025 C 
HETATM   21  C10 UNL     1     -39.328   6.389  99.549  1.00  0.00     0.025 C 
HETATM   22  C11 UNL     1     -38.647   4.336  98.370  1.00  0.00     0.025 C 
ENDBRANCH  16  19
ENDBRANCH  13  15
ENDBRANCH   1  13
TORSDOF 8
ENDMDL
MODEL 3
REMARK VINA RESULT: -5.880543574      0.783      1.261
REMARK  8 active torsions:
REMARK  status: ('A' for Active; 'I' for Inactive)
REMARK    1  A    between atoms: C2_2  and  N1_4 
REMARK    2  A    between atoms: N1_4  and  C4_5 
REMARK    3  A    between atoms: N1_4  and  N3_9 
REMARK    4  A    between atoms: C4_5  and  C5_6 
REMARK    5  A    between atoms: N3_9  and  C6_11 
REMARK    6  A    between atoms: C6_11  and  N4_13 
REMARK    7  A    between atoms: N4_13  and  N5_15 
REMARK       I    between atoms: N5_15  and  C7_17 
REMARK    8  A    between atoms: C7_17  and  C8_19 
ROOT
HETATM    1  C6  UNL     1     -35.017   6.234  96.529  1.00  0.00     0.205 C 
HETATM    2  S1  UNL     1     -34.353   5.322  97.692  1.00  0.00    -0.038 SA
ENDROOT
BRANCH   1   3
HETATM    3  N3  UNL     1     -34.492   6.243  95.195  1.00  0.00    -0.277 N 
ATOM      4  H3  UNL     1     -35.148   6.046  94.439  1.00  0.00     0.189 HD
BRANCH   3   5
HETATM    5  N1  UNL     1     -33.192   6.491  94.838  1.00  0.00    -0.313 N 
BRANCH   5   6
HETATM    6  C2  UNL     1     -32.483   5.372  94.319  1.00  0.00     0.094 C 
HETATM    7  C1  UNL     1     -33.443   4.165  94.259  1.00  0.00     0.033 C 
HETATM    8  C3  UNL     1     -31.308   4.924  95.129  1.00  0.00     0.033 C 
ENDBRANCH   5   6
BRANCH   5   9
HETATM    9  C4  UNL     1     -32.993   7.712  94.140  1.00  0.00     0.242 C 
BRANCH   9  10
HETATM   10  C5  UNL     1     -31.961   8.570  94.770  1.00  0.00     0.250 C 
HETATM   11  N2  UNL     1     -31.343   9.631  94.067  1.00  0.00    -0.061 NA
HETATM   12  O1  UNL     1     -31.622   8.357  95.945  1.00  0.00    -0.275 OA
ENDBRANCH   9  10
ENDBRANCH   5   9
ENDBRANCH   3   5
ENDBRANCH   1   3
BRANCH   1  13
HETATM   13  N4  UNL     1     -36.154   7.058  96.808  1.00  0.00    -0.272 N 
ATOM     14  H4  UNL     1     -36.045   8.066  96.926  1.00  0.00     0.189 HD
BRANCH  13  15
HETATM   15  N5  UNL     1     -37.392   6.476  96.916  1.00  0.00    -0.267 N 
HETATM   16  C7  UNL     1     -38.030   6.306  98.154  1.00  0.00     0.243 C 
HETATM   17  O2  UNL     1     -37.431   6.707  99.191  1.00  0.00    -0.271 OA
ATOM     18  H5  UNL     1     -37.863   6.157  96.069  1.00  0.00     0.190 HD
BRANCH  16  19
HETATM   19  C8  UNL     1     -39.388   5.668  98.263  1.00  0.00     0.032 C 
HETATM   20  C9  UNL     1     -40.180   6.040  97.036  1.00  0.00     0.025 C 
HETATM   21  C10 UNL     1     -40.111   6.281  99.470  1.00  0.00     0.025 C 
HETATM   22  C11 UNL     1     -39.307   4.183  98.458  1.00  0.00     0.025 C 
ENDBRANCH  16  19
ENDBRANCH  13  15
ENDBRANCH   1  13
TORSDOF 8
ENDMDL
MODEL 4
REMARK VINA RESULT: -5.825334290      1.927      2.958
REMARK  8 active torsions:
REMARK  status: ('A' for Active; 'I' for Inactive)
REMARK    1  A    between atoms: C2_2  and  N1_4 
REMARK    2  A    between atoms: N1_4  and  C4_5 
REMARK    3  A    between atoms: N1_4  and  N3_9 
REMARK    4  A    between atoms: C4_5  and  C5_6 
REMARK    5  A    between atoms: N3_9  and  C6_11 
REMARK    6  A    between atoms: C6_11  and  N4_13 
REMARK    7  A    between atoms: N4_13  and  N5_15 
REMARK       I    between atoms: N5_15  and  C7_17 
REMARK    8  A    between atoms: C7_17  and  C8_19 
ROOT
HETATM    1  C6  UNL     1     -35.300   6.137  96.906  1.00  0.00     0.205 C 
HETATM    2  S1  UNL     1     -34.559   5.923  98.331  1.00  0.00    -0.038 SA
ENDROOT
BRANCH   1   3
HETATM    3  N3  UNL     1     -34.760   5.591  95.694  1.00  0.00    -0.277 N 
ATOM      4  H3  UNL     1     -35.334   4.907  95.201  1.00  0.00     0.189 HD
BRANCH   3   5
HETATM    5  N1  UNL     1     -33.547   5.899  95.137  1.00  0.00    -0.313 N 
BRANCH   5   6
HETATM    6  C2  UNL     1     -33.319   7.287  94.915  1.00  0.00     0.094 C 
HETATM    7  C1  UNL     1     -33.172   7.525  93.397  1.00  0.00     0.033 C 
HETATM    8  C3  UNL     1     -32.079   7.842  95.540  1.00  0.00     0.033 C 
ENDBRANCH   5   6
BRANCH   5   9
HETATM    9  C4  UNL     1     -32.448   5.183  95.679  1.00  0.00     0.242 C 
BRANCH   9  10
HETATM   10  C5  UNL     1     -32.605   3.713  95.558  1.00  0.00     0.250 C 
HETATM   11  N2  UNL     1     -33.410   2.973  96.456  1.00  0.00    -0.061 NA
HETATM   12  O1  UNL     1     -32.016   3.107  94.649  1.00  0.00    -0.275 OA
ENDBRANCH   9  10
ENDBRANCH   5   9
ENDBRANCH   3   5
ENDBRANCH   1   3
BRANCH   1  13
HETATM   13  N4  UNL     1     -36.520   6.880  96.821  1.00  0.00    -0.272 N 
ATOM     14  H4  UNL     1     -36.501   7.890  96.680  1.00  0.00     0.189 HD
BRANCH  13  15
HETATM   15  N5  UNL     1     -37.717   6.217  96.932  1.00  0.00    -0.267 N 
HETATM   16  C7  UNL     1     -38.419   6.147  98.145  1.00  0.00     0.243 C 
HETATM   17  O2  UNL     1     -37.919   6.717  99.155  1.00  0.00    -0.271 OA
ATOM     18  H5  UNL     1     -38.107   5.761  96.107  1.00  0.00     0.190 HD
BRANCH  16  19
HETATM   19  C8  UNL     1     -39.731   5.419  98.257  1.00  0.00     0.032 C 
HETATM   20  C9  UNL     1     -40.361   5.375  96.889  1.00  0.00     0.025 C 
HETATM   21  C10 UNL     1     -40.662   6.244  99.157  1.00  0.00     0.025 C 
HETATM   22  C11 UNL     1     -39.576   4.052  98.855  1.00  0.00     0.025 C 
ENDBRANCH  16  19
ENDBRANCH  13  15
ENDBRANCH   1  13
TORSDOF 8
ENDMDL
MODEL 5
REMARK VINA RESULT: -5.763229180      2.323      3.702
REMARK  8 active torsions:
REMARK  status: ('A' for Active; 'I' for Inactive)
REMARK    1  A    between atoms: C2_2  and  N1_4 
REMARK    2  A    between atoms: N1_4  and  C4_5 
REMARK    3  A    between atoms: N1_4  and  N3_9 
REMARK    4  A    between atoms: C4_5  and  C5_6 
REMARK    5  A    between atoms: N3_9  and  C6_11 
REMARK    6  A    between atoms: C6_11  and  N4_13 
REMARK    7  A    between atoms: N4_13  and  N5_15 
REMARK       I    between atoms: N5_15  and  C7_17 
REMARK    8  A    between atoms: C7_17  and  C8_19 
ROOT
HETATM    1  C6  UNL     1     -31.787   5.867  95.865  1.00  0.00     0.205 C 
HETATM    2  S1  UNL     1     -31.441   4.783  94.711  1.00  0.00    -0.038 SA
ENDROOT
BRANCH   1   3
HETATM    3  N3  UNL     1     -31.204   7.177  95.858  1.00  0.00    -0.277 N 
ATOM      4  H3  UNL     1     -30.261   7.265  96.237  1.00  0.00     0.189 HD
BRANCH   3   5
HETATM    5  N1  UNL     1     -31.793   8.323  95.390  1.00  0.00    -0.313 N 
BRANCH   5   6
HETATM    6  C2  UNL     1     -31.450   9.511  96.095  1.00  0.00     0.094 C 
HETATM    7  C1  UNL     1     -31.586  10.711  95.134  1.00  0.00     0.033 C 
HETATM    8  C3  UNL     1     -30.052   9.563  96.625  1.00  0.00     0.033 C 
ENDBRANCH   5   6
BRANCH   5   9
HETATM    9  C4  UNL     1     -31.814   8.442  93.976  1.00  0.00     0.242 C 
BRANCH   9  10
HETATM   10  C5  UNL     1     -32.973   7.752  93.359  1.00  0.00     0.250 C 
HETATM   11  N2  UNL     1     -34.015   7.202  94.141  1.00  0.00    -0.061 NA
HETATM   12  O1  UNL     1     -33.036   7.646  92.124  1.00  0.00    -0.275 OA
ENDBRANCH   9  10
ENDBRANCH   5   9
ENDBRANCH   3   5
ENDBRANCH   1   3
BRANCH   1  13
HETATM   13  N4  UNL     1     -32.689   5.540  96.926  1.00  0.00    -0.272 N 
ATOM     14  H4  UNL     1     -32.466   4.790  97.582  1.00  0.00     0.189 HD
BRANCH  13  15
HETATM   15  N5  UNL     1     -33.859   6.246  97.052  1.00  0.00    -0.267 N 
HETATM   16  C7  UNL     1     -35.097   5.611  97.228  1.00  0.00     0.243 C 
HETATM   17  O2  UNL     1     -35.117   4.349  97.269  1.00  0.00    -0.271 OA
ATOM     18  H5  UNL     1     -33.827   7.265  97.016  1.00  0.00     0.190 HD
BRANCH  16  19
HETATM   19  C8  UNL     1     -36.375   6.393  97.366  1.00  0.00     0.032 C 
HETATM   20  C9  UNL     1     -36.434   7.395  96.243  1.00  0.00     0.025 C 
HETATM   21  C10 UNL     1     -36.311   7.188  98.677  1.00  0.00     0.025 C 
HETATM   22  C11 UNL     1     -37.585   5.508  97.403  1.00  0.00     0.025 C 
ENDBRANCH  16  19
ENDBRANCH  13  15
ENDBRANCH   1  13
TORSDOF 8
ENDMDL
