MODEL 1
REMARK VINA RESULT: -6.315967286      0.000      0.000
REMARK  4 active torsions:
REMARK  status: ('A' for Active; 'I' for Inactive)
REMARK       I    between atoms: C1_2  and  N1_3 
REMARK       I    between atoms: C1_2  and  N2_12 
REMARK    1  A    between atoms: N1_3  and  C2_5 
REMARK    2  A    between atoms: C2_5  and  C3_6 
REMARK    3  A    between atoms: C2_5  and  C4_9 
REMARK    4  A    between atoms: N2_12  and  C5_14 
ROOT
HETATM    1  O1  UNL     1     -36.516   7.132  96.674  1.00  0.00    -0.247 OA
HETATM    2  C1  UNL     1     -36.532   5.899  96.911  1.00  0.00     0.317 C 
HETATM    3  N1  UNL     1     -37.748   5.342  97.369  1.00  0.00    -0.320 N 
ATOM      4  H1  UNL     1     -37.780   4.342  97.565  1.00  0.00     0.165 HD
HETATM    5  N2  UNL     1     -35.409   5.085  96.737  1.00  0.00    -0.338 N 
ATOM      6  H2  UNL     1     -35.509   4.093  96.953  1.00  0.00     0.164 HD
ENDROOT
BRANCH   3   7
HETATM    7  C2  UNL     1     -38.951   6.121  97.573  1.00  0.00     0.289 C 
BRANCH   7   8
HETATM    8  C3  UNL     1     -40.168   5.396  97.162  1.00  0.00     0.207 C 
HETATM    9  O2  UNL     1     -40.298   4.199  97.494  1.00  0.00    -0.646 OA
HETATM   10  O3  UNL     1     -41.157   6.004  96.426  1.00  0.00    -0.646 OA
ENDBRANCH   7   8
BRANCH   7  11
HETATM   11  C4  UNL     1     -39.064   6.437  99.017  1.00  0.00     0.207 C 
HETATM   12  O4  UNL     1     -38.090   6.820  99.698  1.00  0.00    -0.646 OA
HETATM   13  O5  UNL     1     -40.300   6.302  99.647  1.00  0.00    -0.646 OA
ENDBRANCH   7  11
ENDBRANCH   3   7
BRANCH   5  14
HETATM   14  C5  UNL     1     -34.121   5.539  96.275  1.00  0.00     0.098 C 
HETATM   15  C6  UNL     1     -34.008   5.513  94.758  1.00  0.00     0.033 C 
HETATM   16  C7  UNL     1     -33.805   4.020  94.482  1.00  0.00     0.009 C 
HETATM   17  C11 UNL     1     -32.716   6.252  94.428  1.00  0.00     0.174 C 
HETATM   18  C8  UNL     1     -33.110   3.468  95.704  1.00  0.00     0.009 C 
HETATM   19  C9  UNL     1     -32.996   4.614  96.667  1.00  0.00     0.033 C 
HETATM   20  C10 UNL     1     -31.698   5.350  96.305  1.00  0.00     0.174 C 
HETATM   21  O6  UNL     1     -31.934   6.466  95.539  1.00  0.00    -0.390 OA
ENDBRANCH   5  14
TORSDOF 4
ENDMDL
MODEL 2
REMARK VINA RESULT: -5.926740197      0.861      1.057
REMARK  4 active torsions:
REMARK  status: ('A' for Active; 'I' for Inactive)
REMARK       I    between atoms: C1_2  and  N1_3 
REMARK       I    between atoms: C1_2  and  N2_12 
REMARK    1  A    between atoms: N1_3  and  C2_5 
REMARK    2  A    between atoms: C2_5  and  C3_6 
REMARK    3  A    between atoms: C2_5  and  C4_9 
REMARK    4  A    between atoms: N2_12  and  C5_14 
ROOT
HETATM    1  O1  UNL     1     -36.952   7.216  96.654  1.00  0.00    -0.247 OA
HETATM    2  C1  UNL     1     -36.918   5.983  96.892  1.00  0.00     0.317 C 
HETATM    3  N1  UNL     1     -38.050   5.413  97.518  1.00  0.00    -0.320 N 
ATOM      4  H1  UNL     1     -38.041   4.413  97.718  1.00  0.00     0.165 HD
HETATM    5  N2  UNL     1     -35.820   5.183  96.563  1.00  0.00    -0.338 N 
ATOM      6  H2  UNL     1     -35.876   4.191  96.792  1.00  0.00     0.164 HD
ENDROOT
BRANCH   3   7
HETATM    7  C2  UNL     1     -39.223   6.177  97.889  1.00  0.00     0.289 C 
BRANCH   7   8
HETATM    8  C3  UNL     1     -40.442   5.705  97.204  1.00  0.00     0.207 C 
HETATM    9  O2  UNL     1     -40.373   4.688  96.483  1.00  0.00    -0.646 OA
HETATM   10  O3  UNL     1     -41.644   6.356  97.343  1.00  0.00    -0.646 OA
ENDBRANCH   7   8
BRANCH   7  11
HETATM   11  C4  UNL     1     -39.428   6.040  99.350  1.00  0.00     0.207 C 
HETATM   12  O4  UNL     1     -39.121   6.943 100.158  1.00  0.00    -0.646 OA
HETATM   13  O5  UNL     1     -39.981   4.864  99.850  1.00  0.00    -0.646 OA
ENDBRANCH   7  11
ENDBRANCH   3   7
BRANCH   5  14
HETATM   14  C5  UNL     1     -34.616   5.653  95.924  1.00  0.00     0.098 C 
HETATM   15  C6  UNL     1     -33.986   4.595  95.030  1.00  0.00     0.033 C 
HETATM   16  C7  UNL     1     -33.323   3.669  96.054  1.00  0.00     0.009 C 
HETATM   17  C11 UNL     1     -32.897   5.316  94.244  1.00  0.00     0.174 C 
HETATM   18  C8  UNL     1     -32.972   4.546  97.233  1.00  0.00     0.009 C 
HETATM   19  C9  UNL     1     -33.496   5.913  96.900  1.00  0.00     0.033 C 
HETATM   20  C10 UNL     1     -32.389   6.612  96.097  1.00  0.00     0.174 C 
HETATM   21  O6  UNL     1     -32.627   6.568  94.745  1.00  0.00    -0.390 OA
ENDBRANCH   5  14
TORSDOF 4
ENDMDL
MODEL 3
REMARK VINA RESULT: -5.691078367      1.748      6.854
REMARK  4 active torsions:
REMARK  status: ('A' for Active; 'I' for Inactive)
REMARK       I    between atoms: C1_2  and  N1_3 
REMARK       I    between atoms: C1_2  and  N2_12 
REMARK    1  A    between atoms: N1_3  and  C2_5 
REMARK    2  A    between atoms: C2_5  and  C3_6 
REMARK    3  A    between atoms: C2_5  and  C4_9 
REMARK    4  A    between atoms: N2_12  and  C5_14 
ROOT
HETATM    1  O1  UNL     1     -35.512   5.919  98.468  1.00  0.00    -0.247 OA
HETATM    2  C1  UNL     1     -35.999   5.717  97.328  1.00  0.00     0.317 C 
HETATM    3  N1  UNL     1     -35.121   5.806  96.223  1.00  0.00    -0.320 N 
ATOM      4  H1  UNL     1     -35.499   5.644  95.290  1.00  0.00     0.165 HD
HETATM    5  N2  UNL     1     -37.349   5.415  97.129  1.00  0.00    -0.338 N 
ATOM      6  H2  UNL     1     -37.662   5.266  96.170  1.00  0.00     0.164 HD
ENDROOT
BRANCH   3   7
HETATM    7  C2  UNL     1     -33.713   6.115  96.351  1.00  0.00     0.289 C 
BRANCH   7   8
HETATM    8  C3  UNL     1     -32.880   4.903  96.479  1.00  0.00     0.207 C 
HETATM    9  O2  UNL     1     -31.637   5.020  96.454  1.00  0.00    -0.646 OA
HETATM   10  O3  UNL     1     -33.439   3.656  96.626  1.00  0.00    -0.646 OA
ENDBRANCH   7   8
BRANCH   7  11
HETATM   11  C4  UNL     1     -33.283   6.847  95.136  1.00  0.00     0.207 C 
HETATM   12  O4  UNL     1     -33.566   6.459  93.983  1.00  0.00    -0.646 OA
HETATM   13  O5  UNL     1     -32.534   8.014  95.277  1.00  0.00    -0.646 OA
ENDBRANCH   7  11
ENDBRANCH   3   7
BRANCH   5  14
HETATM   14  C5  UNL     1     -38.334   5.297  98.176  1.00  0.00     0.098 C 
HETATM   15  C6  UNL     1     -39.299   4.145  97.935  1.00  0.00     0.033 C 
HETATM   16  C7  UNL     1     -40.220   4.724  96.857  1.00  0.00     0.009 C 
HETATM   17  C11 UNL     1     -40.092   3.996  99.228  1.00  0.00     0.174 C 
HETATM   18  C8  UNL     1     -40.234   6.217  97.088  1.00  0.00     0.009 C 
HETATM   19  C9  UNL     1     -39.284   6.467  98.224  1.00  0.00     0.033 C 
HETATM   20  C10 UNL     1     -40.102   6.295  99.512  1.00  0.00     0.174 C 
HETATM   21  O6  UNL     1     -39.914   5.060 100.081  1.00  0.00    -0.390 OA
ENDBRANCH   5  14
TORSDOF 4
ENDMDL
MODEL 4
REMARK VINA RESULT: -5.618208906      1.309      2.613
REMARK  4 active torsions:
REMARK  status: ('A' for Active; 'I' for Inactive)
REMARK       I    between atoms: C1_2  and  N1_3 
REMARK       I    between atoms: C1_2  and  N2_12 
REMARK    1  A    between atoms: N1_3  and  C2_5 
REMARK    2  A    between atoms: C2_5  and  C3_6 
REMARK    3  A    between atoms: C2_5  and  C4_9 
REMARK    4  A    between atoms: N2_12  and  C5_14 
ROOT
HETATM    1  O1  UNL     1     -35.360   5.131  97.932  1.00  0.00    -0.247 OA
HETATM    2  C1  UNL     1     -35.822   5.753  96.944  1.00  0.00     0.317 C 
HETATM    3  N1  UNL     1     -37.217   5.982  96.916  1.00  0.00    -0.320 N 
ATOM      4  H1  UNL     1     -37.609   6.487  96.122  1.00  0.00     0.165 HD
HETATM    5  N2  UNL     1     -35.014   6.214  95.900  1.00  0.00    -0.338 N 
ATOM      6  H2  UNL     1     -35.471   6.710  95.136  1.00  0.00     0.164 HD
ENDROOT
BRANCH   3   7
HETATM    7  C2  UNL     1     -38.116   5.535  97.959  1.00  0.00     0.289 C 
BRANCH   7   8
HETATM    8  C3  UNL     1     -38.198   6.491  99.079  1.00  0.00     0.207 C 
HETATM    9  O2  UNL     1     -37.225   7.242  99.303  1.00  0.00    -0.646 OA
HETATM   10  O3  UNL     1     -39.314   6.575  99.877  1.00  0.00    -0.646 OA
ENDBRANCH   7   8
BRANCH   7  11
HETATM   11  C4  UNL     1     -39.470   5.385  97.377  1.00  0.00     0.207 C 
HETATM   12  O4  UNL     1     -39.989   6.260  96.651  1.00  0.00    -0.646 OA
HETATM   13  O5  UNL     1     -40.200   4.229  97.644  1.00  0.00    -0.646 OA
ENDBRANCH   7  11
ENDBRANCH   3   7
BRANCH   5  14
HETATM   14  C5  UNL     1     -33.585   6.041  95.822  1.00  0.00     0.098 C 
HETATM   15  C6  UNL     1     -32.852   7.363  95.640  1.00  0.00     0.033 C 
HETATM   16  C7  UNL     1     -33.100   7.660  94.158  1.00  0.00     0.009 C 
HETATM   17  C11 UNL     1     -31.374   7.044  95.834  1.00  0.00     0.174 C 
HETATM   18  C8  UNL     1     -33.243   6.314  93.488  1.00  0.00     0.009 C 
HETATM   19  C9  UNL     1     -33.149   5.294  94.586  1.00  0.00     0.033 C 
HETATM   20  C10 UNL     1     -31.653   5.003  94.774  1.00  0.00     0.174 C 
HETATM   21  O6  UNL     1     -31.122   5.692  95.836  1.00  0.00    -0.390 OA
ENDBRANCH   5  14
TORSDOF 4
ENDMDL
MODEL 5
REMARK VINA RESULT: -5.424312758      5.445      7.729
REMARK  4 active torsions:
REMARK  status: ('A' for Active; 'I' for Inactive)
REMARK       I    between atoms: C1_2  and  N1_3 
REMARK       I    between atoms: C1_2  and  N2_12 
REMARK    1  A    between atoms: N1_3  and  C2_5 
REMARK    2  A    between atoms: C2_5  and  C3_6 
REMARK    3  A    between atoms: C2_5  and  C4_9 
REMARK    4  A    between atoms: N2_12  and  C5_14 
ROOT
HETATM    1  O1  UNL     1     -41.633   1.504  98.754  1.00  0.00    -0.247 OA
HETATM    2  C1  UNL     1     -40.436   1.882  98.710  1.00  0.00     0.317 C 
HETATM    3  N1  UNL     1     -39.441   0.917  98.987  1.00  0.00    -0.320 N 
ATOM      4  H1  UNL     1     -38.463   1.206  98.954  1.00  0.00     0.165 HD
HETATM    5  N2  UNL     1     -40.073   3.196  98.400  1.00  0.00    -0.338 N 
ATOM      6  H2  UNL     1     -39.078   3.418  98.386  1.00  0.00     0.164 HD
ENDROOT
BRANCH   3   7
HETATM    7  C2  UNL     1     -39.740  -0.461  99.315  1.00  0.00     0.289 C 
BRANCH   7   8
HETATM    8  C3  UNL     1     -40.124  -1.251  98.130  1.00  0.00     0.207 C 
HETATM    9  O2  UNL     1     -39.362  -1.264  97.141  1.00  0.00    -0.646 OA
HETATM   10  O3  UNL     1     -41.295  -1.970  98.090  1.00  0.00    -0.646 OA
ENDBRANCH   7   8
BRANCH   7  11
HETATM   11  C4  UNL     1     -38.528  -1.074  99.910  1.00  0.00     0.207 C 
HETATM   12  O4  UNL     1     -37.465  -0.438 100.068  1.00  0.00    -0.646 OA
HETATM   13  O5  UNL     1     -38.568  -2.408 100.308  1.00  0.00    -0.646 OA
ENDBRANCH   7  11
ENDBRANCH   3   7
BRANCH   5  14
HETATM   14  C5  UNL     1     -40.998   4.260  98.099  1.00  0.00     0.098 C 
HETATM   15  C6  UNL     1     -40.524   5.127  96.941  1.00  0.00     0.033 C 
HETATM   16  C7  UNL     1     -39.442   5.982  97.609  1.00  0.00     0.009 C 
HETATM   17  C11 UNL     1     -41.706   6.022  96.587  1.00  0.00     0.174 C 
HETATM   18  C8  UNL     1     -39.855   6.109  99.056  1.00  0.00     0.009 C 
HETATM   19  C9  UNL     1     -41.099   5.281  99.205  1.00  0.00     0.033 C 
HETATM   20  C10 UNL     1     -42.271   6.198  98.827  1.00  0.00     0.174 C 
HETATM   21  O6  UNL     1     -42.698   5.987  97.539  1.00  0.00    -0.390 OA
ENDBRANCH   5  14
TORSDOF 4
ENDMDL
