MODEL 1
REMARK VINA RESULT: -6.518875621      0.000      0.000
REMARK  6 active torsions:
REMARK  status: ('A' for Active; 'I' for Inactive)
REMARK    1  A    between atoms: C2_2  and  N1_5 
REMARK       I    between atoms: N1_5  and  C5_7 
REMARK    2  A    between atoms: C5_7  and  C6_9 
REMARK    3  A    between atoms: C6_9  and  N2_10 
REMARK    4  A    between atoms: C6_9  and  N3_14 
REMARK    5  A    between atoms: N2_10  and  C7_12 
REMARK       I    between atoms: N3_14  and  C8_16 
REMARK    6  A    between atoms: C8_16  and  C9_18 
ROOT
HETATM    1  C6  UNL     1     -34.985   6.314  96.994  1.00  0.00     0.280 C 
ENDROOT
BRANCH   1   2
HETATM    2  C5  UNL     1     -34.235   6.303  95.695  1.00  0.00     0.261 C 
HETATM    3  N1  UNL     1     -33.230   7.292  95.560  1.00  0.00    -0.350 N 
ATOM      4  H1  UNL     1     -33.110   7.935  96.343  1.00  0.00     0.163 HD
HETATM    5  O1  UNL     1     -34.445   5.480  94.800  1.00  0.00    -0.269 OA
BRANCH   3   6
HETATM    6  C2  UNL     1     -32.363   7.480  94.431  1.00  0.00     0.022 C 
HETATM    7  C1  UNL     1     -31.488   8.732  94.689  1.00  0.00     0.037 C 
HETATM    8  C3  UNL     1     -33.130   7.807  93.140  1.00  0.00     0.037 C 
HETATM    9  C4  UNL     1     -31.522   6.294  94.200  1.00  0.00     0.037 C 
ENDBRANCH   3   6
ENDBRANCH   1   2
BRANCH   1  10
HETATM   10  N2  UNL     1     -34.200   5.445  97.910  1.00  0.00    -0.339 N 
ATOM     11  H2  UNL     1     -34.252   5.560  98.923  1.00  0.00     0.164 HD
BRANCH  10  12
HETATM   12  C7  UNL     1     -33.361   4.433  97.311  1.00  0.00     0.350 C 
HETATM   13  O2  UNL     1     -33.815   3.296  97.118  1.00  0.00    -0.284 OA
ENDBRANCH  10  12
ENDBRANCH   1  10
BRANCH   1  14
HETATM   14  N3  UNL     1     -36.259   5.610  96.880  1.00  0.00    -0.332 N 
HETATM   15  C8  UNL     1     -37.291   5.813  97.825  1.00  0.00     0.225 C 
HETATM   16  O3  UNL     1     -37.079   6.582  98.837  1.00  0.00    -0.273 OA
ATOM     17  H3  UNL     1     -36.406   4.962  96.107  1.00  0.00     0.165 HD
BRANCH  15  18
HETATM   18  C9  UNL     1     -38.645   5.253  97.823  1.00  0.00     0.103 C 
HETATM   19  C10 UNL     1     -39.622   6.354  97.408  1.00  0.00     0.017 C 
HETATM   20  C11 UNL     1     -40.817   5.581  96.826  1.00  0.00     0.028 C 
HETATM   21  C12 UNL     1     -41.247   4.597  97.862  1.00  0.00     0.232 C 
HETATM   22  N4  UNL     1     -40.600   4.796  99.131  1.00  0.00    -0.074 N 
HETATM   23  C13 UNL     1     -39.152   4.630  99.059  1.00  0.00     0.246 C 
ATOM     24  H42 UNL     1     -40.844   5.703  99.528  1.00  0.00     0.277 HD
ATOM     25  H41 UNL     1     -41.003   4.190  99.845  1.00  0.00     0.277 HD
ENDBRANCH  15  18
ENDBRANCH   1  14
TORSDOF 6
ENDMDL
MODEL 2
REMARK VINA RESULT: -6.464978546      1.534      7.067
REMARK  6 active torsions:
REMARK  status: ('A' for Active; 'I' for Inactive)
REMARK    1  A    between atoms: C2_2  and  N1_5 
REMARK       I    between atoms: N1_5  and  C5_7 
REMARK    2  A    between atoms: C5_7  and  C6_9 
REMARK    3  A    between atoms: C6_9  and  N2_10 
REMARK    4  A    between atoms: C6_9  and  N3_14 
REMARK    5  A    between atoms: N2_10  and  C7_12 
REMARK       I    between atoms: N3_14  and  C8_16 
REMARK    6  A    between atoms: C8_16  and  C9_18 
ROOT
HETATM    1  C6  UNL     1     -35.117   5.579  96.322  1.00  0.00     0.280 C 
ENDROOT
BRANCH   1   2
HETATM    2  C5  UNL     1     -36.412   6.165  96.803  1.00  0.00     0.261 C 
HETATM    3  N1  UNL     1     -37.239   5.290  97.550  1.00  0.00    -0.350 N 
ATOM      4  H1  UNL     1     -36.898   4.338  97.685  1.00  0.00     0.163 HD
HETATM    5  O1  UNL     1     -36.743   7.335  96.595  1.00  0.00    -0.269 OA
BRANCH   3   6
HETATM    6  C2  UNL     1     -38.511   5.610  98.134  1.00  0.00     0.022 C 
HETATM    7  C1  UNL     1     -39.156   4.300  98.651  1.00  0.00     0.037 C 
HETATM    8  C3  UNL     1     -39.517   6.155  97.109  1.00  0.00     0.037 C 
HETATM    9  C4  UNL     1     -38.366   6.586  99.227  1.00  0.00     0.037 C 
ENDBRANCH   3   6
ENDBRANCH   1   2
BRANCH   1  10
HETATM   10  N2  UNL     1     -34.684   4.645  97.395  1.00  0.00    -0.339 N 
ATOM     11  H2  UNL     1     -35.226   4.535  98.253  1.00  0.00     0.164 HD
BRANCH  10  12
HETATM   12  C7  UNL     1     -33.466   3.900  97.175  1.00  0.00     0.350 C 
HETATM   13  O2  UNL     1     -33.204   3.472  96.042  1.00  0.00    -0.284 OA
ENDBRANCH  10  12
ENDBRANCH   1  10
BRANCH   1  14
HETATM   14  N3  UNL     1     -34.054   6.579  96.304  1.00  0.00    -0.332 N 
HETATM   15  C8  UNL     1     -33.332   6.855  95.120  1.00  0.00     0.225 C 
HETATM   16  O3  UNL     1     -33.575   6.167  94.058  1.00  0.00    -0.273 OA
ATOM     17  H3  UNL     1     -33.828   7.087  97.160  1.00  0.00     0.165 HD
BRANCH  15  18
HETATM   18  C9  UNL     1     -32.295   7.868  94.905  1.00  0.00     0.103 C 
HETATM   19  C10 UNL     1     -32.110   8.654  96.203  1.00  0.00     0.017 C 
HETATM   20  C11 UNL     1     -30.671   9.186  96.106  1.00  0.00     0.028 C 
HETATM   21  C12 UNL     1     -30.560   9.913  94.809  1.00  0.00     0.232 C 
HETATM   22  N4  UNL     1     -31.829  10.095  94.155  1.00  0.00    -0.074 N 
HETATM   23  C13 UNL     1     -32.470   8.832  93.804  1.00  0.00     0.246 C 
ATOM     24  H42 UNL     1     -32.451  10.675  94.718  1.00  0.00     0.277 HD
ATOM     25  H41 UNL     1     -31.735  10.697  93.338  1.00  0.00     0.277 HD
ENDBRANCH  15  18
ENDBRANCH   1  14
TORSDOF 6
ENDMDL
MODEL 3
REMARK VINA RESULT: -6.354320512      1.178      1.239
REMARK  6 active torsions:
REMARK  status: ('A' for Active; 'I' for Inactive)
REMARK    1  A    between atoms: C2_2  and  N1_5 
REMARK       I    between atoms: N1_5  and  C5_7 
REMARK    2  A    between atoms: C5_7  and  C6_9 
REMARK    3  A    between atoms: C6_9  and  N2_10 
REMARK    4  A    between atoms: C6_9  and  N3_14 
REMARK    5  A    between atoms: N2_10  and  C7_12 
REMARK       I    between atoms: N3_14  and  C8_16 
REMARK    6  A    between atoms: C8_16  and  C9_18 
ROOT
HETATM    1  C6  UNL     1     -33.774   5.824  97.153  1.00  0.00     0.280 C 
ENDROOT
BRANCH   1   2
HETATM    2  C5  UNL     1     -33.549   6.303  95.749  1.00  0.00     0.261 C 
HETATM    3  N1  UNL     1     -32.622   7.365  95.605  1.00  0.00    -0.350 N 
ATOM      4  H1  UNL     1     -32.199   7.724  96.460  1.00  0.00     0.163 HD
HETATM    5  O1  UNL     1     -34.104   5.803  94.767  1.00  0.00    -0.269 OA
BRANCH   3   6
HETATM    6  C2  UNL     1     -32.219   7.984  94.374  1.00  0.00     0.022 C 
HETATM    7  C1  UNL     1     -31.585   9.359  94.703  1.00  0.00     0.037 C 
HETATM    8  C3  UNL     1     -33.407   8.317  93.459  1.00  0.00     0.037 C 
HETATM    9  C4  UNL     1     -31.269   7.136  93.635  1.00  0.00     0.037 C 
ENDBRANCH   3   6
ENDBRANCH   1   2
BRANCH   1  10
HETATM   10  N2  UNL     1     -32.941   4.601  97.291  1.00  0.00    -0.339 N 
ATOM     11  H2  UNL     1     -31.982   4.648  97.637  1.00  0.00     0.164 HD
BRANCH  10  12
HETATM   12  C7  UNL     1     -33.543   3.342  96.917  1.00  0.00     0.350 C 
HETATM   13  O2  UNL     1     -33.310   2.860  95.798  1.00  0.00    -0.284 OA
ENDBRANCH  10  12
ENDBRANCH   1  10
BRANCH   1  14
HETATM   14  N3  UNL     1     -35.132   5.323  97.334  1.00  0.00    -0.332 N 
HETATM   15  C8  UNL     1     -36.121   6.109  97.969  1.00  0.00     0.225 C 
HETATM   16  O3  UNL     1     -35.800   7.261  98.451  1.00  0.00    -0.273 OA
ATOM     17  H3  UNL     1     -35.372   4.391  96.998  1.00  0.00     0.165 HD
BRANCH  15  18
HETATM   18  C9  UNL     1     -37.540   5.798  98.166  1.00  0.00     0.103 C 
HETATM   19  C10 UNL     1     -38.346   6.502  97.075  1.00  0.00     0.017 C 
HETATM   20  C11 UNL     1     -39.622   5.652  96.958  1.00  0.00     0.028 C 
HETATM   21  C12 UNL     1     -40.207   5.554  98.326  1.00  0.00     0.232 C 
HETATM   22  N4  UNL     1     -39.568   6.424  99.277  1.00  0.00    -0.074 N 
HETATM   23  C13 UNL     1     -38.156   6.112  99.468  1.00  0.00     0.246 C 
ATOM     24  H42 UNL     1     -39.693   7.403  99.018  1.00  0.00     0.277 HD
ATOM     25  H41 UNL     1     -40.067   6.423 100.166  1.00  0.00     0.277 HD
ENDBRANCH  15  18
ENDBRANCH   1  14
TORSDOF 6
ENDMDL
MODEL 4
REMARK VINA RESULT: -6.225673670      1.148      1.395
REMARK  6 active torsions:
REMARK  status: ('A' for Active; 'I' for Inactive)
REMARK    1  A    between atoms: C2_2  and  N1_5 
REMARK       I    between atoms: N1_5  and  C5_7 
REMARK    2  A    between atoms: C5_7  and  C6_9 
REMARK    3  A    between atoms: C6_9  and  N2_10 
REMARK    4  A    between atoms: C6_9  and  N3_14 
REMARK    5  A    between atoms: N2_10  and  C7_12 
REMARK       I    between atoms: N3_14  and  C8_16 
REMARK    6  A    between atoms: C8_16  and  C9_18 
ROOT
HETATM    1  C6  UNL     1     -33.990   6.038  97.128  1.00  0.00     0.280 C 
ENDROOT
BRANCH   1   2
HETATM    2  C5  UNL     1     -33.602   6.426  95.732  1.00  0.00     0.261 C 
HETATM    3  N1  UNL     1     -32.620   7.442  95.629  1.00  0.00    -0.350 N 
ATOM      4  H1  UNL     1     -32.271   7.835  96.503  1.00  0.00     0.163 HD
HETATM    5  O1  UNL     1     -34.076   5.891  94.726  1.00  0.00    -0.269 OA
BRANCH   3   6
HETATM    6  C2  UNL     1     -32.068   7.974  94.415  1.00  0.00     0.022 C 
HETATM    7  C1  UNL     1     -31.261   9.250  94.763  1.00  0.00     0.037 C 
HETATM    8  C3  UNL     1     -33.146   8.457  93.432  1.00  0.00     0.037 C 
HETATM    9  C4  UNL     1     -31.212   6.985  93.738  1.00  0.00     0.037 C 
ENDBRANCH   3   6
ENDBRANCH   1   2
BRANCH   1  10
HETATM   10  N2  UNL     1     -33.254   4.777  97.406  1.00  0.00    -0.339 N 
ATOM     11  H2  UNL     1     -32.451   4.759  98.036  1.00  0.00     0.164 HD
BRANCH  10  12
HETATM   12  C7  UNL     1     -33.719   3.577  96.749  1.00  0.00     0.350 C 
HETATM   13  O2  UNL     1     -32.984   2.997  95.938  1.00  0.00    -0.284 OA
ENDBRANCH  10  12
ENDBRANCH   1  10
BRANCH   1  14
HETATM   14  N3  UNL     1     -35.388   5.629  97.200  1.00  0.00    -0.332 N 
HETATM   15  C8  UNL     1     -36.358   6.449  97.821  1.00  0.00     0.225 C 
HETATM   16  O3  UNL     1     -35.988   7.545  98.389  1.00  0.00    -0.273 OA
ATOM     17  H3  UNL     1     -35.671   4.736  96.795  1.00  0.00     0.165 HD
BRANCH  15  18
HETATM   18  C9  UNL     1     -37.804   6.232  97.917  1.00  0.00     0.103 C 
HETATM   19  C10 UNL     1     -38.191   6.194  99.395  1.00  0.00     0.017 C 
HETATM   20  C11 UNL     1     -39.672   6.608  99.396  1.00  0.00     0.028 C 
HETATM   21  C12 UNL     1     -40.380   5.698  98.449  1.00  0.00     0.232 C 
HETATM   22  N4  UNL     1     -39.560   4.605  97.999  1.00  0.00    -0.074 N 
HETATM   23  C13 UNL     1     -38.384   5.048  97.258  1.00  0.00     0.246 C 
ATOM     24  H42 UNL     1     -39.296   4.002  98.778  1.00  0.00     0.277 HD
ATOM     25  H41 UNL     1     -40.107   3.939  97.453  1.00  0.00     0.277 HD
ENDBRANCH  15  18
ENDBRANCH   1  14
TORSDOF 6
ENDMDL
MODEL 5
REMARK VINA RESULT: -6.098688089      1.802      2.476
REMARK  6 active torsions:
REMARK  status: ('A' for Active; 'I' for Inactive)
REMARK    1  A    between atoms: C2_2  and  N1_5 
REMARK       I    between atoms: N1_5  and  C5_7 
REMARK    2  A    between atoms: C5_7  and  C6_9 
REMARK    3  A    between atoms: C6_9  and  N2_10 
REMARK    4  A    between atoms: C6_9  and  N3_14 
REMARK    5  A    between atoms: N2_10  and  C7_12 
REMARK       I    between atoms: N3_14  and  C8_16 
REMARK    6  A    between atoms: C8_16  and  C9_18 
ROOT
HETATM    1  C6  UNL     1     -33.015   4.977  97.171  1.00  0.00     0.280 C 
ENDROOT
BRANCH   1   2
HETATM    2  C5  UNL     1     -32.199   5.780  96.201  1.00  0.00     0.261 C 
HETATM    3  N1  UNL     1     -32.906   6.776  95.483  1.00  0.00    -0.350 N 
ATOM      4  H1  UNL     1     -33.905   6.855  95.670  1.00  0.00     0.163 HD
HETATM    5  O1  UNL     1     -30.986   5.617  96.041  1.00  0.00    -0.269 OA
BRANCH   3   6
HETATM    6  C2  UNL     1     -32.355   7.684  94.517  1.00  0.00     0.022 C 
HETATM    7  C1  UNL     1     -33.493   8.144  93.573  1.00  0.00     0.037 C 
HETATM    8  C3  UNL     1     -31.331   7.015  93.587  1.00  0.00     0.037 C 
HETATM    9  C4  UNL     1     -31.722   8.841  95.172  1.00  0.00     0.037 C 
ENDBRANCH   3   6
ENDBRANCH   1   2
BRANCH   1  10
HETATM   10  N2  UNL     1     -32.786   3.556  96.799  1.00  0.00    -0.339 N 
ATOM     11  H2  UNL     1     -32.451   2.876  97.482  1.00  0.00     0.164 HD
BRANCH  10  12
HETATM   12  C7  UNL     1     -33.056   3.176  95.432  1.00  0.00     0.350 C 
HETATM   13  O2  UNL     1     -32.130   2.774  94.712  1.00  0.00    -0.284 OA
ENDBRANCH  10  12
ENDBRANCH   1  10
BRANCH   1  14
HETATM   14  N3  UNL     1     -34.445   5.154  96.939  1.00  0.00    -0.332 N 
HETATM   15  C8  UNL     1     -35.275   5.743  97.921  1.00  0.00     0.225 C 
HETATM   16  O3  UNL     1     -34.772   6.070  99.061  1.00  0.00    -0.273 OA
ATOM     17  H3  UNL     1     -34.851   4.848  96.056  1.00  0.00     0.165 HD
BRANCH  15  18
HETATM   18  C9  UNL     1     -36.702   6.063  97.828  1.00  0.00     0.103 C 
HETATM   19  C10 UNL     1     -37.351   5.773  99.182  1.00  0.00     0.017 C 
HETATM   20  C11 UNL     1     -38.585   6.692  99.200  1.00  0.00     0.028 C 
HETATM   21  C12 UNL     1     -39.361   6.405  97.959  1.00  0.00     0.232 C 
HETATM   22  N4  UNL     1     -38.880   5.250  97.248  1.00  0.00    -0.074 N 
HETATM   23  C13 UNL     1     -37.506   5.406  96.782  1.00  0.00     0.246 C 
ATOM     24  H42 UNL     1     -38.981   4.406  97.810  1.00  0.00     0.277 HD
ATOM     25  H41 UNL     1     -39.503   5.011  96.477  1.00  0.00     0.277 HD
ENDBRANCH  15  18
ENDBRANCH   1  14
TORSDOF 6
ENDMDL
