MODEL 1
REMARK VINA RESULT: -6.686229904      0.000      0.000
REMARK  6 active torsions:
REMARK  status: ('A' for Active; 'I' for Inactive)
REMARK    1  A    between atoms: C1_2  and  N1_3 
REMARK    2  A    between atoms: N1_3  and  N2_5 
REMARK    3  A    between atoms: N2_5  and  C2_7 
REMARK    4  A    between atoms: C2_7  and  N3_9 
REMARK    5  A    between atoms: N3_9  and  C3_11 
REMARK    6  A    between atoms: C3_11  and  C4_12 
ROOT
HETATM    1  C4  UNL     1     -32.177   4.964  95.437  1.00  0.00     0.206 C 
HETATM    2  C5  UNL     1     -32.510   5.566  96.793  1.00  0.00     0.072 C 
HETATM    3  C6  UNL     1     -33.961   5.199  97.066  1.00  0.00     0.064 C 
HETATM    4  C7  UNL     1     -34.788   5.830  95.978  1.00  0.00     0.040 C 
HETATM    5  C8  UNL     1     -36.027   6.281  96.708  1.00  0.00     0.029 C 
HETATM    6  C9  UNL     1     -35.660   6.191  98.145  1.00  0.00     0.168 C 
HETATM    7  O2  UNL     1     -34.380   5.698  98.265  1.00  0.00    -0.380 OA
HETATM    8  C10 UNL     1     -34.085   3.698  97.059  1.00  0.00     0.065 C 
HETATM    9  C11 UNL     1     -33.383   3.029  95.929  1.00  0.00     0.235 C 
HETATM   10  N4  UNL     1     -32.075   3.550  95.625  1.00  0.00    -0.069 N 
ATOM     11  H41 UNL     1     -31.382   3.298  96.329  1.00  0.00     0.277 HD
ATOM     12  H42 UNL     1     -31.644   3.081  94.829  1.00  0.00     0.277 HD
ENDROOT
BRANCH   1  13
HETATM   13  C3  UNL     1     -31.027   5.624  94.772  1.00  0.00     0.155 C 
BRANCH  13  14
HETATM   14  N3  UNL     1     -31.325   6.398  93.613  1.00  0.00    -0.364 N 
ATOM     15  H3  UNL     1     -31.225   5.989  92.684  1.00  0.00     0.162 HD
BRANCH  14  16
HETATM   16  C2  UNL     1     -31.759   7.737  93.756  1.00  0.00     0.186 C 
HETATM   17  S1  UNL     1     -33.261   8.134  93.275  1.00  0.00    -0.040 SA
BRANCH  16  18
HETATM   18  N2  UNL     1     -30.893   8.700  94.314  1.00  0.00    -0.274 N 
ATOM     19  H2  UNL     1     -29.946   8.795  93.948  1.00  0.00     0.189 HD
BRANCH  18  20
HETATM   20  N1  UNL     1     -31.314   9.533  95.368  1.00  0.00    -0.275 N 
ATOM     21  H1  UNL     1     -32.159  10.086  95.227  1.00  0.00     0.189 HD
BRANCH  20  22
HETATM   22  C1  UNL     1     -30.655   9.654  96.594  1.00  0.00     0.368 C 
HETATM   23  O1  UNL     1     -29.411   9.691  96.732  1.00  0.00    -0.282 OA
ENDBRANCH  20  22
ENDBRANCH  18  20
ENDBRANCH  16  18
ENDBRANCH  14  16
ENDBRANCH  13  14
ENDBRANCH   1  13
TORSDOF 6
ENDMDL
MODEL 2
REMARK VINA RESULT: -6.669627847      1.551      1.739
REMARK  6 active torsions:
REMARK  status: ('A' for Active; 'I' for Inactive)
REMARK    1  A    between atoms: C1_2  and  N1_3 
REMARK    2  A    between atoms: N1_3  and  N2_5 
REMARK    3  A    between atoms: N2_5  and  C2_7 
REMARK    4  A    between atoms: C2_7  and  N3_9 
REMARK    5  A    between atoms: N3_9  and  C3_11 
REMARK    6  A    between atoms: C3_11  and  C4_12 
ROOT
HETATM    1  C4  UNL     1     -32.387   6.233  94.506  1.00  0.00     0.206 C 
HETATM    2  C5  UNL     1     -32.431   6.185  96.025  1.00  0.00     0.072 C 
HETATM    3  C6  UNL     1     -33.778   5.573  96.383  1.00  0.00     0.064 C 
HETATM    4  C7  UNL     1     -34.838   6.494  95.841  1.00  0.00     0.040 C 
HETATM    5  C8  UNL     1     -35.899   6.461  96.911  1.00  0.00     0.029 C 
HETATM    6  C9  UNL     1     -35.225   5.832  98.077  1.00  0.00     0.168 C 
HETATM    7  O2  UNL     1     -33.937   5.484  97.735  1.00  0.00    -0.380 OA
HETATM    8  C10 UNL     1     -33.861   4.203  95.762  1.00  0.00     0.065 C 
HETATM    9  C11 UNL     1     -33.406   4.142  94.345  1.00  0.00     0.235 C 
HETATM   10  N4  UNL     1     -32.210   4.888  94.053  1.00  0.00    -0.069 N 
ATOM     11  H41 UNL     1     -31.374   4.451  94.440  1.00  0.00     0.277 HD
ATOM     12  H42 UNL     1     -31.952   4.840  93.068  1.00  0.00     0.277 HD
ENDROOT
BRANCH   1  13
HETATM   13  C3  UNL     1     -31.427   7.235  93.982  1.00  0.00     0.155 C 
BRANCH  13  14
HETATM   14  N3  UNL     1     -31.910   8.570  93.856  1.00  0.00    -0.364 N 
ATOM     15  H3  UNL     1     -32.592   8.802  93.134  1.00  0.00     0.162 HD
BRANCH  14  16
HETATM   16  C2  UNL     1     -31.441   9.572  94.737  1.00  0.00     0.186 C 
HETATM   17  S1  UNL     1     -31.807  11.127  94.428  1.00  0.00    -0.040 SA
BRANCH  16  18
HETATM   18  N2  UNL     1     -30.674   9.213  95.865  1.00  0.00    -0.274 N 
ATOM     19  H2  UNL     1     -30.571   8.228  96.108  1.00  0.00     0.189 HD
BRANCH  18  20
HETATM   20  N1  UNL     1     -30.047  10.192  96.659  1.00  0.00    -0.275 N 
ATOM     21  H1  UNL     1     -30.374  11.154  96.573  1.00  0.00     0.189 HD
BRANCH  20  22
HETATM   22  C1  UNL     1     -29.009   9.937  97.558  1.00  0.00     0.368 C 
HETATM   23  O1  UNL     1     -27.830  10.333  97.414  1.00  0.00    -0.282 OA
ENDBRANCH  20  22
ENDBRANCH  18  20
ENDBRANCH  16  18
ENDBRANCH  14  16
ENDBRANCH  13  14
ENDBRANCH   1  13
TORSDOF 6
ENDMDL
MODEL 3
REMARK VINA RESULT: -6.526849291      3.699      6.165
REMARK  6 active torsions:
REMARK  status: ('A' for Active; 'I' for Inactive)
REMARK    1  A    between atoms: C1_2  and  N1_3 
REMARK    2  A    between atoms: N1_3  and  N2_5 
REMARK    3  A    between atoms: N2_5  and  C2_7 
REMARK    4  A    between atoms: C2_7  and  N3_9 
REMARK    5  A    between atoms: N3_9  and  C3_11 
REMARK    6  A    between atoms: C3_11  and  C4_12 
ROOT
HETATM    1  C4  UNL     1     -33.229   5.810  96.135  1.00  0.00     0.206 C 
HETATM    2  C5  UNL     1     -33.669   6.919  95.194  1.00  0.00     0.072 C 
HETATM    3  C6  UNL     1     -32.389   7.579  94.702  1.00  0.00     0.064 C 
HETATM    4  C7  UNL     1     -31.691   8.143  95.910  1.00  0.00     0.040 C 
HETATM    5  C8  UNL     1     -31.126   9.445  95.403  1.00  0.00     0.029 C 
HETATM    6  C9  UNL     1     -31.822   9.667  94.108  1.00  0.00     0.168 C 
HETATM    7  O2  UNL     1     -32.660   8.606  93.845  1.00  0.00    -0.380 OA
HETATM    8  C10 UNL     1     -31.549   6.538  94.009  1.00  0.00     0.065 C 
HETATM    9  C11 UNL     1     -31.446   5.245  94.742  1.00  0.00     0.235 C 
HETATM   10  N4  UNL     1     -32.675   4.771  95.324  1.00  0.00    -0.069 N 
ATOM     11  H41 UNL     1     -33.332   4.430  94.622  1.00  0.00     0.277 HD
ATOM     12  H42 UNL     1     -32.552   3.898  95.837  1.00  0.00     0.277 HD
ENDROOT
BRANCH   1  13
HETATM   13  C3  UNL     1     -34.287   5.403  97.093  1.00  0.00     0.155 C 
BRANCH  13  14
HETATM   14  N3  UNL     1     -35.628   5.453  96.614  1.00  0.00    -0.364 N 
ATOM     15  H3  UNL     1     -35.847   5.136  95.670  1.00  0.00     0.162 HD
BRANCH  14  16
HETATM   16  C2  UNL     1     -36.655   5.944  97.454  1.00  0.00     0.186 C 
HETATM   17  S1  UNL     1     -36.310   7.140  98.503  1.00  0.00    -0.040 SA
BRANCH  16  18
HETATM   18  N2  UNL     1     -37.952   5.400  97.369  1.00  0.00    -0.274 N 
ATOM     19  H2  UNL     1     -38.068   4.390  97.279  1.00  0.00     0.189 HD
BRANCH  18  20
HETATM   20  N1  UNL     1     -39.092   6.226  97.407  1.00  0.00    -0.275 N 
ATOM     21  H1  UNL     1     -39.211   6.904  96.654  1.00  0.00     0.189 HD
BRANCH  20  22
HETATM   22  C1  UNL     1     -40.070   6.182  98.403  1.00  0.00     0.368 C 
HETATM   23  O1  UNL     1     -39.835   6.202  99.632  1.00  0.00    -0.282 OA
ENDBRANCH  20  22
ENDBRANCH  18  20
ENDBRANCH  16  18
ENDBRANCH  14  16
ENDBRANCH  13  14
ENDBRANCH   1  13
TORSDOF 6
ENDMDL
MODEL 4
REMARK VINA RESULT: -6.278615449      1.528      1.598
REMARK  6 active torsions:
REMARK  status: ('A' for Active; 'I' for Inactive)
REMARK    1  A    between atoms: C1_2  and  N1_3 
REMARK    2  A    between atoms: N1_3  and  N2_5 
REMARK    3  A    between atoms: N2_5  and  C2_7 
REMARK    4  A    between atoms: C2_7  and  N3_9 
REMARK    5  A    between atoms: N3_9  and  C3_11 
REMARK    6  A    between atoms: C3_11  and  C4_12 
ROOT
HETATM    1  C4  UNL     1     -32.460   5.950  95.877  1.00  0.00     0.206 C 
HETATM    2  C5  UNL     1     -33.008   6.640  97.116  1.00  0.00     0.072 C 
HETATM    3  C6  UNL     1     -34.411   6.085  97.315  1.00  0.00     0.064 C 
HETATM    4  C7  UNL     1     -35.209   6.457  96.094  1.00  0.00     0.040 C 
HETATM    5  C8  UNL     1     -36.566   6.789  96.661  1.00  0.00     0.029 C 
HETATM    6  C9  UNL     1     -36.332   6.915  98.123  1.00  0.00     0.168 C 
HETATM    7  O2  UNL     1     -35.012   6.642  98.406  1.00  0.00    -0.380 OA
HETATM    8  C10 UNL     1     -34.316   4.592  97.485  1.00  0.00     0.065 C 
HETATM    9  C11 UNL     1     -33.417   3.919  96.506  1.00  0.00     0.235 C 
HETATM   10  N4  UNL     1     -32.175   4.598  96.246  1.00  0.00    -0.069 N 
ATOM     11  H41 UNL     1     -31.525   4.536  97.029  1.00  0.00     0.277 HD
ATOM     12  H42 UNL     1     -31.605   4.117  95.551  1.00  0.00     0.277 HD
ENDROOT
BRANCH   1  13
HETATM   13  C3  UNL     1     -31.358   6.702  95.229  1.00  0.00     0.155 C 
BRANCH  13  14
HETATM   14  N3  UNL     1     -31.654   8.036  94.823  1.00  0.00    -0.364 N 
ATOM     15  H3  UNL     1     -31.222   8.825  95.303  1.00  0.00     0.162 HD
BRANCH  14  16
HETATM   16  C2  UNL     1     -32.548   8.260  93.750  1.00  0.00     0.186 C 
HETATM   17  S1  UNL     1     -33.036   6.992  92.854  1.00  0.00    -0.040 SA
BRANCH  16  18
HETATM   18  N2  UNL     1     -33.004   9.565  93.477  1.00  0.00    -0.274 N 
ATOM     19  H2  UNL     1     -33.986   9.714  93.240  1.00  0.00     0.189 HD
BRANCH  18  20
HETATM   20  N1  UNL     1     -32.129  10.667  93.526  1.00  0.00    -0.275 N 
ATOM     21  H1  UNL     1     -31.622  10.908  92.675  1.00  0.00     0.189 HD
BRANCH  20  22
HETATM   22  C1  UNL     1     -31.908  11.453  94.659  1.00  0.00     0.368 C 
HETATM   23  O1  UNL     1     -31.520  11.014  95.765  1.00  0.00    -0.282 OA
ENDBRANCH  20  22
ENDBRANCH  18  20
ENDBRANCH  16  18
ENDBRANCH  14  16
ENDBRANCH  13  14
ENDBRANCH   1  13
TORSDOF 6
ENDMDL
MODEL 5
REMARK VINA RESULT: -6.227961337      1.816      1.865
REMARK  6 active torsions:
REMARK  status: ('A' for Active; 'I' for Inactive)
REMARK    1  A    between atoms: C1_2  and  N1_3 
REMARK    2  A    between atoms: N1_3  and  N2_5 
REMARK    3  A    between atoms: N2_5  and  C2_7 
REMARK    4  A    between atoms: C2_7  and  N3_9 
REMARK    5  A    between atoms: N3_9  and  C3_11 
REMARK    6  A    between atoms: C3_11  and  C4_12 
ROOT
HETATM    1  C4  UNL     1     -33.491   5.525  95.137  1.00  0.00     0.206 C 
HETATM    2  C5  UNL     1     -33.679   6.625  96.169  1.00  0.00     0.072 C 
HETATM    3  C6  UNL     1     -34.687   6.086  97.173  1.00  0.00     0.064 C 
HETATM    4  C7  UNL     1     -35.965   5.828  96.420  1.00  0.00     0.040 C 
HETATM    5  C8  UNL     1     -37.030   6.248  97.401  1.00  0.00     0.029 C 
HETATM    6  C9  UNL     1     -36.291   7.006  98.444  1.00  0.00     0.168 C 
HETATM    7  O2  UNL     1     -34.944   6.999  98.154  1.00  0.00    -0.380 OA
HETATM    8  C10 UNL     1     -34.132   4.822  97.777  1.00  0.00     0.065 C 
HETATM    9  C11 UNL     1     -33.538   3.879  96.789  1.00  0.00     0.235 C 
HETATM   10  N4  UNL     1     -32.730   4.491  95.767  1.00  0.00    -0.069 N 
ATOM     11  H41 UNL     1     -31.836   4.827  96.126  1.00  0.00     0.277 HD
ATOM     12  H42 UNL     1     -32.366   3.812  95.098  1.00  0.00     0.277 HD
ENDROOT
BRANCH   1  13
HETATM   13  C3  UNL     1     -32.975   6.024  93.839  1.00  0.00     0.155 C 
BRANCH  13  14
HETATM   14  N3  UNL     1     -33.379   7.337  93.459  1.00  0.00    -0.364 N 
ATOM     15  H3  UNL     1     -34.312   7.496  93.080  1.00  0.00     0.162 HD
BRANCH  14  16
HETATM   16  C2  UNL     1     -32.479   8.418  93.610  1.00  0.00     0.186 C 
HETATM   17  S1  UNL     1     -31.005   8.135  94.238  1.00  0.00    -0.040 SA
BRANCH  16  18
HETATM   18  N2  UNL     1     -32.866   9.714  93.213  1.00  0.00    -0.274 N 
ATOM     19  H2  UNL     1     -33.743   9.843  92.708  1.00  0.00     0.189 HD
BRANCH  18  20
HETATM   20  N1  UNL     1     -32.063  10.834  93.501  1.00  0.00    -0.275 N 
ATOM     21  H1  UNL     1     -31.419  11.154  92.778  1.00  0.00     0.189 HD
BRANCH  20  22
HETATM   22  C1  UNL     1     -32.086  11.536  94.709  1.00  0.00     0.368 C 
HETATM   23  O1  UNL     1     -31.471  11.192  95.744  1.00  0.00    -0.282 OA
ENDBRANCH  20  22
ENDBRANCH  18  20
ENDBRANCH  16  18
ENDBRANCH  14  16
ENDBRANCH  13  14
ENDBRANCH   1  13
TORSDOF 6
ENDMDL
