MODEL 1
REMARK VINA RESULT: -6.895232270      0.000      0.000
REMARK  5 active torsions:
REMARK  status: ('A' for Active; 'I' for Inactive)
REMARK    1  A    between atoms: N1_1  and  C1_5 
REMARK    2  A    between atoms: C3_7  and  N2_8 
REMARK       I    between atoms: N2_8  and  C4_10 
REMARK    3  A    between atoms: C4_10  and  C5_12 
REMARK    4  A    between atoms: C11_19  and  N3_20 
REMARK    5  A    between atoms: N3_20  and  C12_22 
ROOT
HETATM    1  C1  UNL     1      16.782  -6.693  30.533  1.00  0.00     0.207 C 
HETATM    2  C2  UNL     1      17.953  -7.284  31.263  1.00  0.00     0.060 C 
HETATM    3  C3  UNL     1      18.411  -6.593  32.487  1.00  0.00     0.086 C 
HETATM    4  C9  UNL     1      17.470  -5.496  32.919  1.00  0.00     0.027 C 
HETATM    5  C10 UNL     1      16.072  -6.134  32.869  1.00  0.00     0.029 C 
HETATM    6  C11 UNL     1      15.706  -6.117  31.367  1.00  0.00     0.107 C 
ENDROOT
BRANCH   3   7
HETATM    7  N2  UNL     1      19.775  -6.160  32.453  1.00  0.00    -0.356 N 
HETATM    8  C4  UNL     1      20.693  -6.508  33.454  1.00  0.00     0.224 C 
HETATM    9  O1  UNL     1      20.275  -7.238  34.418  1.00  0.00    -0.273 OA
ATOM     10  H2  UNL     1      20.089  -5.578  31.676  1.00  0.00     0.162 HD
BRANCH   8  11
HETATM   11  C5  UNL     1      22.104  -6.098  33.481  1.00  0.00     0.103 C 
HETATM   12  C6  UNL     1      22.941  -6.906  32.477  1.00  0.00     0.042 C 
HETATM   13  C7  UNL     1      24.312  -6.714  33.083  1.00  0.00     0.168 C 
HETATM   14  O2  UNL     1      24.175  -6.577  34.433  1.00  0.00    -0.390 OA
HETATM   15  C8  UNL     1      22.827  -6.477  34.757  1.00  0.00     0.181 C 
ENDBRANCH   8  11
ENDBRANCH   3   7
BRANCH   1  16
HETATM   16  N1  UNL     1      17.316  -5.738  29.545  1.00  0.00    -0.073 N 
ATOM     17  H13 UNL     1      18.170  -5.277  29.858  1.00  0.00     0.274 HD
ATOM     18  H12 UNL     1      17.706  -6.194  28.720  1.00  0.00     0.274 HD
ATOM     19  H11 UNL     1      16.568  -5.081  29.321  1.00  0.00     0.274 HD
ENDBRANCH   1  16
BRANCH   6  20
HETATM   20  N3  UNL     1      14.455  -6.689  31.238  1.00  0.00    -0.409 N 
ATOM     21  H3  UNL     1      13.659  -6.067  31.381  1.00  0.00     0.154 HD
BRANCH  20  22
HETATM   22  C12 UNL     1      14.157  -7.990  30.942  1.00  0.00     0.104 C 
HETATM   23  C13 UNL     1      14.768  -9.147  31.624  1.00  0.00     0.054 C 
HETATM   24  C14 UNL     1      14.040 -10.280  30.862  1.00  0.00     0.234 C 
HETATM   25  N4  UNL     1      14.200  -9.861  29.491  1.00  0.00    -0.073 N 
HETATM   26  C15 UNL     1      14.321  -8.403  29.482  1.00  0.00     0.256 C 
ATOM     27  H42 UNL     1      14.978 -10.326  29.023  1.00  0.00     0.277 HD
ATOM     28  H41 UNL     1      13.454 -10.200  28.884  1.00  0.00     0.277 HD
ENDBRANCH  20  22
ENDBRANCH   6  20
TORSDOF 5
ENDMDL
MODEL 2
REMARK VINA RESULT: -6.270820174      1.643      2.003
REMARK  5 active torsions:
REMARK  status: ('A' for Active; 'I' for Inactive)
REMARK    1  A    between atoms: N1_1  and  C1_5 
REMARK    2  A    between atoms: C3_7  and  N2_8 
REMARK       I    between atoms: N2_8  and  C4_10 
REMARK    3  A    between atoms: C4_10  and  C5_12 
REMARK    4  A    between atoms: C11_19  and  N3_20 
REMARK    5  A    between atoms: N3_20  and  C12_22 
ROOT
HETATM    1  C1  UNL     1      17.543  -5.753  31.796  1.00  0.00     0.207 C 
HETATM    2  C2  UNL     1      19.019  -6.021  31.868  1.00  0.00     0.060 C 
HETATM    3  C3  UNL     1      19.486  -6.987  32.885  1.00  0.00     0.086 C 
HETATM    4  C9  UNL     1      18.348  -7.713  33.560  1.00  0.00     0.027 C 
HETATM    5  C10 UNL     1      17.442  -8.180  32.409  1.00  0.00     0.029 C 
HETATM    6  C11 UNL     1      16.650  -6.911  32.017  1.00  0.00     0.107 C 
ENDROOT
BRANCH   3   7
HETATM    7  N2  UNL     1      20.427  -6.457  33.824  1.00  0.00    -0.356 N 
HETATM    8  C4  UNL     1      21.810  -6.488  33.593  1.00  0.00     0.224 C 
HETATM    9  O1  UNL     1      22.218  -7.012  32.499  1.00  0.00    -0.273 OA
ATOM     10  H2  UNL     1      20.081  -6.043  34.690  1.00  0.00     0.162 HD
BRANCH   8  11
HETATM   11  C5  UNL     1      22.829  -5.964  34.512  1.00  0.00     0.103 C 
HETATM   12  C6  UNL     1      23.275  -4.550  34.105  1.00  0.00     0.042 C 
HETATM   13  C7  UNL     1      24.618  -4.503  34.797  1.00  0.00     0.168 C 
HETATM   14  O2  UNL     1      25.126  -5.768  34.846  1.00  0.00    -0.390 OA
HETATM   15  C8  UNL     1      24.164  -6.674  34.415  1.00  0.00     0.181 C 
ENDBRANCH   8  11
ENDBRANCH   3   7
BRANCH   1  16
HETATM   16  N1  UNL     1      17.255  -4.626  32.700  1.00  0.00    -0.073 N 
ATOM     17  H13 UNL     1      17.857  -3.819  32.535  1.00  0.00     0.274 HD
ATOM     18  H12 UNL     1      16.364  -4.171  32.498  1.00  0.00     0.274 HD
ATOM     19  H11 UNL     1      17.314  -4.978  33.656  1.00  0.00     0.274 HD
ENDBRANCH   1  16
BRANCH   6  20
HETATM   20  N3  UNL     1      15.812  -7.251  30.972  1.00  0.00    -0.409 N 
ATOM     21  H3  UNL     1      15.354  -6.476  30.493  1.00  0.00     0.154 HD
BRANCH  20  22
HETATM   22  C12 UNL     1      15.525  -8.502  30.503  1.00  0.00     0.104 C 
HETATM   23  C13 UNL     1      15.698  -8.911  29.096  1.00  0.00     0.054 C 
HETATM   24  C14 UNL     1      15.220 -10.378  29.218  1.00  0.00     0.234 C 
HETATM   25  N4  UNL     1      13.994 -10.225  29.962  1.00  0.00    -0.073 N 
HETATM   26  C15 UNL     1      14.114  -9.016  30.776  1.00  0.00     0.256 C 
ATOM     27  H42 UNL     1      13.166 -10.221  29.366  1.00  0.00     0.277 HD
ATOM     28  H41 UNL     1      13.760 -11.051  30.513  1.00  0.00     0.277 HD
ENDBRANCH  20  22
ENDBRANCH   6  20
TORSDOF 5
ENDMDL
MODEL 3
REMARK VINA RESULT: -6.014136514      0.805      1.071
REMARK  5 active torsions:
REMARK  status: ('A' for Active; 'I' for Inactive)
REMARK    1  A    between atoms: N1_1  and  C1_5 
REMARK    2  A    between atoms: C3_7  and  N2_8 
REMARK       I    between atoms: N2_8  and  C4_10 
REMARK    3  A    between atoms: C4_10  and  C5_12 
REMARK    4  A    between atoms: C11_19  and  N3_20 
REMARK    5  A    between atoms: N3_20  and  C12_22 
ROOT
HETATM    1  C1  UNL     1      16.965  -6.500  30.604  1.00  0.00     0.207 C 
HETATM    2  C2  UNL     1      18.093  -7.286  31.207  1.00  0.00     0.060 C 
HETATM    3  C3  UNL     1      18.626  -6.824  32.506  1.00  0.00     0.086 C 
HETATM    4  C9  UNL     1      17.786  -5.732  33.121  1.00  0.00     0.027 C 
HETATM    5  C10 UNL     1      16.339  -6.242  33.016  1.00  0.00     0.029 C 
HETATM    6  C11 UNL     1      15.952  -5.971  31.543  1.00  0.00     0.107 C 
ENDROOT
BRANCH   3   7
HETATM    7  N2  UNL     1      20.020  -6.501  32.500  1.00  0.00    -0.356 N 
HETATM    8  C4  UNL     1      20.856  -6.783  33.589  1.00  0.00     0.224 C 
HETATM    9  O1  UNL     1      20.333  -7.349  34.611  1.00  0.00    -0.273 OA
ATOM     10  H2  UNL     1      20.419  -6.051  31.676  1.00  0.00     0.162 HD
BRANCH   8  11
HETATM   11  C5  UNL     1      22.292  -6.479  33.649  1.00  0.00     0.103 C 
HETATM   12  C6  UNL     1      22.545  -5.087  34.249  1.00  0.00     0.042 C 
HETATM   13  C7  UNL     1      23.926  -4.823  33.694  1.00  0.00     0.168 C 
HETATM   14  O2  UNL     1      24.042  -5.463  32.495  1.00  0.00    -0.390 OA
HETATM   15  C8  UNL     1      22.933  -6.276  32.292  1.00  0.00     0.181 C 
ENDBRANCH   8  11
ENDBRANCH   3   7
BRANCH   1  16
HETATM   16  N1  UNL     1      17.561  -5.454  29.754  1.00  0.00    -0.073 N 
ATOM     17  H13 UNL     1      18.149  -4.804  30.276  1.00  0.00     0.274 HD
ATOM     18  H12 UNL     1      18.282  -5.813  29.128  1.00  0.00     0.274 HD
ATOM     19  H11 UNL     1      16.798  -4.991  29.260  1.00  0.00     0.274 HD
ENDBRANCH   1  16
BRANCH   6  20
HETATM   20  N3  UNL     1      14.656  -6.415  31.365  1.00  0.00    -0.409 N 
ATOM     21  H3  UNL     1      13.919  -5.735  31.547  1.00  0.00     0.154 HD
BRANCH  20  22
HETATM   22  C12 UNL     1      14.245  -7.659  30.975  1.00  0.00     0.104 C 
HETATM   23  C13 UNL     1      14.767  -8.913  31.551  1.00  0.00     0.054 C 
HETATM   24  C14 UNL     1      13.934  -9.918  30.719  1.00  0.00     0.234 C 
HETATM   25  N4  UNL     1      14.108  -9.405  29.382  1.00  0.00    -0.073 N 
HETATM   26  C15 UNL     1      14.351  -7.967  29.484  1.00  0.00     0.256 C 
ATOM     27  H42 UNL     1      14.836  -9.895  28.862  1.00  0.00     0.277 HD
ATOM     28  H41 UNL     1      13.327  -9.632  28.767  1.00  0.00     0.277 HD
ENDBRANCH  20  22
ENDBRANCH   6  20
TORSDOF 5
ENDMDL
MODEL 4
REMARK VINA RESULT: -5.775283905      1.307      1.401
REMARK  5 active torsions:
REMARK  status: ('A' for Active; 'I' for Inactive)
REMARK    1  A    between atoms: N1_1  and  C1_5 
REMARK    2  A    between atoms: C3_7  and  N2_8 
REMARK       I    between atoms: N2_8  and  C4_10 
REMARK    3  A    between atoms: C4_10  and  C5_12 
REMARK    4  A    between atoms: C11_19  and  N3_20 
REMARK    5  A    between atoms: N3_20  and  C12_22 
ROOT
HETATM    1  C1  UNL     1      16.402  -5.453  31.328  1.00  0.00     0.207 C 
HETATM    2  C2  UNL     1      17.882  -5.627  31.149  1.00  0.00     0.060 C 
HETATM    3  C3  UNL     1      18.584  -6.511  32.104  1.00  0.00     0.086 C 
HETATM    4  C9  UNL     1      17.633  -7.269  32.997  1.00  0.00     0.027 C 
HETATM    5  C10 UNL     1      16.574  -7.847  32.043  1.00  0.00     0.029 C 
HETATM    6  C11 UNL     1      15.642  -6.649  31.748  1.00  0.00     0.107 C 
ENDROOT
BRANCH   3   7
HETATM    7  N2  UNL     1      19.636  -5.879  32.840  1.00  0.00    -0.356 N 
HETATM    8  C4  UNL     1      20.929  -6.417  32.904  1.00  0.00     0.224 C 
HETATM    9  O1  UNL     1      21.151  -7.509  32.274  1.00  0.00    -0.273 OA
ATOM     10  H2  UNL     1      19.439  -5.009  33.335  1.00  0.00     0.162 HD
BRANCH   8  11
HETATM   11  C5  UNL     1      22.053  -5.822  33.640  1.00  0.00     0.103 C 
HETATM   12  C6  UNL     1      23.342  -5.838  32.801  1.00  0.00     0.042 C 
HETATM   13  C7  UNL     1      24.362  -5.726  33.910  1.00  0.00     0.168 C 
HETATM   14  O2  UNL     1      23.856  -6.320  35.029  1.00  0.00    -0.390 OA
HETATM   15  C8  UNL     1      22.523  -6.652  34.817  1.00  0.00     0.181 C 
ENDBRANCH   8  11
ENDBRANCH   3   7
BRANCH   1  16
HETATM   16  N1  UNL     1      16.199  -4.301  32.224  1.00  0.00    -0.073 N 
ATOM     17  H13 UNL     1      16.956  -3.618  32.173  1.00  0.00     0.274 HD
ATOM     18  H12 UNL     1      15.445  -3.686  31.918  1.00  0.00     0.274 HD
ATOM     19  H11 UNL     1      16.057  -4.668  33.166  1.00  0.00     0.274 HD
ENDBRANCH   1  16
BRANCH   6  20
HETATM   20  N3  UNL     1      14.660  -7.091  30.881  1.00  0.00    -0.409 N 
ATOM     21  H3  UNL     1      13.882  -6.451  30.719  1.00  0.00     0.154 HD
BRANCH  20  22
HETATM   22  C12 UNL     1      14.609  -8.283  30.214  1.00  0.00     0.104 C 
HETATM   23  C13 UNL     1      14.582  -9.597  30.885  1.00  0.00     0.054 C 
HETATM   24  C14 UNL     1      14.526 -10.500  29.629  1.00  0.00     0.234 C 
HETATM   25  N4  UNL     1      15.571  -9.931  28.813  1.00  0.00    -0.073 N 
HETATM   26  C15 UNL     1      15.698  -8.519  29.172  1.00  0.00     0.256 C 
ATOM     27  H42 UNL     1      16.452 -10.440  28.886  1.00  0.00     0.277 HD
ATOM     28  H41 UNL     1      15.415 -10.074  27.815  1.00  0.00     0.277 HD
ENDBRANCH  20  22
ENDBRANCH   6  20
TORSDOF 5
ENDMDL
MODEL 5
REMARK VINA RESULT: -5.291462382      1.872      2.513
REMARK  5 active torsions:
REMARK  status: ('A' for Active; 'I' for Inactive)
REMARK    1  A    between atoms: N1_1  and  C1_5 
REMARK    2  A    between atoms: C3_7  and  N2_8 
REMARK       I    between atoms: N2_8  and  C4_10 
REMARK    3  A    between atoms: C4_10  and  C5_12 
REMARK    4  A    between atoms: C11_19  and  N3_20 
REMARK    5  A    between atoms: N3_20  and  C12_22 
ROOT
HETATM    1  C1  UNL     1      18.051  -6.345  31.945  1.00  0.00     0.207 C 
HETATM    2  C2  UNL     1      19.541  -6.515  31.877  1.00  0.00     0.060 C 
HETATM    3  C3  UNL     1      20.242  -6.884  33.125  1.00  0.00     0.086 C 
HETATM    4  C9  UNL     1      19.290  -7.237  34.241  1.00  0.00     0.027 C 
HETATM    5  C10 UNL     1      18.281  -8.207  33.605  1.00  0.00     0.029 C 
HETATM    6  C11 UNL     1      17.318  -7.285  32.820  1.00  0.00     0.107 C 
ENDROOT
BRANCH   3   7
HETATM    7  N2  UNL     1      21.250  -5.957  33.541  1.00  0.00    -0.356 N 
HETATM    8  C4  UNL     1      22.602  -6.125  33.209  1.00  0.00     0.224 C 
HETATM    9  O1  UNL     1      22.920  -7.149  32.510  1.00  0.00    -0.273 OA
ATOM     10  H2  UNL     1      20.976  -5.146  34.097  1.00  0.00     0.162 HD
BRANCH   8  11
HETATM   11  C5  UNL     1      23.685  -5.214  33.602  1.00  0.00     0.103 C 
HETATM   12  C6  UNL     1      25.052  -5.733  33.127  1.00  0.00     0.042 C 
HETATM   13  C7  UNL     1      25.950  -4.986  34.087  1.00  0.00     0.168 C 
HETATM   14  O2  UNL     1      25.271  -4.793  35.256  1.00  0.00    -0.390 OA
HETATM   15  C8  UNL     1      23.946  -5.180  35.094  1.00  0.00     0.181 C 
ENDBRANCH   8  11
ENDBRANCH   3   7
BRANCH   1  16
HETATM   16  N1  UNL     1      17.783  -4.933  32.270  1.00  0.00    -0.073 N 
ATOM     17  H13 UNL     1      16.872  -4.790  32.707  1.00  0.00     0.274 HD
ATOM     18  H12 UNL     1      18.355  -4.585  33.039  1.00  0.00     0.274 HD
ATOM     19  H11 UNL     1      17.901  -4.395  31.411  1.00  0.00     0.274 HD
ENDBRANCH   1  16
BRANCH   6  20
HETATM   20  N3  UNL     1      16.379  -8.092  32.207  1.00  0.00    -0.409 N 
ATOM     21  H3  UNL     1      16.116  -8.939  32.711  1.00  0.00     0.154 HD
BRANCH  20  22
HETATM   22  C12 UNL     1      15.761  -7.890  31.004  1.00  0.00     0.104 C 
HETATM   23  C13 UNL     1      16.480  -7.790  29.720  1.00  0.00     0.054 C 
HETATM   24  C14 UNL     1      15.264  -7.573  28.787  1.00  0.00     0.234 C 
HETATM   25  N4  UNL     1      14.537  -6.543  29.490  1.00  0.00    -0.073 N 
HETATM   26  C15 UNL     1      14.848  -6.671  30.913  1.00  0.00     0.256 C 
ATOM     27  H42 UNL     1      14.722  -5.609  29.125  1.00  0.00     0.277 HD
ATOM     28  H41 UNL     1      13.535  -6.566  29.299  1.00  0.00     0.277 HD
ENDBRANCH  20  22
ENDBRANCH   6  20
TORSDOF 5
ENDMDL
