MODEL 1
REMARK VINA RESULT: -6.985786588      0.000      0.000
REMARK  9 active torsions:
REMARK  status: ('A' for Active; 'I' for Inactive)
REMARK    1  A    between atoms: C2_2  and  O1_3 
REMARK    2  A    between atoms: C2_2  and  N1_5 
REMARK    3  A    between atoms: N1_5  and  C3_7 
REMARK    4  A    between atoms: C3_7  and  O2_8 
REMARK    5  A    between atoms: C4_10  and  N2_11 
REMARK    6  A    between atoms: N2_11  and  C5_13 
REMARK    7  A    between atoms: C5_13  and  N3_15 
REMARK    8  A    between atoms: N3_15  and  N4_17 
REMARK       I    between atoms: N4_17  and  C6_19 
REMARK    9  A    between atoms: C6_19  and  C7_21 
ROOT
HETATM    1  C5  UNL     1      15.575  -5.302  30.833  1.00  0.00     0.190 C 
HETATM    2  S1  UNL     1      15.925  -3.724  30.685  1.00  0.00    -0.039 SA
ENDROOT
BRANCH   1   3
HETATM    3  N2  UNL     1      14.813  -5.933  29.759  1.00  0.00    -0.338 N 
ATOM      4  H2  UNL     1      13.829  -5.722  29.595  1.00  0.00     0.167 HD
BRANCH   3   5
HETATM    5  C4  UNL     1      15.524  -6.851  28.969  1.00  0.00     0.146 C 
HETATM    6  C3  UNL     1      15.379  -8.267  28.988  1.00  0.00     0.157 C 
BRANCH   6   7
HETATM    7  N1  UNL     1      14.648  -9.276  29.556  1.00  0.00    -0.321 N 
ATOM      8  H1  UNL     1      13.734  -8.930  29.848  1.00  0.00     0.169 HD
BRANCH   7   9
HETATM    9  C2  UNL     1      14.773 -10.632  29.857  1.00  0.00     0.113 C 
HETATM   10  C1  UNL     1      14.387 -11.358  31.085  1.00  0.00     0.097 C 
BRANCH   9  11
HETATM   11  O1  UNL     1      15.303 -11.381  28.930  1.00  0.00    -0.350 OA
ATOM     12  H1  UNL     1      14.732 -11.558  28.192  1.00  0.00     0.219 HD
ENDBRANCH   9  11
ENDBRANCH   7   9
ENDBRANCH   6   7
BRANCH   6  13
HETATM   13  O2  UNL     1      16.311  -8.794  28.121  1.00  0.00    -0.345 OA
ATOM     14  H2  UNL     1      16.933  -9.329  28.602  1.00  0.00     0.219 HD
ENDBRANCH   6  13
ENDBRANCH   3   5
ENDBRANCH   1   3
BRANCH   1  15
HETATM   15  N3  UNL     1      15.978  -6.016  31.958  1.00  0.00    -0.273 N 
ATOM     16  H3  UNL     1      15.278  -6.622  32.385  1.00  0.00     0.189 HD
BRANCH  15  17
HETATM   17  N4  UNL     1      17.218  -5.995  32.558  1.00  0.00    -0.262 N 
HETATM   18  C6  UNL     1      18.251  -6.856  32.118  1.00  0.00     0.293 C 
HETATM   19  O3  UNL     1      18.128  -7.675  31.184  1.00  0.00    -0.264 OA
ATOM     20  H4  UNL     1      17.394  -5.351  33.329  1.00  0.00     0.190 HD
BRANCH  18  21
HETATM   21  C7  UNL     1      19.551  -6.754  32.828  1.00  0.00     0.144 A 
HETATM   22  C8  UNL     1      19.826  -7.200  34.113  1.00  0.00     0.045 A 
HETATM   23  C9  UNL     1      21.142  -6.916  34.401  1.00  0.00     0.027 A 
HETATM   24  C10 UNL     1      21.616  -6.294  33.247  1.00  0.00     0.143 A 
HETATM   25  O4  UNL     1      20.639  -6.222  32.348  1.00  0.00    -0.317 OA
ENDBRANCH  18  21
ENDBRANCH  15  17
ENDBRANCH   1  15
TORSDOF 9
ENDMDL
MODEL 2
REMARK VINA RESULT: -6.832962486      1.498      1.711
REMARK  9 active torsions:
REMARK  status: ('A' for Active; 'I' for Inactive)
REMARK    1  A    between atoms: C2_2  and  O1_3 
REMARK    2  A    between atoms: C2_2  and  N1_5 
REMARK    3  A    between atoms: N1_5  and  C3_7 
REMARK    4  A    between atoms: C3_7  and  O2_8 
REMARK    5  A    between atoms: C4_10  and  N2_11 
REMARK    6  A    between atoms: N2_11  and  C5_13 
REMARK    7  A    between atoms: C5_13  and  N3_15 
REMARK    8  A    between atoms: N3_15  and  N4_17 
REMARK       I    between atoms: N4_17  and  C6_19 
REMARK    9  A    between atoms: C6_19  and  C7_21 
ROOT
HETATM    1  C5  UNL     1      16.361  -6.322  31.443  1.00  0.00     0.190 C 
HETATM    2  S1  UNL     1      15.566  -5.322  30.443  1.00  0.00    -0.039 SA
ENDROOT
BRANCH   1   3
HETATM    3  N2  UNL     1      16.331  -7.750  31.142  1.00  0.00    -0.338 N 
ATOM      4  H2  UNL     1      16.332  -8.460  31.875  1.00  0.00     0.167 HD
BRANCH   3   5
HETATM    5  C4  UNL     1      16.301  -8.084  29.779  1.00  0.00     0.146 C 
HETATM    6  C3  UNL     1      15.709  -9.245  29.209  1.00  0.00     0.157 C 
BRANCH   6   7
HETATM    7  N1  UNL     1      14.980 -10.360  29.529  1.00  0.00    -0.321 N 
ATOM      8  H1  UNL     1      14.616 -10.800  28.683  1.00  0.00     0.169 HD
BRANCH   7   9
HETATM    9  C2  UNL     1      14.584 -11.077  30.658  1.00  0.00     0.113 C 
HETATM   10  C1  UNL     1      13.811 -10.621  31.832  1.00  0.00     0.097 C 
BRANCH   9  11
HETATM   11  O1  UNL     1      14.938 -12.331  30.697  1.00  0.00    -0.350 OA
ATOM     12  H1  UNL     1      14.418 -12.905  30.147  1.00  0.00     0.219 HD
ENDBRANCH   9  11
ENDBRANCH   7   9
ENDBRANCH   6   7
BRANCH   6  13
HETATM   13  O2  UNL     1      15.967  -9.227  27.856  1.00  0.00    -0.345 OA
ATOM     14  H2  UNL     1      15.224  -9.581  27.381  1.00  0.00     0.219 HD
ENDBRANCH   6  13
ENDBRANCH   3   5
ENDBRANCH   1   3
BRANCH   1  15
HETATM   15  N3  UNL     1      17.033  -5.825  32.557  1.00  0.00    -0.273 N 
ATOM     16  H3  UNL     1      16.454  -5.434  33.299  1.00  0.00     0.189 HD
BRANCH  15  17
HETATM   17  N4  UNL     1      18.395  -5.804  32.767  1.00  0.00    -0.262 N 
HETATM   18  C6  UNL     1      19.059  -6.919  33.331  1.00  0.00     0.293 C 
HETATM   19  O3  UNL     1      18.486  -7.975  33.671  1.00  0.00    -0.264 OA
ATOM     20  H4  UNL     1      18.931  -4.974  32.513  1.00  0.00     0.190 HD
BRANCH  18  21
HETATM   21  C7  UNL     1      20.527  -6.797  33.514  1.00  0.00     0.144 A 
HETATM   22  C8  UNL     1      21.467  -6.563  32.520  1.00  0.00     0.045 A 
HETATM   23  C9  UNL     1      22.715  -6.523  33.100  1.00  0.00     0.027 A 
HETATM   24  C10 UNL     1      22.467  -6.740  34.455  1.00  0.00     0.143 A 
HETATM   25  O4  UNL     1      21.161  -6.896  34.648  1.00  0.00    -0.317 OA
ENDBRANCH  18  21
ENDBRANCH  15  17
ENDBRANCH   1  15
TORSDOF 9
ENDMDL
MODEL 3
REMARK VINA RESULT: -6.626487034      1.331      6.271
REMARK  9 active torsions:
REMARK  status: ('A' for Active; 'I' for Inactive)
REMARK    1  A    between atoms: C2_2  and  O1_3 
REMARK    2  A    between atoms: C2_2  and  N1_5 
REMARK    3  A    between atoms: N1_5  and  C3_7 
REMARK    4  A    between atoms: C3_7  and  O2_8 
REMARK    5  A    between atoms: C4_10  and  N2_11 
REMARK    6  A    between atoms: N2_11  and  C5_13 
REMARK    7  A    between atoms: C5_13  and  N3_15 
REMARK    8  A    between atoms: N3_15  and  N4_17 
REMARK       I    between atoms: N4_17  and  C6_19 
REMARK    9  A    between atoms: C6_19  and  C7_21 
ROOT
HETATM    1  C5  UNL     1      16.011  -5.268  30.216  1.00  0.00     0.190 C 
HETATM    2  S1  UNL     1      15.634  -3.716  30.500  1.00  0.00    -0.039 SA
ENDROOT
BRANCH   1   3
HETATM    3  N2  UNL     1      17.355  -5.718  30.567  1.00  0.00    -0.338 N 
ATOM      4  H2  UNL     1      18.161  -5.538  29.968  1.00  0.00     0.167 HD
BRANCH   3   5
HETATM    5  C4  UNL     1      17.466  -6.414  31.781  1.00  0.00     0.146 C 
HETATM    6  C3  UNL     1      18.665  -6.649  32.510  1.00  0.00     0.157 C 
BRANCH   6   7
HETATM    7  N1  UNL     1      20.007  -6.374  32.511  1.00  0.00    -0.321 N 
ATOM      8  H1  UNL     1      20.252  -5.803  31.702  1.00  0.00     0.169 HD
BRANCH   7   9
HETATM    9  C2  UNL     1      21.140  -6.638  33.280  1.00  0.00     0.113 C 
HETATM   10  C1  UNL     1      22.566  -6.592  32.893  1.00  0.00     0.097 C 
BRANCH   9  11
HETATM   11  O1  UNL     1      20.927  -6.971  34.523  1.00  0.00    -0.350 OA
ATOM     12  H1  UNL     1      20.194  -7.561  34.652  1.00  0.00     0.219 HD
ENDBRANCH   9  11
ENDBRANCH   7   9
ENDBRANCH   6   7
BRANCH   6  13
HETATM   13  O2  UNL     1      18.347  -7.431  33.599  1.00  0.00    -0.345 OA
ATOM     14  H2  UNL     1      18.655  -8.319  33.459  1.00  0.00     0.219 HD
ENDBRANCH   6  13
ENDBRANCH   3   5
ENDBRANCH   1   3
BRANCH   1  15
HETATM   15  N3  UNL     1      15.080  -6.131  29.642  1.00  0.00    -0.273 N 
ATOM     16  H3  UNL     1      14.509  -5.746  28.891  1.00  0.00     0.189 HD
BRANCH  15  17
HETATM   17  N4  UNL     1      14.847  -7.447  29.977  1.00  0.00    -0.262 N 
HETATM   18  C6  UNL     1      15.370  -8.500  29.190  1.00  0.00     0.293 C 
HETATM   19  O3  UNL     1      16.061  -8.328  28.164  1.00  0.00    -0.264 OA
ATOM     20  H4  UNL     1      14.290  -7.666  30.804  1.00  0.00     0.190 HD
BRANCH  18  21
HETATM   21  C7  UNL     1      15.064  -9.882  29.637  1.00  0.00     0.144 A 
HETATM   22  C8  UNL     1      14.496 -10.251  30.848  1.00  0.00     0.045 A 
HETATM   23  C9  UNL     1      14.381 -11.622  30.876  1.00  0.00     0.027 A 
HETATM   24  C10 UNL     1      14.899 -12.032  29.648  1.00  0.00     0.143 A 
HETATM   25  O4  UNL     1      15.288 -10.967  28.953  1.00  0.00    -0.317 OA
ENDBRANCH  18  21
ENDBRANCH  15  17
ENDBRANCH   1  15
TORSDOF 9
ENDMDL
MODEL 4
REMARK VINA RESULT: -6.612259565      1.102      1.339
REMARK  9 active torsions:
REMARK  status: ('A' for Active; 'I' for Inactive)
REMARK    1  A    between atoms: C2_2  and  O1_3 
REMARK    2  A    between atoms: C2_2  and  N1_5 
REMARK    3  A    between atoms: N1_5  and  C3_7 
REMARK    4  A    between atoms: C3_7  and  O2_8 
REMARK    5  A    between atoms: C4_10  and  N2_11 
REMARK    6  A    between atoms: N2_11  and  C5_13 
REMARK    7  A    between atoms: C5_13  and  N3_15 
REMARK    8  A    between atoms: N3_15  and  N4_17 
REMARK       I    between atoms: N4_17  and  C6_19 
REMARK    9  A    between atoms: C6_19  and  C7_21 
ROOT
HETATM    1  C5  UNL     1      16.349  -5.589  31.106  1.00  0.00     0.190 C 
HETATM    2  S1  UNL     1      16.408  -4.038  31.579  1.00  0.00    -0.039 SA
ENDROOT
BRANCH   1   3
HETATM    3  N2  UNL     1      15.367  -5.954  30.090  1.00  0.00    -0.338 N 
ATOM      4  H2  UNL     1      14.411  -5.599  30.105  1.00  0.00     0.167 HD
BRANCH   3   5
HETATM    5  C4  UNL     1      15.824  -6.828  29.089  1.00  0.00     0.146 C 
HETATM    6  C3  UNL     1      15.508  -8.210  28.971  1.00  0.00     0.157 C 
BRANCH   6   7
HETATM    7  N1  UNL     1      14.755  -9.204  29.536  1.00  0.00    -0.321 N 
ATOM      8  H1  UNL     1      13.863  -8.831  29.862  1.00  0.00     0.169 HD
BRANCH   7   9
HETATM    9  C2  UNL     1      14.835 -10.571  29.803  1.00  0.00     0.113 C 
HETATM   10  C1  UNL     1      14.405 -11.318  31.003  1.00  0.00     0.097 C 
BRANCH   9  11
HETATM   11  O1  UNL     1      15.363 -11.309  28.866  1.00  0.00    -0.350 OA
ATOM     12  H1  UNL     1      14.825 -11.405  28.090  1.00  0.00     0.219 HD
ENDBRANCH   9  11
ENDBRANCH   7   9
ENDBRANCH   6   7
BRANCH   6  13
HETATM   13  O2  UNL     1      16.219  -8.712  27.903  1.00  0.00    -0.345 OA
ATOM     14  H2  UNL     1      15.694  -8.658  27.112  1.00  0.00     0.219 HD
ENDBRANCH   6  13
ENDBRANCH   3   5
ENDBRANCH   1   3
BRANCH   1  15
HETATM   15  N3  UNL     1      17.200  -6.536  31.670  1.00  0.00    -0.273 N 
ATOM     16  H3  UNL     1      16.806  -7.463  31.829  1.00  0.00     0.189 HD
BRANCH  15  17
HETATM   17  N4  UNL     1      18.517  -6.360  32.038  1.00  0.00    -0.262 N 
HETATM   18  C6  UNL     1      19.088  -7.127  33.080  1.00  0.00     0.293 C 
HETATM   19  O3  UNL     1      18.468  -7.996  33.728  1.00  0.00    -0.264 OA
ATOM     20  H4  UNL     1      19.087  -5.667  31.552  1.00  0.00     0.190 HD
BRANCH  18  21
HETATM   21  C7  UNL     1      20.513  -6.863  33.398  1.00  0.00     0.144 A 
HETATM   22  C8  UNL     1      21.517  -6.550  32.492  1.00  0.00     0.045 A 
HETATM   23  C9  UNL     1      22.694  -6.384  33.185  1.00  0.00     0.027 A 
HETATM   24  C10 UNL     1      22.341  -6.610  34.514  1.00  0.00     0.143 A 
HETATM   25  O4  UNL     1      21.043  -6.889  34.588  1.00  0.00    -0.317 OA
ENDBRANCH  18  21
ENDBRANCH  15  17
ENDBRANCH   1  15
TORSDOF 9
ENDMDL
MODEL 5
REMARK VINA RESULT: -6.477717989      1.685      2.217
REMARK  9 active torsions:
REMARK  status: ('A' for Active; 'I' for Inactive)
REMARK    1  A    between atoms: C2_2  and  O1_3 
REMARK    2  A    between atoms: C2_2  and  N1_5 
REMARK    3  A    between atoms: N1_5  and  C3_7 
REMARK    4  A    between atoms: C3_7  and  O2_8 
REMARK    5  A    between atoms: C4_10  and  N2_11 
REMARK    6  A    between atoms: N2_11  and  C5_13 
REMARK    7  A    between atoms: C5_13  and  N3_15 
REMARK    8  A    between atoms: N3_15  and  N4_17 
REMARK       I    between atoms: N4_17  and  C6_19 
REMARK    9  A    between atoms: C6_19  and  C7_21 
ROOT
HETATM    1  C5  UNL     1      17.065  -6.691  31.785  1.00  0.00     0.190 C 
HETATM    2  S1  UNL     1      16.934  -5.131  32.213  1.00  0.00    -0.039 SA
ENDROOT
BRANCH   1   3
HETATM    3  N2  UNL     1      15.935  -7.305  31.093  1.00  0.00    -0.338 N 
ATOM      4  H2  UNL     1      15.003  -7.345  31.505  1.00  0.00     0.167 HD
BRANCH   3   5
HETATM    5  C4  UNL     1      16.217  -7.836  29.824  1.00  0.00     0.146 C 
HETATM    6  C3  UNL     1      15.736  -9.070  29.304  1.00  0.00     0.157 C 
BRANCH   6   7
HETATM    7  N1  UNL     1      14.916 -10.127  29.598  1.00  0.00    -0.321 N 
ATOM      8  H1  UNL     1      14.431 -10.443  28.758  1.00  0.00     0.169 HD
BRANCH   7   9
HETATM    9  C2  UNL     1      14.542 -10.901  30.696  1.00  0.00     0.113 C 
HETATM   10  C1  UNL     1      13.803 -10.505  31.913  1.00  0.00     0.097 C 
BRANCH   9  11
HETATM   11  O1  UNL     1      14.885 -12.159  30.657  1.00  0.00    -0.350 OA
ATOM     12  H1  UNL     1      15.797 -12.325  30.860  1.00  0.00     0.219 HD
ENDBRANCH   9  11
ENDBRANCH   7   9
ENDBRANCH   6   7
BRANCH   6  13
HETATM   13  O2  UNL     1      16.306  -9.252  28.063  1.00  0.00    -0.345 OA
ATOM     14  H2  UNL     1      15.877  -8.693  27.426  1.00  0.00     0.219 HD
ENDBRANCH   6  13
ENDBRANCH   3   5
ENDBRANCH   1   3
BRANCH   1  15
HETATM   15  N3  UNL     1      18.216  -7.415  32.087  1.00  0.00    -0.273 N 
ATOM     16  H3  UNL     1      18.089  -8.409  32.279  1.00  0.00     0.189 HD
BRANCH  15  17
HETATM   17  N4  UNL     1      19.507  -6.938  32.155  1.00  0.00    -0.262 N 
HETATM   18  C6  UNL     1      20.213  -6.931  33.381  1.00  0.00     0.293 C 
HETATM   19  O3  UNL     1      19.741  -7.342  34.462  1.00  0.00    -0.264 OA
ATOM     20  H4  UNL     1      19.959  -6.586  31.312  1.00  0.00     0.190 HD
BRANCH  18  21
HETATM   21  C7  UNL     1      21.599  -6.399  33.349  1.00  0.00     0.144 A 
HETATM   22  C8  UNL     1      22.620  -6.807  32.501  1.00  0.00     0.045 A 
HETATM   23  C9  UNL     1      23.747  -6.072  32.792  1.00  0.00     0.027 A 
HETATM   24  C10 UNL     1      23.346  -5.232  33.830  1.00  0.00     0.143 A 
HETATM   25  O4  UNL     1      22.070  -5.463  34.122  1.00  0.00    -0.317 OA
ENDBRANCH  18  21
ENDBRANCH  15  17
ENDBRANCH   1  15
TORSDOF 9
ENDMDL
