MODEL 1
REMARK VINA RESULT: -6.576599231      0.000      0.000
REMARK  10 active torsions:
REMARK  status: ('A' for Active; 'I' for Inactive)
REMARK    1  A    between atoms: C1_2  and  C2_4 
REMARK    2  A    between atoms: C2_4  and  C3_5 
REMARK    3  A    between atoms: C3_5  and  N2_6 
REMARK    4  A    between atoms: C3_5  and  C4_10 
REMARK    5  A    between atoms: C4_10  and  N3_11 
REMARK    6  A    between atoms: C4_10  and  C5_15 
REMARK    7  A    between atoms: C4_10  and  N4_17 
REMARK    8  A    between atoms: N4_17  and  C6_19 
REMARK    9  A    between atoms: C6_19  and  C7_20 
REMARK   10  A    between atoms: C6_19  and  C13_26 
ROOT
HETATM    1  C4  UNL     1      65.542  17.059  40.153  1.00  0.00     0.274 C 
ENDROOT
BRANCH   1   2
HETATM    2  C3  UNL     1      66.473  16.926  38.892  1.00  0.00     0.254 C 
BRANCH   2   3
HETATM    3  C2  UNL     1      67.635  17.843  39.163  1.00  0.00     0.137 C 
BRANCH   3   4
HETATM    4  C1  UNL     1      67.894  18.760  38.023  1.00  0.00     0.233 C 
HETATM    5  N1  UNL     1      68.698  18.335  36.948  1.00  0.00    -0.062 NA
HETATM    6  O1  UNL     1      67.402  19.897  38.018  1.00  0.00    -0.277 OA
ENDBRANCH   3   4
ENDBRANCH   2   3
BRANCH   2   7
HETATM    7  N2  UNL     1      65.762  17.465  37.754  1.00  0.00    -0.070 N 
ATOM      8  H23 UNL     1      64.760  17.274  37.782  1.00  0.00     0.274 HD
ATOM      9  H22 UNL     1      65.700  18.483  37.767  1.00  0.00     0.274 HD
ATOM     10  H21 UNL     1      66.216  17.101  36.917  1.00  0.00     0.274 HD
ENDBRANCH   2   7
ENDBRANCH   1   2
BRANCH   1  11
HETATM   11  N3  UNL     1      64.932  15.710  40.169  1.00  0.00    -0.044 N 
ATOM     12  H33 UNL     1      65.413  14.999  39.619  1.00  0.00     0.277 HD
ATOM     13  H32 UNL     1      65.008  15.198  41.048  1.00  0.00     0.277 HD
ATOM     14  H31 UNL     1      63.985  15.939  39.869  1.00  0.00     0.277 HD
ENDBRANCH   1  11
BRANCH   1  15
HETATM   15  C5  UNL     1      64.561  18.071  39.775  1.00  0.00     0.294 C 
HETATM   16  O2  UNL     1      63.400  17.966  39.481  1.00  0.00    -0.302 OA
ENDBRANCH   1  15
BRANCH   1  17
HETATM   17  N4  UNL     1      66.323  17.206  41.291  1.00  0.00    -0.371 N 
ATOM     18  H4  UNL     1      67.110  17.852  41.230  1.00  0.00     0.157 HD
BRANCH  17  19
HETATM   19  C6  UNL     1      66.135  16.559  42.502  1.00  0.00     0.146 C 
BRANCH  19  20
HETATM   20  C7  UNL     1      66.353  15.105  42.592  1.00  0.00    -0.031 A 
HETATM   21  C8  UNL     1      67.614  14.564  42.844  1.00  0.00     0.009 A 
HETATM   22  C9  UNL     1      67.839  13.221  42.958  1.00  0.00     0.001 A 
HETATM   23  C10 UNL     1      66.791  12.335  42.820  1.00  0.00     0.000 A 
HETATM   24  C11 UNL     1      65.523  12.864  42.567  1.00  0.00     0.001 A 
HETATM   25  C12 UNL     1      65.303  14.214  42.455  1.00  0.00     0.009 A 
ENDBRANCH  19  20
BRANCH  19  26
HETATM   26  C13 UNL     1      66.941  17.250  43.574  1.00  0.00    -0.031 A 
HETATM   27  C14 UNL     1      66.626  17.133  44.911  1.00  0.00     0.009 A 
HETATM   28  C15 UNL     1      67.354  17.739  45.921  1.00  0.00     0.001 A 
HETATM   29  C16 UNL     1      68.446  18.496  45.599  1.00  0.00     0.000 A 
HETATM   30  C17 UNL     1      68.797  18.640  44.274  1.00  0.00     0.001 A 
HETATM   31  C18 UNL     1      68.048  18.021  43.287  1.00  0.00     0.009 A 
ENDBRANCH  19  26
ENDBRANCH  17  19
ENDBRANCH   1  17
TORSDOF 10
ENDMDL
MODEL 2
REMARK VINA RESULT: -6.408616177      8.455     10.910
REMARK  10 active torsions:
REMARK  status: ('A' for Active; 'I' for Inactive)
REMARK    1  A    between atoms: C1_2  and  C2_4 
REMARK    2  A    between atoms: C2_4  and  C3_5 
REMARK    3  A    between atoms: C3_5  and  N2_6 
REMARK    4  A    between atoms: C3_5  and  C4_10 
REMARK    5  A    between atoms: C4_10  and  N3_11 
REMARK    6  A    between atoms: C4_10  and  C5_15 
REMARK    7  A    between atoms: C4_10  and  N4_17 
REMARK    8  A    between atoms: N4_17  and  C6_19 
REMARK    9  A    between atoms: C6_19  and  C7_20 
REMARK   10  A    between atoms: C6_19  and  C13_26 
ROOT
HETATM    1  C4  UNL     1      66.711  13.684  51.657  1.00  0.00     0.274 C 
ENDROOT
BRANCH   1   2
HETATM    2  C3  UNL     1      67.211  12.451  50.817  1.00  0.00     0.254 C 
BRANCH   2   3
HETATM    3  C2  UNL     1      68.107  13.034  49.757  1.00  0.00     0.137 C 
BRANCH   3   4
HETATM    4  C1  UNL     1      69.073  12.033  49.236  1.00  0.00     0.233 C 
HETATM    5  N1  UNL     1      68.663  10.701  49.032  1.00  0.00    -0.062 NA
HETATM    6  O1  UNL     1      70.237  12.370  48.978  1.00  0.00    -0.277 OA
ENDBRANCH   3   4
ENDBRANCH   2   3
BRANCH   2   7
HETATM    7  N2  UNL     1      66.068  11.880  50.140  1.00  0.00    -0.070 N 
ATOM      8  H23 UNL     1      66.027  12.122  49.151  1.00  0.00     0.274 HD
ATOM      9  H22 UNL     1      66.136  10.869  50.024  1.00  0.00     0.274 HD
ATOM     10  H21 UNL     1      65.238  12.168  50.658  1.00  0.00     0.274 HD
ENDBRANCH   2   7
ENDBRANCH   1   2
BRANCH   1  11
HETATM   11  N3  UNL     1      67.530  13.515  52.878  1.00  0.00    -0.044 N 
ATOM     12  H33 UNL     1      68.487  13.199  52.731  1.00  0.00     0.277 HD
ATOM     13  H32 UNL     1      67.801  14.376  53.354  1.00  0.00     0.277 HD
ATOM     14  H31 UNL     1      66.930  12.884  53.409  1.00  0.00     0.277 HD
ENDBRANCH   1  11
BRANCH   1  15
HETATM   15  C5  UNL     1      65.306  13.394  51.925  1.00  0.00     0.294 C 
HETATM   16  O2  UNL     1      64.796  12.507  52.558  1.00  0.00    -0.302 OA
ENDBRANCH   1  15
BRANCH   1  17
HETATM   17  N4  UNL     1      67.093  14.859  51.024  1.00  0.00    -0.371 N 
ATOM     18  H4  UNL     1      67.898  14.807  50.399  1.00  0.00     0.157 HD
BRANCH  17  19
HETATM   19  C6  UNL     1      66.485  16.097  51.162  1.00  0.00     0.146 C 
BRANCH  19  20
HETATM   20  C7  UNL     1      66.724  16.895  52.377  1.00  0.00    -0.031 A 
HETATM   21  C8  UNL     1      68.004  17.310  52.744  1.00  0.00     0.009 A 
HETATM   22  C9  UNL     1      68.250  18.072  53.852  1.00  0.00     0.001 A 
HETATM   23  C10 UNL     1      67.205  18.461  54.664  1.00  0.00     0.000 A 
HETATM   24  C11 UNL     1      65.918  18.051  54.306  1.00  0.00     0.001 A 
HETATM   25  C12 UNL     1      65.677  17.287  53.192  1.00  0.00     0.009 A 
ENDBRANCH  19  20
BRANCH  19  26
HETATM   26  C13 UNL     1      66.780  16.941  49.946  1.00  0.00    -0.031 A 
HETATM   27  C14 UNL     1      65.922  17.935  49.526  1.00  0.00     0.009 A 
HETATM   28  C15 UNL     1      66.170  18.739  48.426  1.00  0.00     0.001 A 
HETATM   29  C16 UNL     1      67.317  18.557  47.707  1.00  0.00     0.000 A 
HETATM   30  C17 UNL     1      68.203  17.574  48.092  1.00  0.00     0.001 A 
HETATM   31  C18 UNL     1      67.927  16.786  49.197  1.00  0.00     0.009 A 
ENDBRANCH  19  26
ENDBRANCH  17  19
ENDBRANCH   1  17
TORSDOF 10
ENDMDL
MODEL 3
REMARK VINA RESULT: -6.397711312      8.163     11.090
REMARK  10 active torsions:
REMARK  status: ('A' for Active; 'I' for Inactive)
REMARK    1  A    between atoms: C1_2  and  C2_4 
REMARK    2  A    between atoms: C2_4  and  C3_5 
REMARK    3  A    between atoms: C3_5  and  N2_6 
REMARK    4  A    between atoms: C3_5  and  C4_10 
REMARK    5  A    between atoms: C4_10  and  N3_11 
REMARK    6  A    between atoms: C4_10  and  C5_15 
REMARK    7  A    between atoms: C4_10  and  N4_17 
REMARK    8  A    between atoms: N4_17  and  C6_19 
REMARK    9  A    between atoms: C6_19  and  C7_20 
REMARK   10  A    between atoms: C6_19  and  C13_26 
ROOT
HETATM    1  C4  UNL     1      63.256  18.094  50.887  1.00  0.00     0.274 C 
ENDROOT
BRANCH   1   2
HETATM    2  C3  UNL     1      62.031  18.425  51.817  1.00  0.00     0.254 C 
BRANCH   2   3
HETATM    3  C2  UNL     1      61.502  17.089  52.263  1.00  0.00     0.137 C 
BRANCH   3   4
HETATM    4  C1  UNL     1      60.103  16.869  51.816  1.00  0.00     0.233 C 
HETATM    5  N1  UNL     1      59.031  17.268  52.638  1.00  0.00    -0.062 NA
HETATM    6  O1  UNL     1      59.878  16.337  50.720  1.00  0.00    -0.277 OA
ENDBRANCH   3   4
ENDBRANCH   2   3
BRANCH   2   7
HETATM    7  N2  UNL     1      61.006  19.038  51.002  1.00  0.00    -0.070 N 
ATOM      8  H23 UNL     1      60.637  18.412  50.286  1.00  0.00     0.274 HD
ATOM      9  H22 UNL     1      60.132  19.189  51.505  1.00  0.00     0.274 HD
ATOM     10  H21 UNL     1      61.400  19.897  50.618  1.00  0.00     0.274 HD
ENDBRANCH   2   7
ENDBRANCH   1   2
BRANCH   1  11
HETATM   11  N3  UNL     1      62.547  17.776  49.628  1.00  0.00    -0.044 N 
ATOM     12  H33 UNL     1      63.118  17.366  48.889  1.00  0.00     0.277 HD
ATOM     13  H32 UNL     1      61.895  16.993  49.670  1.00  0.00     0.277 HD
ATOM     14  H31 UNL     1      62.137  18.685  49.418  1.00  0.00     0.277 HD
ENDBRANCH   1  11
BRANCH   1  15
HETATM   15  C5  UNL     1      63.842  16.892  51.474  1.00  0.00     0.294 C 
HETATM   16  O2  UNL     1      64.507  16.022  50.978  1.00  0.00    -0.302 OA
ENDBRANCH   1  15
BRANCH   1  17
HETATM   17  N4  UNL     1      64.013  19.241  50.694  1.00  0.00    -0.371 N 
ATOM     18  H4  UNL     1      63.516  20.075  50.384  1.00  0.00     0.157 HD
BRANCH  17  19
HETATM   19  C6  UNL     1      65.381  19.359  50.883  1.00  0.00     0.146 C 
BRANCH  19  20
HETATM   20  C7  UNL     1      66.297  19.093  49.761  1.00  0.00    -0.031 A 
HETATM   21  C8  UNL     1      67.683  19.140  49.915  1.00  0.00     0.009 A 
HETATM   22  C9  UNL     1      68.555  18.873  48.896  1.00  0.00     0.001 A 
HETATM   23  C10 UNL     1      68.072  18.540  47.648  1.00  0.00     0.000 A 
HETATM   24  C11 UNL     1      66.685  18.489  47.481  1.00  0.00     0.001 A 
HETATM   25  C12 UNL     1      65.815  18.758  48.507  1.00  0.00     0.009 A 
ENDBRANCH  19  20
BRANCH  19  26
HETATM   26  C13 UNL     1      65.694  20.713  51.470  1.00  0.00    -0.031 A 
HETATM   27  C14 UNL     1      65.309  21.882  50.848  1.00  0.00     0.009 A 
HETATM   28  C15 UNL     1      65.565  23.140  51.368  1.00  0.00     0.001 A 
HETATM   29  C16 UNL     1      66.230  23.252  52.557  1.00  0.00     0.000 A 
HETATM   30  C17 UNL     1      66.634  22.109  53.211  1.00  0.00     0.001 A 
HETATM   31  C18 UNL     1      66.363  20.865  52.666  1.00  0.00     0.009 A 
ENDBRANCH  19  26
ENDBRANCH  17  19
ENDBRANCH   1  17
TORSDOF 10
ENDMDL
MODEL 4
REMARK VINA RESULT: -6.384244288      8.177     11.115
REMARK  10 active torsions:
REMARK  status: ('A' for Active; 'I' for Inactive)
REMARK    1  A    between atoms: C1_2  and  C2_4 
REMARK    2  A    between atoms: C2_4  and  C3_5 
REMARK    3  A    between atoms: C3_5  and  N2_6 
REMARK    4  A    between atoms: C3_5  and  C4_10 
REMARK    5  A    between atoms: C4_10  and  N3_11 
REMARK    6  A    between atoms: C4_10  and  C5_15 
REMARK    7  A    between atoms: C4_10  and  N4_17 
REMARK    8  A    between atoms: N4_17  and  C6_19 
REMARK    9  A    between atoms: C6_19  and  C7_20 
REMARK   10  A    between atoms: C6_19  and  C13_26 
ROOT
HETATM    1  C4  UNL     1      63.226  18.075  50.895  1.00  0.00     0.274 C 
ENDROOT
BRANCH   1   2
HETATM    2  C3  UNL     1      61.988  18.415  51.804  1.00  0.00     0.254 C 
BRANCH   2   3
HETATM    3  C2  UNL     1      61.453  17.083  52.254  1.00  0.00     0.137 C 
BRANCH   3   4
HETATM    4  C1  UNL     1      60.059  16.860  51.790  1.00  0.00     0.233 C 
HETATM    5  N1  UNL     1      58.977  17.273  52.590  1.00  0.00    -0.062 NA
HETATM    6  O1  UNL     1      59.850  16.312  50.699  1.00  0.00    -0.277 OA
ENDBRANCH   3   4
ENDBRANCH   2   3
BRANCH   2   7
HETATM    7  N2  UNL     1      60.975  19.020  50.968  1.00  0.00    -0.070 N 
ATOM      8  H23 UNL     1      61.234  19.050  49.983  1.00  0.00     0.274 HD
ATOM      9  H22 UNL     1      60.142  18.441  50.866  1.00  0.00     0.274 HD
ATOM     10  H21 UNL     1      60.775  19.942  51.358  1.00  0.00     0.274 HD
ENDBRANCH   2   7
ENDBRANCH   1   2
BRANCH   1  11
HETATM   11  N3  UNL     1      62.536  17.756  49.625  1.00  0.00    -0.044 N 
ATOM     12  H33 UNL     1      61.775  18.381  49.364  1.00  0.00     0.277 HD
ATOM     13  H32 UNL     1      63.073  17.922  48.774  1.00  0.00     0.277 HD
ATOM     14  H31 UNL     1      62.274  16.787  49.803  1.00  0.00     0.277 HD
ENDBRANCH   1  11
BRANCH   1  15
HETATM   15  C5  UNL     1      63.797  16.873  51.495  1.00  0.00     0.294 C 
HETATM   16  O2  UNL     1      64.462  15.995  51.012  1.00  0.00    -0.302 OA
ENDBRANCH   1  15
BRANCH   1  17
HETATM   17  N4  UNL     1      63.992  19.218  50.710  1.00  0.00    -0.371 N 
ATOM     18  H4  UNL     1      63.504  20.053  50.387  1.00  0.00     0.157 HD
BRANCH  17  19
HETATM   19  C6  UNL     1      65.357  19.331  50.923  1.00  0.00     0.146 C 
BRANCH  19  20
HETATM   20  C7  UNL     1      66.292  19.041  49.823  1.00  0.00    -0.031 A 
HETATM   21  C8  UNL     1      65.845  18.752  48.534  1.00  0.00     0.009 A 
HETATM   22  C9  UNL     1      66.691  18.504  47.489  1.00  0.00     0.001 A 
HETATM   23  C10 UNL     1      68.056  18.531  47.691  1.00  0.00     0.000 A 
HETATM   24  C11 UNL     1      68.516  18.820  48.978  1.00  0.00     0.001 A 
HETATM   25  C12 UNL     1      67.661  19.069  50.022  1.00  0.00     0.009 A 
ENDBRANCH  19  20
BRANCH  19  26
HETATM   26  C13 UNL     1      65.667  20.694  51.493  1.00  0.00    -0.031 A 
HETATM   27  C14 UNL     1      66.328  20.847  52.692  1.00  0.00     0.009 A 
HETATM   28  C15 UNL     1      66.644  22.081  53.235  1.00  0.00     0.001 A 
HETATM   29  C16 UNL     1      66.292  23.219  52.564  1.00  0.00     0.000 A 
HETATM   30  C17 UNL     1      65.629  23.111  51.362  1.00  0.00     0.001 A 
HETATM   31  C18 UNL     1      65.327  21.862  50.844  1.00  0.00     0.009 A 
ENDBRANCH  19  26
ENDBRANCH  17  19
ENDBRANCH   1  17
TORSDOF 10
ENDMDL
MODEL 5
REMARK VINA RESULT: -6.339871661      0.554      3.747
REMARK  10 active torsions:
REMARK  status: ('A' for Active; 'I' for Inactive)
REMARK    1  A    between atoms: C1_2  and  C2_4 
REMARK    2  A    between atoms: C2_4  and  C3_5 
REMARK    3  A    between atoms: C3_5  and  N2_6 
REMARK    4  A    between atoms: C3_5  and  C4_10 
REMARK    5  A    between atoms: C4_10  and  N3_11 
REMARK    6  A    between atoms: C4_10  and  C5_15 
REMARK    7  A    between atoms: C4_10  and  N4_17 
REMARK    8  A    between atoms: N4_17  and  C6_19 
REMARK    9  A    between atoms: C6_19  and  C7_20 
REMARK   10  A    between atoms: C6_19  and  C13_26 
ROOT
HETATM    1  C4  UNL     1      65.221  17.319  40.241  1.00  0.00     0.274 C 
ENDROOT
BRANCH   1   2
HETATM    2  C3  UNL     1      66.487  16.952  39.382  1.00  0.00     0.254 C 
BRANCH   2   3
HETATM    3  C2  UNL     1      67.425  18.117  39.548  1.00  0.00     0.137 C 
BRANCH   3   4
HETATM    4  C1  UNL     1      67.754  18.754  38.247  1.00  0.00     0.233 C 
HETATM    5  N1  UNL     1      68.616  18.103  37.344  1.00  0.00    -0.062 NA
HETATM    6  O1  UNL     1      67.269  19.857  37.956  1.00  0.00    -0.277 OA
ENDBRANCH   3   4
ENDBRANCH   2   3
BRANCH   2   7
HETATM    7  N2  UNL     1      66.089  16.922  37.992  1.00  0.00    -0.070 N 
ATOM      8  H23 UNL     1      66.800  16.520  37.381  1.00  0.00     0.274 HD
ATOM      9  H22 UNL     1      65.354  16.241  37.801  1.00  0.00     0.274 HD
ATOM     10  H21 UNL     1      65.829  17.874  37.733  1.00  0.00     0.274 HD
ENDBRANCH   2   7
ENDBRANCH   1   2
BRANCH   1  11
HETATM   11  N3  UNL     1      64.309  16.224  39.840  1.00  0.00    -0.044 N 
ATOM     12  H33 UNL     1      64.068  16.187  38.850  1.00  0.00     0.277 HD
ATOM     13  H32 UNL     1      64.706  15.285  39.862  1.00  0.00     0.277 HD
ATOM     14  H31 UNL     1      63.534  16.394  40.480  1.00  0.00     0.277 HD
ENDBRANCH   1  11
BRANCH   1  15
HETATM   15  C5  UNL     1      64.772  18.597  39.698  1.00  0.00     0.294 C 
HETATM   16  O2  UNL     1      64.185  18.853  38.680  1.00  0.00    -0.302 OA
ENDBRANCH   1  15
BRANCH   1  17
HETATM   17  N4  UNL     1      65.520  17.177  41.589  1.00  0.00    -0.371 N 
ATOM     18  H4  UNL     1      64.792  17.438  42.253  1.00  0.00     0.157 HD
BRANCH  17  19
HETATM   19  C6  UNL     1      66.715  16.713  42.117  1.00  0.00     0.146 C 
BRANCH  19  20
HETATM   20  C7  UNL     1      67.247  17.314  43.352  1.00  0.00    -0.031 A 
HETATM   21  C8  UNL     1      66.614  17.146  44.584  1.00  0.00     0.009 A 
HETATM   22  C9  UNL     1      67.100  17.671  45.749  1.00  0.00     0.001 A 
HETATM   23  C10 UNL     1      68.266  18.407  45.736  1.00  0.00     0.000 A 
HETATM   24  C11 UNL     1      68.910  18.582  44.508  1.00  0.00     0.001 A 
HETATM   25  C12 UNL     1      68.418  18.052  43.342  1.00  0.00     0.009 A 
ENDBRANCH  19  20
BRANCH  19  26
HETATM   26  C13 UNL     1      66.646  15.215  42.282  1.00  0.00    -0.031 A 
HETATM   27  C14 UNL     1      67.717  14.485  42.750  1.00  0.00     0.009 A 
HETATM   28  C15 UNL     1      67.681  13.112  42.930  1.00  0.00     0.001 A 
HETATM   29  C16 UNL     1      66.536  12.426  42.636  1.00  0.00     0.000 A 
HETATM   30  C17 UNL     1      65.441  13.117  42.165  1.00  0.00     0.001 A 
HETATM   31  C18 UNL     1      65.508  14.490  41.996  1.00  0.00     0.009 A 
ENDBRANCH  19  26
ENDBRANCH  17  19
ENDBRANCH   1  17
TORSDOF 10
ENDMDL
