MODEL 1
REMARK VINA RESULT: -6.096974401      0.000      0.000
REMARK  8 active torsions:
REMARK  status: ('A' for Active; 'I' for Inactive)
REMARK       I    between atoms: C2_2  and  N1_4 
REMARK    1  A    between atoms: N1_4  and  C3_6 
REMARK    2  A    between atoms: C3_6  and  C4_7 
REMARK    3  A    between atoms: C3_6  and  C11_20 
REMARK    4  A    between atoms: C4_7  and  C5_9 
REMARK    5  A    between atoms: C5_9  and  N2_12 
REMARK    6  A    between atoms: N2_12  and  C8_14 
REMARK    7  A    between atoms: C8_14  and  C9_15 
REMARK    8  A    between atoms: C8_14  and  C10_17 
ROOT
HETATM    1  C4  UNL     1      65.621  16.139  41.473  1.00  0.00     0.180 C 
HETATM    2  O2  UNL     1      64.705  15.776  42.222  1.00  0.00    -0.293 OA
ENDROOT
BRANCH   1   3
HETATM    3  C3  UNL     1      67.002  15.842  41.969  1.00  0.00     0.190 C 
BRANCH   3   4
HETATM    4  N1  UNL     1      66.947  14.444  42.305  1.00  0.00    -0.346 N 
HETATM    5  C2  UNL     1      66.463  13.265  41.898  1.00  0.00     0.214 C 
HETATM    6  C1  UNL     1      66.830  12.109  42.958  1.00  0.00     0.117 C 
HETATM    7  O1  UNL     1      65.835  12.721  40.996  1.00  0.00    -0.274 OA
ATOM      8  H1  UNL     1      67.466  14.299  43.170  1.00  0.00     0.163 HD
ENDBRANCH   3   4
BRANCH   3   9
HETATM    9  C11 UNL     1      67.388  16.693  43.060  1.00  0.00    -0.028 A 
HETATM   10  C12 UNL     1      68.203  17.788  42.955  1.00  0.00     0.009 A 
HETATM   11  C13 UNL     1      68.526  18.588  44.092  1.00  0.00     0.001 A 
HETATM   12  C14 UNL     1      68.006  18.238  45.319  1.00  0.00     0.000 A 
HETATM   13  C15 UNL     1      67.179  17.147  45.454  1.00  0.00     0.001 A 
HETATM   14  C16 UNL     1      66.884  16.398  44.348  1.00  0.00     0.009 A 
ENDBRANCH   3   9
ENDBRANCH   1   3
BRANCH   1  15
HETATM   15  C5  UNL     1      65.313  16.784  40.190  1.00  0.00     0.082 C 
HETATM   16  C6  UNL     1      65.618  15.565  39.198  1.00  0.00     0.046 C 
HETATM   17  C7  UNL     1      63.907  17.195  39.996  1.00  0.00     0.046 C 
BRANCH  15  18
HETATM   18  N2  UNL     1      66.227  17.787  39.837  1.00  0.00    -0.393 N 
ATOM     19  H2  UNL     1      66.661  18.309  40.599  1.00  0.00     0.155 HD
BRANCH  18  20
HETATM   20  C8  UNL     1      66.596  18.133  38.536  1.00  0.00     0.189 C 
BRANCH  20  21
HETATM   21  C9  UNL     1      68.091  18.482  38.576  1.00  0.00     0.122 C 
HETATM   22  S1  UNL     1      68.844  18.429  36.964  1.00  0.00    -0.095 SA
ENDBRANCH  20  21
BRANCH  20  23
HETATM   23  C10 UNL     1      65.876  19.444  38.195  1.00  0.00     0.197 C 
HETATM   24  O3  UNL     1      64.710  19.520  37.942  1.00  0.00    -0.646 OA
HETATM   25  O4  UNL     1      66.668  20.625  38.170  1.00  0.00    -0.646 OA
ENDBRANCH  20  23
ENDBRANCH  18  20
ENDBRANCH  15  18
ENDBRANCH   1  15
TORSDOF 8
ENDMDL
MODEL 2
REMARK VINA RESULT: -5.800053705      8.681     11.541
REMARK  8 active torsions:
REMARK  status: ('A' for Active; 'I' for Inactive)
REMARK       I    between atoms: C2_2  and  N1_4 
REMARK    1  A    between atoms: N1_4  and  C3_6 
REMARK    2  A    between atoms: C3_6  and  C4_7 
REMARK    3  A    between atoms: C3_6  and  C11_20 
REMARK    4  A    between atoms: C4_7  and  C5_9 
REMARK    5  A    between atoms: C5_9  and  N2_12 
REMARK    6  A    between atoms: N2_12  and  C8_14 
REMARK    7  A    between atoms: C8_14  and  C9_15 
REMARK    8  A    between atoms: C8_14  and  C10_17 
ROOT
HETATM    1  C4  UNL     1      65.827  15.915  51.819  1.00  0.00     0.180 C 
HETATM    2  O2  UNL     1      64.648  16.288  51.769  1.00  0.00    -0.293 OA
ENDROOT
BRANCH   1   3
HETATM    3  C3  UNL     1      66.844  16.990  51.597  1.00  0.00     0.190 C 
BRANCH   3   4
HETATM    4  N1  UNL     1      66.451  18.022  52.520  1.00  0.00    -0.346 N 
HETATM    5  C2  UNL     1      66.913  19.067  53.216  1.00  0.00     0.214 C 
HETATM    6  C1  UNL     1      65.746  19.699  54.128  1.00  0.00     0.117 C 
HETATM    7  O1  UNL     1      67.915  19.744  53.419  1.00  0.00    -0.274 OA
ATOM      8  H1  UNL     1      65.455  17.919  52.716  1.00  0.00     0.163 HD
ENDBRANCH   3   4
BRANCH   3   9
HETATM    9  C11 UNL     1      66.900  17.419  50.227  1.00  0.00    -0.028 A 
HETATM   10  C12 UNL     1      67.706  16.876  49.264  1.00  0.00     0.009 A 
HETATM   11  C13 UNL     1      67.689  17.355  47.919  1.00  0.00     0.001 A 
HETATM   12  C14 UNL     1      66.842  18.392  47.596  1.00  0.00     0.000 A 
HETATM   13  C15 UNL     1      66.015  18.954  48.542  1.00  0.00     0.001 A 
HETATM   14  C16 UNL     1      66.050  18.475  49.822  1.00  0.00     0.009 A 
ENDBRANCH   3   9
ENDBRANCH   1   3
BRANCH   1  15
HETATM   15  C5  UNL     1      66.143  14.510  52.107  1.00  0.00     0.082 C 
HETATM   16  C6  UNL     1      67.481  14.708  52.964  1.00  0.00     0.046 C 
HETATM   17  C7  UNL     1      65.163  13.786  52.944  1.00  0.00     0.046 C 
BRANCH  15  18
HETATM   18  N2  UNL     1      66.532  13.783  50.973  1.00  0.00    -0.393 N 
ATOM     19  H2  UNL     1      66.002  13.939  50.116  1.00  0.00     0.155 HD
BRANCH  18  20
HETATM   20  C8  UNL     1      67.581  12.864  50.914  1.00  0.00     0.189 C 
BRANCH  20  21
HETATM   21  C9  UNL     1      68.195  12.979  49.511  1.00  0.00     0.122 C 
HETATM   22  S1  UNL     1      69.553  11.855  49.269  1.00  0.00    -0.095 SA
ENDBRANCH  20  21
BRANCH  20  23
HETATM   23  C10 UNL     1      66.960  11.463  50.978  1.00  0.00     0.197 C 
HETATM   24  O3  UNL     1      66.057  11.099  50.285  1.00  0.00    -0.646 OA
HETATM   25  O4  UNL     1      67.498  10.564  51.941  1.00  0.00    -0.646 OA
ENDBRANCH  20  23
ENDBRANCH  18  20
ENDBRANCH  15  18
ENDBRANCH   1  15
TORSDOF 8
ENDMDL
MODEL 3
REMARK VINA RESULT: -5.718842506      8.453     11.388
REMARK  8 active torsions:
REMARK  status: ('A' for Active; 'I' for Inactive)
REMARK       I    between atoms: C2_2  and  N1_4 
REMARK    1  A    between atoms: N1_4  and  C3_6 
REMARK    2  A    between atoms: C3_6  and  C4_7 
REMARK    3  A    between atoms: C3_6  and  C11_20 
REMARK    4  A    between atoms: C4_7  and  C5_9 
REMARK    5  A    between atoms: C5_9  and  N2_12 
REMARK    6  A    between atoms: N2_12  and  C8_14 
REMARK    7  A    between atoms: C8_14  and  C9_15 
REMARK    8  A    between atoms: C8_14  and  C10_17 
ROOT
HETATM    1  C4  UNL     1      65.362  18.504  51.210  1.00  0.00     0.180 C 
HETATM    2  O2  UNL     1      64.424  19.311  51.183  1.00  0.00    -0.293 OA
ENDROOT
BRANCH   1   3
HETATM    3  C3  UNL     1      66.695  19.065  50.822  1.00  0.00     0.190 C 
BRANCH   3   4
HETATM    4  N1  UNL     1      66.569  20.468  51.117  1.00  0.00    -0.346 N 
HETATM    5  C2  UNL     1      67.114  21.465  51.823  1.00  0.00     0.214 C 
HETATM    6  C1  UNL     1      66.267  22.821  51.631  1.00  0.00     0.117 C 
HETATM    7  O1  UNL     1      68.044  21.742  52.574  1.00  0.00    -0.274 OA
ATOM      8  H1  UNL     1      65.772  20.837  50.599  1.00  0.00     0.163 HD
ENDBRANCH   3   4
BRANCH   3   9
HETATM    9  C11 UNL     1      67.033  18.781  49.455  1.00  0.00    -0.028 A 
HETATM   10  C12 UNL     1      66.132  18.516  48.459  1.00  0.00     0.009 A 
HETATM   11  C13 UNL     1      66.555  18.257  47.121  1.00  0.00     0.001 A 
HETATM   12  C14 UNL     1      67.903  18.271  46.837  1.00  0.00     0.000 A 
HETATM   13  C15 UNL     1      68.831  18.540  47.816  1.00  0.00     0.001 A 
HETATM   14  C16 UNL     1      68.399  18.787  49.090  1.00  0.00     0.009 A 
ENDBRANCH   3   9
ENDBRANCH   1   3
BRANCH   1  15
HETATM   15  C5  UNL     1      65.129  17.115  51.628  1.00  0.00     0.082 C 
HETATM   16  C6  UNL     1      64.484  17.375  53.069  1.00  0.00     0.046 C 
HETATM   17  C7  UNL     1      64.155  16.353  50.818  1.00  0.00     0.046 C 
BRANCH  15  18
HETATM   18  N2  UNL     1      66.310  16.401  51.873  1.00  0.00    -0.393 N 
ATOM     19  H2  UNL     1      67.176  16.938  51.924  1.00  0.00     0.155 HD
BRANCH  18  20
HETATM   20  C8  UNL     1      66.406  15.020  52.051  1.00  0.00     0.189 C 
BRANCH  20  21
HETATM   21  C9  UNL     1      67.229  14.793  53.328  1.00  0.00     0.122 C 
HETATM   22  S1  UNL     1      68.142  16.240  53.815  1.00  0.00    -0.095 SA
ENDBRANCH  20  21
BRANCH  20  23
HETATM   23  C10 UNL     1      67.265  14.473  50.905  1.00  0.00     0.197 C 
HETATM   24  O3  UNL     1      67.619  13.334  50.818  1.00  0.00    -0.646 OA
HETATM   25  O4  UNL     1      67.666  15.400  49.903  1.00  0.00    -0.646 OA
ENDBRANCH  20  23
ENDBRANCH  18  20
ENDBRANCH  15  18
ENDBRANCH   1  15
TORSDOF 8
ENDMDL
MODEL 4
REMARK VINA RESULT: -5.668878566      8.508     11.348
REMARK  8 active torsions:
REMARK  status: ('A' for Active; 'I' for Inactive)
REMARK       I    between atoms: C2_2  and  N1_4 
REMARK    1  A    between atoms: N1_4  and  C3_6 
REMARK    2  A    between atoms: C3_6  and  C4_7 
REMARK    3  A    between atoms: C3_6  and  C11_20 
REMARK    4  A    between atoms: C4_7  and  C5_9 
REMARK    5  A    between atoms: C5_9  and  N2_12 
REMARK    6  A    between atoms: N2_12  and  C8_14 
REMARK    7  A    between atoms: C8_14  and  C9_15 
REMARK    8  A    between atoms: C8_14  and  C10_17 
ROOT
HETATM    1  C4  UNL     1      65.430  15.997  51.295  1.00  0.00     0.180 C 
HETATM    2  O2  UNL     1      64.286  16.101  50.833  1.00  0.00    -0.293 OA
ENDROOT
BRANCH   1   3
HETATM    3  C3  UNL     1      66.232  17.261  51.297  1.00  0.00     0.190 C 
BRANCH   3   4
HETATM    4  N1  UNL     1      65.357  18.215  51.925  1.00  0.00    -0.346 N 
HETATM    5  C2  UNL     1      65.338  19.397  52.553  1.00  0.00     0.214 C 
HETATM    6  C1  UNL     1      63.843  19.756  53.031  1.00  0.00     0.117 C 
HETATM    7  O1  UNL     1      66.048  20.332  52.903  1.00  0.00    -0.274 OA
ATOM      8  H1  UNL     1      64.402  17.862  51.872  1.00  0.00     0.163 HD
ENDBRANCH   3   4
BRANCH   3   9
HETATM    9  C11 UNL     1      66.664  17.638  49.980  1.00  0.00    -0.028 A 
HETATM   10  C12 UNL     1      65.925  18.367  49.087  1.00  0.00     0.009 A 
HETATM   11  C13 UNL     1      66.437  18.711  47.800  1.00  0.00     0.001 A 
HETATM   12  C14 UNL     1      67.703  18.290  47.457  1.00  0.00     0.000 A 
HETATM   13  C15 UNL     1      68.472  17.562  48.336  1.00  0.00     0.001 A 
HETATM   14  C16 UNL     1      67.958  17.248  49.563  1.00  0.00     0.009 A 
ENDBRANCH   3   9
ENDBRANCH   1   3
BRANCH   1  15
HETATM   15  C5  UNL     1      65.900  14.706  51.815  1.00  0.00     0.082 C 
HETATM   16  C6  UNL     1      67.213  15.193  52.590  1.00  0.00     0.046 C 
HETATM   17  C7  UNL     1      65.010  14.041  52.791  1.00  0.00     0.046 C 
BRANCH  15  18
HETATM   18  N2  UNL     1      66.358  13.837  50.816  1.00  0.00    -0.393 N 
ATOM     19  H2  UNL     1      65.857  13.844  49.927  1.00  0.00     0.155 HD
BRANCH  18  20
HETATM   20  C8  UNL     1      67.439  12.961  50.930  1.00  0.00     0.189 C 
BRANCH  20  21
HETATM   21  C9  UNL     1      68.168  12.977  49.578  1.00  0.00     0.122 C 
HETATM   22  S1  UNL     1      69.502  11.801  49.511  1.00  0.00    -0.095 SA
ENDBRANCH  20  21
BRANCH  20  23
HETATM   23  C10 UNL     1      66.864  11.546  51.071  1.00  0.00     0.197 C 
HETATM   24  O3  UNL     1      66.069  11.069  50.317  1.00  0.00    -0.646 OA
HETATM   25  O4  UNL     1      67.307  10.781  52.185  1.00  0.00    -0.646 OA
ENDBRANCH  20  23
ENDBRANCH  18  20
ENDBRANCH  15  18
ENDBRANCH   1  15
TORSDOF 8
ENDMDL
MODEL 5
REMARK VINA RESULT: -5.643981630      8.486     11.394
REMARK  8 active torsions:
REMARK  status: ('A' for Active; 'I' for Inactive)
REMARK       I    between atoms: C2_2  and  N1_4 
REMARK    1  A    between atoms: N1_4  and  C3_6 
REMARK    2  A    between atoms: C3_6  and  C4_7 
REMARK    3  A    between atoms: C3_6  and  C11_20 
REMARK    4  A    between atoms: C4_7  and  C5_9 
REMARK    5  A    between atoms: C5_9  and  N2_12 
REMARK    6  A    between atoms: N2_12  and  C8_14 
REMARK    7  A    between atoms: C8_14  and  C9_15 
REMARK    8  A    between atoms: C8_14  and  C10_17 
ROOT
HETATM    1  C4  UNL     1      66.213  18.388  51.370  1.00  0.00     0.180 C 
HETATM    2  O2  UNL     1      66.199  17.153  51.451  1.00  0.00    -0.293 OA
ENDROOT
BRANCH   1   3
HETATM    3  C3  UNL     1      65.712  18.946  50.074  1.00  0.00     0.190 C 
BRANCH   3   4
HETATM    4  N1  UNL     1      64.445  18.289  49.891  1.00  0.00    -0.346 N 
HETATM    5  C2  UNL     1      63.240  18.115  50.447  1.00  0.00     0.214 C 
HETATM    6  C1  UNL     1      62.352  17.103  49.564  1.00  0.00     0.117 C 
HETATM    7  O1  UNL     1      62.541  18.451  51.397  1.00  0.00    -0.274 OA
ATOM      8  H1  UNL     1      64.477  17.763  49.018  1.00  0.00     0.163 HD
ENDBRANCH   3   4
BRANCH   3   9
HETATM    9  C11 UNL     1      66.639  18.744  48.995  1.00  0.00    -0.028 A 
HETATM   10  C12 UNL     1      67.985  18.981  49.059  1.00  0.00     0.009 A 
HETATM   11  C13 UNL     1      68.838  18.740  47.940  1.00  0.00     0.001 A 
HETATM   12  C14 UNL     1      68.282  18.265  46.772  1.00  0.00     0.000 A 
HETATM   13  C15 UNL     1      66.932  18.012  46.681  1.00  0.00     0.001 A 
HETATM   14  C16 UNL     1      66.138  18.249  47.769  1.00  0.00     0.009 A 
ENDBRANCH   3   9
ENDBRANCH   1   3
BRANCH   1  15
HETATM   15  C5  UNL     1      66.673  19.196  52.507  1.00  0.00     0.082 C 
HETATM   16  C6  UNL     1      65.301  19.313  53.323  1.00  0.00     0.046 C 
HETATM   17  C7  UNL     1      67.678  18.560  53.385  1.00  0.00     0.046 C 
BRANCH  15  18
HETATM   18  N2  UNL     1      67.010  20.510  52.156  1.00  0.00    -0.393 N 
ATOM     19  H2  UNL     1      67.713  20.631  51.426  1.00  0.00     0.155 HD
BRANCH  18  20
HETATM   20  C8  UNL     1      66.470  21.669  52.718  1.00  0.00     0.189 C 
BRANCH  20  21
HETATM   21  C9  UNL     1      66.153  22.620  51.555  1.00  0.00     0.122 C 
HETATM   22  S1  UNL     1      64.665  23.556  51.829  1.00  0.00    -0.095 SA
ENDBRANCH  20  21
BRANCH  20  23
HETATM   23  C10 UNL     1      67.590  22.350  53.515  1.00  0.00     0.197 C 
HETATM   24  O3  UNL     1      68.744  22.051  53.436  1.00  0.00    -0.646 OA
HETATM   25  O4  UNL     1      67.203  23.387  54.408  1.00  0.00    -0.646 OA
ENDBRANCH  20  23
ENDBRANCH  18  20
ENDBRANCH  15  18
ENDBRANCH   1  15
TORSDOF 8
ENDMDL
