MODEL 1
REMARK VINA RESULT: -6.960969681      0.000      0.000
REMARK  10 active torsions:
REMARK  status: ('A' for Active; 'I' for Inactive)
REMARK       I    between atoms: C1_2  and  N1_3 
REMARK    1  A    between atoms: C1_2  and  C13_23 
REMARK    2  A    between atoms: N1_3  and  C2_5 
REMARK    3  A    between atoms: C2_5  and  C3_6 
REMARK    4  A    between atoms: C2_5  and  C9_12 
REMARK    5  A    between atoms: C9_12  and  O2_13 
REMARK    6  A    between atoms: C9_12  and  C10_15 
REMARK    7  A    between atoms: C10_15  and  O3_16 
REMARK    8  A    between atoms: C10_15  and  C11_18 
REMARK    9  A    between atoms: C11_18  and  C12_20 
REMARK   10  A    between atoms: C12_20  and  O5_21 
ROOT
HETATM    1  C2  UNL     1      66.840  16.699  40.603  1.00  0.00     0.149 C 
ENDROOT
BRANCH   1   2
HETATM    2  N1  UNL     1      66.769  17.196  41.975  1.00  0.00    -0.346 N 
HETATM    3  C1  UNL     1      67.688  16.760  42.967  1.00  0.00     0.252 C 
HETATM    4  O1  UNL     1      68.573  15.917  42.602  1.00  0.00    -0.268 OA
ATOM      5  H1  UNL     1      66.045  17.870  42.226  1.00  0.00     0.163 HD
BRANCH   3   6
HETATM    6  C13 UNL     1      67.661  17.218  44.333  1.00  0.00     0.032 A 
HETATM    7  C14 UNL     1      68.690  18.023  44.797  1.00  0.00     0.017 A 
HETATM    8  C15 UNL     1      68.723  18.492  46.089  1.00  0.00     0.001 A 
HETATM    9  C16 UNL     1      67.696  18.153  46.953  1.00  0.00     0.000 A 
HETATM   10  C17 UNL     1      66.666  17.353  46.505  1.00  0.00     0.001 A 
HETATM   11  C18 UNL     1      66.640  16.880  45.194  1.00  0.00     0.017 A 
ENDBRANCH   3   6
ENDBRANCH   1   2
BRANCH   1  12
HETATM   12  C3  UNL     1      66.589  17.793  39.634  1.00  0.00    -0.033 A 
HETATM   13  C4  UNL     1      67.616  18.437  38.948  1.00  0.00     0.009 A 
HETATM   14  C5  UNL     1      67.405  19.445  38.054  1.00  0.00     0.001 A 
HETATM   15  C6  UNL     1      66.120  19.851  37.812  1.00  0.00     0.000 A 
HETATM   16  C7  UNL     1      65.064  19.258  38.455  1.00  0.00     0.001 A 
HETATM   17  C8  UNL     1      65.311  18.242  39.353  1.00  0.00     0.009 A 
ENDBRANCH   1  12
BRANCH   1  18
HETATM   18  C9  UNL     1      65.885  15.525  40.433  1.00  0.00     0.181 C 
BRANCH  18  19
HETATM   19  O2  UNL     1      65.058  15.532  41.590  1.00  0.00    -0.390 OA
ATOM     20  H2  UNL     1      64.166  15.579  41.267  1.00  0.00     0.210 HD
ENDBRANCH  18  19
BRANCH  18  21
HETATM   21  C10 UNL     1      66.590  14.189  40.482  1.00  0.00     0.220 C 
BRANCH  21  22
HETATM   22  O3  UNL     1      66.743  13.584  39.260  1.00  0.00    -0.385 OA
ATOM     23  H3  UNL     1      67.328  12.835  39.263  1.00  0.00     0.210 HD
ENDBRANCH  21  22
BRANCH  21  24
HETATM   24  C11 UNL     1      65.909  13.258  41.409  1.00  0.00     0.181 C 
HETATM   25  O4  UNL     1      64.820  12.823  41.130  1.00  0.00    -0.293 OA
BRANCH  24  26
HETATM   26  C12 UNL     1      66.564  12.868  42.669  1.00  0.00     0.245 C 
BRANCH  26  27
HETATM   27  O5  UNL     1      67.864  13.311  42.764  1.00  0.00    -0.393 OA
ATOM     28  H5  UNL     1      68.500  12.605  42.781  1.00  0.00     0.209 HD
ENDBRANCH  26  27
ENDBRANCH  24  26
ENDBRANCH  21  24
ENDBRANCH  18  21
ENDBRANCH   1  18
TORSDOF 10
ENDMDL
MODEL 2
REMARK VINA RESULT: -6.915817177      0.763      1.523
REMARK  10 active torsions:
REMARK  status: ('A' for Active; 'I' for Inactive)
REMARK       I    between atoms: C1_2  and  N1_3 
REMARK    1  A    between atoms: C1_2  and  C13_23 
REMARK    2  A    between atoms: N1_3  and  C2_5 
REMARK    3  A    between atoms: C2_5  and  C3_6 
REMARK    4  A    between atoms: C2_5  and  C9_12 
REMARK    5  A    between atoms: C9_12  and  O2_13 
REMARK    6  A    between atoms: C9_12  and  C10_15 
REMARK    7  A    between atoms: C10_15  and  O3_16 
REMARK    8  A    between atoms: C10_15  and  C11_18 
REMARK    9  A    between atoms: C11_18  and  C12_20 
REMARK   10  A    between atoms: C12_20  and  O5_21 
ROOT
HETATM    1  C2  UNL     1      66.146  16.601  40.495  1.00  0.00     0.149 C 
ENDROOT
BRANCH   1   2
HETATM    2  N1  UNL     1      66.267  17.105  41.861  1.00  0.00    -0.346 N 
HETATM    3  C1  UNL     1      67.333  16.696  42.707  1.00  0.00     0.252 C 
HETATM    4  O1  UNL     1      68.174  15.872  42.217  1.00  0.00    -0.268 OA
ATOM      5  H1  UNL     1      65.572  17.763  42.214  1.00  0.00     0.163 HD
BRANCH   3   6
HETATM    6  C13 UNL     1      67.498  17.162  44.060  1.00  0.00     0.032 A 
HETATM    7  C14 UNL     1      68.547  18.018  44.359  1.00  0.00     0.017 A 
HETATM    8  C15 UNL     1      68.758  18.497  45.630  1.00  0.00     0.001 A 
HETATM    9  C16 UNL     1      67.897  18.115  46.644  1.00  0.00     0.000 A 
HETATM   10  C17 UNL     1      66.849  17.264  46.361  1.00  0.00     0.001 A 
HETATM   11  C18 UNL     1      66.640  16.781  45.070  1.00  0.00     0.017 A 
ENDBRANCH   3   6
ENDBRANCH   1   2
BRANCH   1  12
HETATM   12  C3  UNL     1      66.324  17.698  39.513  1.00  0.00    -0.033 A 
HETATM   13  C4  UNL     1      65.262  18.470  39.050  1.00  0.00     0.009 A 
HETATM   14  C5  UNL     1      65.406  19.482  38.148  1.00  0.00     0.001 A 
HETATM   15  C6  UNL     1      66.657  19.761  37.667  1.00  0.00     0.000 A 
HETATM   16  C7  UNL     1      67.746  19.039  38.083  1.00  0.00     0.001 A 
HETATM   17  C8  UNL     1      67.566  18.022  38.996  1.00  0.00     0.009 A 
ENDBRANCH   1  12
BRANCH   1  18
HETATM   18  C9  UNL     1      64.820  15.870  40.334  1.00  0.00     0.181 C 
BRANCH  18  19
HETATM   19  O2  UNL     1      63.838  16.723  40.909  1.00  0.00    -0.390 OA
ATOM     20  H2  UNL     1      63.128  16.758  40.279  1.00  0.00     0.210 HD
ENDBRANCH  18  19
BRANCH  18  21
HETATM   21  C10 UNL     1      64.749  14.604  41.157  1.00  0.00     0.220 C 
BRANCH  21  22
HETATM   22  O3  UNL     1      64.805  14.807  42.513  1.00  0.00    -0.385 OA
ATOM     23  H3  UNL     1      64.289  14.194  43.024  1.00  0.00     0.210 HD
ENDBRANCH  21  22
BRANCH  21  24
HETATM   24  C11 UNL     1      65.806  13.648  40.761  1.00  0.00     0.181 C 
HETATM   25  O4  UNL     1      66.186  13.613  39.617  1.00  0.00    -0.293 OA
BRANCH  24  26
HETATM   26  C12 UNL     1      66.387  12.739  41.764  1.00  0.00     0.245 C 
BRANCH  26  27
HETATM   27  O5  UNL     1      67.495  13.263  42.391  1.00  0.00    -0.393 OA
ATOM     28  H5  UNL     1      67.399  13.320  43.335  1.00  0.00     0.209 HD
ENDBRANCH  26  27
ENDBRANCH  24  26
ENDBRANCH  21  24
ENDBRANCH  18  21
ENDBRANCH   1  18
TORSDOF 10
ENDMDL
MODEL 3
REMARK VINA RESULT: -6.804112538      1.468      2.258
REMARK  10 active torsions:
REMARK  status: ('A' for Active; 'I' for Inactive)
REMARK       I    between atoms: C1_2  and  N1_3 
REMARK    1  A    between atoms: C1_2  and  C13_23 
REMARK    2  A    between atoms: N1_3  and  C2_5 
REMARK    3  A    between atoms: C2_5  and  C3_6 
REMARK    4  A    between atoms: C2_5  and  C9_12 
REMARK    5  A    between atoms: C9_12  and  O2_13 
REMARK    6  A    between atoms: C9_12  and  C10_15 
REMARK    7  A    between atoms: C10_15  and  O3_16 
REMARK    8  A    between atoms: C10_15  and  C11_18 
REMARK    9  A    between atoms: C11_18  and  C12_20 
REMARK   10  A    between atoms: C12_20  and  O5_21 
ROOT
HETATM    1  C2  UNL     1      67.770  16.296  41.919  1.00  0.00     0.149 C 
ENDROOT
BRANCH   1   2
HETATM    2  N1  UNL     1      67.423  16.570  43.312  1.00  0.00    -0.346 N 
HETATM    3  C1  UNL     1      68.080  17.590  44.049  1.00  0.00     0.252 C 
HETATM    4  O1  UNL     1      68.984  18.252  43.439  1.00  0.00    -0.268 OA
ATOM      5  H1  UNL     1      66.693  16.017  43.763  1.00  0.00     0.163 HD
BRANCH   3   6
HETATM    6  C13 UNL     1      67.777  17.900  45.424  1.00  0.00     0.032 A 
HETATM    7  C14 UNL     1      68.805  18.261  46.280  1.00  0.00     0.017 A 
HETATM    8  C15 UNL     1      68.581  18.569  47.601  1.00  0.00     0.001 A 
HETATM    9  C16 UNL     1      67.288  18.517  48.093  1.00  0.00     0.000 A 
HETATM   10  C17 UNL     1      66.255  18.159  47.252  1.00  0.00     0.001 A 
HETATM   11  C18 UNL     1      66.489  17.848  45.913  1.00  0.00     0.017 A 
ENDBRANCH   3   6
ENDBRANCH   1   2
BRANCH   1  12
HETATM   12  C3  UNL     1      66.737  16.839  41.004  1.00  0.00    -0.033 A 
HETATM   13  C4  UNL     1      67.013  17.190  39.684  1.00  0.00     0.009 A 
HETATM   14  C5  UNL     1      66.077  17.691  38.830  1.00  0.00     0.001 A 
HETATM   15  C6  UNL     1      64.797  17.861  39.282  1.00  0.00     0.000 A 
HETATM   16  C7  UNL     1      64.458  17.536  40.570  1.00  0.00     0.001 A 
HETATM   17  C8  UNL     1      65.428  17.031  41.411  1.00  0.00     0.009 A 
ENDBRANCH   1  12
BRANCH   1  18
HETATM   18  C9  UNL     1      68.002  14.803  41.732  1.00  0.00     0.181 C 
BRANCH  18  19
HETATM   19  O2  UNL     1      67.681  14.531  40.374  1.00  0.00    -0.390 OA
ATOM     20  H2  UNL     1      68.463  14.743  39.878  1.00  0.00     0.210 HD
ENDBRANCH  18  19
BRANCH  18  21
HETATM   21  C10 UNL     1      67.031  13.959  42.525  1.00  0.00     0.220 C 
BRANCH  21  22
HETATM   22  O3  UNL     1      67.623  13.092  43.409  1.00  0.00    -0.385 OA
ATOM     23  H3  UNL     1      68.207  13.506  44.034  1.00  0.00     0.210 HD
ENDBRANCH  21  22
BRANCH  21  24
HETATM   24  C11 UNL     1      66.124  13.205  41.632  1.00  0.00     0.181 C 
HETATM   25  O4  UNL     1      66.341  12.042  41.399  1.00  0.00    -0.293 OA
BRANCH  24  26
HETATM   26  C12 UNL     1      64.960  13.878  41.030  1.00  0.00     0.245 C 
BRANCH  26  27
HETATM   27  O5  UNL     1      65.111  14.118  39.682  1.00  0.00    -0.393 OA
ATOM     28  H5  UNL     1      65.877  14.642  39.479  1.00  0.00     0.209 HD
ENDBRANCH  26  27
ENDBRANCH  24  26
ENDBRANCH  21  24
ENDBRANCH  18  21
ENDBRANCH   1  18
TORSDOF 10
ENDMDL
MODEL 4
REMARK VINA RESULT: -6.803724865      1.419      2.398
REMARK  10 active torsions:
REMARK  status: ('A' for Active; 'I' for Inactive)
REMARK       I    between atoms: C1_2  and  N1_3 
REMARK    1  A    between atoms: C1_2  and  C13_23 
REMARK    2  A    between atoms: N1_3  and  C2_5 
REMARK    3  A    between atoms: C2_5  and  C3_6 
REMARK    4  A    between atoms: C2_5  and  C9_12 
REMARK    5  A    between atoms: C9_12  and  O2_13 
REMARK    6  A    between atoms: C9_12  and  C10_15 
REMARK    7  A    between atoms: C10_15  and  O3_16 
REMARK    8  A    between atoms: C10_15  and  C11_18 
REMARK    9  A    between atoms: C11_18  and  C12_20 
REMARK   10  A    between atoms: C12_20  and  O5_21 
ROOT
HETATM    1  C2  UNL     1      67.277  16.210  42.565  1.00  0.00     0.149 C 
ENDROOT
BRANCH   1   2
HETATM    2  N1  UNL     1      66.937  16.838  43.840  1.00  0.00    -0.346 N 
HETATM    3  C1  UNL     1      67.942  17.198  44.777  1.00  0.00     0.252 C 
HETATM    4  O1  UNL     1      69.150  16.947  44.452  1.00  0.00    -0.268 OA
ATOM      5  H1  UNL     1      65.958  17.021  44.061  1.00  0.00     0.163 HD
BRANCH   3   6
HETATM    6  C13 UNL     1      67.661  17.818  46.047  1.00  0.00     0.032 A 
HETATM    7  C14 UNL     1      68.714  18.254  46.835  1.00  0.00     0.017 A 
HETATM    8  C15 UNL     1      68.511  18.853  48.057  1.00  0.00     0.001 A 
HETATM    9  C16 UNL     1      67.217  19.027  48.513  1.00  0.00     0.000 A 
HETATM   10  C17 UNL     1      66.159  18.598  47.739  1.00  0.00     0.001 A 
HETATM   11  C18 UNL     1      66.371  17.991  46.502  1.00  0.00     0.017 A 
ENDBRANCH   3   6
ENDBRANCH   1   2
BRANCH   1  12
HETATM   12  C3  UNL     1      66.492  16.810  41.459  1.00  0.00    -0.033 A 
HETATM   13  C4  UNL     1      67.073  17.215  40.260  1.00  0.00     0.009 A 
HETATM   14  C5  UNL     1      66.368  17.767  39.233  1.00  0.00     0.001 A 
HETATM   15  C6  UNL     1      65.018  17.936  39.378  1.00  0.00     0.000 A 
HETATM   16  C7  UNL     1      64.383  17.559  40.533  1.00  0.00     0.001 A 
HETATM   17  C8  UNL     1      65.125  17.002  41.554  1.00  0.00     0.009 A 
ENDBRANCH   1  12
BRANCH   1  18
HETATM   18  C9  UNL     1      67.097  14.703  42.671  1.00  0.00     0.181 C 
BRANCH  18  19
HETATM   19  O2  UNL     1      68.035  14.138  41.764  1.00  0.00    -0.390 OA
ATOM     20  H2  UNL     1      67.781  13.228  41.665  1.00  0.00     0.210 HD
ENDBRANCH  18  19
BRANCH  18  21
HETATM   21  C10 UNL     1      65.752  14.239  42.160  1.00  0.00     0.220 C 
BRANCH  21  22
HETATM   22  O3  UNL     1      64.955  13.653  43.111  1.00  0.00    -0.385 OA
ATOM     23  H3  UNL     1      65.368  12.940  43.584  1.00  0.00     0.210 HD
ENDBRANCH  21  22
BRANCH  21  24
HETATM   24  C11 UNL     1      65.905  13.317  41.013  1.00  0.00     0.181 C 
HETATM   25  O4  UNL     1      65.994  12.130  41.204  1.00  0.00    -0.293 OA
BRANCH  24  26
HETATM   26  C12 UNL     1      65.949  13.853  39.642  1.00  0.00     0.245 C 
BRANCH  26  27
HETATM   27  O5  UNL     1      67.229  14.075  39.188  1.00  0.00    -0.393 OA
ATOM     28  H5  UNL     1      67.790  14.485  39.836  1.00  0.00     0.209 HD
ENDBRANCH  26  27
ENDBRANCH  24  26
ENDBRANCH  21  24
ENDBRANCH  18  21
ENDBRANCH   1  18
TORSDOF 10
ENDMDL
MODEL 5
REMARK VINA RESULT: -6.460628348      1.106      5.667
REMARK  10 active torsions:
REMARK  status: ('A' for Active; 'I' for Inactive)
REMARK       I    between atoms: C1_2  and  N1_3 
REMARK    1  A    between atoms: C1_2  and  C13_23 
REMARK    2  A    between atoms: N1_3  and  C2_5 
REMARK    3  A    between atoms: C2_5  and  C3_6 
REMARK    4  A    between atoms: C2_5  and  C9_12 
REMARK    5  A    between atoms: C9_12  and  O2_13 
REMARK    6  A    between atoms: C9_12  and  C10_15 
REMARK    7  A    between atoms: C10_15  and  O3_16 
REMARK    8  A    between atoms: C10_15  and  C11_18 
REMARK    9  A    between atoms: C11_18  and  C12_20 
REMARK   10  A    between atoms: C12_20  and  O5_21 
ROOT
HETATM    1  C2  UNL     1      66.407  16.454  43.099  1.00  0.00     0.149 C 
ENDROOT
BRANCH   1   2
HETATM    2  N1  UNL     1      66.863  17.049  41.845  1.00  0.00    -0.346 N 
HETATM    3  C1  UNL     1      65.952  17.356  40.799  1.00  0.00     0.252 C 
HETATM    4  O1  UNL     1      64.723  17.088  41.008  1.00  0.00    -0.268 OA
ATOM      5  H1  UNL     1      67.856  17.248  41.718  1.00  0.00     0.163 HD
BRANCH   3   6
HETATM    6  C13 UNL     1      66.350  17.943  39.544  1.00  0.00     0.032 A 
HETATM    7  C14 UNL     1      67.652  17.774  39.100  1.00  0.00     0.017 A 
HETATM    8  C15 UNL     1      68.093  18.308  37.912  1.00  0.00     0.001 A 
HETATM    9  C16 UNL     1      67.210  19.036  37.134  1.00  0.00     0.000 A 
HETATM   10  C17 UNL     1      65.911  19.212  37.564  1.00  0.00     0.001 A 
HETATM   11  C18 UNL     1      65.471  18.668  38.769  1.00  0.00     0.017 A 
ENDBRANCH   3   6
ENDBRANCH   1   2
BRANCH   1  12
HETATM   12  C3  UNL     1      67.101  17.070  44.255  1.00  0.00    -0.033 A 
HETATM   13  C4  UNL     1      66.594  17.014  45.552  1.00  0.00     0.009 A 
HETATM   14  C5  UNL     1      67.217  17.575  46.626  1.00  0.00     0.001 A 
HETATM   15  C6  UNL     1      68.404  18.228  46.432  1.00  0.00     0.000 A 
HETATM   16  C7  UNL     1      68.958  18.319  45.181  1.00  0.00     0.001 A 
HETATM   17  C8  UNL     1      68.303  17.742  44.114  1.00  0.00     0.009 A 
ENDBRANCH   1  12
BRANCH   1  18
HETATM   18  C9  UNL     1      66.577  14.942  43.041  1.00  0.00     0.181 C 
BRANCH  18  19
HETATM   19  O2  UNL     1      67.728  14.716  42.236  1.00  0.00    -0.390 OA
ATOM     20  H2  UNL     1      67.779  13.774  42.121  1.00  0.00     0.210 HD
ENDBRANCH  18  19
BRANCH  18  21
HETATM   21  C10 UNL     1      65.455  14.258  42.295  1.00  0.00     0.220 C 
BRANCH  21  22
HETATM   22  O3  UNL     1      64.629  13.499  43.086  1.00  0.00    -0.385 OA
ATOM     23  H3  UNL     1      64.565  12.588  42.827  1.00  0.00     0.210 HD
ENDBRANCH  21  22
BRANCH  21  24
HETATM   24  C11 UNL     1      65.977  13.424  41.190  1.00  0.00     0.181 C 
HETATM   25  O4  UNL     1      66.266  12.271  41.392  1.00  0.00    -0.293 OA
BRANCH  24  26
HETATM   26  C12 UNL     1      66.143  14.006  39.847  1.00  0.00     0.245 C 
BRANCH  26  27
HETATM   27  O5  UNL     1      67.453  14.306  39.545  1.00  0.00    -0.393 OA
ATOM     28  H5  UNL     1      68.007  14.376  40.314  1.00  0.00     0.209 HD
ENDBRANCH  26  27
ENDBRANCH  24  26
ENDBRANCH  21  24
ENDBRANCH  18  21
ENDBRANCH   1  18
TORSDOF 10
ENDMDL
