MODEL 1
REMARK VINA RESULT: -7.573388807      0.000      0.000
REMARK  5 active torsions:
REMARK  status: ('A' for Active; 'I' for Inactive)
REMARK    1  A    between atoms: C2_2  and  C3_3 
REMARK    2  A    between atoms: C3_3  and  O2_5 
REMARK    3  A    between atoms: O2_5  and  C4_6 
REMARK    4  A    between atoms: C4_6  and  O3_7 
REMARK    5  A    between atoms: O3_7  and  O4_8 
ROOT
HETATM    1  C4  UNL     1     -18.508 -16.440  17.283  1.00  0.00     0.299 C 
HETATM    2  C5  UNL     1     -18.749 -16.326  18.807  1.00  0.00     0.326 C 
HETATM    3  O5  UNL     1     -19.520 -15.451  19.251  1.00  0.00    -0.259 OA
HETATM    4  O6  UNL     1     -17.991 -17.304  19.387  1.00  0.00    -0.311 OA
HETATM    5  C6  UNL     1     -16.944 -17.676  18.542  1.00  0.00     0.143 C 
HETATM    6  C7  UNL     1     -16.614 -19.163  18.677  1.00  0.00     0.047 C 
HETATM    7  C8  UNL     1     -15.182 -19.354  18.357  1.00  0.00    -0.012 C 
HETATM    8  C9  UNL     1     -14.286 -18.654  19.354  1.00  0.00     0.020 C 
HETATM    9  C10 UNL     1     -14.864 -20.834  18.441  1.00  0.00     0.092 C 
HETATM   10  C11 UNL     1     -13.547 -20.895  17.773  1.00  0.00     0.131 C 
HETATM   11  O7  UNL     1     -12.614 -21.607  18.079  1.00  0.00    -0.298 OA
HETATM   12  C12 UNL     1     -13.589 -19.914  16.656  1.00  0.00     0.113 C 
HETATM   13  C13 UNL     1     -14.820 -19.080  16.958  1.00  0.00    -0.068 C 
HETATM   14  C14 UNL     1     -15.390 -18.308  16.093  1.00  0.00    -0.022 C 
HETATM   15  C15 UNL     1     -16.546 -17.435  16.100  1.00  0.00     0.040 C 
HETATM   16  C16 UNL     1     -17.555 -17.552  17.154  1.00  0.00     0.095 C 
ENDROOT
BRANCH   1  17
HETATM   17  O2  UNL     1     -18.142 -15.161  16.934  1.00  0.00    -0.267 OA
BRANCH  17  18
HETATM   18  C3  UNL     1     -18.898 -14.137  16.458  1.00  0.00     0.285 C 
HETATM   19  O1  UNL     1     -19.422 -14.263  15.311  1.00  0.00    -0.260 OA
BRANCH  18  20
HETATM   20  C2  UNL     1     -19.122 -12.897  17.233  1.00  0.00     0.072 C 
HETATM   21  C1  UNL     1     -20.027 -12.044  16.814  1.00  0.00     0.017 C 
ENDBRANCH  18  20
ENDBRANCH  17  18
ENDBRANCH   1  17
BRANCH   1  22
HETATM   22  O3  UNL     1     -19.809 -16.755  16.810  1.00  0.00    -0.191 OA
BRANCH  22  23
HETATM   23  O4  UNL     1     -19.782 -16.943  15.515  1.00  0.00    -0.247 OA
ATOM     24  H4  UNL     1     -19.125 -17.594  15.294  1.00  0.00     0.253 HD
ENDBRANCH  22  23
ENDBRANCH   1  22
TORSDOF 5
ENDMDL
MODEL 2
REMARK VINA RESULT: -7.264236037      1.920      2.957
REMARK  5 active torsions:
REMARK  status: ('A' for Active; 'I' for Inactive)
REMARK    1  A    between atoms: C2_2  and  C3_3 
REMARK    2  A    between atoms: C3_3  and  O2_5 
REMARK    3  A    between atoms: O2_5  and  C4_6 
REMARK    4  A    between atoms: C4_6  and  O3_7 
REMARK    5  A    between atoms: O3_7  and  O4_8 
ROOT
HETATM    1  C4  UNL     1     -17.090 -18.086  17.810  1.00  0.00     0.299 C 
HETATM    2  C5  UNL     1     -16.642 -18.554  19.216  1.00  0.00     0.326 C 
HETATM    3  O5  UNL     1     -17.296 -18.214  20.222  1.00  0.00    -0.259 OA
HETATM    4  O6  UNL     1     -15.520 -19.310  19.026  1.00  0.00    -0.311 OA
HETATM    5  C6  UNL     1     -14.910 -18.982  17.812  1.00  0.00     0.143 C 
HETATM    6  C7  UNL     1     -14.253 -20.203  17.166  1.00  0.00     0.047 C 
HETATM    7  C8  UNL     1     -13.111 -19.739  16.348  1.00  0.00    -0.012 C 
HETATM    8  C9  UNL     1     -12.031 -19.109  17.198  1.00  0.00     0.020 C 
HETATM    9  C10 UNL     1     -12.489 -20.942  15.666  1.00  0.00     0.092 C 
HETATM   10  C11 UNL     1     -11.629 -20.297  14.651  1.00  0.00     0.131 C 
HETATM   11  O7  UNL     1     -10.533 -20.671  14.291  1.00  0.00    -0.298 OA
HETATM   12  C12 UNL     1     -12.369 -19.105  14.159  1.00  0.00     0.113 C 
HETATM   13  C13 UNL     1     -13.479 -18.926  15.178  1.00  0.00    -0.068 C 
HETATM   14  C14 UNL     1     -14.522 -18.191  14.978  1.00  0.00    -0.022 C 
HETATM   15  C15 UNL     1     -15.706 -17.858  15.744  1.00  0.00     0.040 C 
HETATM   16  C16 UNL     1     -16.088 -18.664  16.904  1.00  0.00     0.095 C 
ENDROOT
BRANCH   1  17
HETATM   17  O2  UNL     1     -17.194 -16.723  17.960  1.00  0.00    -0.267 OA
BRANCH  17  18
HETATM   18  C3  UNL     1     -18.294 -15.924  17.938  1.00  0.00     0.285 C 
HETATM   19  O1  UNL     1     -18.816 -15.594  19.044  1.00  0.00    -0.260 OA
BRANCH  18  20
HETATM   20  C2  UNL     1     -18.888 -15.438  16.673  1.00  0.00     0.072 C 
HETATM   21  C1  UNL     1     -19.069 -14.148  16.514  1.00  0.00     0.017 C 
ENDBRANCH  18  20
ENDBRANCH  17  18
ENDBRANCH   1  17
BRANCH   1  22
HETATM   22  O3  UNL     1     -18.368 -18.694  17.700  1.00  0.00    -0.191 OA
BRANCH  22  23
HETATM   23  O4  UNL     1     -18.281 -19.973  17.971  1.00  0.00    -0.247 OA
ATOM     24  H4  UNL     1     -17.477 -20.328  17.610  1.00  0.00     0.253 HD
ENDBRANCH  22  23
ENDBRANCH   1  22
TORSDOF 5
ENDMDL
MODEL 3
REMARK VINA RESULT: -6.949555507      2.830      4.216
REMARK  5 active torsions:
REMARK  status: ('A' for Active; 'I' for Inactive)
REMARK    1  A    between atoms: C2_2  and  C3_3 
REMARK    2  A    between atoms: C3_3  and  O2_5 
REMARK    3  A    between atoms: O2_5  and  C4_6 
REMARK    4  A    between atoms: C4_6  and  O3_7 
REMARK    5  A    between atoms: O3_7  and  O4_8 
ROOT
HETATM    1  C4  UNL     1     -16.755 -18.484  17.171  1.00  0.00     0.299 C 
HETATM    2  C5  UNL     1     -16.538 -19.578  16.098  1.00  0.00     0.326 C 
HETATM    3  O5  UNL     1     -16.851 -19.355  14.911  1.00  0.00    -0.259 OA
HETATM    4  O6  UNL     1     -15.997 -20.650  16.751  1.00  0.00    -0.311 OA
HETATM    5  C6  UNL     1     -16.305 -20.598  18.113  1.00  0.00     0.143 C 
HETATM    6  C7  UNL     1     -15.173 -21.171  18.966  1.00  0.00     0.047 C 
HETATM    7  C8  UNL     1     -15.758 -21.723  20.208  1.00  0.00    -0.012 C 
HETATM    8  C9  UNL     1     -16.675 -22.892  19.923  1.00  0.00     0.020 C 
HETATM    9  C10 UNL     1     -14.633 -22.247  21.078  1.00  0.00     0.092 C 
HETATM   10  C11 UNL     1     -15.319 -22.427  22.375  1.00  0.00     0.131 C 
HETATM   11  O7  UNL     1     -15.129 -23.320  23.174  1.00  0.00    -0.298 OA
HETATM   12  C12 UNL     1     -16.284 -21.304  22.508  1.00  0.00     0.113 C 
HETATM   13  C13 UNL     1     -16.353 -20.723  21.108  1.00  0.00    -0.068 C 
HETATM   14  C14 UNL     1     -16.846 -19.559  20.840  1.00  0.00    -0.022 C 
HETATM   15  C15 UNL     1     -17.023 -18.771  19.638  1.00  0.00     0.040 C 
HETATM   16  C16 UNL     1     -16.288 -19.107  18.417  1.00  0.00     0.095 C 
ENDROOT
BRANCH   1  17
HETATM   17  O2  UNL     1     -18.080 -18.154  17.008  1.00  0.00    -0.267 OA
BRANCH  17  18
HETATM   18  C3  UNL     1     -18.660 -16.938  16.830  1.00  0.00     0.285 C 
HETATM   19  O1  UNL     1     -19.259 -16.714  15.736  1.00  0.00    -0.260 OA
BRANCH  18  20
HETATM   20  C2  UNL     1     -18.611 -15.884  17.867  1.00  0.00     0.072 C 
HETATM   21  C1  UNL     1     -18.760 -14.631  17.503  1.00  0.00     0.017 C 
ENDBRANCH  18  20
ENDBRANCH  17  18
ENDBRANCH   1  17
BRANCH   1  22
HETATM   22  O3  UNL     1     -15.902 -17.451  16.703  1.00  0.00    -0.191 OA
BRANCH  22  23
HETATM   23  O4  UNL     1     -14.792 -17.963  16.233  1.00  0.00    -0.247 OA
ATOM     24  H4  UNL     1     -14.979 -18.767  15.761  1.00  0.00     0.253 HD
ENDBRANCH  22  23
ENDBRANCH   1  22
TORSDOF 5
ENDMDL
MODEL 4
REMARK VINA RESULT: -6.929947240      1.988      6.894
REMARK  5 active torsions:
REMARK  status: ('A' for Active; 'I' for Inactive)
REMARK    1  A    between atoms: C2_2  and  C3_3 
REMARK    2  A    between atoms: C3_3  and  O2_5 
REMARK    3  A    between atoms: O2_5  and  C4_6 
REMARK    4  A    between atoms: C4_6  and  O3_7 
REMARK    5  A    between atoms: O3_7  and  O4_8 
ROOT
HETATM    1  C4  UNL     1     -15.132 -20.888  18.740  1.00  0.00     0.299 C 
HETATM    2  C5  UNL     1     -15.989 -21.456  19.896  1.00  0.00     0.326 C 
HETATM    3  O5  UNL     1     -15.811 -22.627  20.286  1.00  0.00    -0.259 OA
HETATM    4  O6  UNL     1     -16.834 -20.450  20.273  1.00  0.00    -0.311 OA
HETATM    5  C6  UNL     1     -16.998 -19.533  19.232  1.00  0.00     0.143 C 
HETATM    6  C7  UNL     1     -17.178 -18.109  19.760  1.00  0.00     0.047 C 
HETATM    7  C8  UNL     1     -17.994 -17.351  18.787  1.00  0.00    -0.012 C 
HETATM    8  C9  UNL     1     -19.393 -17.913  18.671  1.00  0.00     0.020 C 
HETATM    9  C10 UNL     1     -18.132 -15.925  19.283  1.00  0.00     0.092 C 
HETATM   10  C11 UNL     1     -18.645 -15.239  18.079  1.00  0.00     0.131 C 
HETATM   11  O7  UNL     1     -19.462 -14.342  18.051  1.00  0.00    -0.298 OA
HETATM   12  C12 UNL     1     -17.966 -15.860  16.911  1.00  0.00     0.113 C 
HETATM   13  C13 UNL     1     -17.350 -17.122  17.484  1.00  0.00    -0.068 C 
HETATM   14  C14 UNL     1     -16.431 -17.805  16.886  1.00  0.00    -0.022 C 
HETATM   15  C15 UNL     1     -15.676 -19.003  17.195  1.00  0.00     0.040 C 
HETATM   16  C16 UNL     1     -15.630 -19.517  18.564  1.00  0.00     0.095 C 
ENDROOT
BRANCH   1  17
HETATM   17  O2  UNL     1     -15.299 -21.825  17.747  1.00  0.00    -0.267 OA
BRANCH  17  18
HETATM   18  C3  UNL     1     -14.369 -22.490  17.010  1.00  0.00     0.285 C 
HETATM   19  O1  UNL     1     -13.990 -23.630  17.412  1.00  0.00    -0.260 OA
BRANCH  18  20
HETATM   20  C2  UNL     1     -13.799 -21.924  15.768  1.00  0.00     0.072 C 
HETATM   21  C1  UNL     1     -12.778 -21.104  15.857  1.00  0.00     0.017 C 
ENDBRANCH  18  20
ENDBRANCH  17  18
ENDBRANCH   1  17
BRANCH   1  22
HETATM   22  O3  UNL     1     -13.827 -20.947  19.295  1.00  0.00    -0.191 OA
BRANCH  22  23
HETATM   23  O4  UNL     1     -13.837 -20.476  20.517  1.00  0.00    -0.247 OA
ATOM     24  H4  UNL     1     -14.646 -20.002  20.676  1.00  0.00     0.253 HD
ENDBRANCH  22  23
ENDBRANCH   1  22
TORSDOF 5
ENDMDL
MODEL 5
REMARK VINA RESULT: -6.794837620      2.086      6.841
REMARK  5 active torsions:
REMARK  status: ('A' for Active; 'I' for Inactive)
REMARK    1  A    between atoms: C2_2  and  C3_3 
REMARK    2  A    between atoms: C3_3  and  O2_5 
REMARK    3  A    between atoms: O2_5  and  C4_6 
REMARK    4  A    between atoms: C4_6  and  O3_7 
REMARK    5  A    between atoms: O3_7  and  O4_8 
ROOT
HETATM    1  C4  UNL     1     -13.626 -20.438  16.779  1.00  0.00     0.299 C 
HETATM    2  C5  UNL     1     -13.991 -21.540  17.802  1.00  0.00     0.326 C 
HETATM    3  O5  UNL     1     -13.443 -22.658  17.733  1.00  0.00    -0.259 OA
HETATM    4  O6  UNL     1     -14.923 -20.991  18.637  1.00  0.00    -0.311 OA
HETATM    5  C6  UNL     1     -15.567 -19.919  18.013  1.00  0.00     0.143 C 
HETATM    6  C7  UNL     1     -15.938 -18.826  19.016  1.00  0.00     0.047 C 
HETATM    7  C8  UNL     1     -17.136 -18.119  18.513  1.00  0.00    -0.012 C 
HETATM    8  C9  UNL     1     -18.341 -19.032  18.453  1.00  0.00     0.020 C 
HETATM    9  C10 UNL     1     -17.477 -17.003  19.480  1.00  0.00     0.092 C 
HETATM   10  C11 UNL     1     -18.434 -16.203  18.688  1.00  0.00     0.131 C 
HETATM   11  O7  UNL     1     -19.419 -15.633  19.106  1.00  0.00    -0.298 OA
HETATM   12  C12 UNL     1     -17.954 -16.234  17.281  1.00  0.00     0.113 C 
HETATM   13  C13 UNL     1     -16.927 -17.350  17.277  1.00  0.00    -0.068 C 
HETATM   14  C14 UNL     1     -16.059 -17.521  16.334  1.00  0.00    -0.022 C 
HETATM   15  C15 UNL     1     -14.987 -18.463  16.084  1.00  0.00     0.040 C 
HETATM   16  C16 UNL     1     -14.465 -19.296  17.168  1.00  0.00     0.095 C 
ENDROOT
BRANCH   1  17
HETATM   17  O2  UNL     1     -13.816 -21.067  15.571  1.00  0.00    -0.267 OA
BRANCH  17  18
HETATM   18  C3  UNL     1     -12.966 -21.213  14.520  1.00  0.00     0.285 C 
HETATM   19  O1  UNL     1     -12.342 -22.309  14.403  1.00  0.00    -0.260 OA
BRANCH  18  20
HETATM   20  C2  UNL     1     -12.754 -20.139  13.525  1.00  0.00     0.072 C 
HETATM   21  C1  UNL     1     -13.755 -19.786  12.752  1.00  0.00     0.017 C 
ENDBRANCH  18  20
ENDBRANCH  17  18
ENDBRANCH   1  17
BRANCH   1  22
HETATM   22  O3  UNL     1     -12.246 -20.242  17.050  1.00  0.00    -0.191 OA
BRANCH  22  23
HETATM   23  O4  UNL     1     -12.053 -20.138  18.341  1.00  0.00    -0.247 OA
ATOM     24  H4  UNL     1     -12.378 -19.301  18.653  1.00  0.00     0.253 HD
ENDBRANCH  22  23
ENDBRANCH   1  22
TORSDOF 5
ENDMDL
