MODEL 1
REMARK VINA RESULT: -6.807192005      0.000      0.000
REMARK  4 active torsions:
REMARK  status: ('A' for Active; 'I' for Inactive)
REMARK    1  A    between atoms: N1_2  and  C2_4 
REMARK    2  A    between atoms: C3_8  and  N3_9 
REMARK    3  A    between atoms: C7_13  and  O1_14 
REMARK    4  A    between atoms: O1_14  and  C8_15 
ROOT
HETATM    1  C2  UNL     1      -4.199   1.362  12.621  1.00  0.00     0.123 A 
HETATM    2  S1  UNL     1      -4.272   2.225  11.146  1.00  0.00     0.008 SA
HETATM    3  N2  UNL     1      -3.895   3.756  11.706  1.00  0.00    -0.308 N 
ATOM      4  H2  UNL     1      -3.820   4.618  11.166  1.00  0.00     0.176 HD
HETATM    5  C3  UNL     1      -3.714   3.596  13.027  1.00  0.00     0.146 A 
HETATM    6  C7  UNL     1      -3.871   2.343  13.515  1.00  0.00     0.148 A 
ENDROOT
BRANCH   6   7
HETATM    7  O1  UNL     1      -3.713   2.011  14.878  1.00  0.00    -0.339 OA
BRANCH   7   8
HETATM    8  C8  UNL     1      -4.687   1.965  15.845  1.00  0.00     0.129 C 
HETATM    9  C9  UNL     1      -5.146   0.580  16.257  1.00  0.00     0.032 C 
HETATM   10  C10 UNL     1      -5.817   0.749  17.615  1.00  0.00     0.002 C 
HETATM   11  C11 UNL     1      -6.996   1.689  17.532  1.00  0.00     0.000 C 
HETATM   12  C12 UNL     1      -6.682   2.969  16.840  1.00  0.00     0.002 C 
HETATM   13  C13 UNL     1      -5.961   2.713  15.516  1.00  0.00     0.032 C 
ENDBRANCH   7   8
ENDBRANCH   6   7
BRANCH   1  14
HETATM   14  N1  UNL     1      -4.404   0.080  12.846  1.00  0.00    -0.385 N 
HETATM   15  C1  UNL     1      -4.112  -0.870  11.816  1.00  0.00     0.147 C 
ATOM     16  H1  UNL     1      -4.768  -0.232  13.746  1.00  0.00     0.159 HD
ENDBRANCH   1  14
BRANCH   5  17
HETATM   17  N3  UNL     1      -3.358   4.782  13.790  1.00  0.00    -0.364 N 
HETATM   18  C4  UNL     1      -4.056   5.699  14.660  1.00  0.00     0.126 C 
HETATM   19  C5  UNL     1      -2.878   6.652  14.646  1.00  0.00     0.040 C 
HETATM   20  C6  UNL     1      -2.128   5.507  14.004  1.00  0.00     0.126 C 
ENDBRANCH   5  17
TORSDOF 4
ENDMDL
MODEL 2
REMARK VINA RESULT: -6.745044260      1.476      4.226
REMARK  4 active torsions:
REMARK  status: ('A' for Active; 'I' for Inactive)
REMARK    1  A    between atoms: N1_2  and  C2_4 
REMARK    2  A    between atoms: C3_8  and  N3_9 
REMARK    3  A    between atoms: C7_13  and  O1_14 
REMARK    4  A    between atoms: O1_14  and  C8_15 
ROOT
HETATM    1  C2  UNL     1      -3.382   4.738  13.755  1.00  0.00     0.123 A 
HETATM    2  S1  UNL     1      -1.916   4.501  12.907  1.00  0.00     0.008 SA
HETATM    3  N2  UNL     1      -2.248   3.024  12.194  1.00  0.00    -0.308 N 
ATOM      4  H2  UNL     1      -1.645   2.477  11.580  1.00  0.00     0.176 HD
HETATM    5  C3  UNL     1      -3.488   2.721  12.611  1.00  0.00     0.146 A 
HETATM    6  C7  UNL     1      -4.090   3.615  13.430  1.00  0.00     0.148 A 
ENDROOT
BRANCH   6   7
HETATM    7  O1  UNL     1      -5.391   3.443  13.952  1.00  0.00    -0.339 OA
BRANCH   7   8
HETATM    8  C8  UNL     1      -5.743   2.842  15.136  1.00  0.00     0.129 C 
HETATM    9  C9  UNL     1      -6.378   3.746  16.174  1.00  0.00     0.032 C 
HETATM   10  C10 UNL     1      -7.106   2.823  17.143  1.00  0.00     0.002 C 
HETATM   11  C11 UNL     1      -6.151   1.856  17.803  1.00  0.00     0.000 C 
HETATM   12  C12 UNL     1      -5.262   1.153  16.837  1.00  0.00     0.002 C 
HETATM   13  C13 UNL     1      -4.617   2.143  15.867  1.00  0.00     0.032 C 
ENDBRANCH   7   8
ENDBRANCH   6   7
BRANCH   1  14
HETATM   14  N1  UNL     1      -3.745   5.744  14.525  1.00  0.00    -0.385 N 
HETATM   15  C1  UNL     1      -2.896   6.893  14.626  1.00  0.00     0.147 C 
ATOM     16  H1  UNL     1      -4.621   5.705  15.043  1.00  0.00     0.159 HD
ENDBRANCH   1  14
BRANCH   5  17
HETATM   17  N3  UNL     1      -4.055   1.470  12.131  1.00  0.00    -0.364 N 
HETATM   18  C4  UNL     1      -4.211   0.136  12.660  1.00  0.00     0.126 C 
HETATM   19  C5  UNL     1      -4.620  -0.386  11.297  1.00  0.00     0.040 C 
HETATM   20  C6  UNL     1      -4.728   1.073  10.917  1.00  0.00     0.126 C 
ENDBRANCH   5  17
TORSDOF 4
ENDMDL
MODEL 3
REMARK VINA RESULT: -6.585312250      1.154      1.762
REMARK  4 active torsions:
REMARK  status: ('A' for Active; 'I' for Inactive)
REMARK    1  A    between atoms: N1_2  and  C2_4 
REMARK    2  A    between atoms: C3_8  and  N3_9 
REMARK    3  A    between atoms: C7_13  and  O1_14 
REMARK    4  A    between atoms: O1_14  and  C8_15 
ROOT
HETATM    1  C2  UNL     1      -3.923   1.381  11.862  1.00  0.00     0.123 A 
HETATM    2  S1  UNL     1      -2.349   1.581  11.225  1.00  0.00     0.008 SA
HETATM    3  N2  UNL     1      -1.970   3.068  11.891  1.00  0.00    -0.308 N 
ATOM      4  H2  UNL     1      -1.106   3.600  11.781  1.00  0.00     0.176 HD
HETATM    5  C3  UNL     1      -3.057   3.404  12.602  1.00  0.00     0.146 A 
HETATM    6  C7  UNL     1      -4.086   2.525  12.593  1.00  0.00     0.148 A 
ENDROOT
BRANCH   6   7
HETATM    7  O1  UNL     1      -5.296   2.731  13.292  1.00  0.00    -0.339 OA
BRANCH   7   8
HETATM    8  C8  UNL     1      -5.581   2.380  14.589  1.00  0.00     0.129 C 
HETATM    9  C9  UNL     1      -5.959   3.519  15.516  1.00  0.00     0.032 C 
HETATM   10  C10 UNL     1      -6.682   2.877  16.693  1.00  0.00     0.002 C 
HETATM   11  C11 UNL     1      -5.795   1.889  17.412  1.00  0.00     0.000 C 
HETATM   12  C12 UNL     1      -5.131   0.919  16.497  1.00  0.00     0.002 C 
HETATM   13  C13 UNL     1      -4.480   1.638  15.315  1.00  0.00     0.032 C 
ENDBRANCH   7   8
ENDBRANCH   6   7
BRANCH   1  14
HETATM   14  N1  UNL     1      -4.768   0.384  11.697  1.00  0.00    -0.385 N 
HETATM   15  C1  UNL     1      -4.277  -0.961  11.704  1.00  0.00     0.147 C 
ATOM     16  H1  UNL     1      -5.762   0.568  11.566  1.00  0.00     0.159 HD
ENDBRANCH   1  14
BRANCH   5  17
HETATM   17  N3  UNL     1      -3.010   4.672  13.315  1.00  0.00    -0.364 N 
HETATM   18  C4  UNL     1      -2.132   5.277  14.289  1.00  0.00     0.126 C 
HETATM   19  C5  UNL     1      -3.132   6.389  14.539  1.00  0.00     0.040 C 
HETATM   20  C6  UNL     1      -3.828   5.861  13.305  1.00  0.00     0.126 C 
ENDBRANCH   5  17
TORSDOF 4
ENDMDL
MODEL 4
REMARK VINA RESULT: -6.516905498      0.665      1.461
REMARK  4 active torsions:
REMARK  status: ('A' for Active; 'I' for Inactive)
REMARK    1  A    between atoms: N1_2  and  C2_4 
REMARK    2  A    between atoms: C3_8  and  N3_9 
REMARK    3  A    between atoms: C7_13  and  O1_14 
REMARK    4  A    between atoms: O1_14  and  C8_15 
ROOT
HETATM    1  C2  UNL     1      -4.237   0.836  12.369  1.00  0.00     0.123 A 
HETATM    2  S1  UNL     1      -4.261   1.596  10.837  1.00  0.00     0.008 SA
HETATM    3  N2  UNL     1      -4.021   3.181  11.314  1.00  0.00    -0.308 N 
ATOM      4  H2  UNL     1      -3.962   4.010  10.721  1.00  0.00     0.176 HD
HETATM    5  C3  UNL     1      -3.922   3.118  12.651  1.00  0.00     0.146 A 
HETATM    6  C7  UNL     1      -4.034   1.892  13.212  1.00  0.00     0.148 A 
ENDROOT
BRANCH   6   7
HETATM    7  O1  UNL     1      -3.951   1.659  14.603  1.00  0.00    -0.339 OA
BRANCH   7   8
HETATM    8  C8  UNL     1      -4.981   1.653  15.512  1.00  0.00     0.129 C 
HETATM    9  C9  UNL     1      -5.316   2.991  16.141  1.00  0.00     0.032 C 
HETATM   10  C10 UNL     1      -6.728   2.851  16.695  1.00  0.00     0.002 C 
HETATM   11  C11 UNL     1      -6.808   1.751  17.727  1.00  0.00     0.000 C 
HETATM   12  C12 UNL     1      -6.197   0.471  17.272  1.00  0.00     0.002 C 
HETATM   13  C13 UNL     1      -4.807   0.707  16.680  1.00  0.00     0.032 C 
ENDBRANCH   7   8
ENDBRANCH   6   7
BRANCH   1  14
HETATM   14  N1  UNL     1      -4.377  -0.440  12.667  1.00  0.00    -0.385 N 
HETATM   15  C1  UNL     1      -3.970  -1.433  11.720  1.00  0.00     0.147 C 
ATOM     16  H1  UNL     1      -4.772  -0.717  13.565  1.00  0.00     0.159 HD
ENDBRANCH   1  14
BRANCH   5  17
HETATM   17  N3  UNL     1      -3.695   4.372  13.352  1.00  0.00    -0.364 N 
HETATM   18  C4  UNL     1      -2.636   4.926  14.163  1.00  0.00     0.126 C 
HETATM   19  C5  UNL     1      -3.525   6.076  14.589  1.00  0.00     0.040 C 
HETATM   20  C6  UNL     1      -4.447   5.597  13.491  1.00  0.00     0.126 C 
ENDBRANCH   5  17
TORSDOF 4
ENDMDL
MODEL 5
REMARK VINA RESULT: -6.410307753      0.987      3.961
REMARK  4 active torsions:
REMARK  status: ('A' for Active; 'I' for Inactive)
REMARK    1  A    between atoms: N1_2  and  C2_4 
REMARK    2  A    between atoms: C3_8  and  N3_9 
REMARK    3  A    between atoms: C7_13  and  O1_14 
REMARK    4  A    between atoms: O1_14  and  C8_15 
ROOT
HETATM    1  C2  UNL     1      -3.530   4.350  13.660  1.00  0.00     0.123 A 
HETATM    2  S1  UNL     1      -3.705   4.779  12.014  1.00  0.00     0.008 SA
HETATM    3  N2  UNL     1      -4.037   3.270  11.372  1.00  0.00    -0.308 N 
ATOM      4  H2  UNL     1      -4.218   3.032  10.397  1.00  0.00     0.176 HD
HETATM    5  C3  UNL     1      -4.012   2.443  12.429  1.00  0.00     0.146 A 
HETATM    6  C7  UNL     1      -3.747   3.001  13.633  1.00  0.00     0.148 A 
ENDROOT
BRANCH   6   7
HETATM    7  O1  UNL     1      -3.688   2.267  14.839  1.00  0.00    -0.339 OA
BRANCH   7   8
HETATM    8  C8  UNL     1      -4.668   2.151  15.794  1.00  0.00     0.129 C 
HETATM    9  C9  UNL     1      -5.030   0.736  16.201  1.00  0.00     0.032 C 
HETATM   10  C10 UNL     1      -5.728   0.856  17.550  1.00  0.00     0.002 C 
HETATM   11  C11 UNL     1      -6.971   1.708  17.453  1.00  0.00     0.000 C 
HETATM   12  C12 UNL     1      -6.742   3.008  16.763  1.00  0.00     0.002 C 
HETATM   13  C13 UNL     1      -5.989   2.805  15.449  1.00  0.00     0.032 C 
ENDBRANCH   7   8
ENDBRANCH   6   7
BRANCH   1  14
HETATM   14  N1  UNL     1      -3.256   5.118  14.696  1.00  0.00    -0.385 N 
HETATM   15  C1  UNL     1      -2.992   6.510  14.488  1.00  0.00     0.147 C 
ATOM     16  H1  UNL     1      -3.233   4.725  15.636  1.00  0.00     0.159 HD
ENDBRANCH   1  14
BRANCH   5  17
HETATM   17  N3  UNL     1      -4.282   1.037  12.170  1.00  0.00    -0.364 N 
HETATM   18  C4  UNL     1      -4.117  -0.199  12.898  1.00  0.00     0.126 C 
HETATM   19  C5  UNL     1      -4.417  -1.006  11.651  1.00  0.00     0.040 C 
HETATM   20  C6  UNL     1      -4.865   0.313  11.064  1.00  0.00     0.126 C 
ENDBRANCH   5  17
TORSDOF 4
ENDMDL
