MODEL 1
REMARK VINA RESULT: -6.278044865      0.000      0.000
REMARK  3 active torsions:
REMARK  status: ('A' for Active; 'I' for Inactive)
REMARK    1  A    between atoms: C2_2  and  C3_3 
REMARK    2  A    between atoms: C10_10  and  O1_11 
REMARK    3  A    between atoms: C12_13  and  C13_14 
ROOT
HETATM    1  C3  UNL     1      -2.069   1.400  10.899  1.00  0.00     0.005 C 
HETATM    2  C4  UNL     1      -3.034   1.437  11.773  1.00  0.00    -0.049 C 
HETATM    3  C5  UNL     1      -3.913   0.445  12.409  1.00  0.00     0.040 C 
HETATM    4  C6  UNL     1      -4.960   1.535  12.436  1.00  0.00     0.044 C 
HETATM    5  C7  UNL     1      -3.741   2.451  12.563  1.00  0.00     0.068 C 
HETATM    6  C8  UNL     1      -3.903   3.774  11.973  1.00  0.00     0.007 C 
HETATM    7  C9  UNL     1      -4.045   4.841  12.731  1.00  0.00     0.006 C 
HETATM    8  C10 UNL     1      -4.052   4.789  14.230  1.00  0.00     0.172 C 
HETATM    9  C12 UNL     1      -3.759   3.441  14.788  1.00  0.00     0.168 C 
HETATM   10  N2  UNL     1      -3.255   2.456  13.910  1.00  0.00    -0.393 N 
ATOM     11  H2  UNL     1      -2.568   1.772  14.224  1.00  0.00     0.155 HD
ENDROOT
BRANCH   1  12
HETATM   12  C2  UNL     1      -1.339   2.564  10.425  1.00  0.00    -0.010 C 
HETATM   13  C1  UNL     1      -0.317   3.018  11.123  1.00  0.00     0.011 C 
ENDBRANCH   1  12
BRANCH   9  14
HETATM   14  C13 UNL     1      -4.959   2.964  15.580  1.00  0.00     0.076 A 
HETATM   15  N1  UNL     1      -6.050   3.654  15.880  1.00  0.00    -0.361 N 
HETATM   16  C14 UNL     1      -6.989   3.097  16.575  1.00  0.00     0.096 A 
ATOM     17  H1  UNL     1      -6.150   4.619  15.564  1.00  0.00     0.165 HD
HETATM   18  C15 UNL     1      -6.800   1.796  16.974  1.00  0.00     0.068 A 
HETATM   19  S1  UNL     1      -5.266   1.454  16.313  1.00  0.00    -0.085 SA
ENDBRANCH   9  14
BRANCH   8  20
HETATM   20  O1  UNL     1      -3.134   5.707  14.745  1.00  0.00    -0.384 OA
HETATM   21  C11 UNL     1      -2.978   6.743  13.844  1.00  0.00     0.202 C 
ENDBRANCH   8  20
TORSDOF 3
ENDMDL
MODEL 2
REMARK VINA RESULT: -6.274730590      2.646      5.101
REMARK  3 active torsions:
REMARK  status: ('A' for Active; 'I' for Inactive)
REMARK    1  A    between atoms: C2_2  and  C3_3 
REMARK    2  A    between atoms: C10_10  and  O1_11 
REMARK    3  A    between atoms: C12_13  and  C13_14 
ROOT
HETATM    1  C3  UNL     1      -5.946   3.786  15.792  1.00  0.00     0.005 C 
HETATM    2  C4  UNL     1      -5.341   2.784  15.220  1.00  0.00    -0.049 C 
HETATM    3  C5  UNL     1      -5.201   1.346  15.495  1.00  0.00     0.040 C 
HETATM    4  C6  UNL     1      -3.830   1.460  14.868  1.00  0.00     0.044 C 
HETATM    5  C7  UNL     1      -4.500   2.558  14.039  1.00  0.00     0.068 C 
HETATM    6  C8  UNL     1      -3.616   3.639  13.623  1.00  0.00     0.007 C 
HETATM    7  C9  UNL     1      -3.226   3.753  12.371  1.00  0.00     0.006 C 
HETATM    8  C10 UNL     1      -3.648   2.801  11.291  1.00  0.00     0.172 C 
HETATM    9  C12 UNL     1      -4.646   1.790  11.733  1.00  0.00     0.168 C 
HETATM   10  N2  UNL     1      -5.277   1.985  12.981  1.00  0.00    -0.393 N 
ATOM     11  H2  UNL     1      -6.252   1.726  13.125  1.00  0.00     0.155 HD
ENDROOT
BRANCH   1  12
HETATM   12  C2  UNL     1      -5.926   5.152  15.299  1.00  0.00    -0.010 C 
HETATM   13  C1  UNL     1      -6.656   5.475  14.249  1.00  0.00     0.011 C 
ENDBRANCH   1  12
BRANCH   9  14
HETATM   14  C13 UNL     1      -4.045   0.408  11.585  1.00  0.00     0.076 A 
HETATM   15  N1  UNL     1      -4.534  -0.735  12.045  1.00  0.00    -0.361 N 
HETATM   16  C14 UNL     1      -3.889  -1.837  11.836  1.00  0.00     0.096 A 
ATOM     17  H1  UNL     1      -5.415  -0.746  12.559  1.00  0.00     0.165 HD
HETATM   18  C15 UNL     1      -2.708  -1.762  11.138  1.00  0.00     0.068 A 
HETATM   19  S1  UNL     1      -2.602  -0.090  10.821  1.00  0.00    -0.085 SA
ENDBRANCH   9  14
BRANCH   8  20
HETATM   20  O1  UNL     1      -4.164   3.511  10.204  1.00  0.00    -0.384 OA
HETATM   21  C11 UNL     1      -3.339   4.586   9.933  1.00  0.00     0.202 C 
ENDBRANCH   8  20
TORSDOF 3
ENDMDL
MODEL 3
REMARK VINA RESULT: -6.249777428      3.062      5.857
REMARK  3 active torsions:
REMARK  status: ('A' for Active; 'I' for Inactive)
REMARK    1  A    between atoms: C2_2  and  C3_3 
REMARK    2  A    between atoms: C10_10  and  O1_11 
REMARK    3  A    between atoms: C12_13  and  C13_14 
ROOT
HETATM    1  C3  UNL     1      -3.714   2.317  15.998  1.00  0.00     0.005 C 
HETATM    2  C4  UNL     1      -3.581   3.080  14.950  1.00  0.00    -0.049 C 
HETATM    3  C5  UNL     1      -3.061   4.430  14.692  1.00  0.00     0.040 C 
HETATM    4  C6  UNL     1      -4.101   4.516  13.598  1.00  0.00     0.044 C 
HETATM    5  C7  UNL     1      -3.872   3.005  13.513  1.00  0.00     0.068 C 
HETATM    6  C8  UNL     1      -5.034   2.231  13.099  1.00  0.00     0.007 C 
HETATM    7  C9  UNL     1      -5.098   1.692  11.900  1.00  0.00     0.006 C 
HETATM    8  C10 UNL     1      -4.005   1.826  10.881  1.00  0.00     0.172 C 
HETATM    9  C12 UNL     1      -2.788   2.517  11.388  1.00  0.00     0.168 C 
HETATM   10  N2  UNL     1      -2.675   2.720  12.781  1.00  0.00    -0.393 N 
ATOM     11  H2  UNL     1      -1.771   2.665  13.249  1.00  0.00     0.155 HD
ENDROOT
BRANCH   1  12
HETATM   12  C2  UNL     1      -4.277   0.978  15.978  1.00  0.00    -0.010 C 
HETATM   13  C1  UNL     1      -5.408   0.740  16.612  1.00  0.00     0.011 C 
ENDBRANCH   1  12
BRANCH   9  14
HETATM   14  C13 UNL     1      -2.573   3.785  10.588  1.00  0.00     0.076 A 
HETATM   15  N1  UNL     1      -3.454   4.413   9.822  1.00  0.00    -0.361 N 
HETATM   16  C14 UNL     1      -3.105   5.491   9.197  1.00  0.00     0.096 A 
ATOM     17  H1  UNL     1      -4.401   4.048   9.726  1.00  0.00     0.165 HD
HETATM   18  C15 UNL     1      -1.815   5.935   9.363  1.00  0.00     0.068 A 
HETATM   19  S1  UNL     1      -1.181   4.759  10.422  1.00  0.00    -0.085 SA
ENDBRANCH   9  14
BRANCH   8  20
HETATM   20  O1  UNL     1      -3.648   0.567  10.393  1.00  0.00    -0.384 OA
HETATM   21  C11 UNL     1      -4.517  -0.378  10.904  1.00  0.00     0.202 C 
ENDBRANCH   8  20
TORSDOF 3
ENDMDL
MODEL 4
REMARK VINA RESULT: -6.242703873      1.962      5.270
REMARK  3 active torsions:
REMARK  status: ('A' for Active; 'I' for Inactive)
REMARK    1  A    between atoms: C2_2  and  C3_3 
REMARK    2  A    between atoms: C10_10  and  O1_11 
REMARK    3  A    between atoms: C12_13  and  C13_14 
ROOT
HETATM    1  C3  UNL     1      -6.336   1.749  16.847  1.00  0.00     0.005 C 
HETATM    2  C4  UNL     1      -5.345   1.626  16.010  1.00  0.00    -0.049 C 
HETATM    3  C5  UNL     1      -4.442   0.540  15.603  1.00  0.00     0.040 C 
HETATM    4  C6  UNL     1      -3.400   1.616  15.395  1.00  0.00     0.044 C 
HETATM    5  C7  UNL     1      -4.620   2.476  15.058  1.00  0.00     0.068 C 
HETATM    6  C8  UNL     1      -4.483   3.890  15.383  1.00  0.00     0.007 C 
HETATM    7  C9  UNL     1      -4.325   4.791  14.438  1.00  0.00     0.006 C 
HETATM    8  C10 UNL     1      -4.273   4.448  12.978  1.00  0.00     0.172 C 
HETATM    9  C12 UNL     1      -4.541   3.015  12.684  1.00  0.00     0.168 C 
HETATM   10  N2  UNL     1      -5.066   2.214  13.723  1.00  0.00    -0.393 N 
ATOM     11  H2  UNL     1      -5.739   1.473  13.528  1.00  0.00     0.155 HD
ENDROOT
BRANCH   1  12
HETATM   12  C2  UNL     1      -7.086   2.975  17.064  1.00  0.00    -0.010 C 
HETATM   13  C1  UNL     1      -7.061   3.550  18.250  1.00  0.00     0.011 C 
ENDBRANCH   1  12
BRANCH   9  14
HETATM   14  C13 UNL     1      -3.315   2.407  12.034  1.00  0.00     0.076 A 
HETATM   15  N1  UNL     1      -2.142   2.989  11.829  1.00  0.00    -0.361 N 
HETATM   16  C14 UNL     1      -1.192   2.327  11.251  1.00  0.00     0.096 A 
ATOM     17  H1  UNL     1      -1.988   3.953  12.126  1.00  0.00     0.165 HD
HETATM   18  C15 UNL     1      -1.456   1.033  10.872  1.00  0.00     0.068 A 
HETATM   19  S1  UNL     1      -3.073   0.849  11.380  1.00  0.00    -0.085 SA
ENDBRANCH   9  14
BRANCH   8  20
HETATM   20  O1  UNL     1      -5.179   5.239  12.268  1.00  0.00    -0.384 OA
HETATM   21  C11 UNL     1      -4.608   6.473  12.024  1.00  0.00     0.202 C 
ENDBRANCH   8  20
TORSDOF 3
ENDMDL
MODEL 5
REMARK VINA RESULT: -6.206292762      2.573      5.118
REMARK  3 active torsions:
REMARK  status: ('A' for Active; 'I' for Inactive)
REMARK    1  A    between atoms: C2_2  and  C3_3 
REMARK    2  A    between atoms: C10_10  and  O1_11 
REMARK    3  A    between atoms: C12_13  and  C13_14 
ROOT
HETATM    1  C3  UNL     1      -3.480   6.609  14.992  1.00  0.00     0.005 C 
HETATM    2  C4  UNL     1      -3.580   5.380  14.572  1.00  0.00    -0.049 C 
HETATM    3  C5  UNL     1      -4.480   4.248  14.838  1.00  0.00     0.040 C 
HETATM    4  C6  UNL     1      -3.280   3.362  14.590  1.00  0.00     0.044 C 
HETATM    5  C7  UNL     1      -2.871   4.493  13.643  1.00  0.00     0.068 C 
HETATM    6  C8  UNL     1      -1.434   4.679  13.495  1.00  0.00     0.007 C 
HETATM    7  C9  UNL     1      -0.814   4.325  12.389  1.00  0.00     0.006 C 
HETATM    8  C10 UNL     1      -1.518   3.714  11.213  1.00  0.00     0.172 C 
HETATM    9  C12 UNL     1      -2.998   3.658  11.358  1.00  0.00     0.168 C 
HETATM   10  N2  UNL     1      -3.588   4.397  12.407  1.00  0.00    -0.393 N 
ATOM     11  H2  UNL     1      -4.495   4.847  12.288  1.00  0.00     0.155 HD
ENDROOT
BRANCH   1  12
HETATM   12  C2  UNL     1      -2.464   7.551  14.554  1.00  0.00    -0.010 C 
HETATM   13  C1  UNL     1      -1.885   8.339  15.439  1.00  0.00     0.011 C 
ENDBRANCH   1  12
BRANCH   9  14
HETATM   14  C13 UNL     1      -3.440   2.209  11.338  1.00  0.00     0.076 A 
HETATM   15  N1  UNL     1      -2.674   1.136  11.196  1.00  0.00    -0.361 N 
HETATM   16  C14 UNL     1      -3.214  -0.040  11.194  1.00  0.00     0.096 A 
ATOM     17  H1  UNL     1      -1.665   1.237  11.089  1.00  0.00     0.165 HD
HETATM   18  C15 UNL     1      -4.578  -0.115  11.341  1.00  0.00     0.068 A 
HETATM   19  S1  UNL     1      -5.000   1.532  11.475  1.00  0.00    -0.085 SA
ENDBRANCH   9  14
BRANCH   8  20
HETATM   20  O1  UNL     1      -1.198   4.414  10.047  1.00  0.00    -0.384 OA
HETATM   21  C11 UNL     1      -0.626   3.543   9.141  1.00  0.00     0.202 C 
ENDBRANCH   8  20
TORSDOF 3
ENDMDL
