MODEL 1
REMARK VINA RESULT: -6.795203307      0.000      0.000
REMARK  4 active torsions:
REMARK  status: ('A' for Active; 'I' for Inactive)
REMARK    1  A    between atoms: C5_8  and  C6_9 
REMARK    2  A    between atoms: C6_9  and  N3_18 
REMARK    3  A    between atoms: N2_10  and  C7_12 
REMARK    4  A    between atoms: N3_18  and  C13_20 
ROOT
HETATM    1  C6  UNL     1      -4.149   2.270  13.668  1.00  0.00     0.112 C 
HETATM    2  N2  UNL     1      -5.014   2.042  14.583  1.00  0.00    -0.371 N 
ATOM      3  H2  UNL     1      -5.872   1.549  14.334  1.00  0.00     0.161 HD
ENDROOT
BRANCH   1   4
HETATM    4  C5  UNL     1      -4.351   1.851  12.300  1.00  0.00     0.063 A 
HETATM    5  C2  UNL     1      -4.414   0.520  11.875  1.00  0.00     0.045 A 
HETATM    6  C1  UNL     1      -4.290  -0.670  12.754  1.00  0.00     0.071 C 
HETATM    7  N1  UNL     1      -4.610   0.574  10.545  1.00  0.00    -0.265 N 
HETATM    8  O1  UNL     1      -4.669   1.804  10.146  1.00  0.00    -0.242 OA
ATOM      9  H1  UNL     1      -4.699  -0.240   9.937  1.00  0.00     0.194 HD
HETATM   10  C3  UNL     1      -4.517   2.629  11.185  1.00  0.00     0.088 A 
HETATM   11  C4  UNL     1      -4.534   4.102  11.093  1.00  0.00     0.080 C 
ENDBRANCH   1   4
BRANCH   1  12
HETATM   12  N3  UNL     1      -2.959   2.960  14.081  1.00  0.00    -0.371 N 
ATOM     13  H3  UNL     1      -2.320   2.464  14.703  1.00  0.00     0.161 HD
BRANCH  12  14
HETATM   14  C13 UNL     1      -2.602   4.280  13.691  1.00  0.00     0.083 A 
HETATM   15  C14 UNL     1      -3.089   5.497  14.408  1.00  0.00     0.027 A 
HETATM   16  C15 UNL     1      -1.690   5.079  14.578  1.00  0.00     0.027 A 
ENDBRANCH  12  14
ENDBRANCH   1  12
BRANCH   2  17
HETATM   17  C7  UNL     1      -4.823   2.457  15.967  1.00  0.00     0.086 C 
HETATM   18  C8  UNL     1      -4.939   1.168  16.781  1.00  0.00     0.025 C 
HETATM   19  C9  UNL     1      -6.230   1.270  17.537  1.00  0.00     0.002 C 
HETATM   20  C10 UNL     1      -7.056   2.227  16.687  1.00  0.00     0.006 C 
HETATM   21  C11 UNL     1      -5.995   3.285  16.378  1.00  0.00     0.004 C 
HETATM   22  C12 UNL     1      -6.445   4.327  15.434  1.00  0.00     0.012 C 
ENDBRANCH   2  17
TORSDOF 4
ENDMDL
MODEL 2
REMARK VINA RESULT: -6.293988797      0.531      1.867
REMARK  4 active torsions:
REMARK  status: ('A' for Active; 'I' for Inactive)
REMARK    1  A    between atoms: C5_8  and  C6_9 
REMARK    2  A    between atoms: C6_9  and  N3_18 
REMARK    3  A    between atoms: N2_10  and  C7_12 
REMARK    4  A    between atoms: N3_18  and  C13_20 
ROOT
HETATM    1  C6  UNL     1      -4.225   2.056  13.794  1.00  0.00     0.112 C 
HETATM    2  N2  UNL     1      -5.102   1.930  14.718  1.00  0.00    -0.371 N 
ATOM      3  H2  UNL     1      -5.960   1.417  14.512  1.00  0.00     0.161 HD
ENDROOT
BRANCH   1   4
HETATM    4  C5  UNL     1      -4.414   1.494  12.476  1.00  0.00     0.063 A 
HETATM    5  C2  UNL     1      -4.664   2.240  11.320  1.00  0.00     0.045 A 
HETATM    6  C1  UNL     1      -4.770   3.719  11.257  1.00  0.00     0.071 C 
HETATM    7  N1  UNL     1      -4.775   1.340  10.326  1.00  0.00    -0.265 N 
HETATM    8  O1  UNL     1      -4.614   0.139  10.783  1.00  0.00    -0.242 OA
ATOM      9  H1  UNL     1      -4.959   1.571   9.349  1.00  0.00     0.194 HD
HETATM   10  C3  UNL     1      -4.388   0.177  12.098  1.00  0.00     0.088 A 
HETATM   11  C4  UNL     1      -4.158  -1.010  12.943  1.00  0.00     0.080 C 
ENDBRANCH   1   4
BRANCH   1  12
HETATM   12  N3  UNL     1      -3.037   2.781  14.145  1.00  0.00    -0.371 N 
ATOM     13  H3  UNL     1      -2.372   2.321  14.768  1.00  0.00     0.161 HD
BRANCH  12  14
HETATM   14  C13 UNL     1      -2.713   4.089  13.691  1.00  0.00     0.083 A 
HETATM   15  C14 UNL     1      -3.134   5.326  14.415  1.00  0.00     0.027 A 
HETATM   16  C15 UNL     1      -1.726   4.907  14.475  1.00  0.00     0.027 A 
ENDBRANCH  12  14
ENDBRANCH   1  12
BRANCH   2  17
HETATM   17  C7  UNL     1      -4.924   2.491  16.051  1.00  0.00     0.086 C 
HETATM   18  C8  UNL     1      -5.097   1.304  16.999  1.00  0.00     0.025 C 
HETATM   19  C9  UNL     1      -6.398   1.527  17.711  1.00  0.00     0.002 C 
HETATM   20  C10 UNL     1      -7.177   2.407  16.742  1.00  0.00     0.006 C 
HETATM   21  C11 UNL     1      -6.077   3.393  16.342  1.00  0.00     0.004 C 
HETATM   22  C12 UNL     1      -6.476   4.336  15.279  1.00  0.00     0.012 C 
ENDBRANCH   2  17
TORSDOF 4
ENDMDL
MODEL 3
REMARK VINA RESULT: -6.209091824      2.091      4.951
REMARK  4 active torsions:
REMARK  status: ('A' for Active; 'I' for Inactive)
REMARK    1  A    between atoms: C5_8  and  C6_9 
REMARK    2  A    between atoms: C6_9  and  N3_18 
REMARK    3  A    between atoms: N2_10  and  C7_12 
REMARK    4  A    between atoms: N3_18  and  C13_20 
ROOT
HETATM    1  C6  UNL     1      -3.949   2.569  13.163  1.00  0.00     0.112 C 
HETATM    2  N2  UNL     1      -2.865   2.866  12.550  1.00  0.00    -0.371 N 
ATOM      3  H2  UNL     1      -2.127   2.164  12.494  1.00  0.00     0.161 HD
ENDROOT
BRANCH   1   4
HETATM    4  C5  UNL     1      -4.156   1.276  13.773  1.00  0.00     0.063 A 
HETATM    5  C2  UNL     1      -4.096   1.024  15.148  1.00  0.00     0.045 A 
HETATM    6  C1  UNL     1      -3.818   2.037  16.196  1.00  0.00     0.071 C 
HETATM    7  N1  UNL     1      -4.344  -0.291  15.286  1.00  0.00    -0.265 N 
HETATM    8  O1  UNL     1      -4.544  -0.837  14.129  1.00  0.00    -0.242 OA
ATOM      9  H1  UNL     1      -4.370  -0.788  16.176  1.00  0.00     0.194 HD
HETATM   10  C3  UNL     1      -4.441   0.082  13.166  1.00  0.00     0.088 A 
HETATM   11  C4  UNL     1      -4.614  -0.192  11.726  1.00  0.00     0.080 C 
ENDBRANCH   1   4
BRANCH   1  12
HETATM   12  N3  UNL     1      -4.954   3.594  13.202  1.00  0.00    -0.371 N 
ATOM     13  H3  UNL     1      -5.560   3.690  12.387  1.00  0.00     0.161 HD
BRANCH  12  14
HETATM   14  C13 UNL     1      -5.170   4.486  14.289  1.00  0.00     0.083 A 
HETATM   15  C14 UNL     1      -6.319   5.440  14.339  1.00  0.00     0.027 A 
HETATM   16  C15 UNL     1      -6.341   4.250  15.201  1.00  0.00     0.027 A 
ENDBRANCH  12  14
ENDBRANCH   1  12
BRANCH   2  17
HETATM   17  C7  UNL     1      -2.644   4.166  11.930  1.00  0.00     0.086 C 
HETATM   18  C8  UNL     1      -2.139   3.845  10.522  1.00  0.00     0.025 C 
HETATM   19  C9  UNL     1      -0.691   4.237  10.502  1.00  0.00     0.002 C 
HETATM   20  C10 UNL     1      -0.287   4.147  11.968  1.00  0.00     0.006 C 
HETATM   21  C11 UNL     1      -1.495   4.827  12.615  1.00  0.00     0.004 C 
HETATM   22  C12 UNL     1      -1.483   4.791  14.091  1.00  0.00     0.012 C 
ENDBRANCH   2  17
TORSDOF 4
ENDMDL
MODEL 4
REMARK VINA RESULT: -6.077629873      2.076      4.795
REMARK  4 active torsions:
REMARK  status: ('A' for Active; 'I' for Inactive)
REMARK    1  A    between atoms: C5_8  and  C6_9 
REMARK    2  A    between atoms: C6_9  and  N3_18 
REMARK    3  A    between atoms: N2_10  and  C7_12 
REMARK    4  A    between atoms: N3_18  and  C13_20 
ROOT
HETATM    1  C6  UNL     1      -4.505   2.519  14.835  1.00  0.00     0.112 C 
HETATM    2  N2  UNL     1      -4.722   1.946  13.711  1.00  0.00    -0.371 N 
ATOM      3  H2  UNL     1      -5.669   1.636  13.494  1.00  0.00     0.161 HD
ENDROOT
BRANCH   1   4
HETATM    4  C5  UNL     1      -5.559   2.738  15.799  1.00  0.00     0.063 A 
HETATM    5  C2  UNL     1      -5.983   1.798  16.744  1.00  0.00     0.045 A 
HETATM    6  C1  UNL     1      -5.422   0.435  16.913  1.00  0.00     0.071 C 
HETATM    7  N1  UNL     1      -6.971   2.398  17.433  1.00  0.00    -0.265 N 
HETATM    8  O1  UNL     1      -7.168   3.597  16.988  1.00  0.00    -0.242 OA
ATOM      9  H1  UNL     1      -7.491   1.968  18.199  1.00  0.00     0.194 HD
HETATM   10  C3  UNL     1      -6.327   3.857  15.985  1.00  0.00     0.088 A 
HETATM   11  C4  UNL     1      -6.274   5.133  15.245  1.00  0.00     0.080 C 
ENDBRANCH   1   4
BRANCH   1  12
HETATM   12  N3  UNL     1      -3.155   2.940  15.080  1.00  0.00    -0.371 N 
ATOM     13  H3  UNL     1      -2.452   2.213  15.217  1.00  0.00     0.161 HD
BRANCH  12  14
HETATM   14  C13 UNL     1      -2.720   4.293  15.147  1.00  0.00     0.083 A 
HETATM   15  C14 UNL     1      -1.581   4.819  14.336  1.00  0.00     0.027 A 
HETATM   16  C15 UNL     1      -2.954   5.190  13.965  1.00  0.00     0.027 A 
ENDBRANCH  12  14
ENDBRANCH   1  12
BRANCH   2  17
HETATM   17  C7  UNL     1      -3.669   1.720  12.729  1.00  0.00     0.086 C 
HETATM   18  C8  UNL     1      -3.924   2.759  11.637  1.00  0.00     0.025 C 
HETATM   19  C9  UNL     1      -4.405   1.995  10.440  1.00  0.00     0.002 C 
HETATM   20  C10 UNL     1      -4.997   0.731  11.051  1.00  0.00     0.006 C 
HETATM   21  C11 UNL     1      -3.909   0.400  12.075  1.00  0.00     0.004 C 
HETATM   22  C12 UNL     1      -4.242  -0.736  12.957  1.00  0.00     0.012 C 
ENDBRANCH   2  17
TORSDOF 4
ENDMDL
MODEL 5
REMARK VINA RESULT: -6.050293879      2.314      3.000
REMARK  4 active torsions:
REMARK  status: ('A' for Active; 'I' for Inactive)
REMARK    1  A    between atoms: C5_8  and  C6_9 
REMARK    2  A    between atoms: C6_9  and  N3_18 
REMARK    3  A    between atoms: N2_10  and  C7_12 
REMARK    4  A    between atoms: N3_18  and  C13_20 
ROOT
HETATM    1  C6  UNL     1      -2.898   4.215  12.932  1.00  0.00     0.112 C 
HETATM    2  N2  UNL     1      -3.818   3.664  13.632  1.00  0.00    -0.371 N 
ATOM      3  H2  UNL     1      -4.548   3.137  13.153  1.00  0.00     0.161 HD
ENDROOT
BRANCH   1   4
HETATM    4  C5  UNL     1      -2.865   4.110  11.492  1.00  0.00     0.063 A 
HETATM    5  C2  UNL     1      -3.708   4.808  10.622  1.00  0.00     0.045 A 
HETATM    6  C1  UNL     1      -4.763   5.768  11.033  1.00  0.00     0.071 C 
HETATM    7  N1  UNL     1      -3.348   4.426   9.383  1.00  0.00    -0.265 N 
HETATM    8  O1  UNL     1      -2.376   3.572   9.439  1.00  0.00    -0.242 OA
ATOM      9  H1  UNL     1      -3.780   4.761   8.522  1.00  0.00     0.194 HD
HETATM   10  C3  UNL     1      -2.040   3.344  10.711  1.00  0.00     0.088 A 
HETATM   11  C4  UNL     1      -0.968   2.426  11.142  1.00  0.00     0.080 C 
ENDBRANCH   1   4
BRANCH   1  12
HETATM   12  N3  UNL     1      -1.894   4.936  13.663  1.00  0.00    -0.371 N 
ATOM     13  H3  UNL     1      -1.333   4.412  14.335  1.00  0.00     0.161 HD
BRANCH  12  14
HETATM   14  C13 UNL     1      -1.621   6.325  13.523  1.00  0.00     0.083 A 
HETATM   15  C14 UNL     1      -2.697   7.358  13.433  1.00  0.00     0.027 A 
HETATM   16  C15 UNL     1      -1.918   7.244  14.674  1.00  0.00     0.027 A 
ENDBRANCH  12  14
ENDBRANCH   1  12
BRANCH   2  17
HETATM   17  C7  UNL     1      -3.863   3.761  15.086  1.00  0.00     0.086 C 
HETATM   18  C8  UNL     1      -3.622   2.334  15.579  1.00  0.00     0.025 C 
HETATM   19  C9  UNL     1      -4.929   1.865  16.148  1.00  0.00     0.002 C 
HETATM   20  C10 UNL     1      -5.953   2.721  15.415  1.00  0.00     0.006 C 
HETATM   21  C11 UNL     1      -5.262   4.084  15.494  1.00  0.00     0.004 C 
HETATM   22  C12 UNL     1      -5.952   5.150  14.741  1.00  0.00     0.012 C 
ENDBRANCH   2  17
TORSDOF 4
ENDMDL
