MODEL 1
REMARK VINA RESULT: -6.979296198      0.000      0.000
REMARK  3 active torsions:
REMARK  status: ('A' for Active; 'I' for Inactive)
REMARK    1  A    between atoms: C4_4  and  C5_5 
REMARK    2  A    between atoms: C7_8  and  C8_9 
REMARK       I    between atoms: C8_9  and  N1_11 
REMARK    3  A    between atoms: N1_11  and  C9_13 
ROOT
HETATM    1  C9  UNL     1      -5.004   2.843  14.663  1.00  0.00     0.102 C 
HETATM    2  C10 UNL     1      -6.406   3.205  14.937  1.00  0.00     0.026 C 
HETATM    3  C11 UNL     1      -6.473   3.429  16.422  1.00  0.00     0.004 C 
HETATM    4  C12 UNL     1      -5.615   2.277  16.941  1.00  0.00     0.021 C 
HETATM    5  C13 UNL     1      -4.606   1.989  15.854  1.00  0.00     0.115 C 
HETATM    6  C14 UNL     1      -4.604   0.564  15.518  1.00  0.00     0.066 C 
HETATM    7  N2  UNL     1      -4.612  -0.564  15.265  1.00  0.00    -0.197 NA
ENDROOT
BRANCH   1   8
HETATM    8  N1  UNL     1      -4.094   3.891  14.391  1.00  0.00    -0.349 N 
HETATM    9  C8  UNL     1      -2.995   3.870  13.523  1.00  0.00     0.275 C 
HETATM   10  O1  UNL     1      -2.711   2.853  12.872  1.00  0.00    -0.265 OA
ATOM     11  H1  UNL     1      -4.257   4.767  14.887  1.00  0.00     0.163 HD
BRANCH   9  12
HETATM   12  C7  UNL     1      -2.118   5.036  13.328  1.00  0.00     0.142 A 
HETATM   13  S1  UNL     1      -0.998   5.334  12.047  1.00  0.00    -0.077 SA
HETATM   14  C6  UNL     1      -0.415   6.856  12.565  1.00  0.00     0.077 A 
HETATM   15  C5  UNL     1      -1.136   7.048  13.719  1.00  0.00     0.021 A 
HETATM   16  N3  UNL     1      -1.971   6.113  14.057  1.00  0.00    -0.349 N 
ATOM     17  H3  UNL     1      -2.523   6.220  14.908  1.00  0.00     0.166 HD
BRANCH  15  18
HETATM   18  C4  UNL     1      -0.950   8.304  14.539  1.00  0.00     0.040 A 
HETATM   19  C2  UNL     1      -2.098   9.261  14.425  1.00  0.00    -0.008 A 
HETATM   20  C1  UNL     1      -1.725  10.696  14.258  1.00  0.00     0.011 C 
HETATM   21  C3  UNL     1      -1.836   8.523  15.697  1.00  0.00     0.016 A 
ENDBRANCH  15  18
ENDBRANCH   9  12
ENDBRANCH   1   8
TORSDOF 3
ENDMDL
MODEL 2
REMARK VINA RESULT: -6.806460082      4.264      6.715
REMARK  3 active torsions:
REMARK  status: ('A' for Active; 'I' for Inactive)
REMARK    1  A    between atoms: C4_4  and  C5_5 
REMARK    2  A    between atoms: C7_8  and  C8_9 
REMARK       I    between atoms: C8_9  and  N1_11 
REMARK    3  A    between atoms: N1_11  and  C9_13 
ROOT
HETATM    1  C9  UNL     1      -3.712   1.501  11.038  1.00  0.00     0.102 C 
HETATM    2  C10 UNL     1      -4.094   0.207  10.447  1.00  0.00     0.026 C 
HETATM    3  C11 UNL     1      -3.190  -0.806  11.095  1.00  0.00     0.004 C 
HETATM    4  C12 UNL     1      -1.857  -0.060  11.102  1.00  0.00     0.021 C 
HETATM    5  C13 UNL     1      -2.203   1.408  11.182  1.00  0.00     0.115 C 
HETATM    6  C14 UNL     1      -1.515   2.158  10.131  1.00  0.00     0.066 C 
HETATM    7  N2  UNL     1      -0.963   2.738   9.296  1.00  0.00    -0.197 NA
ENDROOT
BRANCH   1   8
HETATM    8  N1  UNL     1      -4.369   1.902  12.225  1.00  0.00    -0.349 N 
HETATM    9  C8  UNL     1      -4.508   3.200  12.733  1.00  0.00     0.275 C 
HETATM   10  O1  UNL     1      -4.031   4.177  12.135  1.00  0.00    -0.265 OA
ATOM     11  H1  UNL     1      -4.792   1.156  12.778  1.00  0.00     0.163 HD
BRANCH   9  12
HETATM   12  C7  UNL     1      -5.220   3.486  13.989  1.00  0.00     0.142 A 
HETATM   13  S1  UNL     1      -5.642   5.022  14.657  1.00  0.00    -0.077 SA
HETATM   14  C6  UNL     1      -6.419   4.479  16.080  1.00  0.00     0.077 A 
HETATM   15  C5  UNL     1      -6.305   3.115  15.951  1.00  0.00     0.021 A 
HETATM   16  N3  UNL     1      -5.699   2.670  14.892  1.00  0.00    -0.349 N 
ATOM     17  H3  UNL     1      -5.594   1.663  14.763  1.00  0.00     0.166 HD
BRANCH  15  18
HETATM   18  C4  UNL     1      -6.873   2.195  17.008  1.00  0.00     0.040 A 
HETATM   19  C2  UNL     1      -5.834   1.346  17.675  1.00  0.00    -0.008 A 
HETATM   20  C1  UNL     1      -6.204  -0.086  17.872  1.00  0.00     0.011 C 
HETATM   21  C3  UNL     1      -6.521   2.445  18.418  1.00  0.00     0.016 A 
ENDBRANCH  15  18
ENDBRANCH   9  12
ENDBRANCH   1   8
TORSDOF 3
ENDMDL
MODEL 3
REMARK VINA RESULT: -6.564728296      1.373      1.502
REMARK  3 active torsions:
REMARK  status: ('A' for Active; 'I' for Inactive)
REMARK    1  A    between atoms: C4_4  and  C5_5 
REMARK    2  A    between atoms: C7_8  and  C8_9 
REMARK       I    between atoms: C8_9  and  N1_11 
REMARK    3  A    between atoms: N1_11  and  C9_13 
ROOT
HETATM    1  C9  UNL     1      -5.753   2.537  15.911  1.00  0.00     0.102 C 
HETATM    2  C10 UNL     1      -7.065   3.198  16.017  1.00  0.00     0.026 C 
HETATM    3  C11 UNL     1      -7.110   3.767  17.409  1.00  0.00     0.004 C 
HETATM    4  C12 UNL     1      -6.489   2.631  18.220  1.00  0.00     0.021 C 
HETATM    5  C13 UNL     1      -5.538   1.924  17.284  1.00  0.00     0.115 C 
HETATM    6  C14 UNL     1      -5.798   0.483  17.275  1.00  0.00     0.066 C 
HETATM    7  N2  UNL     1      -6.013  -0.653  17.281  1.00  0.00    -0.197 NA
ENDROOT
BRANCH   1   8
HETATM    8  N1  UNL     1      -4.659   3.314  15.463  1.00  0.00    -0.349 N 
HETATM    9  C8  UNL     1      -4.428   3.808  14.172  1.00  0.00     0.275 C 
HETATM   10  O1  UNL     1      -5.227   3.587  13.249  1.00  0.00    -0.265 OA
ATOM     11  H1  UNL     1      -3.953   3.542  16.163  1.00  0.00     0.163 HD
BRANCH   9  12
HETATM   12  C7  UNL     1      -3.242   4.610  13.833  1.00  0.00     0.142 A 
HETATM   13  S1  UNL     1      -2.024   4.278  12.653  1.00  0.00    -0.077 SA
HETATM   14  C6  UNL     1      -1.048   5.660  12.895  1.00  0.00     0.077 A 
HETATM   15  C5  UNL     1      -1.735   6.310  13.892  1.00  0.00     0.021 A 
HETATM   16  N3  UNL     1      -2.822   5.747  14.326  1.00  0.00    -0.349 N 
ATOM     17  H3  UNL     1      -3.358   6.199  15.066  1.00  0.00     0.166 HD
BRANCH  15  18
HETATM   18  C4  UNL     1      -1.230   7.626  14.439  1.00  0.00     0.040 A 
HETATM   19  C2  UNL     1      -2.052   8.803  14.006  1.00  0.00    -0.008 A 
HETATM   20  C1  UNL     1      -1.278  10.003  13.576  1.00  0.00     0.011 C 
HETATM   21  C3  UNL     1      -2.060   8.340  15.427  1.00  0.00     0.016 A 
ENDBRANCH  15  18
ENDBRANCH   9  12
ENDBRANCH   1   8
TORSDOF 3
ENDMDL
MODEL 4
REMARK VINA RESULT: -6.506382591      2.524      3.767
REMARK  3 active torsions:
REMARK  status: ('A' for Active; 'I' for Inactive)
REMARK    1  A    between atoms: C4_4  and  C5_5 
REMARK    2  A    between atoms: C7_8  and  C8_9 
REMARK       I    between atoms: C8_9  and  N1_11 
REMARK    3  A    between atoms: N1_11  and  C9_13 
ROOT
HETATM    1  C9  UNL     1      -5.712   2.274  15.827  1.00  0.00     0.102 C 
HETATM    2  C10 UNL     1      -6.970   3.036  15.894  1.00  0.00     0.026 C 
HETATM    3  C11 UNL     1      -6.935   3.741  17.221  1.00  0.00     0.004 C 
HETATM    4  C12 UNL     1      -6.374   2.649  18.129  1.00  0.00     0.021 C 
HETATM    5  C13 UNL     1      -5.501   1.785  17.250  1.00  0.00     0.115 C 
HETATM    6  C14 UNL     1      -5.862   0.374  17.392  1.00  0.00     0.066 C 
HETATM    7  N2  UNL     1      -6.156  -0.737  17.517  1.00  0.00    -0.197 NA
ENDROOT
BRANCH   1   8
HETATM    8  N1  UNL     1      -4.578   2.921  15.280  1.00  0.00    -0.349 N 
HETATM    9  C8  UNL     1      -4.307   3.181  13.930  1.00  0.00     0.275 C 
HETATM   10  O1  UNL     1      -5.098   2.838  13.039  1.00  0.00    -0.265 OA
ATOM     11  H1  UNL     1      -3.875   3.237  15.948  1.00  0.00     0.163 HD
BRANCH   9  12
HETATM   12  C7  UNL     1      -3.082   3.867  13.488  1.00  0.00     0.142 A 
HETATM   13  S1  UNL     1      -2.448   5.382  14.025  1.00  0.00    -0.077 SA
HETATM   14  C6  UNL     1      -1.052   5.439  13.040  1.00  0.00     0.077 A 
HETATM   15  C5  UNL     1      -1.160   4.261  12.342  1.00  0.00     0.021 A 
HETATM   16  N3  UNL     1      -2.189   3.512  12.601  1.00  0.00    -0.349 N 
ATOM     17  H3  UNL     1      -2.303   2.630  12.101  1.00  0.00     0.166 HD
BRANCH  15  18
HETATM   18  C4  UNL     1      -0.109   3.873  11.326  1.00  0.00     0.040 A 
HETATM   19  C2  UNL     1      -0.436   4.323   9.934  1.00  0.00    -0.008 A 
HETATM   20  C1  UNL     1      -0.195   3.317   8.860  1.00  0.00     0.011 C 
HETATM   21  C3  UNL     1       0.688   4.943  10.698  1.00  0.00     0.016 A 
ENDBRANCH  15  18
ENDBRANCH   9  12
ENDBRANCH   1   8
TORSDOF 3
ENDMDL
MODEL 5
REMARK VINA RESULT: -6.493665334      0.719      1.059
REMARK  3 active torsions:
REMARK  status: ('A' for Active; 'I' for Inactive)
REMARK    1  A    between atoms: C4_4  and  C5_5 
REMARK    2  A    between atoms: C7_8  and  C8_9 
REMARK       I    between atoms: C8_9  and  N1_11 
REMARK    3  A    between atoms: N1_11  and  C9_13 
ROOT
HETATM    1  C9  UNL     1      -4.925   2.698  14.440  1.00  0.00     0.102 C 
HETATM    2  C10 UNL     1      -6.295   3.168  14.711  1.00  0.00     0.026 C 
HETATM    3  C11 UNL     1      -6.301   3.553  16.164  1.00  0.00     0.004 C 
HETATM    4  C12 UNL     1      -5.489   2.416  16.782  1.00  0.00     0.021 C 
HETATM    5  C13 UNL     1      -4.534   1.956  15.706  1.00  0.00     0.115 C 
HETATM    6  C14 UNL     1      -4.620   0.506  15.527  1.00  0.00     0.066 C 
HETATM    7  N2  UNL     1      -4.697  -0.641  15.399  1.00  0.00    -0.197 NA
ENDROOT
BRANCH   1   8
HETATM    8  N1  UNL     1      -3.969   3.658  14.031  1.00  0.00    -0.349 N 
HETATM    9  C8  UNL     1      -2.927   3.493  13.109  1.00  0.00     0.275 C 
HETATM   10  O1  UNL     1      -2.747   2.409  12.532  1.00  0.00    -0.265 OA
ATOM     11  H1  UNL     1      -4.047   4.580  14.459  1.00  0.00     0.163 HD
BRANCH   9  12
HETATM   12  C7  UNL     1      -1.993   4.578  12.769  1.00  0.00     0.142 A 
HETATM   13  S1  UNL     1      -0.552   4.494  11.819  1.00  0.00    -0.077 SA
HETATM   14  C6  UNL     1      -0.086   6.136  11.915  1.00  0.00     0.077 A 
HETATM   15  C5  UNL     1      -1.091   6.662  12.691  1.00  0.00     0.021 A 
HETATM   16  N3  UNL     1      -2.018   5.845  13.091  1.00  0.00    -0.349 N 
ATOM     17  H3  UNL     1      -2.780   6.200  13.669  1.00  0.00     0.166 HD
BRANCH  15  18
HETATM   18  C4  UNL     1      -1.098   8.132  13.043  1.00  0.00     0.040 A 
HETATM   19  C2  UNL     1      -0.933   8.390  14.511  1.00  0.00    -0.008 A 
HETATM   20  C1  UNL     1      -1.837   9.428  15.086  1.00  0.00     0.011 C 
HETATM   21  C3  UNL     1       0.150   8.739  13.543  1.00  0.00     0.016 A 
ENDBRANCH  15  18
ENDBRANCH   9  12
ENDBRANCH   1   8
TORSDOF 3
ENDMDL
