MODEL 1
REMARK VINA RESULT: -8.136156631      0.000      0.000
REMARK  8 active torsions:
REMARK  status: ('A' for Active; 'I' for Inactive)
REMARK    1  A    between atoms: C13_13  and  O1_14 
REMARK    2  A    between atoms: C16_18  and  C17_19 
REMARK    3  A    between atoms: C17_19  and  C18_20 
REMARK    4  A    between atoms: C18_20  and  C19_21 
REMARK    5  A    between atoms: C19_21  and  C20_22 
REMARK    6  A    between atoms: C20_22  and  C21_23 
REMARK    7  A    between atoms: C21_23  and  C22_24 
REMARK    8  A    between atoms: C22_24  and  N1_25 
ROOT
HETATM    1  C1  UNL     1      11.925 -13.692  14.228  1.00  0.00     0.015 C 
HETATM    2  C2  UNL     1      12.298 -12.357  14.856  1.00  0.00    -0.044 C 
HETATM    3  C3  UNL     1      12.268 -12.584  16.353  1.00  0.00     0.015 C 
HETATM    4  C4  UNL     1      13.710 -11.983  14.483  1.00  0.00     0.009 C 
HETATM    5  C5  UNL     1      13.931 -11.940  13.007  1.00  0.00     0.001 C 
HETATM    6  C6  UNL     1      12.668 -11.400  12.305  1.00  0.00     0.005 C 
HETATM    7  C7  UNL     1      11.901 -10.525  13.238  1.00  0.00    -0.004 C 
HETATM    8  C8  UNL     1      11.313 -11.263  14.433  1.00  0.00    -0.002 C 
HETATM    9  C9  UNL     1      11.196 -10.257  15.550  1.00  0.00     0.006 C 
HETATM   10  C10 UNL     1      11.393  -8.828  15.089  1.00  0.00     0.012 C 
HETATM   11  C11 UNL     1      10.553  -8.635  13.872  1.00  0.00    -0.014 C 
HETATM   12  C12 UNL     1       9.150  -8.969  14.302  1.00  0.00     0.018 C 
HETATM   13  C13 UNL     1      10.473  -7.193  13.398  1.00  0.00     0.126 C 
HETATM   14  C14 UNL     1       9.458  -7.155  12.282  1.00  0.00     0.033 C 
HETATM   15  C15 UNL     1       9.529  -8.238  11.292  1.00  0.00     0.007 C 
HETATM   16  C16 UNL     1       9.938  -9.632  11.798  1.00  0.00    -0.009 C 
HETATM   17  C23 UNL     1      11.058  -9.460  12.677  1.00  0.00     0.005 C 
ENDROOT
BRANCH  16  18
HETATM   18  C17 UNL     1       9.916 -10.466  10.593  1.00  0.00     0.005 C 
BRANCH  18  19
HETATM   19  C18 UNL     1       9.384  -9.865   9.326  1.00  0.00     0.000 C 
BRANCH  19  20
HETATM   20  C19 UNL     1      10.534  -9.296   8.511  1.00  0.00     0.000 C 
BRANCH  20  21
HETATM   21  C20 UNL     1       9.991  -8.244   7.580  1.00  0.00     0.002 C 
BRANCH  21  22
HETATM   22  C21 UNL     1      10.274  -6.851   8.018  1.00  0.00     0.027 C 
BRANCH  22  23
HETATM   23  C22 UNL     1      11.697  -6.845   8.596  1.00  0.00     0.229 C 
BRANCH  23  24
HETATM   24  N1  UNL     1      11.760  -6.001   9.774  1.00  0.00    -0.079 N 
ATOM     25  H13 UNL     1      12.705  -5.657   9.944  1.00  0.00     0.274 HD
ATOM     26  H12 UNL     1      11.297  -5.104   9.623  1.00  0.00     0.274 HD
ATOM     27  H11 UNL     1      11.383  -6.492  10.584  1.00  0.00     0.274 HD
ENDBRANCH  23  24
ENDBRANCH  22  23
ENDBRANCH  21  22
ENDBRANCH  20  21
ENDBRANCH  19  20
ENDBRANCH  18  19
ENDBRANCH  16  18
BRANCH  13  28
HETATM   28  O1  UNL     1      11.723  -6.772  12.979  1.00  0.00    -0.395 OA
ATOM     29  H1  UNL     1      12.290  -6.653  13.732  1.00  0.00     0.210 HD
ENDBRANCH  13  28
TORSDOF 8
ENDMDL
MODEL 2
REMARK VINA RESULT: -7.566132367      2.538      6.081
REMARK  8 active torsions:
REMARK  status: ('A' for Active; 'I' for Inactive)
REMARK    1  A    between atoms: C13_13  and  O1_14 
REMARK    2  A    between atoms: C16_18  and  C17_19 
REMARK    3  A    between atoms: C17_19  and  C18_20 
REMARK    4  A    between atoms: C18_20  and  C19_21 
REMARK    5  A    between atoms: C19_21  and  C20_22 
REMARK    6  A    between atoms: C20_22  and  C21_23 
REMARK    7  A    between atoms: C21_23  and  C22_24 
REMARK    8  A    between atoms: C22_24  and  N1_25 
ROOT
HETATM    1  C1  UNL     1      11.622  -9.309   8.596  1.00  0.00     0.015 C 
HETATM    2  C2  UNL     1      10.562  -8.526   9.359  1.00  0.00    -0.044 C 
HETATM    3  C3  UNL     1      10.489  -7.171   8.687  1.00  0.00     0.015 C 
HETATM    4  C4  UNL     1       9.216  -9.184   9.199  1.00  0.00     0.009 C 
HETATM    5  C5  UNL     1       9.211 -10.614   9.627  1.00  0.00     0.001 C 
HETATM    6  C6  UNL     1      10.135 -10.797  10.849  1.00  0.00     0.005 C 
HETATM    7  C7  UNL     1      10.239  -9.516  11.605  1.00  0.00    -0.004 C 
HETATM    8  C8  UNL     1      10.937  -8.402  10.838  1.00  0.00    -0.002 C 
HETATM    9  C9  UNL     1      10.391  -7.100  11.368  1.00  0.00     0.006 C 
HETATM   10  C10 UNL     1       9.590  -7.265  12.643  1.00  0.00     0.012 C 
HETATM   11  C11 UNL     1      10.391  -8.123  13.563  1.00  0.00    -0.014 C 
HETATM   12  C12 UNL     1      11.702  -7.406  13.733  1.00  0.00     0.018 C 
HETATM   13  C13 UNL     1       9.823  -8.220  14.969  1.00  0.00     0.126 C 
HETATM   14  C14 UNL     1      10.836  -8.971  15.799  1.00  0.00     0.033 C 
HETATM   15  C15 UNL     1      11.442 -10.158  15.181  1.00  0.00     0.007 C 
HETATM   16  C16 UNL     1      11.697 -10.113  13.665  1.00  0.00    -0.009 C 
HETATM   17  C23 UNL     1      10.526  -9.566  13.046  1.00  0.00     0.005 C 
ENDROOT
BRANCH  16  18
HETATM   18  C17 UNL     1      12.292 -11.419  13.367  1.00  0.00     0.005 C 
BRANCH  18  19
HETATM   19  C18 UNL     1      13.709 -11.457  12.878  1.00  0.00     0.000 C 
BRANCH  19  20
HETATM   20  C19 UNL     1      14.329 -12.802  13.223  1.00  0.00     0.000 C 
BRANCH  20  21
HETATM   21  C20 UNL     1      13.391 -13.546  14.136  1.00  0.00     0.002 C 
BRANCH  21  22
HETATM   22  C21 UNL     1      13.360 -15.014  13.895  1.00  0.00     0.027 C 
BRANCH  22  23
HETATM   23  C22 UNL     1      12.994 -15.218  12.418  1.00  0.00     0.229 C 
BRANCH  23  24
HETATM   24  N1  UNL     1      13.942 -16.111  11.781  1.00  0.00    -0.079 N 
ATOM     25  H13 UNL     1      14.777 -16.247  12.351  1.00  0.00     0.274 HD
ATOM     26  H12 UNL     1      13.607 -17.075  11.771  1.00  0.00     0.274 HD
ATOM     27  H11 UNL     1      14.171 -15.778  10.845  1.00  0.00     0.274 HD
ENDBRANCH  23  24
ENDBRANCH  22  23
ENDBRANCH  21  22
ENDBRANCH  20  21
ENDBRANCH  19  20
ENDBRANCH  18  19
ENDBRANCH  16  18
BRANCH  13  28
HETATM   28  O1  UNL     1       8.600  -8.866  14.934  1.00  0.00    -0.395 OA
ATOM     29  H1  UNL     1       8.346  -9.118  15.814  1.00  0.00     0.210 HD
ENDBRANCH  13  28
TORSDOF 8
ENDMDL
MODEL 3
REMARK VINA RESULT: -7.446290371      2.408      6.156
REMARK  8 active torsions:
REMARK  status: ('A' for Active; 'I' for Inactive)
REMARK    1  A    between atoms: C13_13  and  O1_14 
REMARK    2  A    between atoms: C16_18  and  C17_19 
REMARK    3  A    between atoms: C17_19  and  C18_20 
REMARK    4  A    between atoms: C18_20  and  C19_21 
REMARK    5  A    between atoms: C19_21  and  C20_22 
REMARK    6  A    between atoms: C20_22  and  C21_23 
REMARK    7  A    between atoms: C21_23  and  C22_24 
REMARK    8  A    between atoms: C22_24  and  N1_25 
ROOT
HETATM    1  C1  UNL     1      11.662  -9.300   8.587  1.00  0.00     0.015 C 
HETATM    2  C2  UNL     1      10.603  -8.508   9.341  1.00  0.00    -0.044 C 
HETATM    3  C3  UNL     1      10.547  -7.153   8.668  1.00  0.00     0.015 C 
HETATM    4  C4  UNL     1       9.252  -9.153   9.173  1.00  0.00     0.009 C 
HETATM    5  C5  UNL     1       9.231 -10.583   9.602  1.00  0.00     0.001 C 
HETATM    6  C6  UNL     1      10.145 -10.773  10.831  1.00  0.00     0.005 C 
HETATM    7  C7  UNL     1      10.255  -9.492  11.586  1.00  0.00    -0.004 C 
HETATM    8  C8  UNL     1      10.969  -8.385  10.824  1.00  0.00    -0.002 C 
HETATM    9  C9  UNL     1      10.431  -7.078  11.349  1.00  0.00     0.006 C 
HETATM   10  C10 UNL     1       9.619  -7.235  12.618  1.00  0.00     0.012 C 
HETATM   11  C11 UNL     1      10.406  -8.099  13.544  1.00  0.00    -0.014 C 
HETATM   12  C12 UNL     1      11.722  -7.393  13.723  1.00  0.00     0.018 C 
HETATM   13  C13 UNL     1       9.827  -8.190  14.946  1.00  0.00     0.126 C 
HETATM   14  C14 UNL     1      10.827  -8.949  15.784  1.00  0.00     0.033 C 
HETATM   15  C15 UNL     1      11.427 -10.142  15.171  1.00  0.00     0.007 C 
HETATM   16  C16 UNL     1      11.694 -10.100  13.657  1.00  0.00    -0.009 C 
HETATM   17  C23 UNL     1      10.531  -9.543  13.029  1.00  0.00     0.005 C 
ENDROOT
BRANCH  16  18
HETATM   18  C17 UNL     1      12.279 -11.412  13.365  1.00  0.00     0.005 C 
BRANCH  18  19
HETATM   19  C18 UNL     1      13.708 -11.466  12.914  1.00  0.00     0.000 C 
BRANCH  19  20
HETATM   20  C19 UNL     1      14.306 -12.815  13.280  1.00  0.00     0.000 C 
BRANCH  20  21
HETATM   21  C20 UNL     1      13.538 -13.383  14.444  1.00  0.00     0.002 C 
BRANCH  21  22
HETATM   22  C21 UNL     1      14.265 -13.301  15.739  1.00  0.00     0.027 C 
BRANCH  22  23
HETATM   23  C22 UNL     1      13.222 -12.980  16.819  1.00  0.00     0.229 C 
BRANCH  23  24
HETATM   24  N1  UNL     1      11.931 -13.530  16.454  1.00  0.00    -0.079 N 
ATOM     25  H13 UNL     1      11.525 -14.080  17.211  1.00  0.00     0.274 HD
ATOM     26  H12 UNL     1      11.214 -12.807  16.389  1.00  0.00     0.274 HD
ATOM     27  H11 UNL     1      12.005 -14.070  15.591  1.00  0.00     0.274 HD
ENDBRANCH  23  24
ENDBRANCH  22  23
ENDBRANCH  21  22
ENDBRANCH  20  21
ENDBRANCH  19  20
ENDBRANCH  18  19
ENDBRANCH  16  18
BRANCH  13  28
HETATM   28  O1  UNL     1       8.598  -8.824  14.903  1.00  0.00    -0.395 OA
ATOM     29  H1  UNL     1       7.985  -8.371  15.470  1.00  0.00     0.210 HD
ENDBRANCH  13  28
TORSDOF 8
ENDMDL
MODEL 4
REMARK VINA RESULT: -7.198370792      1.170      1.763
REMARK  8 active torsions:
REMARK  status: ('A' for Active; 'I' for Inactive)
REMARK    1  A    between atoms: C13_13  and  O1_14 
REMARK    2  A    between atoms: C16_18  and  C17_19 
REMARK    3  A    between atoms: C17_19  and  C18_20 
REMARK    4  A    between atoms: C18_20  and  C19_21 
REMARK    5  A    between atoms: C19_21  and  C20_22 
REMARK    6  A    between atoms: C20_22  and  C21_23 
REMARK    7  A    between atoms: C21_23  and  C22_24 
REMARK    8  A    between atoms: C22_24  and  N1_25 
ROOT
HETATM    1  C1  UNL     1      12.635 -14.521  12.727  1.00  0.00     0.015 C 
HETATM    2  C2  UNL     1      12.828 -13.766  14.034  1.00  0.00    -0.044 C 
HETATM    3  C3  UNL     1      12.744 -14.810  15.128  1.00  0.00     0.015 C 
HETATM    4  C4  UNL     1      14.209 -13.165  14.089  1.00  0.00     0.009 C 
HETATM    5  C5  UNL     1      14.502 -12.272  12.928  1.00  0.00     0.001 C 
HETATM    6  C6  UNL     1      13.227 -11.503  12.526  1.00  0.00     0.005 C 
HETATM    7  C7  UNL     1      12.322 -11.366  13.703  1.00  0.00    -0.004 C 
HETATM    8  C8  UNL     1      11.755 -12.687  14.203  1.00  0.00    -0.002 C 
HETATM    9  C9  UNL     1      11.472 -12.510  15.673  1.00  0.00     0.006 C 
HETATM   10  C10 UNL     1      11.537 -11.066  16.124  1.00  0.00     0.012 C 
HETATM   11  C11 UNL     1      10.746 -10.261  15.149  1.00  0.00    -0.014 C 
HETATM   12  C12 UNL     1       9.367 -10.862  15.165  1.00  0.00     0.018 C 
HETATM   13  C13 UNL     1      10.537  -8.815  15.567  1.00  0.00     0.126 C 
HETATM   14  C14 UNL     1       9.583  -8.205  14.569  1.00  0.00     0.033 C 
HETATM   15  C15 UNL     1       9.823  -8.520  13.154  1.00  0.00     0.007 C 
HETATM   16  C16 UNL     1      10.352  -9.926  12.824  1.00  0.00    -0.009 C 
HETATM   17  C23 UNL     1      11.399 -10.223  13.757  1.00  0.00     0.005 C 
ENDROOT
BRANCH  16  18
HETATM   18  C17 UNL     1      10.484  -9.919  11.364  1.00  0.00     0.005 C 
BRANCH  18  19
HETATM   19  C18 UNL     1       9.266  -9.613  10.545  1.00  0.00     0.000 C 
BRANCH  19  20
HETATM   20  C19 UNL     1       9.532  -9.959   9.088  1.00  0.00     0.000 C 
BRANCH  20  21
HETATM   21  C20 UNL     1      10.536  -8.982   8.537  1.00  0.00     0.002 C 
BRANCH  21  22
HETATM   22  C21 UNL     1       9.923  -7.841   7.804  1.00  0.00     0.027 C 
BRANCH  22  23
HETATM   23  C22 UNL     1      10.739  -6.590   8.160  1.00  0.00     0.229 C 
BRANCH  23  24
HETATM   24  N1  UNL     1      11.169  -6.643   9.543  1.00  0.00    -0.079 N 
ATOM     25  H13 UNL     1      12.113  -6.276   9.661  1.00  0.00     0.274 HD
ATOM     26  H12 UNL     1      10.670  -5.968  10.122  1.00  0.00     0.274 HD
ATOM     27  H11 UNL     1      11.083  -7.593   9.906  1.00  0.00     0.274 HD
ENDBRANCH  23  24
ENDBRANCH  22  23
ENDBRANCH  21  22
ENDBRANCH  20  21
ENDBRANCH  19  20
ENDBRANCH  18  19
ENDBRANCH  16  18
BRANCH  13  28
HETATM   28  O1  UNL     1      11.753  -8.157  15.593  1.00  0.00    -0.395 OA
ATOM     29  H1  UNL     1      11.616  -7.239  15.795  1.00  0.00     0.210 HD
ENDBRANCH  13  28
TORSDOF 8
ENDMDL
MODEL 5
REMARK VINA RESULT: -7.195593323      3.330      6.046
REMARK  8 active torsions:
REMARK  status: ('A' for Active; 'I' for Inactive)
REMARK    1  A    between atoms: C13_13  and  O1_14 
REMARK    2  A    between atoms: C16_18  and  C17_19 
REMARK    3  A    between atoms: C17_19  and  C18_20 
REMARK    4  A    between atoms: C18_20  and  C19_21 
REMARK    5  A    between atoms: C19_21  and  C20_22 
REMARK    6  A    between atoms: C20_22  and  C21_23 
REMARK    7  A    between atoms: C21_23  and  C22_24 
REMARK    8  A    between atoms: C22_24  and  N1_25 
ROOT
HETATM    1  C1  UNL     1      13.478 -13.132  15.601  1.00  0.00     0.015 C 
HETATM    2  C2  UNL     1      13.223 -12.797  14.139  1.00  0.00    -0.044 C 
HETATM    3  C3  UNL     1      14.574 -12.868  13.458  1.00  0.00     0.015 C 
HETATM    4  C4  UNL     1      12.345 -13.849  13.510  1.00  0.00     0.009 C 
HETATM    5  C5  UNL     1      11.051 -14.036  14.231  1.00  0.00     0.001 C 
HETATM    6  C6  UNL     1      10.548 -12.677  14.761  1.00  0.00     0.005 C 
HETATM    7  C7  UNL     1      11.084 -11.571  13.917  1.00  0.00    -0.004 C 
HETATM    8  C8  UNL     1      12.595 -11.407  14.001  1.00  0.00    -0.002 C 
HETATM    9  C9  UNL     1      13.039 -10.802  12.694  1.00  0.00     0.006 C 
HETATM   10  C10 UNL     1      11.891 -10.278  11.857  1.00  0.00     0.012 C 
HETATM   11  C11 UNL     1      11.023  -9.463  12.756  1.00  0.00    -0.014 C 
HETATM   12  C12 UNL     1      11.926  -8.399  13.320  1.00  0.00     0.018 C 
HETATM   13  C13 UNL     1       9.933  -8.693  12.030  1.00  0.00     0.126 C 
HETATM   14  C14 UNL     1       9.273  -7.800  13.053  1.00  0.00     0.033 C 
HETATM   15  C15 UNL     1       8.984  -8.402  14.362  1.00  0.00     0.007 C 
HETATM   16  C16 UNL     1       9.987  -9.436  14.901  1.00  0.00    -0.009 C 
HETATM   17  C23 UNL     1      10.318 -10.319  13.821  1.00  0.00     0.005 C 
ENDROOT
BRANCH  16  18
HETATM   18  C17 UNL     1       9.422  -9.837  16.192  1.00  0.00     0.005 C 
BRANCH  18  19
HETATM   19  C18 UNL     1       9.684  -8.963  17.382  1.00  0.00     0.000 C 
BRANCH  19  20
HETATM   20  C19 UNL     1      10.074  -9.826  18.571  1.00  0.00     0.000 C 
BRANCH  20  21
HETATM   21  C20 UNL     1      10.103 -11.267  18.132  1.00  0.00     0.002 C 
BRANCH  21  22
HETATM   22  C21 UNL     1      11.111 -12.092  18.850  1.00  0.00     0.027 C 
BRANCH  22  23
HETATM   23  C22 UNL     1      11.219 -11.528  20.274  1.00  0.00     0.229 C 
BRANCH  23  24
HETATM   24  N1  UNL     1      12.587 -11.608  20.748  1.00  0.00    -0.079 N 
ATOM     25  H13 UNL     1      13.257 -11.370  20.016  1.00  0.00     0.274 HD
ATOM     26  H12 UNL     1      12.807 -10.859  21.404  1.00  0.00     0.274 HD
ATOM     27  H11 UNL     1      12.772 -12.529  21.146  1.00  0.00     0.274 HD
ENDBRANCH  23  24
ENDBRANCH  22  23
ENDBRANCH  21  22
ENDBRANCH  20  21
ENDBRANCH  19  20
ENDBRANCH  18  19
ENDBRANCH  16  18
BRANCH  13  28
HETATM   28  O1  UNL     1       9.037  -9.580  11.460  1.00  0.00    -0.395 OA
ATOM     29  H1  UNL     1       9.496 -10.366  11.187  1.00  0.00     0.210 HD
ENDBRANCH  13  28
TORSDOF 8
ENDMDL
