MODEL 1
REMARK VINA RESULT: -9.235658433      0.000      0.000
REMARK  6 active torsions:
REMARK  status: ('A' for Active; 'I' for Inactive)
REMARK       I    between atoms: C1_2  and  N1_3 
REMARK    1  A    between atoms: C1_2  and  C9_12 
REMARK    2  A    between atoms: N1_3  and  C2_5 
REMARK    3  A    between atoms: C9_12  and  N2_13 
REMARK    4  A    between atoms: N2_13  and  C10_15 
REMARK    5  A    between atoms: C10_15  and  C11_16 
REMARK    6  A    between atoms: C11_16  and  C12_17 
ROOT
HETATM    1  C9  UNL     1      10.948  -8.501  13.536  1.00  0.00     0.111 C 
HETATM    2  C18 UNL     1      11.548  -8.590  14.949  1.00  0.00     0.041 C 
HETATM    3  C19 UNL     1      10.622  -9.060  16.000  1.00  0.00     0.003 C 
HETATM    4  C20 UNL     1       9.364  -8.165  15.977  1.00  0.00     0.000 C 
HETATM    5  C21 UNL     1       8.671  -8.579  14.696  1.00  0.00     0.003 C 
HETATM    6  C22 UNL     1       9.538  -8.145  13.535  1.00  0.00     0.041 C 
ENDROOT
BRANCH   1   7
HETATM    7  C1  UNL     1      11.298  -9.797  12.850  1.00  0.00     0.246 C 
HETATM    8  O1  UNL     1      10.679  -9.932  11.732  1.00  0.00    -0.271 OA
HETATM    9  N1  UNL     1      12.152 -10.774  13.283  1.00  0.00    -0.350 N 
ATOM     10  H1  UNL     1      12.600 -10.569  14.175  1.00  0.00     0.163 HD
BRANCH   9  11
HETATM   11  C2  UNL     1      12.530 -12.025  12.716  1.00  0.00     0.117 C 
HETATM   12  C3  UNL     1      13.942 -12.518  13.134  1.00  0.00     0.109 C 
HETATM   13  C4  UNL     1      13.790 -13.859  13.539  1.00  0.00    -0.180 C 
HETATM   14  C5  UNL     1      13.561 -15.179  13.944  1.00  0.00     0.083 C 
HETATM   15  C6  UNL     1      12.050 -15.465  13.630  1.00  0.00     0.038 C 
HETATM   16  C7  UNL     1      11.466 -14.413  12.694  1.00  0.00    -0.028 C 
HETATM   17  C8  UNL     1      11.428 -13.015  13.000  1.00  0.00    -0.005 C 
ENDBRANCH   9  11
ENDBRANCH   1   7
BRANCH   1  18
HETATM   18  N2  UNL     1      11.766  -7.437  12.938  1.00  0.00    -0.385 N 
ATOM     19  H2  UNL     1      12.738  -7.318  13.224  1.00  0.00     0.159 HD
BRANCH  18  20
HETATM   20  C10 UNL     1      11.214  -6.599  11.988  1.00  0.00     0.057 C 
BRANCH  20  21
HETATM   21  C11 UNL     1      11.900  -5.362  11.561  1.00  0.00     0.049 C 
BRANCH  21  22
HETATM   22  C12 UNL     1      11.787  -5.138  10.042  1.00  0.00    -0.010 C 
HETATM   23  C13 UNL     1      13.166  -4.839   9.522  1.00  0.00     0.005 C 
HETATM   24  C14 UNL     1      13.298  -4.969   8.048  1.00  0.00     0.000 C 
HETATM   25  C15 UNL     1      12.923  -6.360   7.590  1.00  0.00     0.000 C 
HETATM   26  C16 UNL     1      11.484  -6.631   8.016  1.00  0.00     0.000 C 
HETATM   27  C17 UNL     1      11.282  -6.431   9.477  1.00  0.00     0.005 C 
ENDBRANCH  21  22
ENDBRANCH  20  21
ENDBRANCH  18  20
ENDBRANCH   1  18
TORSDOF 6
ENDMDL
MODEL 2
REMARK VINA RESULT: -9.200381707      1.452      7.272
REMARK  6 active torsions:
REMARK  status: ('A' for Active; 'I' for Inactive)
REMARK       I    between atoms: C1_2  and  N1_3 
REMARK    1  A    between atoms: C1_2  and  C9_12 
REMARK    2  A    between atoms: N1_3  and  C2_5 
REMARK    3  A    between atoms: C9_12  and  N2_13 
REMARK    4  A    between atoms: N2_13  and  C10_15 
REMARK    5  A    between atoms: C10_15  and  C11_16 
REMARK    6  A    between atoms: C11_16  and  C12_17 
ROOT
HETATM    1  C9  UNL     1      10.425  -9.233  12.831  1.00  0.00     0.111 C 
HETATM    2  C18 UNL     1       9.236  -8.965  13.768  1.00  0.00     0.041 C 
HETATM    3  C19 UNL     1       9.551  -8.180  14.979  1.00  0.00     0.003 C 
HETATM    4  C20 UNL     1      10.709  -8.877  15.725  1.00  0.00     0.000 C 
HETATM    5  C21 UNL     1      11.900  -8.618  14.827  1.00  0.00     0.003 C 
HETATM    6  C22 UNL     1      11.688  -9.381  13.538  1.00  0.00     0.041 C 
ENDROOT
BRANCH   1   7
HETATM    7  C1  UNL     1      10.384  -8.152  11.781  1.00  0.00     0.246 C 
HETATM    8  O1  UNL     1       9.433  -8.337  10.937  1.00  0.00    -0.271 OA
HETATM    9  N1  UNL     1      11.212  -7.071  11.654  1.00  0.00    -0.350 N 
ATOM     10  H1  UNL     1      11.928  -7.008  12.377  1.00  0.00     0.163 HD
BRANCH   9  11
HETATM   11  C2  UNL     1      11.259  -6.017  10.697  1.00  0.00     0.117 C 
HETATM   12  C3  UNL     1      12.244  -4.871  11.053  1.00  0.00     0.109 C 
HETATM   13  C4  UNL     1      13.013  -4.635   9.897  1.00  0.00    -0.180 C 
HETATM   14  C5  UNL     1      13.752  -4.471   8.718  1.00  0.00     0.083 C 
HETATM   15  C6  UNL     1      13.093  -5.431   7.665  1.00  0.00     0.038 C 
HETATM   16  C7  UNL     1      11.720  -5.907   8.125  1.00  0.00    -0.028 C 
HETATM   17  C8  UNL     1      11.500  -6.632   9.341  1.00  0.00    -0.005 C 
ENDBRANCH   9  11
ENDBRANCH   1   7
BRANCH   1  18
HETATM   18  N2  UNL     1      10.020 -10.495  12.198  1.00  0.00    -0.385 N 
ATOM     19  H2  UNL     1       9.080 -10.595  11.812  1.00  0.00     0.159 HD
BRANCH  18  20
HETATM   20  C10 UNL     1      10.914 -11.546  12.125  1.00  0.00     0.057 C 
BRANCH  20  21
HETATM   21  C11 UNL     1      10.560 -12.894  12.615  1.00  0.00     0.049 C 
BRANCH  21  22
HETATM   22  C12 UNL     1      11.498 -13.359  13.745  1.00  0.00    -0.010 C 
HETATM   23  C13 UNL     1      12.899 -12.963  13.365  1.00  0.00     0.005 C 
HETATM   24  C14 UNL     1      13.864 -12.996  14.494  1.00  0.00     0.000 C 
HETATM   25  C15 UNL     1      13.415 -12.088  15.617  1.00  0.00     0.000 C 
HETATM   26  C16 UNL     1      12.041 -12.553  16.086  1.00  0.00     0.000 C 
HETATM   27  C17 UNL     1      11.057 -12.616  14.970  1.00  0.00     0.005 C 
ENDBRANCH  21  22
ENDBRANCH  20  21
ENDBRANCH  18  20
ENDBRANCH   1  18
TORSDOF 6
ENDMDL
MODEL 3
REMARK VINA RESULT: -9.075922690      1.287      7.255
REMARK  6 active torsions:
REMARK  status: ('A' for Active; 'I' for Inactive)
REMARK       I    between atoms: C1_2  and  N1_3 
REMARK    1  A    between atoms: C1_2  and  C9_12 
REMARK    2  A    between atoms: N1_3  and  C2_5 
REMARK    3  A    between atoms: C9_12  and  N2_13 
REMARK    4  A    between atoms: N2_13  and  C10_15 
REMARK    5  A    between atoms: C10_15  and  C11_16 
REMARK    6  A    between atoms: C11_16  and  C12_17 
ROOT
HETATM    1  C9  UNL     1      10.697  -8.927  13.336  1.00  0.00     0.111 C 
HETATM    2  C18 UNL     1       9.163  -8.905  13.439  1.00  0.00     0.041 C 
HETATM    3  C19 UNL     1       8.622  -8.301  14.674  1.00  0.00     0.003 C 
HETATM    4  C20 UNL     1       9.259  -9.015  15.886  1.00  0.00     0.000 C 
HETATM    5  C21 UNL     1      10.691  -8.525  15.860  1.00  0.00     0.003 C 
HETATM    6  C22 UNL     1      11.355  -9.087  14.623  1.00  0.00     0.041 C 
ENDROOT
BRANCH   1   7
HETATM    7  C1  UNL     1      11.082  -7.699  12.550  1.00  0.00     0.246 C 
HETATM    8  O1  UNL     1      11.997  -7.017  13.141  1.00  0.00    -0.271 OA
HETATM    9  N1  UNL     1      10.577  -7.273  11.352  1.00  0.00    -0.350 N 
ATOM     10  H1  UNL     1       9.862  -7.887  10.961  1.00  0.00     0.163 HD
BRANCH   9  11
HETATM   11  C2  UNL     1      10.864  -6.132  10.551  1.00  0.00     0.117 C 
HETATM   12  C3  UNL     1      11.910  -5.163  11.166  1.00  0.00     0.109 C 
HETATM   13  C4  UNL     1      12.847  -4.895  10.149  1.00  0.00    -0.180 C 
HETATM   14  C5  UNL     1      13.750  -4.690   9.097  1.00  0.00     0.083 C 
HETATM   15  C6  UNL     1      13.139  -5.437   7.860  1.00  0.00     0.038 C 
HETATM   16  C7  UNL     1      11.673  -5.789   8.088  1.00  0.00    -0.028 C 
HETATM   17  C8  UNL     1      11.216  -6.614   9.165  1.00  0.00    -0.005 C 
ENDBRANCH   9  11
ENDBRANCH   1   7
BRANCH   1  18
HETATM   18  N2  UNL     1      10.915 -10.099  12.478  1.00  0.00    -0.385 N 
ATOM     19  H2  UNL     1      10.480 -10.147  11.556  1.00  0.00     0.159 HD
BRANCH  18  20
HETATM   20  C10 UNL     1      11.712 -11.138  12.923  1.00  0.00     0.057 C 
BRANCH  20  21
HETATM   21  C11 UNL     1      13.148 -11.207  12.584  1.00  0.00     0.049 C 
BRANCH  21  22
HETATM   22  C12 UNL     1      13.878 -12.291  13.399  1.00  0.00    -0.010 C 
HETATM   23  C13 UNL     1      13.572 -12.052  14.852  1.00  0.00     0.005 C 
HETATM   24  C14 UNL     1      13.880 -13.207  15.734  1.00  0.00     0.000 C 
HETATM   25  C15 UNL     1      13.120 -14.439  15.298  1.00  0.00     0.000 C 
HETATM   26  C16 UNL     1      13.509 -14.756  13.858  1.00  0.00     0.000 C 
HETATM   27  C17 UNL     1      13.296 -13.597  12.949  1.00  0.00     0.005 C 
ENDBRANCH  21  22
ENDBRANCH  20  21
ENDBRANCH  18  20
ENDBRANCH   1  18
TORSDOF 6
ENDMDL
MODEL 4
REMARK VINA RESULT: -8.910549299      2.178      5.855
REMARK  6 active torsions:
REMARK  status: ('A' for Active; 'I' for Inactive)
REMARK       I    between atoms: C1_2  and  N1_3 
REMARK    1  A    between atoms: C1_2  and  C9_12 
REMARK    2  A    between atoms: N1_3  and  C2_5 
REMARK    3  A    between atoms: C9_12  and  N2_13 
REMARK    4  A    between atoms: N2_13  and  C10_15 
REMARK    5  A    between atoms: C10_15  and  C11_16 
REMARK    6  A    between atoms: C11_16  and  C12_17 
ROOT
HETATM    1  C9  UNL     1      10.126  -8.238  11.416  1.00  0.00     0.111 C 
HETATM    2  C18 UNL     1       9.499  -9.550  10.917  1.00  0.00     0.041 C 
HETATM    3  C19 UNL     1       9.932  -9.985   9.573  1.00  0.00     0.003 C 
HETATM    4  C20 UNL     1       9.680  -8.828   8.582  1.00  0.00     0.000 C 
HETATM    5  C21 UNL     1      10.732  -7.810   8.969  1.00  0.00     0.003 C 
HETATM    6  C22 UNL     1      10.390  -7.287  10.347  1.00  0.00     0.041 C 
ENDROOT
BRANCH   1   7
HETATM    7  C1  UNL     1      11.318  -8.633  12.251  1.00  0.00     0.246 C 
HETATM    8  O1  UNL     1      11.907  -7.612  12.762  1.00  0.00    -0.271 OA
HETATM    9  N1  UNL     1      11.795  -9.892  12.493  1.00  0.00    -0.350 N 
ATOM     10  H1  UNL     1      11.254 -10.634  12.050  1.00  0.00     0.163 HD
BRANCH   9  11
HETATM   11  C2  UNL     1      12.910 -10.357  13.248  1.00  0.00     0.117 C 
HETATM   12  C3  UNL     1      12.692 -10.347  14.784  1.00  0.00     0.109 C 
HETATM   13  C4  UNL     1      13.096 -11.614  15.250  1.00  0.00    -0.180 C 
HETATM   14  C5  UNL     1      13.496 -12.899  15.638  1.00  0.00     0.083 C 
HETATM   15  C6  UNL     1      14.057 -13.580  14.340  1.00  0.00     0.038 C 
HETATM   16  C7  UNL     1      14.325 -12.556  13.244  1.00  0.00    -0.028 C 
HETATM   17  C8  UNL     1      13.316 -11.701  12.695  1.00  0.00    -0.005 C 
ENDBRANCH   9  11
ENDBRANCH   1   7
BRANCH   1  18
HETATM   18  N2  UNL     1       9.083  -7.742  12.323  1.00  0.00    -0.385 N 
ATOM     19  H2  UNL     1       8.580  -6.882  12.103  1.00  0.00     0.159 HD
BRANCH  18  20
HETATM   20  C10 UNL     1       8.784  -8.443  13.476  1.00  0.00     0.057 C 
BRANCH  20  21
HETATM   21  C11 UNL     1       9.197  -7.951  14.806  1.00  0.00     0.049 C 
BRANCH  21  22
HETATM   22  C12 UNL     1       8.860  -8.959  15.921  1.00  0.00    -0.010 C 
HETATM   23  C13 UNL     1       9.361 -10.308  15.482  1.00  0.00     0.005 C 
HETATM   24  C14 UNL     1       9.456 -11.304  16.580  1.00  0.00     0.000 C 
HETATM   25  C15 UNL     1      10.365 -10.810  17.683  1.00  0.00     0.000 C 
HETATM   26  C16 UNL     1       9.802  -9.495  18.212  1.00  0.00     0.000 C 
HETATM   27  C17 UNL     1       9.609  -8.489  17.132  1.00  0.00     0.005 C 
ENDBRANCH  21  22
ENDBRANCH  20  21
ENDBRANCH  18  20
ENDBRANCH   1  18
TORSDOF 6
ENDMDL
MODEL 5
REMARK VINA RESULT: -8.885651007      2.186      7.807
REMARK  6 active torsions:
REMARK  status: ('A' for Active; 'I' for Inactive)
REMARK       I    between atoms: C1_2  and  N1_3 
REMARK    1  A    between atoms: C1_2  and  C9_12 
REMARK    2  A    between atoms: N1_3  and  C2_5 
REMARK    3  A    between atoms: C9_12  and  N2_13 
REMARK    4  A    between atoms: N2_13  and  C10_15 
REMARK    5  A    between atoms: C10_15  and  C11_16 
REMARK    6  A    between atoms: C11_16  and  C12_17 
ROOT
HETATM    1  C9  UNL     1      10.359  -9.033  13.482  1.00  0.00     0.111 C 
HETATM    2  C18 UNL     1      11.460  -8.647  14.483  1.00  0.00     0.041 C 
HETATM    3  C19 UNL     1      12.809  -9.161  14.167  1.00  0.00     0.003 C 
HETATM    4  C20 UNL     1      12.718 -10.693  13.992  1.00  0.00     0.000 C 
HETATM    5  C21 UNL     1      11.975 -10.845  12.682  1.00  0.00     0.003 C 
HETATM    6  C22 UNL     1      10.563 -10.344  12.885  1.00  0.00     0.041 C 
ENDROOT
BRANCH   1   7
HETATM    7  C1  UNL     1      10.249  -7.882  12.515  1.00  0.00     0.246 C 
HETATM    8  O1  UNL     1       9.035  -7.482  12.379  1.00  0.00    -0.271 OA
HETATM    9  N1  UNL     1      11.253  -7.270  11.817  1.00  0.00    -0.350 N 
ATOM     10  H1  UNL     1      12.180  -7.654  12.000  1.00  0.00     0.163 HD
BRANCH   9  11
HETATM   11  C2  UNL     1      11.243  -6.197  10.880  1.00  0.00     0.117 C 
HETATM   12  C3  UNL     1      12.239  -5.052  11.207  1.00  0.00     0.109 C 
HETATM   13  C4  UNL     1      12.944  -4.789  10.016  1.00  0.00    -0.180 C 
HETATM   14  C5  UNL     1      13.618  -4.596   8.803  1.00  0.00     0.083 C 
HETATM   15  C6  UNL     1      12.911  -5.540   7.768  1.00  0.00     0.038 C 
HETATM   16  C7  UNL     1      11.566  -6.034   8.290  1.00  0.00    -0.028 C 
HETATM   17  C8  UNL     1      11.415  -6.784   9.501  1.00  0.00    -0.005 C 
ENDBRANCH   9  11
ENDBRANCH   1   7
BRANCH   1  18
HETATM   18  N2  UNL     1       9.167  -9.020  14.340  1.00  0.00    -0.385 N 
ATOM     19  H2  UNL     1       8.237  -9.082  13.925  1.00  0.00     0.159 HD
BRANCH  18  20
HETATM   20  C10 UNL     1       9.308  -8.923  15.712  1.00  0.00     0.057 C 
BRANCH  20  21
HETATM   21  C11 UNL     1       9.027 -10.070  16.598  1.00  0.00     0.049 C 
BRANCH  21  22
HETATM   22  C12 UNL     1      10.299 -10.882  16.907  1.00  0.00    -0.010 C 
HETATM   23  C13 UNL     1      10.258 -11.255  18.364  1.00  0.00     0.005 C 
HETATM   24  C14 UNL     1      11.201 -12.340  18.737  1.00  0.00     0.000 C 
HETATM   25  C15 UNL     1      10.933 -13.592  17.931  1.00  0.00     0.000 C 
HETATM   26  C16 UNL     1      11.083 -13.249  16.453  1.00  0.00     0.000 C 
HETATM   27  C17 UNL     1      10.216 -12.108  16.049  1.00  0.00     0.005 C 
ENDBRANCH  21  22
ENDBRANCH  20  21
ENDBRANCH  18  20
ENDBRANCH   1  18
TORSDOF 6
ENDMDL
