MODEL 1
REMARK VINA RESULT: -7.780915406      0.000      0.000
REMARK  8 active torsions:
REMARK  status: ('A' for Active; 'I' for Inactive)
REMARK    1  A    between atoms: C3_3  and  C4_4 
REMARK    2  A    between atoms: C4_4  and  O1_5 
REMARK    3  A    between atoms: C4_4  and  C5_7 
REMARK    4  A    between atoms: C13_15  and  C14_16 
REMARK    5  A    between atoms: C14_16  and  C16_18 
REMARK    6  A    between atoms: C16_18  and  C17_19 
REMARK    7  A    between atoms: C17_19  and  C18_20 
REMARK    8  A    between atoms: C18_20  and  N1_21 
ROOT
HETATM    1  C5  UNL     1      12.158 -12.945  14.827  1.00  0.00    -0.007 C 
HETATM    2  C6  UNL     1      12.249 -14.322  14.184  1.00  0.00     0.019 C 
HETATM    3  C7  UNL     1      11.035 -12.817  15.812  1.00  0.00     0.013 C 
HETATM    4  C8  UNL     1      10.693 -11.316  15.820  1.00  0.00     0.007 C 
HETATM    5  C9  UNL     1      10.932 -10.871  14.426  1.00  0.00    -0.001 C 
HETATM    6  C10 UNL     1      11.563  -9.503  14.324  1.00  0.00    -0.005 C 
HETATM    7  C11 UNL     1      10.558  -8.518  14.897  1.00  0.00     0.006 C 
HETATM    8  C12 UNL     1       9.568  -8.385  13.756  1.00  0.00     0.006 C 
HETATM    9  C13 UNL     1      10.344  -8.572  12.501  1.00  0.00    -0.006 C 
HETATM   10  C19 UNL     1      11.711  -9.078  12.901  1.00  0.00    -0.006 C 
HETATM   11  C20 UNL     1      12.141 -10.275  12.090  1.00  0.00     0.006 C 
HETATM   12  C21 UNL     1      12.829 -11.306  13.010  1.00  0.00     0.011 C 
HETATM   13  C22 UNL     1      11.733 -11.948  13.777  1.00  0.00    -0.030 C 
HETATM   14  C23 UNL     1      10.817 -12.635  12.748  1.00  0.00     0.016 C 
ENDROOT
BRANCH   9  15
HETATM   15  C14 UNL     1      10.401  -7.357  11.626  1.00  0.00    -0.014 C 
HETATM   16  C15 UNL     1      10.460  -7.661  10.169  1.00  0.00     0.010 C 
BRANCH  15  17
HETATM   17  C16 UNL     1      11.572  -6.457  11.967  1.00  0.00     0.006 C 
BRANCH  17  18
HETATM   18  C17 UNL     1      11.543  -5.211  11.121  1.00  0.00     0.027 C 
BRANCH  18  19
HETATM   19  C18 UNL     1      12.899  -4.816  10.602  1.00  0.00     0.229 C 
BRANCH  19  20
HETATM   20  N1  UNL     1      12.925  -5.183   9.184  1.00  0.00    -0.079 N 
ATOM     21  H13 UNL     1      13.304  -6.116   9.015  1.00  0.00     0.274 HD
ATOM     22  H12 UNL     1      11.998  -5.350   8.794  1.00  0.00     0.274 HD
ATOM     23  H11 UNL     1      13.439  -4.446   8.703  1.00  0.00     0.274 HD
ENDBRANCH  19  20
ENDBRANCH  18  19
ENDBRANCH  17  18
ENDBRANCH  15  17
ENDBRANCH   9  15
BRANCH   1  24
HETATM   24  C4  UNL     1      13.445 -12.631  15.478  1.00  0.00     0.149 C 
BRANCH  24  25
HETATM   25  C3  UNL     1      13.594 -12.986  16.894  1.00  0.00     0.001 C 
HETATM   26  C2  UNL     1      14.007 -14.096  17.448  1.00  0.00    -0.033 C 
HETATM   27  C1  UNL     1      14.095 -14.277  18.938  1.00  0.00     0.036 C 
ENDBRANCH  24  25
BRANCH  24  28
HETATM   28  O1  UNL     1      14.527 -13.313  14.834  1.00  0.00    -0.391 OA
ATOM     29  H1  UNL     1      14.101 -13.854  14.179  1.00  0.00     0.210 HD
ENDBRANCH  24  28
ENDBRANCH   1  24
TORSDOF 8
ENDMDL
MODEL 2
REMARK VINA RESULT: -7.665724753      3.452      7.657
REMARK  8 active torsions:
REMARK  status: ('A' for Active; 'I' for Inactive)
REMARK    1  A    between atoms: C3_3  and  C4_4 
REMARK    2  A    between atoms: C4_4  and  O1_5 
REMARK    3  A    between atoms: C4_4  and  C5_7 
REMARK    4  A    between atoms: C13_15  and  C14_16 
REMARK    5  A    between atoms: C14_16  and  C16_18 
REMARK    6  A    between atoms: C16_18  and  C17_19 
REMARK    7  A    between atoms: C17_19  and  C18_20 
REMARK    8  A    between atoms: C18_20  and  N1_21 
ROOT
HETATM    1  C5  UNL     1      10.072  -8.488  11.924  1.00  0.00    -0.007 C 
HETATM    2  C6  UNL     1       9.120  -7.382  12.356  1.00  0.00     0.019 C 
HETATM    3  C7  UNL     1       9.383  -9.657  11.286  1.00  0.00     0.013 C 
HETATM    4  C8  UNL     1      10.322 -10.850  11.543  1.00  0.00     0.007 C 
HETATM    5  C9  UNL     1      10.923 -10.573  12.869  1.00  0.00    -0.001 C 
HETATM    6  C10 UNL     1      12.384 -10.944  12.963  1.00  0.00    -0.005 C 
HETATM    7  C11 UNL     1      12.461 -12.451  12.790  1.00  0.00     0.006 C 
HETATM    8  C12 UNL     1      12.026 -12.943  14.157  1.00  0.00     0.006 C 
HETATM    9  C13 UNL     1      12.471 -11.916  15.137  1.00  0.00    -0.006 C 
HETATM   10  C19 UNL     1      12.917 -10.712  14.339  1.00  0.00    -0.006 C 
HETATM   11  C20 UNL     1      12.330  -9.425  14.865  1.00  0.00     0.006 C 
HETATM   12  C21 UNL     1      11.901  -8.530  13.683  1.00  0.00     0.011 C 
HETATM   13  C22 UNL     1      10.652  -9.135  13.157  1.00  0.00    -0.030 C 
HETATM   14  C23 UNL     1       9.623  -9.090  14.301  1.00  0.00     0.016 C 
ENDROOT
BRANCH   9  15
HETATM   15  C14 UNL     1      13.510 -12.398  16.102  1.00  0.00    -0.014 C 
HETATM   16  C15 UNL     1      14.450 -13.403  15.531  1.00  0.00     0.010 C 
BRANCH  15  17
HETATM   17  C16 UNL     1      12.898 -12.987  17.358  1.00  0.00     0.006 C 
BRANCH  17  18
HETATM   18  C17 UNL     1      13.921 -13.049  18.463  1.00  0.00     0.027 C 
BRANCH  18  19
HETATM   19  C18 UNL     1      13.309 -13.212  19.828  1.00  0.00     0.229 C 
BRANCH  19  20
HETATM   20  N1  UNL     1      13.401 -11.906  20.483  1.00  0.00    -0.079 N 
ATOM     21  H13 UNL     1      14.350 -11.664  20.772  1.00  0.00     0.274 HD
ATOM     22  H12 UNL     1      13.259 -11.123  19.845  1.00  0.00     0.274 HD
ATOM     23  H11 UNL     1      12.736 -11.922  21.256  1.00  0.00     0.274 HD
ENDBRANCH  19  20
ENDBRANCH  18  19
ENDBRANCH  17  18
ENDBRANCH  15  17
ENDBRANCH   9  15
BRANCH   1  24
HETATM   24  C4  UNL     1      11.079  -7.926  11.002  1.00  0.00     0.149 C 
BRANCH  24  25
HETATM   25  C3  UNL     1      10.871  -8.129   9.563  1.00  0.00     0.001 C 
HETATM   26  C2  UNL     1      10.189  -7.423   8.701  1.00  0.00    -0.033 C 
HETATM   27  C1  UNL     1      10.090  -7.792   7.246  1.00  0.00     0.036 C 
ENDBRANCH  24  25
BRANCH  24  28
HETATM   28  O1  UNL     1      11.166  -6.503  11.142  1.00  0.00    -0.391 OA
ATOM     29  H1  UNL     1      12.086  -6.346  11.319  1.00  0.00     0.210 HD
ENDBRANCH  24  28
ENDBRANCH   1  24
TORSDOF 8
ENDMDL
MODEL 3
REMARK VINA RESULT: -7.586881752      3.053      7.401
REMARK  8 active torsions:
REMARK  status: ('A' for Active; 'I' for Inactive)
REMARK    1  A    between atoms: C3_3  and  C4_4 
REMARK    2  A    between atoms: C4_4  and  O1_5 
REMARK    3  A    between atoms: C4_4  and  C5_7 
REMARK    4  A    between atoms: C13_15  and  C14_16 
REMARK    5  A    between atoms: C14_16  and  C16_18 
REMARK    6  A    between atoms: C16_18  and  C17_19 
REMARK    7  A    between atoms: C17_19  and  C18_20 
REMARK    8  A    between atoms: C18_20  and  N1_21 
ROOT
HETATM    1  C5  UNL     1      10.404  -7.952  11.966  1.00  0.00    -0.007 C 
HETATM    2  C6  UNL     1       9.188  -7.112  12.329  1.00  0.00     0.019 C 
HETATM    3  C7  UNL     1      10.122  -8.998  10.930  1.00  0.00     0.013 C 
HETATM    4  C8  UNL     1      11.169 -10.096  11.189  1.00  0.00     0.007 C 
HETATM    5  C9  UNL     1      11.362 -10.089  12.659  1.00  0.00    -0.001 C 
HETATM    6  C10 UNL     1      12.796 -10.293  13.085  1.00  0.00    -0.005 C 
HETATM    7  C11 UNL     1      13.189 -11.689  12.632  1.00  0.00     0.006 C 
HETATM    8  C12 UNL     1      12.526 -12.556  13.684  1.00  0.00     0.006 C 
HETATM    9  C13 UNL     1      12.517 -11.760  14.942  1.00  0.00    -0.006 C 
HETATM   10  C19 UNL     1      12.918 -10.350  14.572  1.00  0.00    -0.006 C 
HETATM   11  C20 UNL     1      11.994  -9.316  15.165  1.00  0.00     0.006 C 
HETATM   12  C21 UNL     1      11.714  -8.212  14.124  1.00  0.00     0.011 C 
HETATM   13  C22 UNL     1      10.768  -8.813  13.151  1.00  0.00    -0.030 C 
HETATM   14  C23 UNL     1       9.497  -9.179  13.938  1.00  0.00     0.016 C 
ENDROOT
BRANCH   9  15
HETATM   15  C14 UNL     1      13.355 -12.339  16.041  1.00  0.00    -0.014 C 
HETATM   16  C15 UNL     1      14.342 -13.356  15.580  1.00  0.00     0.010 C 
BRANCH  15  17
HETATM   17  C16 UNL     1      12.513 -12.965  17.136  1.00  0.00     0.006 C 
BRANCH  17  18
HETATM   18  C17 UNL     1      11.077 -12.526  17.013  1.00  0.00     0.027 C 
BRANCH  18  19
HETATM   19  C18 UNL     1      10.527 -11.938  18.284  1.00  0.00     0.229 C 
BRANCH  19  20
HETATM   20  N1  UNL     1      10.028 -10.604  17.944  1.00  0.00    -0.079 N 
ATOM     21  H13 UNL     1       9.680 -10.534  16.987  1.00  0.00     0.274 HD
ATOM     22  H12 UNL     1       9.154 -10.369  18.414  1.00  0.00     0.274 HD
ATOM     23  H11 UNL     1      10.784  -9.951  18.147  1.00  0.00     0.274 HD
ENDBRANCH  19  20
ENDBRANCH  18  19
ENDBRANCH  17  18
ENDBRANCH  15  17
ENDBRANCH   9  15
BRANCH   1  24
HETATM   24  C4  UNL     1      11.487  -7.060  11.506  1.00  0.00     0.149 C 
BRANCH  24  25
HETATM   25  C3  UNL     1      11.491  -6.670  10.091  1.00  0.00     0.001 C 
HETATM   26  C2  UNL     1      11.947  -5.590   9.515  1.00  0.00    -0.033 C 
HETATM   27  C1  UNL     1      11.862  -5.364   8.030  1.00  0.00     0.036 C 
ENDBRANCH  24  25
BRANCH  24  28
HETATM   28  O1  UNL     1      11.458  -5.813  12.210  1.00  0.00    -0.391 OA
ATOM     29  H1  UNL     1      10.681  -5.872  12.752  1.00  0.00     0.210 HD
ENDBRANCH  24  28
ENDBRANCH   1  24
TORSDOF 8
ENDMDL
MODEL 4
REMARK VINA RESULT: -7.526924955      2.128      3.306
REMARK  8 active torsions:
REMARK  status: ('A' for Active; 'I' for Inactive)
REMARK    1  A    between atoms: C3_3  and  C4_4 
REMARK    2  A    between atoms: C4_4  and  O1_5 
REMARK    3  A    between atoms: C4_4  and  C5_7 
REMARK    4  A    between atoms: C13_15  and  C14_16 
REMARK    5  A    between atoms: C14_16  and  C16_18 
REMARK    6  A    between atoms: C16_18  and  C17_19 
REMARK    7  A    between atoms: C17_19  and  C18_20 
REMARK    8  A    between atoms: C18_20  and  N1_21 
ROOT
HETATM    1  C5  UNL     1      11.524 -11.324  14.229  1.00  0.00    -0.007 C 
HETATM    2  C6  UNL     1      12.817 -11.448  15.022  1.00  0.00     0.019 C 
HETATM    3  C7  UNL     1      11.181 -12.556  13.445  1.00  0.00     0.013 C 
HETATM    4  C8  UNL     1      10.324 -12.046  12.273  1.00  0.00     0.007 C 
HETATM    5  C9  UNL     1      10.884 -10.712  11.953  1.00  0.00    -0.001 C 
HETATM    6  C10 UNL     1       9.838  -9.682  11.599  1.00  0.00    -0.005 C 
HETATM    7  C11 UNL     1       9.174 -10.160  10.319  1.00  0.00     0.006 C 
HETATM    8  C12 UNL     1      10.208  -9.785   9.274  1.00  0.00     0.006 C 
HETATM    9  C13 UNL     1      10.893  -8.565   9.778  1.00  0.00    -0.006 C 
HETATM   10  C19 UNL     1      10.464  -8.381  11.215  1.00  0.00    -0.006 C 
HETATM   11  C20 UNL     1      11.631  -8.126  12.136  1.00  0.00     0.006 C 
HETATM   12  C21 UNL     1      11.437  -8.910  13.451  1.00  0.00     0.011 C 
HETATM   13  C22 UNL     1      11.733 -10.326  13.117  1.00  0.00    -0.030 C 
HETATM   14  C23 UNL     1      13.197 -10.373  12.645  1.00  0.00     0.016 C 
ENDROOT
BRANCH   9  15
HETATM   15  C14 UNL     1      10.670  -7.344   8.938  1.00  0.00    -0.014 C 
HETATM   16  C15 UNL     1       9.929  -7.606   7.672  1.00  0.00     0.010 C 
BRANCH  15  17
HETATM   17  C16 UNL     1      11.968  -6.643   8.586  1.00  0.00     0.006 C 
BRANCH  17  18
HETATM   18  C17 UNL     1      11.922  -5.201   9.019  1.00  0.00     0.027 C 
BRANCH  18  19
HETATM   19  C18 UNL     1      12.834  -4.901  10.177  1.00  0.00     0.229 C 
BRANCH  19  20
HETATM   20  N1  UNL     1      11.972  -4.666  11.337  1.00  0.00    -0.079 N 
ATOM     21  H13 UNL     1      12.160  -5.298  12.115  1.00  0.00     0.274 HD
ATOM     22  H12 UNL     1      12.182  -3.796  11.826  1.00  0.00     0.274 HD
ATOM     23  H11 UNL     1      11.011  -4.717  10.998  1.00  0.00     0.274 HD
ENDBRANCH  19  20
ENDBRANCH  18  19
ENDBRANCH  17  18
ENDBRANCH  15  17
ENDBRANCH   9  15
BRANCH   1  24
HETATM   24  C4  UNL     1      10.422 -10.986  15.151  1.00  0.00     0.149 C 
BRANCH  24  25
HETATM   25  C3  UNL     1      10.004 -12.010  16.116  1.00  0.00     0.001 C 
HETATM   26  C2  UNL     1       9.720 -11.907  17.387  1.00  0.00    -0.033 C 
HETATM   27  C1  UNL     1       9.304 -13.084  18.225  1.00  0.00     0.036 C 
ENDBRANCH  24  25
BRANCH  24  28
HETATM   28  O1  UNL     1      10.763  -9.859  15.967  1.00  0.00    -0.391 OA
ATOM     29  H1  UNL     1      11.702  -9.936  16.084  1.00  0.00     0.210 HD
ENDBRANCH  24  28
ENDBRANCH   1  24
TORSDOF 8
ENDMDL
MODEL 5
REMARK VINA RESULT: -7.498304972      2.342      4.260
REMARK  8 active torsions:
REMARK  status: ('A' for Active; 'I' for Inactive)
REMARK    1  A    between atoms: C3_3  and  C4_4 
REMARK    2  A    between atoms: C4_4  and  O1_5 
REMARK    3  A    between atoms: C4_4  and  C5_7 
REMARK    4  A    between atoms: C13_15  and  C14_16 
REMARK    5  A    between atoms: C14_16  and  C16_18 
REMARK    6  A    between atoms: C16_18  and  C17_19 
REMARK    7  A    between atoms: C17_19  and  C18_20 
REMARK    8  A    between atoms: C18_20  and  N1_21 
ROOT
HETATM    1  C5  UNL     1      13.170 -14.122  14.381  1.00  0.00    -0.007 C 
HETATM    2  C6  UNL     1      13.530 -15.102  15.488  1.00  0.00     0.019 C 
HETATM    3  C7  UNL     1      14.363 -13.474  13.743  1.00  0.00     0.013 C 
HETATM    4  C8  UNL     1      13.836 -12.132  13.205  1.00  0.00     0.007 C 
HETATM    5  C9  UNL     1      12.806 -11.714  14.186  1.00  0.00    -0.001 C 
HETATM    6  C10 UNL     1      11.592 -11.074  13.557  1.00  0.00    -0.005 C 
HETATM    7  C11 UNL     1      12.069  -9.790  12.900  1.00  0.00     0.006 C 
HETATM    8  C12 UNL     1      12.208  -8.864  14.092  1.00  0.00     0.006 C 
HETATM    9  C13 UNL     1      11.177  -9.288  15.078  1.00  0.00    -0.006 C 
HETATM   10  C19 UNL     1      10.624 -10.609  14.595  1.00  0.00    -0.006 C 
HETATM   11  C20 UNL     1      10.569 -11.644  15.691  1.00  0.00     0.006 C 
HETATM   12  C21 UNL     1      11.016 -13.013  15.136  1.00  0.00     0.011 C 
HETATM   13  C22 UNL     1      12.491 -12.924  14.999  1.00  0.00    -0.030 C 
HETATM   14  C23 UNL     1      13.052 -12.679  16.411  1.00  0.00     0.016 C 
ENDROOT
BRANCH   9  15
HETATM   15  C14 UNL     1      10.113  -8.264  15.332  1.00  0.00    -0.014 C 
HETATM   16  C15 UNL     1       9.738  -8.122  16.768  1.00  0.00     0.010 C 
BRANCH  15  17
HETATM   17  C16 UNL     1       8.849  -8.539  14.542  1.00  0.00     0.006 C 
BRANCH  17  18
HETATM   18  C17 UNL     1       8.836  -7.731  13.270  1.00  0.00     0.027 C 
BRANCH  18  19
HETATM   19  C18 UNL     1       8.793  -8.581  12.029  1.00  0.00     0.229 C 
BRANCH  19  20
HETATM   20  N1  UNL     1       9.741  -7.986  11.084  1.00  0.00    -0.079 N 
ATOM     21  H13 UNL     1       9.304  -7.335  10.430  1.00  0.00     0.274 HD
ATOM     22  H12 UNL     1      10.380  -7.320  11.519  1.00  0.00     0.274 HD
ATOM     23  H11 UNL     1      10.217  -8.761  10.624  1.00  0.00     0.274 HD
ENDBRANCH  19  20
ENDBRANCH  18  19
ENDBRANCH  17  18
ENDBRANCH  15  17
ENDBRANCH   9  15
BRANCH   1  24
HETATM   24  C4  UNL     1      12.363 -14.819  13.361  1.00  0.00     0.149 C 
BRANCH  24  25
HETATM   25  C3  UNL     1      13.078 -15.469  12.256  1.00  0.00     0.001 C 
HETATM   26  C2  UNL     1      12.735 -16.484  11.509  1.00  0.00    -0.033 C 
HETATM   27  C1  UNL     1      13.611 -17.017  10.409  1.00  0.00     0.036 C 
ENDBRANCH  24  25
BRANCH  24  28
HETATM   28  O1  UNL     1      11.597 -15.878  13.948  1.00  0.00    -0.391 OA
ATOM     29  H1  UNL     1      10.983 -15.429  14.517  1.00  0.00     0.210 HD
ENDBRANCH  24  28
ENDBRANCH   1  24
TORSDOF 8
ENDMDL
