MODEL 1
REMARK VINA RESULT: -9.759722855      0.000      0.000
REMARK  12 active torsions:
REMARK  status: ('A' for Active; 'I' for Inactive)
REMARK       I    between atoms: C1_2  and  N1_3 
REMARK    1  A    between atoms: C1_2  and  C19_31 
REMARK    2  A    between atoms: N1_3  and  C2_5 
REMARK    3  A    between atoms: N2_8  and  C5_9 
REMARK    4  A    between atoms: C5_9  and  C6_10 
REMARK    5  A    between atoms: C6_10  and  C7_11 
REMARK    6  A    between atoms: C7_11  and  N3_12 
REMARK    7  A    between atoms: N3_12  and  C8_15 
REMARK    8  A    between atoms: C8_15  and  C9_16 
REMARK    9  A    between atoms: C11_18  and  N4_19 
REMARK   10  A    between atoms: C21_35  and  N6_36 
REMARK   11  A    between atoms: C26_44  and  O5_45 
REMARK   12  A    between atoms: O5_45  and  C27_46 
ROOT
HETATM    1  C2  UNL     1      18.514  24.800  16.040  1.00  0.00     0.088 C 
HETATM    2  C3  UNL     1      19.894  24.515  15.462  1.00  0.00     0.055 C 
HETATM    3  C4  UNL     1      20.639  25.847  15.451  1.00  0.00     0.274 C 
HETATM    4  N2  UNL     1      19.902  26.894  14.837  1.00  0.00     0.088 N 
HETATM    5  C17 UNL     1      18.674  26.527  14.243  1.00  0.00     0.274 C 
HETATM    6  C18 UNL     1      17.751  25.743  15.162  1.00  0.00     0.055 C 
ENDROOT
BRANCH   1   7
HETATM    7  N1  UNL     1      17.744  23.605  16.266  1.00  0.00    -0.352 N 
HETATM    8  C1  UNL     1      16.977  23.403  17.399  1.00  0.00     0.257 C 
HETATM    9  O1  UNL     1      16.994  24.365  18.263  1.00  0.00    -0.267 OA
ATOM     10  H1  UNL     1      17.765  22.873  15.557  1.00  0.00     0.163 HD
BRANCH   8  11
HETATM   11  C19 UNL     1      16.163  22.235  17.714  1.00  0.00     0.099 A 
HETATM   12  C20 UNL     1      15.838  21.981  19.058  1.00  0.00     0.127 A 
HETATM   13  N5  UNL     1      15.093  20.931  19.421  1.00  0.00    -0.201 N 
HETATM   14  C21 UNL     1      14.608  20.054  18.526  1.00  0.00     0.682 A 
ATOM     15  H5  UNL     1      14.886  20.792  20.410  1.00  0.00     0.183 HD
HETATM   16  N7  UNL     1      14.913  20.287  17.239  1.00  0.00    -0.169 N 
HETATM   17  C26 UNL     1      15.663  21.335  16.820  1.00  0.00     0.175 A 
ATOM     18  H7  UNL     1      14.559  19.637  16.537  1.00  0.00     0.186 HD
BRANCH  14  19
HETATM   19  N6  UNL     1      13.814  18.943  18.923  1.00  0.00    -0.214 N 
HETATM   20  C22 UNL     1      13.880  17.698  18.204  1.00  0.00     0.167 C 
HETATM   21  C23 UNL     1      12.546  16.995  18.108  1.00  0.00     0.188 C 
HETATM   22  O4  UNL     1      11.809  17.099  19.266  1.00  0.00    -0.388 OA
HETATM   23  C24 UNL     1      11.608  18.418  19.613  1.00  0.00     0.188 C 
HETATM   24  C25 UNL     1      12.932  19.057  20.055  1.00  0.00     0.167 C 
ENDBRANCH  14  19
BRANCH  17  25
HETATM   25  O5  UNL     1      15.910  21.470  15.470  1.00  0.00    -0.329 OA
BRANCH  25  26
HETATM   26  C27 UNL     1      14.879  21.547  14.549  1.00  0.00     0.130 C 
HETATM   27  C28 UNL     1      13.901  22.669  14.820  1.00  0.00     0.032 C 
HETATM   28  C29 UNL     1      13.062  22.633  13.545  1.00  0.00     0.002 C 
HETATM   29  C30 UNL     1      14.021  22.225  12.467  1.00  0.00     0.002 C 
HETATM   30  C31 UNL     1      15.326  21.858  13.140  1.00  0.00     0.032 C 
ENDBRANCH  25  26
ENDBRANCH  17  25
ENDBRANCH   8  11
ENDBRANCH   1   7
BRANCH   4  31
HETATM   31  C5  UNL     1      20.764  27.574  13.908  1.00  0.00     0.274 C 
BRANCH  31  32
HETATM   32  C6  UNL     1      21.140  28.919  14.466  1.00  0.00     0.057 C 
BRANCH  32  33
HETATM   33  C7  UNL     1      22.593  29.289  14.116  1.00  0.00     0.234 C 
BRANCH  33  34
HETATM   34  N3  UNL     1      23.339  29.677  15.270  1.00  0.00    -0.071 N 
ATOM     35  H32 UNL     1      23.524  30.680  15.268  1.00  0.00     0.277 HD
ATOM     36  H31 UNL     1      22.768  29.617  16.113  1.00  0.00     0.277 HD
BRANCH  34  37
HETATM   37  C8  UNL     1      24.569  28.921  15.419  1.00  0.00     0.278 C 
BRANCH  37  38
HETATM   38  C9  UNL     1      24.425  27.914  16.535  1.00  0.00     0.010 A 
HETATM   39  C10 UNL     1      23.275  27.572  17.197  1.00  0.00     0.047 A 
HETATM   40  C11 UNL     1      23.377  26.642  18.163  1.00  0.00     0.052 A 
HETATM   41  C16 UNL     1      24.618  26.119  18.401  1.00  0.00     0.080 A 
HETATM   42  S2  UNL     1      25.605  26.936  17.275  1.00  0.00    -0.102 SA
BRANCH  40  43
HETATM   43  N4  UNL     1      22.239  26.190  18.935  1.00  0.00    -0.275 N 
HETATM   44  C12 UNL     1      21.746  24.839  18.853  1.00  0.00     0.142 C 
HETATM   45  C13 UNL     1      20.290  24.820  19.253  1.00  0.00     0.022 C 
HETATM   46  C14 UNL     1      20.128  25.038  20.729  1.00  0.00     0.018 C 
HETATM   47  C15 UNL     1      20.549  26.399  21.185  1.00  0.00     0.163 C 
HETATM   48  S1  UNL     1      21.457  27.306  19.979  1.00  0.00     0.233 S 
HETATM   49  O2  UNL     1      22.453  28.183  20.701  1.00  0.00    -0.205 OA
HETATM   50  O3  UNL     1      20.550  28.236  19.207  1.00  0.00    -0.205 OA
ENDBRANCH  40  43
ENDBRANCH  37  38
ENDBRANCH  34  37
ENDBRANCH  33  34
ENDBRANCH  32  33
ENDBRANCH  31  32
ENDBRANCH   4  31
TORSDOF 12
ENDMDL
MODEL 2
REMARK VINA RESULT: -9.509724031      1.961      3.141
REMARK  12 active torsions:
REMARK  status: ('A' for Active; 'I' for Inactive)
REMARK       I    between atoms: C1_2  and  N1_3 
REMARK    1  A    between atoms: C1_2  and  C19_31 
REMARK    2  A    between atoms: N1_3  and  C2_5 
REMARK    3  A    between atoms: N2_8  and  C5_9 
REMARK    4  A    between atoms: C5_9  and  C6_10 
REMARK    5  A    between atoms: C6_10  and  C7_11 
REMARK    6  A    between atoms: C7_11  and  N3_12 
REMARK    7  A    between atoms: N3_12  and  C8_15 
REMARK    8  A    between atoms: C8_15  and  C9_16 
REMARK    9  A    between atoms: C11_18  and  N4_19 
REMARK   10  A    between atoms: C21_35  and  N6_36 
REMARK   11  A    between atoms: C26_44  and  O5_45 
REMARK   12  A    between atoms: O5_45  and  C27_46 
ROOT
HETATM    1  C2  UNL     1      18.671  25.465  15.359  1.00  0.00     0.088 C 
HETATM    2  C3  UNL     1      20.071  24.864  15.345  1.00  0.00     0.055 C 
HETATM    3  C4  UNL     1      21.022  25.980  15.768  1.00  0.00     0.274 C 
HETATM    4  N2  UNL     1      20.843  27.177  15.024  1.00  0.00     0.088 N 
HETATM    5  C17 UNL     1      19.917  27.117  13.959  1.00  0.00     0.274 C 
HETATM    6  C18 UNL     1      18.554  26.569  14.354  1.00  0.00     0.055 C 
ENDROOT
BRANCH   1   7
HETATM    7  N1  UNL     1      17.639  24.486  15.138  1.00  0.00    -0.352 N 
HETATM    8  C1  UNL     1      16.524  24.367  15.948  1.00  0.00     0.257 C 
HETATM    9  O1  UNL     1      16.462  25.197  16.937  1.00  0.00    -0.267 OA
ATOM     10  H1  UNL     1      17.735  23.851  14.346  1.00  0.00     0.163 HD
BRANCH   8  11
HETATM   11  C19 UNL     1      15.429  23.416  15.802  1.00  0.00     0.099 A 
HETATM   12  C20 UNL     1      14.142  23.906  15.522  1.00  0.00     0.127 A 
HETATM   13  N5  UNL     1      13.090  23.094  15.371  1.00  0.00    -0.201 N 
HETATM   14  C21 UNL     1      13.197  21.758  15.479  1.00  0.00     0.682 A 
ATOM     15  H5  UNL     1      12.178  23.501  15.169  1.00  0.00     0.183 HD
HETATM   16  N7  UNL     1      14.422  21.279  15.747  1.00  0.00    -0.169 N 
HETATM   17  C26 UNL     1      15.519  22.059  15.908  1.00  0.00     0.175 A 
ATOM     18  H7  UNL     1      14.534  20.269  15.834  1.00  0.00     0.186 HD
BRANCH  14  19
HETATM   19  N6  UNL     1      12.074  20.903  15.314  1.00  0.00    -0.214 N 
HETATM   20  C22 UNL     1      11.086  21.173  14.302  1.00  0.00     0.167 C 
HETATM   21  C23 UNL     1       9.680  20.830  14.737  1.00  0.00     0.188 C 
HETATM   22  O4  UNL     1       9.624  19.675  15.483  1.00  0.00    -0.388 OA
HETATM   23  C24 UNL     1      10.439  19.755  16.591  1.00  0.00     0.188 C 
HETATM   24  C25 UNL     1      11.914  19.752  16.165  1.00  0.00     0.167 C 
ENDBRANCH  14  19
BRANCH  17  25
HETATM   25  O5  UNL     1      16.726  21.451  16.181  1.00  0.00    -0.329 OA
BRANCH  25  26
HETATM   26  C27 UNL     1      17.177  21.288  17.480  1.00  0.00     0.130 C 
HETATM   27  C28 UNL     1      18.377  22.143  17.821  1.00  0.00     0.032 C 
HETATM   28  C29 UNL     1      18.471  21.918  19.329  1.00  0.00     0.002 C 
HETATM   29  C30 UNL     1      17.051  21.758  19.781  1.00  0.00     0.002 C 
HETATM   30  C31 UNL     1      16.186  21.708  18.540  1.00  0.00     0.032 C 
ENDBRANCH  25  26
ENDBRANCH  17  25
ENDBRANCH   8  11
ENDBRANCH   1   7
BRANCH   4  31
HETATM   31  C5  UNL     1      22.132  27.639  14.586  1.00  0.00     0.274 C 
BRANCH  31  32
HETATM   32  C6  UNL     1      22.058  29.108  14.270  1.00  0.00     0.057 C 
BRANCH  32  33
HETATM   33  C7  UNL     1      23.373  29.828  14.619  1.00  0.00     0.234 C 
BRANCH  33  34
HETATM   34  N3  UNL     1      24.407  28.910  14.977  1.00  0.00    -0.071 N 
ATOM     35  H32 UNL     1      24.028  27.977  15.140  1.00  0.00     0.277 HD
ATOM     36  H31 UNL     1      25.008  28.707  14.179  1.00  0.00     0.277 HD
BRANCH  34  37
HETATM   37  C8  UNL     1      25.185  29.362  16.115  1.00  0.00     0.278 C 
BRANCH  37  38
HETATM   38  C9  UNL     1      24.971  28.436  17.289  1.00  0.00     0.010 A 
HETATM   39  C10 UNL     1      23.796  27.844  17.671  1.00  0.00     0.047 A 
HETATM   40  C11 UNL     1      23.835  27.048  18.754  1.00  0.00     0.052 A 
HETATM   41  C16 UNL     1      25.042  26.900  19.381  1.00  0.00     0.080 A 
HETATM   42  S2  UNL     1      26.086  27.870  18.444  1.00  0.00    -0.102 SA
BRANCH  40  43
HETATM   43  N4  UNL     1      22.666  26.361  19.261  1.00  0.00    -0.275 N 
HETATM   44  C12 UNL     1      22.517  24.931  19.166  1.00  0.00     0.142 C 
HETATM   45  C13 UNL     1      21.048  24.584  19.203  1.00  0.00     0.022 C 
HETATM   46  C14 UNL     1      20.474  24.787  20.575  1.00  0.00     0.018 C 
HETATM   47  C15 UNL     1      20.458  26.218  21.012  1.00  0.00     0.163 C 
HETATM   48  S1  UNL     1      21.421  27.286  19.996  1.00  0.00     0.233 S 
HETATM   49  O2  UNL     1      21.986  28.383  20.868  1.00  0.00    -0.205 OA
HETATM   50  O3  UNL     1      20.559  27.967  18.959  1.00  0.00    -0.205 OA
ENDBRANCH  40  43
ENDBRANCH  37  38
ENDBRANCH  34  37
ENDBRANCH  33  34
ENDBRANCH  32  33
ENDBRANCH  31  32
ENDBRANCH   4  31
TORSDOF 12
ENDMDL
MODEL 3
REMARK VINA RESULT: -9.486635784      1.240      1.611
REMARK  12 active torsions:
REMARK  status: ('A' for Active; 'I' for Inactive)
REMARK       I    between atoms: C1_2  and  N1_3 
REMARK    1  A    between atoms: C1_2  and  C19_31 
REMARK    2  A    between atoms: N1_3  and  C2_5 
REMARK    3  A    between atoms: N2_8  and  C5_9 
REMARK    4  A    between atoms: C5_9  and  C6_10 
REMARK    5  A    between atoms: C6_10  and  C7_11 
REMARK    6  A    between atoms: C7_11  and  N3_12 
REMARK    7  A    between atoms: N3_12  and  C8_15 
REMARK    8  A    between atoms: C8_15  and  C9_16 
REMARK    9  A    between atoms: C11_18  and  N4_19 
REMARK   10  A    between atoms: C21_35  and  N6_36 
REMARK   11  A    between atoms: C26_44  and  O5_45 
REMARK   12  A    between atoms: O5_45  and  C27_46 
ROOT
HETATM    1  C2  UNL     1      18.376  24.820  16.315  1.00  0.00     0.088 C 
HETATM    2  C3  UNL     1      19.722  24.336  15.792  1.00  0.00     0.055 C 
HETATM    3  C4  UNL     1      20.668  25.532  15.867  1.00  0.00     0.274 C 
HETATM    4  N2  UNL     1      20.138  26.700  15.257  1.00  0.00     0.088 N 
HETATM    5  C17 UNL     1      18.901  26.551  14.593  1.00  0.00     0.274 C 
HETATM    6  C18 UNL     1      17.818  25.898  15.438  1.00  0.00     0.055 C 
ENDROOT
BRANCH   1   7
HETATM    7  N1  UNL     1      17.417  23.757  16.459  1.00  0.00    -0.352 N 
HETATM    8  C1  UNL     1      16.621  23.603  17.581  1.00  0.00     0.257 C 
HETATM    9  O1  UNL     1      16.795  24.482  18.512  1.00  0.00    -0.267 OA
ATOM     10  H1  UNL     1      17.319  23.085  15.699  1.00  0.00     0.163 HD
BRANCH   8  11
HETATM   11  C19 UNL     1      15.623  22.567  17.816  1.00  0.00     0.099 A 
HETATM   12  C20 UNL     1      15.874  21.600  18.805  1.00  0.00     0.127 A 
HETATM   13  N5  UNL     1      15.003  20.623  19.079  1.00  0.00    -0.201 N 
HETATM   14  C21 UNL     1      13.834  20.503  18.426  1.00  0.00     0.682 A 
ATOM     15  H5  UNL     1      15.233  19.947  19.807  1.00  0.00     0.183 HD
HETATM   16  N7  UNL     1      13.585  21.420  17.479  1.00  0.00    -0.169 N 
HETATM   17  C26 UNL     1      14.434  22.429  17.164  1.00  0.00     0.175 A 
ATOM     18  H7  UNL     1      12.705  21.354  16.966  1.00  0.00     0.186 HD
BRANCH  14  19
HETATM   19  N6  UNL     1      12.914  19.462  18.727  1.00  0.00    -0.214 N 
HETATM   20  C22 UNL     1      12.637  19.095  20.091  1.00  0.00     0.167 C 
HETATM   21  C23 UNL     1      12.419  17.612  20.277  1.00  0.00     0.188 C 
HETATM   22  O4  UNL     1      11.709  17.048  19.241  1.00  0.00    -0.388 OA
HETATM   23  C24 UNL     1      12.329  17.272  18.031  1.00  0.00     0.188 C 
HETATM   24  C25 UNL     1      12.247  18.760  17.661  1.00  0.00     0.167 C 
ENDBRANCH  14  19
BRANCH  17  25
HETATM   25  O5  UNL     1      14.068  23.312  16.170  1.00  0.00    -0.329 OA
BRANCH  25  26
HETATM   26  C27 UNL     1      14.276  23.024  14.832  1.00  0.00     0.130 C 
HETATM   27  C28 UNL     1      15.135  21.801  14.597  1.00  0.00     0.032 C 
HETATM   28  C29 UNL     1      14.978  21.625  13.089  1.00  0.00     0.002 C 
HETATM   29  C30 UNL     1      13.580  22.079  12.794  1.00  0.00     0.002 C 
HETATM   30  C31 UNL     1      13.021  22.672  14.069  1.00  0.00     0.032 C 
ENDBRANCH  25  26
ENDBRANCH  17  25
ENDBRANCH   8  11
ENDBRANCH   1   7
BRANCH   4  31
HETATM   31  C5  UNL     1      21.144  27.262  14.397  1.00  0.00     0.274 C 
BRANCH  31  32
HETATM   32  C6  UNL     1      21.045  28.763  14.423  1.00  0.00     0.057 C 
BRANCH  32  33
HETATM   33  C7  UNL     1      22.339  29.422  13.911  1.00  0.00     0.234 C 
BRANCH  33  34
HETATM   34  N3  UNL     1      23.141  29.926  14.980  1.00  0.00    -0.071 N 
ATOM     35  H32 UNL     1      23.268  30.935  14.898  1.00  0.00     0.277 HD
ATOM     36  H31 UNL     1      22.634  29.895  15.864  1.00  0.00     0.277 HD
BRANCH  34  37
HETATM   37  C8  UNL     1      24.419  29.247  15.087  1.00  0.00     0.278 C 
BRANCH  37  38
HETATM   38  C9  UNL     1      24.348  28.176  16.150  1.00  0.00     0.010 A 
HETATM   39  C10 UNL     1      23.688  28.245  17.349  1.00  0.00     0.047 A 
HETATM   40  C11 UNL     1      23.756  27.165  18.147  1.00  0.00     0.052 A 
HETATM   41  C16 UNL     1      24.476  26.094  17.696  1.00  0.00     0.080 A 
HETATM   42  S2  UNL     1      25.037  26.621  16.173  1.00  0.00    -0.102 SA
BRANCH  40  43
HETATM   43  N4  UNL     1      23.102  27.106  19.438  1.00  0.00    -0.275 N 
HETATM   44  C12 UNL     1      23.843  26.968  20.666  1.00  0.00     0.142 C 
HETATM   45  C13 UNL     1      22.949  26.352  21.715  1.00  0.00     0.022 C 
HETATM   46  C14 UNL     1      21.906  27.326  22.181  1.00  0.00     0.018 C 
HETATM   47  C15 UNL     1      20.917  27.698  21.122  1.00  0.00     0.163 C 
HETATM   48  S1  UNL     1      21.390  27.205  19.499  1.00  0.00     0.233 S 
HETATM   49  O2  UNL     1      20.856  28.227  18.522  1.00  0.00    -0.205 OA
HETATM   50  O3  UNL     1      20.751  25.886  19.128  1.00  0.00    -0.205 OA
ENDBRANCH  40  43
ENDBRANCH  37  38
ENDBRANCH  34  37
ENDBRANCH  33  34
ENDBRANCH  32  33
ENDBRANCH  31  32
ENDBRANCH   4  31
TORSDOF 12
ENDMDL
MODEL 4
REMARK VINA RESULT: -9.483063561      2.638      5.236
REMARK  12 active torsions:
REMARK  status: ('A' for Active; 'I' for Inactive)
REMARK       I    between atoms: C1_2  and  N1_3 
REMARK    1  A    between atoms: C1_2  and  C19_31 
REMARK    2  A    between atoms: N1_3  and  C2_5 
REMARK    3  A    between atoms: N2_8  and  C5_9 
REMARK    4  A    between atoms: C5_9  and  C6_10 
REMARK    5  A    between atoms: C6_10  and  C7_11 
REMARK    6  A    between atoms: C7_11  and  N3_12 
REMARK    7  A    between atoms: N3_12  and  C8_15 
REMARK    8  A    between atoms: C8_15  and  C9_16 
REMARK    9  A    between atoms: C11_18  and  N4_19 
REMARK   10  A    between atoms: C21_35  and  N6_36 
REMARK   11  A    between atoms: C26_44  and  O5_45 
REMARK   12  A    between atoms: O5_45  and  C27_46 
ROOT
HETATM    1  C2  UNL     1      17.928  22.921  18.585  1.00  0.00     0.088 C 
HETATM    2  C3  UNL     1      18.603  24.145  17.980  1.00  0.00     0.055 C 
HETATM    3  C4  UNL     1      19.978  24.245  18.635  1.00  0.00     0.274 C 
HETATM    4  N2  UNL     1      19.925  24.192  20.054  1.00  0.00     0.088 N 
HETATM    5  C17 UNL     1      18.636  24.170  20.629  1.00  0.00     0.274 C 
HETATM    6  C18 UNL     1      17.720  23.099  20.058  1.00  0.00     0.055 C 
ENDROOT
BRANCH   1   7
HETATM    7  N1  UNL     1      16.679  22.597  17.947  1.00  0.00    -0.352 N 
HETATM    8  C1  UNL     1      16.559  21.627  16.969  1.00  0.00     0.257 C 
HETATM    9  O1  UNL     1      17.654  21.018  16.650  1.00  0.00    -0.267 OA
ATOM     10  H1  UNL     1      15.843  23.108  18.230  1.00  0.00     0.163 HD
BRANCH   8  11
HETATM   11  C19 UNL     1      15.343  21.227  16.271  1.00  0.00     0.099 A 
HETATM   12  C20 UNL     1      15.050  21.821  15.031  1.00  0.00     0.127 A 
HETATM   13  N5  UNL     1      13.955  21.501  14.333  1.00  0.00    -0.201 N 
HETATM   14  C21 UNL     1      13.067  20.592  14.771  1.00  0.00     0.682 A 
ATOM     15  H5  UNL     1      13.789  21.962  13.438  1.00  0.00     0.183 HD
HETATM   16  N7  UNL     1      13.337  20.018  15.954  1.00  0.00    -0.169 N 
HETATM   17  C26 UNL     1      14.431  20.308  16.700  1.00  0.00     0.175 A 
ATOM     18  H7  UNL     1      12.681  19.325  16.313  1.00  0.00     0.186 HD
BRANCH  14  19
HETATM   19  N6  UNL     1      11.908  20.257  14.019  1.00  0.00    -0.214 N 
HETATM   20  C22 UNL     1      10.677  20.979  14.203  1.00  0.00     0.167 C 
HETATM   21  C23 UNL     1       9.450  20.105  14.088  1.00  0.00     0.188 C 
HETATM   22  O4  UNL     1       9.567  19.159  13.095  1.00  0.00    -0.388 OA
HETATM   23  C24 UNL     1      10.678  18.366  13.289  1.00  0.00     0.188 C 
HETATM   24  C25 UNL     1      11.958  19.184  13.060  1.00  0.00     0.167 C 
ENDBRANCH  14  19
BRANCH  17  25
HETATM   25  O5  UNL     1      14.602  19.653  17.901  1.00  0.00    -0.329 OA
BRANCH  25  26
HETATM   26  C27 UNL     1      13.532  19.102  18.585  1.00  0.00     0.130 C 
HETATM   27  C28 UNL     1      13.514  17.590  18.574  1.00  0.00     0.032 C 
HETATM   28  C29 UNL     1      12.395  17.308  19.575  1.00  0.00     0.002 C 
HETATM   29  C30 UNL     1      12.493  18.416  20.581  1.00  0.00     0.002 C 
HETATM   30  C31 UNL     1      13.519  19.402  20.065  1.00  0.00     0.032 C 
ENDBRANCH  25  26
ENDBRANCH  17  25
ENDBRANCH   8  11
ENDBRANCH   1   7
BRANCH   4  31
HETATM   31  C5  UNL     1      20.729  25.261  20.580  1.00  0.00     0.274 C 
BRANCH  31  32
HETATM   32  C6  UNL     1      22.160  24.810  20.681  1.00  0.00     0.057 C 
BRANCH  32  33
HETATM   33  C7  UNL     1      23.041  25.874  21.361  1.00  0.00     0.234 C 
BRANCH  33  34
HETATM   34  N3  UNL     1      23.229  27.022  20.532  1.00  0.00    -0.071 N 
ATOM     35  H32 UNL     1      22.431  27.161  19.913  1.00  0.00     0.277 HD
ATOM     36  H31 UNL     1      23.167  27.881  21.078  1.00  0.00     0.277 HD
BRANCH  34  37
HETATM   37  C8  UNL     1      24.470  26.970  19.781  1.00  0.00     0.278 C 
BRANCH  37  38
HETATM   38  C9  UNL     1      24.178  26.976  18.300  1.00  0.00     0.010 A 
HETATM   39  C10 UNL     1      22.958  26.814  17.697  1.00  0.00     0.047 A 
HETATM   40  C11 UNL     1      22.928  26.858  16.353  1.00  0.00     0.052 A 
HETATM   41  C16 UNL     1      24.115  27.059  15.705  1.00  0.00     0.080 A 
HETATM   42  S2  UNL     1      25.237  27.183  16.984  1.00  0.00    -0.102 SA
BRANCH  40  43
HETATM   43  N4  UNL     1      21.705  26.703  15.594  1.00  0.00    -0.275 N 
HETATM   44  C12 UNL     1      21.040  25.431  15.464  1.00  0.00     0.142 C 
HETATM   45  C13 UNL     1      20.206  25.437  14.206  1.00  0.00     0.022 C 
HETATM   46  C14 UNL     1      18.999  26.316  14.356  1.00  0.00     0.018 C 
HETATM   47  C15 UNL     1      19.329  27.768  14.506  1.00  0.00     0.163 C 
HETATM   48  S1  UNL     1      21.032  28.082  14.827  1.00  0.00     0.233 S 
HETATM   49  O2  UNL     1      21.127  29.308  15.705  1.00  0.00    -0.205 OA
HETATM   50  O3  UNL     1      21.769  28.414  13.551  1.00  0.00    -0.205 OA
ENDBRANCH  40  43
ENDBRANCH  37  38
ENDBRANCH  34  37
ENDBRANCH  33  34
ENDBRANCH  32  33
ENDBRANCH  31  32
ENDBRANCH   4  31
TORSDOF 12
ENDMDL
MODEL 5
REMARK VINA RESULT: -9.448136070      1.428      3.053
REMARK  12 active torsions:
REMARK  status: ('A' for Active; 'I' for Inactive)
REMARK       I    between atoms: C1_2  and  N1_3 
REMARK    1  A    between atoms: C1_2  and  C19_31 
REMARK    2  A    between atoms: N1_3  and  C2_5 
REMARK    3  A    between atoms: N2_8  and  C5_9 
REMARK    4  A    between atoms: C5_9  and  C6_10 
REMARK    5  A    between atoms: C6_10  and  C7_11 
REMARK    6  A    between atoms: C7_11  and  N3_12 
REMARK    7  A    between atoms: N3_12  and  C8_15 
REMARK    8  A    between atoms: C8_15  and  C9_16 
REMARK    9  A    between atoms: C11_18  and  N4_19 
REMARK   10  A    between atoms: C21_35  and  N6_36 
REMARK   11  A    between atoms: C26_44  and  O5_45 
REMARK   12  A    between atoms: O5_45  and  C27_46 
ROOT
HETATM    1  C2  UNL     1      18.232  24.335  15.155  1.00  0.00     0.088 C 
HETATM    2  C3  UNL     1      17.563  25.702  15.203  1.00  0.00     0.055 C 
HETATM    3  C4  UNL     1      18.302  26.579  14.195  1.00  0.00     0.274 C 
HETATM    4  N2  UNL     1      19.712  26.561  14.369  1.00  0.00     0.088 N 
HETATM    5  C17 UNL     1      20.193  25.846  15.488  1.00  0.00     0.274 C 
HETATM    6  C18 UNL     1      19.662  24.425  15.591  1.00  0.00     0.055 C 
ENDROOT
BRANCH   1   7
HETATM    7  N1  UNL     1      17.540  23.345  15.938  1.00  0.00    -0.352 N 
HETATM    8  C1  UNL     1      16.533  22.546  15.427  1.00  0.00     0.257 C 
HETATM    9  O1  UNL     1      16.240  22.745  14.183  1.00  0.00    -0.267 OA
ATOM     10  H1  UNL     1      17.804  23.228  16.915  1.00  0.00     0.163 HD
BRANCH   8  11
HETATM   11  C19 UNL     1      15.781  21.518  16.136  1.00  0.00     0.099 A 
HETATM   12  C20 UNL     1      14.515  21.152  15.648  1.00  0.00     0.127 A 
HETATM   13  N5  UNL     1      13.769  20.214  16.243  1.00  0.00    -0.201 N 
HETATM   14  C21 UNL     1      14.183  19.564  17.345  1.00  0.00     0.682 A 
ATOM     15  H5  UNL     1      12.857  19.986  15.849  1.00  0.00     0.183 HD
HETATM   16  N7  UNL     1      15.391  19.906  17.819  1.00  0.00    -0.169 N 
HETATM   17  C26 UNL     1      16.184  20.849  17.253  1.00  0.00     0.175 A 
ATOM     18  H7  UNL     1      15.732  19.430  18.654  1.00  0.00     0.186 HD
BRANCH  14  19
HETATM   19  N6  UNL     1      13.384  18.567  17.968  1.00  0.00    -0.214 N 
HETATM   20  C22 UNL     1      12.044  18.307  17.513  1.00  0.00     0.167 C 
HETATM   21  C23 UNL     1      11.090  17.966  18.634  1.00  0.00     0.188 C 
HETATM   22  O4  UNL     1      11.669  17.173  19.598  1.00  0.00    -0.388 OA
HETATM   23  C24 UNL     1      12.797  17.768  20.122  1.00  0.00     0.188 C 
HETATM   24  C25 UNL     1      13.914  17.804  19.069  1.00  0.00     0.167 C 
ENDBRANCH  14  19
BRANCH  17  25
HETATM   25  O5  UNL     1      17.407  21.115  17.832  1.00  0.00    -0.329 OA
BRANCH  25  26
HETATM   26  C27 UNL     1      17.505  21.651  19.105  1.00  0.00     0.130 C 
HETATM   27  C28 UNL     1      18.899  21.588  19.688  1.00  0.00     0.032 C 
HETATM   28  C29 UNL     1      18.725  22.442  20.942  1.00  0.00     0.002 C 
HETATM   29  C30 UNL     1      17.724  23.489  20.557  1.00  0.00     0.002 C 
HETATM   30  C31 UNL     1      17.204  23.129  19.181  1.00  0.00     0.032 C 
ENDBRANCH  25  26
ENDBRANCH  17  25
ENDBRANCH   8  11
ENDBRANCH   1   7
BRANCH   4  31
HETATM   31  C5  UNL     1      20.190  27.916  14.352  1.00  0.00     0.274 C 
BRANCH  31  32
HETATM   32  C6  UNL     1      21.677  27.920  14.122  1.00  0.00     0.057 C 
BRANCH  32  33
HETATM   33  C7  UNL     1      22.212  29.350  13.919  1.00  0.00     0.234 C 
BRANCH  33  34
HETATM   34  N3  UNL     1      22.761  29.891  15.121  1.00  0.00    -0.071 N 
ATOM     35  H32 UNL     1      22.608  30.898  15.173  1.00  0.00     0.277 HD
ATOM     36  H31 UNL     1      22.219  29.600  15.935  1.00  0.00     0.277 HD
BRANCH  34  37
HETATM   37  C8  UNL     1      24.166  29.568  15.288  1.00  0.00     0.278 C 
BRANCH  37  38
HETATM   38  C9  UNL     1      24.318  28.385  16.214  1.00  0.00     0.010 A 
HETATM   39  C10 UNL     1      23.425  27.957  17.161  1.00  0.00     0.047 A 
HETATM   40  C11 UNL     1      23.766  26.871  17.877  1.00  0.00     0.052 A 
HETATM   41  C16 UNL     1      24.972  26.290  17.600  1.00  0.00     0.080 A 
HETATM   42  S2  UNL     1      25.596  27.270  16.351  1.00  0.00    -0.102 SA
BRANCH  40  43
HETATM   43  N4  UNL     1      22.912  26.315  18.905  1.00  0.00    -0.275 N 
HETATM   44  C12 UNL     1      21.948  25.282  18.624  1.00  0.00     0.142 C 
HETATM   45  C13 UNL     1      20.853  25.332  19.663  1.00  0.00     0.022 C 
HETATM   46  C14 UNL     1      21.341  24.838  20.993  1.00  0.00     0.018 C 
HETATM   47  C15 UNL     1      22.385  25.714  21.612  1.00  0.00     0.163 C 
HETATM   48  S1  UNL     1      23.059  26.910  20.509  1.00  0.00     0.233 S 
HETATM   49  O2  UNL     1      24.504  27.138  20.887  1.00  0.00    -0.205 OA
HETATM   50  O3  UNL     1      22.361  28.241  20.665  1.00  0.00    -0.205 OA
ENDBRANCH  40  43
ENDBRANCH  37  38
ENDBRANCH  34  37
ENDBRANCH  33  34
ENDBRANCH  32  33
ENDBRANCH  31  32
ENDBRANCH   4  31
TORSDOF 12
ENDMDL
