MODEL 1
REMARK VINA RESULT: -7.622805808      0.000      0.000
REMARK  16 active torsions:
REMARK  status: ('A' for Active; 'I' for Inactive)
REMARK    1  A    between atoms: O1_2  and  C2_3 
REMARK    2  A    between atoms: C2_3  and  C3_5 
REMARK    3  A    between atoms: C3_5  and  N1_6 
REMARK    4  A    between atoms: C6_9  and  C7_10 
REMARK    5  A    between atoms: C7_10  and  C8_11 
REMARK    6  A    between atoms: C8_11  and  C9_12 
REMARK       I    between atoms: N2_13  and  C10_15 
REMARK    7  A    between atoms: C10_15  and  C11_17 
REMARK    8  A    between atoms: C14_21  and  C15_22 
REMARK    9  A    between atoms: C16_25  and  S1_26 
REMARK   10  A    between atoms: S1_26  and  C17_27 
REMARK   11  A    between atoms: C19_29  and  C20_30 
REMARK   12  A    between atoms: C20_30  and  O7_32 
REMARK   13  A    between atoms: O7_32  and  C21_33 
REMARK   14  A    between atoms: C25_37  and  O8_38 
REMARK   15  A    between atoms: C27_40  and  C28_41 
REMARK   16  A    between atoms: C28_41  and  C29_42 
ROOT
HETATM    1  C11 UNL     1      15.853  22.294  16.389  1.00  0.00     0.124 C 
HETATM    2  C12 UNL     1      16.057  21.568  17.718  1.00  0.00     0.096 C 
HETATM    3  C13 UNL     1      16.697  20.212  17.557  1.00  0.00     0.033 C 
HETATM    4  N3  UNL     1      17.018  22.572  18.067  1.00  0.00    -0.363 N 
HETATM    5  C14 UNL     1      17.894  23.515  18.715  1.00  0.00     0.122 C 
HETATM    6  C16 UNL     1      18.310  24.441  17.827  1.00  0.00     0.018 C 
HETATM    7  C27 UNL     1      17.545  24.222  16.569  1.00  0.00     0.052 C 
HETATM    8  C30 UNL     1      17.271  22.718  16.619  1.00  0.00     0.109 C 
ENDROOT
BRANCH   1   9
HETATM    9  C10 UNL     1      14.859  23.366  16.518  1.00  0.00     0.229 C 
HETATM   10  N2  UNL     1      14.565  24.108  15.329  1.00  0.00    -0.340 N 
HETATM   11  C9  UNL     1      13.472  23.890  14.659  1.00  0.00     0.064 C 
ATOM     12  H2  UNL     1      15.221  24.818  15.004  1.00  0.00     0.167 HD
HETATM   13  O3  UNL     1      14.252  23.687  17.562  1.00  0.00    -0.273 OA
BRANCH  11  14
HETATM   14  C8  UNL     1      12.480  22.880  15.072  1.00  0.00     0.045 C 
BRANCH  14  15
HETATM   15  C7  UNL     1      12.568  21.702  14.138  1.00  0.00     0.010 C 
BRANCH  15  16
HETATM   16  C6  UNL     1      11.887  20.475  14.708  1.00  0.00    -0.011 C 
HETATM   17  C5  UNL     1      12.157  20.325  16.184  1.00  0.00     0.035 C 
HETATM   18  C4  UNL     1      11.598  19.015  16.655  1.00  0.00     0.273 C 
HETATM   19  N1  UNL     1      10.211  18.791  16.243  1.00  0.00     0.097 N 
HETATM   20  C32 UNL     1       9.669  19.996  15.660  1.00  0.00     0.273 C 
HETATM   21  C31 UNL     1      10.422  20.428  14.404  1.00  0.00     0.035 C 
BRANCH  19  22
HETATM   22  C3  UNL     1      10.118  17.649  15.382  1.00  0.00     0.382 C 
BRANCH  22  23
HETATM   23  C2  UNL     1      10.331  16.347  15.992  1.00  0.00     0.286 C 
HETATM   24  O2  UNL     1      10.953  15.471  15.310  1.00  0.00    -0.263 OA
BRANCH  23  25
HETATM   25  O1  UNL     1       9.927  15.976  17.240  1.00  0.00    -0.325 OA
HETATM   26  C1  UNL     1       9.732  14.630  17.643  1.00  0.00     0.213 C 
ENDBRANCH  23  25
ENDBRANCH  22  23
ENDBRANCH  19  22
ENDBRANCH  15  16
ENDBRANCH  14  15
ENDBRANCH  11  14
ENDBRANCH   1   9
BRANCH   7  27
HETATM   27  C28 UNL     1      18.166  24.520  15.286  1.00  0.00     0.023 C 
BRANCH  27  28
HETATM   28  C29 UNL     1      17.942  25.852  14.650  1.00  0.00     0.087 C 
HETATM   29  S2  UNL     1      19.603  26.605  14.414  1.00  0.00    -0.098 SA
ENDBRANCH  27  28
ENDBRANCH   7  27
BRANCH   5  30
HETATM   30  C15 UNL     1      18.112  23.453  20.141  1.00  0.00     0.227 C 
HETATM   31  O4  UNL     1      18.049  24.435  20.886  1.00  0.00    -0.643 OA
HETATM   32  O5  UNL     1      18.416  22.204  20.737  1.00  0.00    -0.643 OA
ENDBRANCH   5  30
BRANCH   6  33
HETATM   33  S1  UNL     1      19.404  25.797  18.118  1.00  0.00    -0.124 SA
BRANCH  33  34
HETATM   34  C17 UNL     1      20.964  25.271  18.742  1.00  0.00     0.083 C 
HETATM   35  C18 UNL     1      21.414  25.841  20.102  1.00  0.00     0.035 C 
HETATM   36  C19 UNL     1      22.802  25.620  19.538  1.00  0.00     0.117 C 
HETATM   37  C25 UNL     1      22.173  26.118  18.221  1.00  0.00     0.148 C 
BRANCH  36  38
HETATM   38  C20 UNL     1      23.871  26.431  20.090  1.00  0.00     0.266 C 
HETATM   39  O6  UNL     1      24.936  26.594  19.441  1.00  0.00    -0.265 OA
BRANCH  38  40
HETATM   40  O7  UNL     1      23.747  27.029  21.311  1.00  0.00    -0.311 OA
BRANCH  40  41
HETATM   41  C21 UNL     1      24.172  26.488  22.538  1.00  0.00     0.060 C 
HETATM   42  C22 UNL     1      25.587  26.936  22.884  1.00  0.00     0.045 C 
HETATM   43  C23 UNL     1      24.105  24.979  22.568  1.00  0.00     0.045 C 
HETATM   44  C24 UNL     1      23.266  27.016  23.627  1.00  0.00     0.045 C 
ENDBRANCH  40  41
ENDBRANCH  38  40
ENDBRANCH  36  38
BRANCH  37  45
HETATM   45  O8  UNL     1      21.804  27.446  18.270  1.00  0.00    -0.389 OA
HETATM   46  C26 UNL     1      22.167  28.151  17.136  1.00  0.00     0.202 C 
ENDBRANCH  37  45
ENDBRANCH  33  34
ENDBRANCH   6  33
TORSDOF 16
ENDMDL
MODEL 2
REMARK VINA RESULT: -7.539182343      3.572      5.990
REMARK  16 active torsions:
REMARK  status: ('A' for Active; 'I' for Inactive)
REMARK    1  A    between atoms: O1_2  and  C2_3 
REMARK    2  A    between atoms: C2_3  and  C3_5 
REMARK    3  A    between atoms: C3_5  and  N1_6 
REMARK    4  A    between atoms: C6_9  and  C7_10 
REMARK    5  A    between atoms: C7_10  and  C8_11 
REMARK    6  A    between atoms: C8_11  and  C9_12 
REMARK       I    between atoms: N2_13  and  C10_15 
REMARK    7  A    between atoms: C10_15  and  C11_17 
REMARK    8  A    between atoms: C14_21  and  C15_22 
REMARK    9  A    between atoms: C16_25  and  S1_26 
REMARK   10  A    between atoms: S1_26  and  C17_27 
REMARK   11  A    between atoms: C19_29  and  C20_30 
REMARK   12  A    between atoms: C20_30  and  O7_32 
REMARK   13  A    between atoms: O7_32  and  C21_33 
REMARK   14  A    between atoms: C25_37  and  O8_38 
REMARK   15  A    between atoms: C27_40  and  C28_41 
REMARK   16  A    between atoms: C28_41  and  C29_42 
ROOT
HETATM    1  C11 UNL     1      18.880  25.347  18.574  1.00  0.00     0.124 C 
HETATM    2  C12 UNL     1      18.495  24.988  17.140  1.00  0.00     0.096 C 
HETATM    3  C13 UNL     1      17.193  25.611  16.706  1.00  0.00     0.033 C 
HETATM    4  N3  UNL     1      19.624  25.750  16.694  1.00  0.00    -0.363 N 
HETATM    5  C14 UNL     1      20.756  26.312  16.002  1.00  0.00     0.122 C 
HETATM    6  C16 UNL     1      21.484  27.068  16.849  1.00  0.00     0.018 C 
HETATM    7  C27 UNL     1      20.925  26.865  18.213  1.00  0.00     0.052 C 
HETATM    8  C30 UNL     1      19.456  26.563  17.916  1.00  0.00     0.109 C 
ENDROOT
BRANCH   1   9
HETATM    9  C10 UNL     1      19.873  24.406  19.107  1.00  0.00     0.229 C 
HETATM   10  N2  UNL     1      19.882  24.226  20.528  1.00  0.00    -0.340 N 
HETATM   11  C9  UNL     1      19.358  23.166  21.070  1.00  0.00     0.064 C 
ATOM     12  H2  UNL     1      20.305  24.939  21.122  1.00  0.00     0.167 HD
HETATM   13  O3  UNL     1      20.704  23.754  18.439  1.00  0.00    -0.273 OA
BRANCH  11  14
HETATM   14  C8  UNL     1      18.730  22.098  20.270  1.00  0.00     0.045 C 
BRANCH  14  15
HETATM   15  C7  UNL     1      17.251  22.365  20.181  1.00  0.00     0.010 C 
BRANCH  15  16
HETATM   16  C6  UNL     1      16.739  22.242  18.759  1.00  0.00    -0.011 C 
HETATM   17  C5  UNL     1      17.693  21.463  17.890  1.00  0.00     0.035 C 
HETATM   18  C4  UNL     1      17.218  21.515  16.469  1.00  0.00     0.273 C 
HETATM   19  N1  UNL     1      15.803  21.172  16.314  1.00  0.00     0.097 N 
HETATM   20  C32 UNL     1      15.280  20.664  17.562  1.00  0.00     0.273 C 
HETATM   21  C31 UNL     1      15.348  21.694  18.687  1.00  0.00     0.035 C 
BRANCH  19  22
HETATM   22  C3  UNL     1      15.065  22.287  15.798  1.00  0.00     0.382 C 
BRANCH  22  23
HETATM   23  C2  UNL     1      14.593  22.184  14.428  1.00  0.00     0.286 C 
HETATM   24  O2  UNL     1      15.301  21.516  13.608  1.00  0.00    -0.263 OA
BRANCH  23  25
HETATM   25  O1  UNL     1      13.449  22.739  13.936  1.00  0.00    -0.325 OA
HETATM   26  C1  UNL     1      12.156  22.186  14.120  1.00  0.00     0.213 C 
ENDBRANCH  23  25
ENDBRANCH  22  23
ENDBRANCH  19  22
ENDBRANCH  15  16
ENDBRANCH  14  15
ENDBRANCH  11  14
ENDBRANCH   1   9
BRANCH   7  27
HETATM   27  C28 UNL     1      20.970  27.953  19.181  1.00  0.00     0.023 C 
BRANCH  27  28
HETATM   28  C29 UNL     1      21.345  27.665  20.597  1.00  0.00     0.087 C 
HETATM   29  S2  UNL     1      22.972  26.811  20.543  1.00  0.00    -0.098 SA
ENDBRANCH  27  28
ENDBRANCH   7  27
BRANCH   5  30
HETATM   30  C15 UNL     1      21.038  25.941  14.635  1.00  0.00     0.227 C 
HETATM   31  O4  UNL     1      20.648  26.585  13.657  1.00  0.00    -0.643 OA
HETATM   32  O5  UNL     1      21.803  24.776  14.383  1.00  0.00    -0.643 OA
ENDBRANCH   5  30
BRANCH   6  33
HETATM   33  S1  UNL     1      22.952  27.981  16.487  1.00  0.00    -0.124 SA
BRANCH  33  34
HETATM   34  C17 UNL     1      24.335  26.931  16.201  1.00  0.00     0.083 C 
HETATM   35  C18 UNL     1      24.676  25.893  17.290  1.00  0.00     0.035 C 
HETATM   36  C19 UNL     1      26.084  26.056  16.757  1.00  0.00     0.117 C 
HETATM   37  C25 UNL     1      25.702  27.546  16.652  1.00  0.00     0.148 C 
BRANCH  36  38
HETATM   38  C20 UNL     1      27.170  25.730  17.662  1.00  0.00     0.266 C 
HETATM   39  O6  UNL     1      28.345  25.629  17.226  1.00  0.00    -0.265 OA
BRANCH  38  40
HETATM   40  O7  UNL     1      26.944  25.528  18.993  1.00  0.00    -0.311 OA
BRANCH  40  41
HETATM   41  C21 UNL     1      26.959  24.284  19.650  1.00  0.00     0.060 C 
HETATM   42  C22 UNL     1      28.355  23.938  20.156  1.00  0.00     0.045 C 
HETATM   43  C23 UNL     1      26.449  23.157  18.783  1.00  0.00     0.045 C 
HETATM   44  C24 UNL     1      26.064  24.379  20.865  1.00  0.00     0.045 C 
ENDBRANCH  40  41
ENDBRANCH  38  40
ENDBRANCH  36  38
BRANCH  37  45
HETATM   45  O8  UNL     1      25.507  28.138  17.882  1.00  0.00    -0.389 OA
HETATM   46  C26 UNL     1      26.217  29.317  18.034  1.00  0.00     0.202 C 
ENDBRANCH  37  45
ENDBRANCH  33  34
ENDBRANCH   6  33
TORSDOF 16
ENDMDL
MODEL 3
REMARK VINA RESULT: -7.483839320      3.237      5.615
REMARK  16 active torsions:
REMARK  status: ('A' for Active; 'I' for Inactive)
REMARK    1  A    between atoms: O1_2  and  C2_3 
REMARK    2  A    between atoms: C2_3  and  C3_5 
REMARK    3  A    between atoms: C3_5  and  N1_6 
REMARK    4  A    between atoms: C6_9  and  C7_10 
REMARK    5  A    between atoms: C7_10  and  C8_11 
REMARK    6  A    between atoms: C8_11  and  C9_12 
REMARK       I    between atoms: N2_13  and  C10_15 
REMARK    7  A    between atoms: C10_15  and  C11_17 
REMARK    8  A    between atoms: C14_21  and  C15_22 
REMARK    9  A    between atoms: C16_25  and  S1_26 
REMARK   10  A    between atoms: S1_26  and  C17_27 
REMARK   11  A    between atoms: C19_29  and  C20_30 
REMARK   12  A    between atoms: C20_30  and  O7_32 
REMARK   13  A    between atoms: O7_32  and  C21_33 
REMARK   14  A    between atoms: C25_37  and  O8_38 
REMARK   15  A    between atoms: C27_40  and  C28_41 
REMARK   16  A    between atoms: C28_41  and  C29_42 
ROOT
HETATM    1  C11 UNL     1      17.850  24.483  17.678  1.00  0.00     0.124 C 
HETATM    2  C12 UNL     1      17.764  24.665  16.164  1.00  0.00     0.096 C 
HETATM    3  C13 UNL     1      16.777  25.728  15.753  1.00  0.00     0.033 C 
HETATM    4  N3  UNL     1      19.106  25.167  16.193  1.00  0.00    -0.363 N 
HETATM    5  C14 UNL     1      20.468  25.555  15.927  1.00  0.00     0.122 C 
HETATM    6  C16 UNL     1      21.110  25.804  17.086  1.00  0.00     0.018 C 
HETATM    7  C27 UNL     1      20.200  25.395  18.191  1.00  0.00     0.052 C 
HETATM    8  C30 UNL     1      18.821  25.619  17.570  1.00  0.00     0.109 C 
ENDROOT
BRANCH   1   9
HETATM    9  C10 UNL     1      18.451  23.190  18.023  1.00  0.00     0.229 C 
HETATM   10  N2  UNL     1      18.437  22.830  19.409  1.00  0.00    -0.340 N 
HETATM   11  C9  UNL     1      17.582  21.963  19.866  1.00  0.00     0.064 C 
ATOM     12  H2  UNL     1      19.108  23.260  20.047  1.00  0.00     0.167 HD
HETATM   13  O3  UNL     1      18.969  22.381  17.224  1.00  0.00    -0.273 OA
BRANCH  11  14
HETATM   14  C8  UNL     1      16.587  21.304  19.000  1.00  0.00     0.045 C 
BRANCH  14  15
HETATM   15  C7  UNL     1      15.313  22.108  19.026  1.00  0.00     0.010 C 
BRANCH  15  16
HETATM   16  C6  UNL     1      14.146  21.338  18.440  1.00  0.00    -0.011 C 
HETATM   17  C5  UNL     1      14.265  21.205  16.943  1.00  0.00     0.035 C 
HETATM   18  C4  UNL     1      13.011  20.583  16.404  1.00  0.00     0.273 C 
HETATM   19  N1  UNL     1      12.611  19.367  17.115  1.00  0.00     0.097 N 
HETATM   20  C32 UNL     1      13.656  18.963  18.027  1.00  0.00     0.273 C 
HETATM   21  C31 UNL     1      13.933  20.013  19.101  1.00  0.00     0.035 C 
BRANCH  19  22
HETATM   22  C3  UNL     1      11.338  19.548  17.749  1.00  0.00     0.382 C 
BRANCH  22  23
HETATM   23  C2  UNL     1      10.793  18.406  18.463  1.00  0.00     0.286 C 
HETATM   24  O2  UNL     1      10.808  18.443  19.736  1.00  0.00    -0.263 OA
BRANCH  23  25
HETATM   25  O1  UNL     1      10.257  17.290  17.892  1.00  0.00    -0.325 OA
HETATM   26  C1  UNL     1      11.010  16.141  17.538  1.00  0.00     0.213 C 
ENDBRANCH  23  25
ENDBRANCH  22  23
ENDBRANCH  19  22
ENDBRANCH  15  16
ENDBRANCH  14  15
ENDBRANCH  11  14
ENDBRANCH   1   9
BRANCH   7  27
HETATM   27  C28 UNL     1      20.239  26.110  19.460  1.00  0.00     0.023 C 
BRANCH  27  28
HETATM   28  C29 UNL     1      21.172  25.655  20.533  1.00  0.00     0.087 C 
HETATM   29  S2  UNL     1      21.685  27.162  21.453  1.00  0.00    -0.098 SA
ENDBRANCH  27  28
ENDBRANCH   7  27
BRANCH   5  30
HETATM   30  C15 UNL     1      20.992  25.516  14.582  1.00  0.00     0.227 C 
HETATM   31  O4  UNL     1      21.777  24.654  14.178  1.00  0.00    -0.643 OA
HETATM   32  O5  UNL     1      20.594  26.516  13.660  1.00  0.00    -0.643 OA
ENDBRANCH   5  30
BRANCH   6  33
HETATM   33  S1  UNL     1      22.784  26.325  17.300  1.00  0.00    -0.124 SA
BRANCH  33  34
HETATM   34  C17 UNL     1      22.976  28.058  17.058  1.00  0.00     0.083 C 
HETATM   35  C18 UNL     1      22.584  28.631  15.681  1.00  0.00     0.035 C 
HETATM   36  C19 UNL     1      23.630  29.674  16.012  1.00  0.00     0.117 C 
HETATM   37  C25 UNL     1      24.411  28.478  16.593  1.00  0.00     0.148 C 
BRANCH  36  38
HETATM   38  C20 UNL     1      24.245  30.365  14.894  1.00  0.00     0.266 C 
HETATM   39  O6  UNL     1      23.701  30.337  13.761  1.00  0.00    -0.265 OA
BRANCH  38  40
HETATM   40  O7  UNL     1      25.414  31.054  15.045  1.00  0.00    -0.311 OA
BRANCH  40  41
HETATM   41  C21 UNL     1      25.567  32.273  15.730  1.00  0.00     0.060 C 
HETATM   42  C22 UNL     1      25.976  32.049  17.181  1.00  0.00     0.045 C 
HETATM   43  C23 UNL     1      24.323  33.130  15.688  1.00  0.00     0.045 C 
HETATM   44  C24 UNL     1      26.688  33.048  15.073  1.00  0.00     0.045 C 
ENDBRANCH  40  41
ENDBRANCH  38  40
ENDBRANCH  36  38
BRANCH  37  45
HETATM   45  O8  UNL     1      24.815  27.580  15.626  1.00  0.00    -0.389 OA
HETATM   46  C26 UNL     1      26.161  27.267  15.707  1.00  0.00     0.202 C 
ENDBRANCH  37  45
ENDBRANCH  33  34
ENDBRANCH   6  33
TORSDOF 16
ENDMDL
MODEL 4
REMARK VINA RESULT: -7.461349176      3.667      6.094
REMARK  16 active torsions:
REMARK  status: ('A' for Active; 'I' for Inactive)
REMARK    1  A    between atoms: O1_2  and  C2_3 
REMARK    2  A    between atoms: C2_3  and  C3_5 
REMARK    3  A    between atoms: C3_5  and  N1_6 
REMARK    4  A    between atoms: C6_9  and  C7_10 
REMARK    5  A    between atoms: C7_10  and  C8_11 
REMARK    6  A    between atoms: C8_11  and  C9_12 
REMARK       I    between atoms: N2_13  and  C10_15 
REMARK    7  A    between atoms: C10_15  and  C11_17 
REMARK    8  A    between atoms: C14_21  and  C15_22 
REMARK    9  A    between atoms: C16_25  and  S1_26 
REMARK   10  A    between atoms: S1_26  and  C17_27 
REMARK   11  A    between atoms: C19_29  and  C20_30 
REMARK   12  A    between atoms: C20_30  and  O7_32 
REMARK   13  A    between atoms: O7_32  and  C21_33 
REMARK   14  A    between atoms: C25_37  and  O8_38 
REMARK   15  A    between atoms: C27_40  and  C28_41 
REMARK   16  A    between atoms: C28_41  and  C29_42 
ROOT
HETATM    1  C11 UNL     1      19.864  26.456  16.172  1.00  0.00     0.124 C 
HETATM    2  C12 UNL     1      20.693  27.123  15.076  1.00  0.00     0.096 C 
HETATM    3  C13 UNL     1      20.249  28.533  14.777  1.00  0.00     0.033 C 
HETATM    4  N3  UNL     1      21.813  27.095  15.968  1.00  0.00    -0.363 N 
HETATM    5  C14 UNL     1      23.109  27.053  16.597  1.00  0.00     0.122 C 
HETATM    6  C16 UNL     1      22.981  26.686  17.889  1.00  0.00     0.018 C 
HETATM    7  C27 UNL     1      21.561  26.291  18.097  1.00  0.00     0.052 C 
HETATM    8  C30 UNL     1      20.833  27.160  17.071  1.00  0.00     0.109 C 
ENDROOT
BRANCH   1   9
HETATM    9  C10 UNL     1      20.009  24.996  16.131  1.00  0.00     0.229 C 
HETATM   10  N2  UNL     1      19.306  24.258  17.137  1.00  0.00    -0.340 N 
HETATM   11  C9  UNL     1      18.202  23.631  16.857  1.00  0.00     0.064 C 
ATOM     12  H2  UNL     1      19.678  24.222  18.087  1.00  0.00     0.167 HD
HETATM   13  O3  UNL     1      20.685  24.345  15.305  1.00  0.00    -0.273 OA
BRANCH  11  14
HETATM   14  C8  UNL     1      17.610  23.640  15.506  1.00  0.00     0.045 C 
BRANCH  14  15
HETATM   15  C7  UNL     1      16.112  23.727  15.633  1.00  0.00     0.010 C 
BRANCH  15  16
HETATM   16  C6  UNL     1      15.549  22.600  16.477  1.00  0.00    -0.011 C 
HETATM   17  C5  UNL     1      14.595  23.115  17.525  1.00  0.00     0.035 C 
HETATM   18  C4  UNL     1      14.200  21.984  18.428  1.00  0.00     0.273 C 
HETATM   19  N1  UNL     1      13.758  20.789  17.706  1.00  0.00     0.097 N 
HETATM   20  C32 UNL     1      13.618  21.087  16.299  1.00  0.00     0.273 C 
HETATM   21  C31 UNL     1      14.937  21.509  15.656  1.00  0.00     0.035 C 
BRANCH  19  22
HETATM   22  C3  UNL     1      14.633  19.686  17.971  1.00  0.00     0.382 C 
BRANCH  22  23
HETATM   23  C2  UNL     1      14.017  18.459  18.450  1.00  0.00     0.286 C 
HETATM   24  O2  UNL     1      14.611  17.362  18.195  1.00  0.00    -0.263 OA
BRANCH  23  25
HETATM   25  O1  UNL     1      12.855  18.375  19.156  1.00  0.00    -0.325 OA
HETATM   26  C1  UNL     1      12.727  18.740  20.521  1.00  0.00     0.213 C 
ENDBRANCH  23  25
ENDBRANCH  22  23
ENDBRANCH  19  22
ENDBRANCH  15  16
ENDBRANCH  14  15
ENDBRANCH  11  14
ENDBRANCH   1   9
BRANCH   7  27
HETATM   27  C28 UNL     1      20.934  26.510  19.393  1.00  0.00     0.023 C 
BRANCH  27  28
HETATM   28  C29 UNL     1      20.984  25.434  20.427  1.00  0.00     0.087 C 
HETATM   29  S2  UNL     1      19.261  24.827  20.634  1.00  0.00    -0.098 SA
ENDBRANCH  27  28
ENDBRANCH   7  27
BRANCH   5  30
HETATM   30  C15 UNL     1      24.308  27.261  15.821  1.00  0.00     0.227 C 
HETATM   31  O4  UNL     1      25.161  26.389  15.631  1.00  0.00    -0.643 OA
HETATM   32  O5  UNL     1      24.537  28.532  15.237  1.00  0.00    -0.643 OA
ENDBRANCH   5  30
BRANCH   6  33
HETATM   33  S1  UNL     1      24.264  26.503  19.088  1.00  0.00    -0.124 SA
BRANCH  33  34
HETATM   34  C17 UNL     1      24.738  24.822  19.305  1.00  0.00     0.083 C 
HETATM   35  C18 UNL     1      25.583  24.476  20.548  1.00  0.00     0.035 C 
HETATM   36  C19 UNL     1      26.107  23.363  19.665  1.00  0.00     0.117 C 
HETATM   37  C25 UNL     1      26.056  24.433  18.556  1.00  0.00     0.148 C 
BRANCH  36  38
HETATM   38  C20 UNL     1      27.417  22.830  19.990  1.00  0.00     0.266 C 
HETATM   39  O6  UNL     1      28.162  23.441  20.798  1.00  0.00    -0.265 OA
BRANCH  38  40
HETATM   40  O7  UNL     1      27.866  21.668  19.432  1.00  0.00    -0.311 OA
BRANCH  40  41
HETATM   41  C21 UNL     1      27.511  20.370  19.841  1.00  0.00     0.060 C 
HETATM   42  C22 UNL     1      26.277  19.870  19.099  1.00  0.00     0.045 C 
HETATM   43  C23 UNL     1      27.274  20.267  21.329  1.00  0.00     0.045 C 
HETATM   44  C24 UNL     1      28.645  19.434  19.485  1.00  0.00     0.045 C 
ENDBRANCH  40  41
ENDBRANCH  38  40
ENDBRANCH  36  38
BRANCH  37  45
HETATM   45  O8  UNL     1      26.964  25.453  18.753  1.00  0.00    -0.389 OA
HETATM   46  C26 UNL     1      27.816  25.634  17.677  1.00  0.00     0.202 C 
ENDBRANCH  37  45
ENDBRANCH  33  34
ENDBRANCH   6  33
TORSDOF 16
ENDMDL
MODEL 5
REMARK VINA RESULT: -7.366537379      3.502     12.524
REMARK  16 active torsions:
REMARK  status: ('A' for Active; 'I' for Inactive)
REMARK    1  A    between atoms: O1_2  and  C2_3 
REMARK    2  A    between atoms: C2_3  and  C3_5 
REMARK    3  A    between atoms: C3_5  and  N1_6 
REMARK    4  A    between atoms: C6_9  and  C7_10 
REMARK    5  A    between atoms: C7_10  and  C8_11 
REMARK    6  A    between atoms: C8_11  and  C9_12 
REMARK       I    between atoms: N2_13  and  C10_15 
REMARK    7  A    between atoms: C10_15  and  C11_17 
REMARK    8  A    between atoms: C14_21  and  C15_22 
REMARK    9  A    between atoms: C16_25  and  S1_26 
REMARK   10  A    between atoms: S1_26  and  C17_27 
REMARK   11  A    between atoms: C19_29  and  C20_30 
REMARK   12  A    between atoms: C20_30  and  O7_32 
REMARK   13  A    between atoms: O7_32  and  C21_33 
REMARK   14  A    between atoms: C25_37  and  O8_38 
REMARK   15  A    between atoms: C27_40  and  C28_41 
REMARK   16  A    between atoms: C28_41  and  C29_42 
ROOT
HETATM    1  C11 UNL     1      16.869  22.490  17.365  1.00  0.00     0.124 C 
HETATM    2  C12 UNL     1      16.646  23.450  16.198  1.00  0.00     0.096 C 
HETATM    3  C13 UNL     1      17.602  23.220  15.055  1.00  0.00     0.033 C 
HETATM    4  N3  UNL     1      15.383  22.813  15.973  1.00  0.00    -0.363 N 
HETATM    5  C14 UNL     1      14.029  22.457  15.633  1.00  0.00     0.122 C 
HETATM    6  C16 UNL     1      13.668  21.339  16.296  1.00  0.00     0.018 C 
HETATM    7  C27 UNL     1      14.757  21.026  17.260  1.00  0.00     0.052 C 
HETATM    8  C30 UNL     1      15.986  21.595  16.551  1.00  0.00     0.109 C 
ENDROOT
BRANCH   1   9
HETATM    9  C10 UNL     1      16.258  23.003  18.597  1.00  0.00     0.229 C 
HETATM   10  N2  UNL     1      16.734  22.441  19.826  1.00  0.00    -0.340 N 
HETATM   11  C9  UNL     1      17.562  23.097  20.584  1.00  0.00     0.064 C 
ATOM     12  H2  UNL     1      16.418  21.513  20.110  1.00  0.00     0.167 HD
HETATM   13  O3  UNL     1      15.370  23.878  18.670  1.00  0.00    -0.273 OA
BRANCH  11  14
HETATM   14  C8  UNL     1      18.058  24.441  20.234  1.00  0.00     0.045 C 
BRANCH  14  15
HETATM   15  C7  UNL     1      19.562  24.400  20.164  1.00  0.00     0.010 C 
BRANCH  15  16
HETATM   16  C6  UNL     1      20.106  25.363  19.126  1.00  0.00    -0.011 C 
HETATM   17  C5  UNL     1      21.610  25.301  19.047  1.00  0.00     0.035 C 
HETATM   18  C4  UNL     1      22.099  26.383  18.130  1.00  0.00     0.273 C 
HETATM   19  N1  UNL     1      21.401  26.415  16.843  1.00  0.00     0.097 N 
HETATM   20  C32 UNL     1      20.557  25.250  16.711  1.00  0.00     0.273 C 
HETATM   21  C31 UNL     1      19.471  25.190  17.783  1.00  0.00     0.035 C 
BRANCH  19  22
HETATM   22  C3  UNL     1      20.696  27.652  16.681  1.00  0.00     0.382 C 
BRANCH  22  23
HETATM   23  C2  UNL     1      20.449  28.094  15.319  1.00  0.00     0.286 C 
HETATM   24  O2  UNL     1      20.701  29.310  15.039  1.00  0.00    -0.263 OA
BRANCH  23  25
HETATM   25  O1  UNL     1      19.973  27.320  14.304  1.00  0.00    -0.325 OA
HETATM   26  C1  UNL     1      18.662  26.780  14.265  1.00  0.00     0.213 C 
ENDBRANCH  23  25
ENDBRANCH  22  23
ENDBRANCH  19  22
ENDBRANCH  15  16
ENDBRANCH  14  15
ENDBRANCH  11  14
ENDBRANCH   1   9
BRANCH   7  27
HETATM   27  C28 UNL     1      15.041  19.639  17.603  1.00  0.00     0.023 C 
BRANCH  27  28
HETATM   28  C29 UNL     1      14.464  19.054  18.849  1.00  0.00     0.087 C 
HETATM   29  S2  UNL     1      13.540  17.548  18.340  1.00  0.00    -0.098 SA
ENDBRANCH  27  28
ENDBRANCH   7  27
BRANCH   5  30
HETATM   30  C15 UNL     1      13.231  23.322  14.797  1.00  0.00     0.227 C 
HETATM   31  O4  UNL     1      12.840  24.439  15.145  1.00  0.00    -0.643 OA
HETATM   32  O5  UNL     1      12.865  22.880  13.501  1.00  0.00    -0.643 OA
ENDBRANCH   5  30
BRANCH   6  33
HETATM   33  S1  UNL     1      12.121  20.490  16.212  1.00  0.00    -0.124 SA
BRANCH  33  34
HETATM   34  C17 UNL     1      11.809  19.834  14.609  1.00  0.00     0.083 C 
HETATM   35  C18 UNL     1      10.487  20.234  13.922  1.00  0.00     0.035 C 
HETATM   36  C19 UNL     1      10.639  18.892  13.238  1.00  0.00     0.117 C 
HETATM   37  C25 UNL     1      11.134  18.422  14.621  1.00  0.00     0.148 C 
BRANCH  36  38
HETATM   38  C20 UNL     1       9.427  18.268  12.741  1.00  0.00     0.266 C 
HETATM   39  O6  UNL     1       8.375  18.946  12.617  1.00  0.00    -0.265 OA
BRANCH  38  40
HETATM   40  O7  UNL     1       9.400  16.947  12.398  1.00  0.00    -0.311 OA
BRANCH  40  41
HETATM   41  C21 UNL     1      10.087  16.365  11.317  1.00  0.00     0.060 C 
HETATM   42  C22 UNL     1      11.528  16.033  11.686  1.00  0.00     0.045 C 
HETATM   43  C23 UNL     1      10.076  17.231  10.079  1.00  0.00     0.045 C 
HETATM   44  C24 UNL     1       9.410  15.056  10.976  1.00  0.00     0.045 C 
ENDBRANCH  40  41
ENDBRANCH  38  40
ENDBRANCH  36  38
BRANCH  37  45
HETATM   45  O8  UNL     1      10.144  18.442  15.581  1.00  0.00    -0.389 OA
HETATM   46  C26 UNL     1      10.040  17.249  16.277  1.00  0.00     0.202 C 
ENDBRANCH  37  45
ENDBRANCH  33  34
ENDBRANCH   6  33
TORSDOF 16
ENDMDL
