MODEL 1
REMARK VINA RESULT: -9.880378427      0.000      0.000
REMARK  13 active torsions:
REMARK  status: ('A' for Active; 'I' for Inactive)
REMARK       I    between atoms: C1_2  and  N1_3 
REMARK       I    between atoms: C1_2  and  N3_23 
REMARK    1  A    between atoms: N1_3  and  C2_5 
REMARK    2  A    between atoms: C2_5  and  C3_6 
REMARK    3  A    between atoms: C3_6  and  C4_7 
REMARK    4  A    between atoms: C4_7  and  C5_8 
REMARK    5  A    between atoms: C5_8  and  C6_9 
REMARK    6  A    between atoms: C6_9  and  C7_10 
REMARK    7  A    between atoms: C7_10  and  N2_11 
REMARK    8  A    between atoms: C11_15  and  C12_16 
REMARK    9  A    between atoms: C12_16  and  C13_18 
REMARK   10  A    between atoms: N3_23  and  C17_25 
REMARK   11  A    between atoms: C17_25  and  C18_26 
REMARK   12  A    between atoms: C18_26  and  C19_27 
REMARK   13  A    between atoms: C19_27  and  N4_28 
ROOT
HETATM    1  C17 UNL     1      14.510  21.007  18.586  1.00  0.00     0.129 C 
ENDROOT
BRANCH   1   2
HETATM    2  N3  UNL     1      13.791  21.812  17.630  1.00  0.00    -0.343 N 
HETATM    3  C1  UNL     1      13.259  21.188  16.457  1.00  0.00     0.316 C 
HETATM    4  O1  UNL     1      13.404  19.952  16.256  1.00  0.00    -0.247 OA
HETATM    5  N1  UNL     1      12.559  21.973  15.510  1.00  0.00    -0.343 N 
ATOM      6  H1  UNL     1      12.458  22.968  15.712  1.00  0.00     0.164 HD
ATOM      7  H3  UNL     1      13.664  22.812  17.788  1.00  0.00     0.164 HD
BRANCH   5   8
HETATM    8  C2  UNL     1      11.979  21.491  14.291  1.00  0.00     0.124 C 
BRANCH   8   9
HETATM    9  C3  UNL     1      10.508  21.895  14.202  1.00  0.00     0.020 C 
BRANCH   9  10
HETATM   10  C4  UNL     1       9.616  20.757  14.599  1.00  0.00     0.002 C 
BRANCH  10  11
HETATM   11  C5  UNL     1       9.420  19.763  13.483  1.00  0.00     0.002 C 
BRANCH  11  12
HETATM   12  C6  UNL     1       9.540  18.351  13.920  1.00  0.00     0.020 C 
BRANCH  12  13
HETATM   13  C7  UNL     1      10.788  18.046  14.681  1.00  0.00     0.129 C 
BRANCH  13  14
HETATM   14  N2  UNL     1      10.528  17.054  15.696  1.00  0.00    -0.354 N 
HETATM   15  C8  UNL     1      10.238  15.773  15.353  1.00  0.00     0.091 A 
HETATM   16  C9  UNL     1       9.993  15.040  16.486  1.00  0.00     0.020 A 
HETATM   17  C10 UNL     1      10.146  15.929  17.533  1.00  0.00     0.035 A 
HETATM   18  C11 UNL     1      10.481  17.184  17.036  1.00  0.00     0.087 A 
BRANCH  18  19
HETATM   19  C12 UNL     1      10.748  18.358  17.847  1.00  0.00     0.232 C 
HETATM   20  O2  UNL     1      10.184  19.451  17.587  1.00  0.00    -0.283 OA
BRANCH  19  21
HETATM   21  C13 UNL     1      11.658  18.357  18.988  1.00  0.00     0.127 A 
HETATM   22  C14 UNL     1      12.907  17.749  19.028  1.00  0.00     0.043 A 
HETATM   23  C15 UNL     1      13.443  17.974  20.267  1.00  0.00     0.027 A 
HETATM   24  C16 UNL     1      12.499  18.714  20.946  1.00  0.00     0.142 A 
HETATM   25  O3  UNL     1      11.491  18.903  20.152  1.00  0.00    -0.319 OA
ENDBRANCH  19  21
ENDBRANCH  18  19
ENDBRANCH  13  14
ENDBRANCH  12  13
ENDBRANCH  11  12
ENDBRANCH  10  11
ENDBRANCH   9  10
ENDBRANCH   8   9
ENDBRANCH   5   8
ENDBRANCH   1   2
BRANCH   1  26
HETATM   26  C18 UNL     1      15.824  21.689  18.945  1.00  0.00     0.064 C 
BRANCH  26  27
HETATM   27  C19 UNL     1      16.259  22.617  17.838  1.00  0.00     0.065 C 
BRANCH  27  28
HETATM   28  N4  UNL     1      17.231  23.560  18.208  1.00  0.00    -0.372 N 
HETATM   29  C20 UNL     1      17.300  24.012  19.536  1.00  0.00     0.065 C 
HETATM   30  C21 UNL     1      18.585  23.749  20.248  1.00  0.00     0.071 C 
HETATM   31  C22 UNL     1      19.291  24.951  20.774  1.00  0.00     0.172 C 
HETATM   32  O4  UNL     1      20.115  25.612  19.915  1.00  0.00    -0.389 OA
HETATM   33  C23 UNL     1      21.298  25.016  19.584  1.00  0.00     0.193 C 
HETATM   34  C24 UNL     1      22.346  24.963  20.634  1.00  0.00     0.193 C 
HETATM   35  O5  UNL     1      23.165  26.044  20.762  1.00  0.00    -0.387 OA
HETATM   36  C25 UNL     1      23.026  27.068  19.877  1.00  0.00     0.193 C 
HETATM   37  C26 UNL     1      23.999  26.962  18.698  1.00  0.00     0.193 C 
HETATM   38  O6  UNL     1      23.573  27.860  17.758  1.00  0.00    -0.387 OA
HETATM   39  C27 UNL     1      24.448  28.050  16.704  1.00  0.00     0.193 C 
HETATM   40  C28 UNL     1      23.889  27.717  15.368  1.00  0.00     0.193 C 
HETATM   41  O7  UNL     1      23.170  28.735  14.778  1.00  0.00    -0.387 OA
HETATM   42  C29 UNL     1      22.141  29.227  15.542  1.00  0.00     0.193 C 
HETATM   43  C30 UNL     1      21.022  28.223  15.741  1.00  0.00     0.193 C 
HETATM   44  O8  UNL     1      20.191  28.144  14.632  1.00  0.00    -0.387 OA
HETATM   45  C31 UNL     1      19.831  26.807  14.366  1.00  0.00     0.193 C 
HETATM   46  C32 UNL     1      19.251  26.123  15.573  1.00  0.00     0.193 C 
HETATM   47  O9  UNL     1      17.926  25.762  15.413  1.00  0.00    -0.387 OA
HETATM   48  C33 UNL     1      17.442  25.503  16.711  1.00  0.00     0.187 C 
HETATM   49  C34 UNL     1      18.016  24.174  17.219  1.00  0.00     0.153 C 
ENDBRANCH  27  28
ENDBRANCH  26  27
ENDBRANCH   1  26
TORSDOF 13
ENDMDL
MODEL 2
REMARK VINA RESULT: -9.764524578      1.580      3.827
REMARK  13 active torsions:
REMARK  status: ('A' for Active; 'I' for Inactive)
REMARK       I    between atoms: C1_2  and  N1_3 
REMARK       I    between atoms: C1_2  and  N3_23 
REMARK    1  A    between atoms: N1_3  and  C2_5 
REMARK    2  A    between atoms: C2_5  and  C3_6 
REMARK    3  A    between atoms: C3_6  and  C4_7 
REMARK    4  A    between atoms: C4_7  and  C5_8 
REMARK    5  A    between atoms: C5_8  and  C6_9 
REMARK    6  A    between atoms: C6_9  and  C7_10 
REMARK    7  A    between atoms: C7_10  and  N2_11 
REMARK    8  A    between atoms: C11_15  and  C12_16 
REMARK    9  A    between atoms: C12_16  and  C13_18 
REMARK   10  A    between atoms: N3_23  and  C17_25 
REMARK   11  A    between atoms: C17_25  and  C18_26 
REMARK   12  A    between atoms: C18_26  and  C19_27 
REMARK   13  A    between atoms: C19_27  and  N4_28 
ROOT
HETATM    1  C17 UNL     1      15.888  20.391  17.372  1.00  0.00     0.129 C 
ENDROOT
BRANCH   1   2
HETATM    2  N3  UNL     1      14.864  20.485  18.382  1.00  0.00    -0.343 N 
HETATM    3  C1  UNL     1      14.227  19.287  18.838  1.00  0.00     0.316 C 
HETATM    4  O1  UNL     1      14.554  18.161  18.376  1.00  0.00    -0.247 OA
HETATM    5  N1  UNL     1      13.214  19.371  19.824  1.00  0.00    -0.343 N 
ATOM      6  H1  UNL     1      12.983  20.300  20.177  1.00  0.00     0.164 HD
ATOM      7  H3  UNL     1      14.597  21.392  18.766  1.00  0.00     0.164 HD
BRANCH   5   8
HETATM    8  C2  UNL     1      12.487  18.264  20.370  1.00  0.00     0.124 C 
BRANCH   8   9
HETATM    9  C3  UNL     1      11.231  17.989  19.543  1.00  0.00     0.020 C 
BRANCH   9  10
HETATM   10  C4  UNL     1      11.430  16.800  18.649  1.00  0.00     0.002 C 
BRANCH  10  11
HETATM   11  C5  UNL     1      11.072  17.091  17.215  1.00  0.00     0.002 C 
BRANCH  11  12
HETATM   12  C6  UNL     1      10.623  18.486  16.988  1.00  0.00     0.020 C 
BRANCH  12  13
HETATM   13  C7  UNL     1      11.617  19.345  16.278  1.00  0.00     0.129 C 
BRANCH  13  14
HETATM   14  N2  UNL     1      10.943  20.342  15.482  1.00  0.00    -0.354 N 
HETATM   15  C8  UNL     1       9.643  20.652  15.719  1.00  0.00     0.091 A 
HETATM   16  C9  UNL     1       9.223  21.590  14.811  1.00  0.00     0.020 A 
HETATM   17  C10 UNL     1      10.323  21.837  14.011  1.00  0.00     0.035 A 
HETATM   18  C11 UNL     1      11.394  21.057  14.434  1.00  0.00     0.087 A 
BRANCH  18  19
HETATM   19  C12 UNL     1      12.721  21.075  13.847  1.00  0.00     0.232 C 
HETATM   20  O2  UNL     1      12.993  20.335  12.867  1.00  0.00    -0.283 OA
BRANCH  19  21
HETATM   21  C13 UNL     1      13.803  21.926  14.332  1.00  0.00     0.127 A 
HETATM   22  C14 UNL     1      15.126  21.877  13.908  1.00  0.00     0.043 A 
HETATM   23  C15 UNL     1      15.824  22.831  14.599  1.00  0.00     0.027 A 
HETATM   24  C16 UNL     1      14.900  23.433  15.426  1.00  0.00     0.142 A 
HETATM   25  O3  UNL     1      13.750  22.865  15.224  1.00  0.00    -0.319 OA
ENDBRANCH  19  21
ENDBRANCH  18  19
ENDBRANCH  13  14
ENDBRANCH  12  13
ENDBRANCH  11  12
ENDBRANCH  10  11
ENDBRANCH   9  10
ENDBRANCH   8   9
ENDBRANCH   5   8
ENDBRANCH   1   2
BRANCH   1  26
HETATM   26  C18 UNL     1      17.049  21.310  17.733  1.00  0.00     0.064 C 
BRANCH  26  27
HETATM   27  C19 UNL     1      16.555  22.509  18.503  1.00  0.00     0.065 C 
BRANCH  27  28
HETATM   28  N4  UNL     1      17.528  23.491  18.751  1.00  0.00    -0.372 N 
HETATM   29  C20 UNL     1      17.709  23.988  20.052  1.00  0.00     0.065 C 
HETATM   30  C21 UNL     1      19.064  23.784  20.645  1.00  0.00     0.071 C 
HETATM   31  C22 UNL     1      19.779  25.022  21.065  1.00  0.00     0.172 C 
HETATM   32  O4  UNL     1      20.496  25.678  20.112  1.00  0.00    -0.389 OA
HETATM   33  C23 UNL     1      21.661  25.105  19.685  1.00  0.00     0.193 C 
HETATM   34  C24 UNL     1      22.805  25.116  20.631  1.00  0.00     0.193 C 
HETATM   35  O5  UNL     1      23.598  26.223  20.649  1.00  0.00    -0.387 OA
HETATM   36  C25 UNL     1      23.344  27.214  19.751  1.00  0.00     0.193 C 
HETATM   37  C26 UNL     1      24.202  27.097  18.488  1.00  0.00     0.193 C 
HETATM   38  O6  UNL     1      23.661  27.952  17.567  1.00  0.00    -0.387 OA
HETATM   39  C27 UNL     1      24.425  28.133  16.429  1.00  0.00     0.193 C 
HETATM   40  C28 UNL     1      23.752  27.742  15.162  1.00  0.00     0.193 C 
HETATM   41  O7  UNL     1      22.948  28.719  14.615  1.00  0.00    -0.387 OA
HETATM   42  C29 UNL     1      21.983  29.206  15.459  1.00  0.00     0.193 C 
HETATM   43  C30 UNL     1      20.919  28.179  15.794  1.00  0.00     0.193 C 
HETATM   44  O8  UNL     1      19.989  28.040  14.774  1.00  0.00    -0.387 OA
HETATM   45  C31 UNL     1      19.647  26.686  14.583  1.00  0.00     0.193 C 
HETATM   46  C32 UNL     1      19.207  26.024  15.860  1.00  0.00     0.193 C 
HETATM   47  O9  UNL     1      17.885  25.621  15.838  1.00  0.00    -0.387 OA
HETATM   48  C33 UNL     1      17.535  25.390  17.184  1.00  0.00     0.187 C 
HETATM   49  C34 UNL     1      18.195  24.096  17.673  1.00  0.00     0.153 C 
ENDBRANCH  27  28
ENDBRANCH  26  27
ENDBRANCH   1  26
TORSDOF 13
ENDMDL
MODEL 3
REMARK VINA RESULT: -9.661545632      1.350      3.436
REMARK  13 active torsions:
REMARK  status: ('A' for Active; 'I' for Inactive)
REMARK       I    between atoms: C1_2  and  N1_3 
REMARK       I    between atoms: C1_2  and  N3_23 
REMARK    1  A    between atoms: N1_3  and  C2_5 
REMARK    2  A    between atoms: C2_5  and  C3_6 
REMARK    3  A    between atoms: C3_6  and  C4_7 
REMARK    4  A    between atoms: C4_7  and  C5_8 
REMARK    5  A    between atoms: C5_8  and  C6_9 
REMARK    6  A    between atoms: C6_9  and  C7_10 
REMARK    7  A    between atoms: C7_10  and  N2_11 
REMARK    8  A    between atoms: C11_15  and  C12_16 
REMARK    9  A    between atoms: C12_16  and  C13_18 
REMARK   10  A    between atoms: N3_23  and  C17_25 
REMARK   11  A    between atoms: C17_25  and  C18_26 
REMARK   12  A    between atoms: C18_26  and  C19_27 
REMARK   13  A    between atoms: C19_27  and  N4_28 
ROOT
HETATM    1  C17 UNL     1      14.515  22.170  17.170  1.00  0.00     0.129 C 
ENDROOT
BRANCH   1   2
HETATM    2  N3  UNL     1      13.395  21.267  17.262  1.00  0.00    -0.343 N 
HETATM    3  C1  UNL     1      13.243  20.467  18.439  1.00  0.00     0.316 C 
HETATM    4  O1  UNL     1      14.065  20.549  19.391  1.00  0.00    -0.247 OA
HETATM    5  N1  UNL     1      12.151  19.571  18.534  1.00  0.00    -0.343 N 
ATOM      6  H1  UNL     1      11.505  19.539  17.746  1.00  0.00     0.164 HD
ATOM      7  H3  UNL     1      12.721  21.198  16.499  1.00  0.00     0.164 HD
BRANCH   5   8
HETATM    8  C2  UNL     1      11.874  18.706  19.642  1.00  0.00     0.124 C 
BRANCH   8   9
HETATM    9  C3  UNL     1      12.282  17.270  19.315  1.00  0.00     0.020 C 
BRANCH   9  10
HETATM   10  C4  UNL     1      11.973  16.940  17.885  1.00  0.00     0.002 C 
BRANCH  10  11
HETATM   11  C5  UNL     1      10.637  16.262  17.725  1.00  0.00     0.002 C 
BRANCH  11  12
HETATM   12  C6  UNL     1       9.895  16.693  16.516  1.00  0.00     0.020 C 
BRANCH  12  13
HETATM   13  C7  UNL     1      10.750  16.897  15.309  1.00  0.00     0.129 C 
BRANCH  13  14
HETATM   14  N2  UNL     1      10.060  17.710  14.336  1.00  0.00    -0.354 N 
HETATM   15  C8  UNL     1       9.256  17.138  13.404  1.00  0.00     0.091 A 
HETATM   16  C9  UNL     1       8.752  18.109  12.577  1.00  0.00     0.020 A 
HETATM   17  C10 UNL     1       9.284  19.295  13.045  1.00  0.00     0.035 A 
HETATM   18  C11 UNL     1      10.098  19.042  14.143  1.00  0.00     0.087 A 
BRANCH  18  19
HETATM   19  C12 UNL     1      10.800  20.054  14.912  1.00  0.00     0.232 C 
HETATM   20  O2  UNL     1      10.550  20.210  16.134  1.00  0.00    -0.283 OA
BRANCH  19  21
HETATM   21  C13 UNL     1      11.814  20.935  14.343  1.00  0.00     0.127 A 
HETATM   22  C14 UNL     1      12.851  20.543  13.505  1.00  0.00     0.043 A 
HETATM   23  C15 UNL     1      13.581  21.658  13.192  1.00  0.00     0.027 A 
HETATM   24  C16 UNL     1      12.964  22.699  13.852  1.00  0.00     0.142 A 
HETATM   25  O3  UNL     1      11.948  22.215  14.500  1.00  0.00    -0.319 OA
ENDBRANCH  19  21
ENDBRANCH  18  19
ENDBRANCH  13  14
ENDBRANCH  12  13
ENDBRANCH  11  12
ENDBRANCH  10  11
ENDBRANCH   9  10
ENDBRANCH   8   9
ENDBRANCH   5   8
ENDBRANCH   1   2
BRANCH   1  26
HETATM   26  C18 UNL     1      15.696  21.458  16.523  1.00  0.00     0.064 C 
BRANCH  26  27
HETATM   27  C19 UNL     1      16.781  21.201  17.539  1.00  0.00     0.065 C 
BRANCH  27  28
HETATM   28  N4  UNL     1      17.496  22.342  17.937  1.00  0.00    -0.372 N 
HETATM   29  C20 UNL     1      17.364  22.832  19.247  1.00  0.00     0.065 C 
HETATM   30  C21 UNL     1      18.617  22.872  20.057  1.00  0.00     0.071 C 
HETATM   31  C22 UNL     1      19.005  24.212  20.582  1.00  0.00     0.172 C 
HETATM   32  O4  UNL     1      19.732  25.014  19.756  1.00  0.00    -0.389 OA
HETATM   33  C23 UNL     1      21.038  24.681  19.533  1.00  0.00     0.193 C 
HETATM   34  C24 UNL     1      21.988  24.883  20.654  1.00  0.00     0.193 C 
HETATM   35  O5  UNL     1      22.543  26.119  20.796  1.00  0.00    -0.387 OA
HETATM   36  C25 UNL     1      22.257  27.066  19.861  1.00  0.00     0.193 C 
HETATM   37  C26 UNL     1      23.318  27.144  18.759  1.00  0.00     0.193 C 
HETATM   38  O6  UNL     1      22.783  27.904  17.755  1.00  0.00    -0.387 OA
HETATM   39  C27 UNL     1      23.675  28.253  16.758  1.00  0.00     0.193 C 
HETATM   40  C28 UNL     1      23.305  27.773  15.400  1.00  0.00     0.193 C 
HETATM   41  O7  UNL     1      22.432  28.595  14.720  1.00  0.00    -0.387 OA
HETATM   42  C29 UNL     1      21.267  28.871  15.389  1.00  0.00     0.193 C 
HETATM   43  C30 UNL     1      20.377  27.654  15.551  1.00  0.00     0.193 C 
HETATM   44  O8  UNL     1      19.670  27.368  14.391  1.00  0.00    -0.387 OA
HETATM   45  C31 UNL     1      19.627  25.979  14.156  1.00  0.00     0.193 C 
HETATM   46  C32 UNL     1      19.116  25.215  15.346  1.00  0.00     0.193 C 
HETATM   47  O9  UNL     1      17.917  24.572  15.109  1.00  0.00    -0.387 OA
HETATM   48  C33 UNL     1      17.401  24.246  16.380  1.00  0.00     0.187 C 
HETATM   49  C34 UNL     1      18.205  23.087  16.981  1.00  0.00     0.153 C 
ENDBRANCH  27  28
ENDBRANCH  26  27
ENDBRANCH   1  26
TORSDOF 13
ENDMDL
MODEL 4
REMARK VINA RESULT: -9.646453910      1.270      1.827
REMARK  13 active torsions:
REMARK  status: ('A' for Active; 'I' for Inactive)
REMARK       I    between atoms: C1_2  and  N1_3 
REMARK       I    between atoms: C1_2  and  N3_23 
REMARK    1  A    between atoms: N1_3  and  C2_5 
REMARK    2  A    between atoms: C2_5  and  C3_6 
REMARK    3  A    between atoms: C3_6  and  C4_7 
REMARK    4  A    between atoms: C4_7  and  C5_8 
REMARK    5  A    between atoms: C5_8  and  C6_9 
REMARK    6  A    between atoms: C6_9  and  C7_10 
REMARK    7  A    between atoms: C7_10  and  N2_11 
REMARK    8  A    between atoms: C11_15  and  C12_16 
REMARK    9  A    between atoms: C12_16  and  C13_18 
REMARK   10  A    between atoms: N3_23  and  C17_25 
REMARK   11  A    between atoms: C17_25  and  C18_26 
REMARK   12  A    between atoms: C18_26  and  C19_27 
REMARK   13  A    between atoms: C19_27  and  N4_28 
ROOT
HETATM    1  C17 UNL     1      14.039  21.624  18.111  1.00  0.00     0.129 C 
ENDROOT
BRANCH   1   2
HETATM    2  N3  UNL     1      13.845  20.578  17.138  1.00  0.00    -0.343 N 
HETATM    3  C1  UNL     1      13.455  20.931  15.807  1.00  0.00     0.316 C 
HETATM    4  O1  UNL     1      13.288  22.135  15.476  1.00  0.00    -0.247 OA
HETATM    5  N1  UNL     1      13.256  19.908  14.847  1.00  0.00    -0.343 N 
ATOM      6  H1  UNL     1      13.407  18.947  15.153  1.00  0.00     0.164 HD
ATOM      7  H3  UNL     1      13.985  19.600  17.394  1.00  0.00     0.164 HD
BRANCH   5   8
HETATM    8  C2  UNL     1      12.860  20.108  13.485  1.00  0.00     0.124 C 
BRANCH   8   9
HETATM    9  C3  UNL     1      12.920  18.791  12.712  1.00  0.00     0.020 C 
BRANCH   9  10
HETATM   10  C4  UNL     1      11.596  18.482  12.077  1.00  0.00     0.002 C 
BRANCH  10  11
HETATM   11  C5  UNL     1      10.981  17.216  12.613  1.00  0.00     0.002 C 
BRANCH  11  12
HETATM   12  C6  UNL     1       9.685  17.432  13.300  1.00  0.00     0.020 C 
BRANCH  12  13
HETATM   13  C7  UNL     1       9.723  17.196  14.774  1.00  0.00     0.129 C 
BRANCH  13  14
HETATM   14  N2  UNL     1       9.833  18.450  15.481  1.00  0.00    -0.354 N 
HETATM   15  C8  UNL     1       9.558  19.622  14.855  1.00  0.00     0.091 A 
HETATM   16  C9  UNL     1       9.773  20.664  15.720  1.00  0.00     0.020 A 
HETATM   17  C10 UNL     1      10.190  20.076  16.899  1.00  0.00     0.035 A 
HETATM   18  C11 UNL     1      10.224  18.695  16.746  1.00  0.00     0.087 A 
BRANCH  18  19
HETATM   19  C12 UNL     1      10.586  17.749  17.787  1.00  0.00     0.232 C 
HETATM   20  O2  UNL     1      10.081  16.598  17.803  1.00  0.00    -0.283 OA
BRANCH  19  21
HETATM   21  C13 UNL     1      11.533  18.053  18.855  1.00  0.00     0.127 A 
HETATM   22  C14 UNL     1      12.865  17.659  18.895  1.00  0.00     0.043 A 
HETATM   23  C15 UNL     1      13.410  18.140  20.055  1.00  0.00     0.027 A 
HETATM   24  C16 UNL     1      12.389  18.815  20.687  1.00  0.00     0.142 A 
HETATM   25  O3  UNL     1      11.330  18.729  19.943  1.00  0.00    -0.319 OA
ENDBRANCH  19  21
ENDBRANCH  18  19
ENDBRANCH  13  14
ENDBRANCH  12  13
ENDBRANCH  11  12
ENDBRANCH  10  11
ENDBRANCH   9  10
ENDBRANCH   8   9
ENDBRANCH   5   8
ENDBRANCH   1   2
BRANCH   1  26
HETATM   26  C18 UNL     1      15.303  21.350  18.914  1.00  0.00     0.064 C 
BRANCH  26  27
HETATM   27  C19 UNL     1      16.528  21.522  18.050  1.00  0.00     0.065 C 
BRANCH  27  28
HETATM   28  N4  UNL     1      17.320  22.636  18.368  1.00  0.00    -0.372 N 
HETATM   29  C20 UNL     1      17.286  23.175  19.666  1.00  0.00     0.065 C 
HETATM   30  C21 UNL     1      18.582  23.176  20.405  1.00  0.00     0.071 C 
HETATM   31  C22 UNL     1      19.066  24.510  20.860  1.00  0.00     0.172 C 
HETATM   32  O4  UNL     1      19.785  25.246  19.968  1.00  0.00    -0.389 OA
HETATM   33  C23 UNL     1      21.058  24.839  19.687  1.00  0.00     0.193 C 
HETATM   34  C24 UNL     1      22.078  25.028  20.748  1.00  0.00     0.193 C 
HETATM   35  O5  UNL     1      22.702  26.237  20.815  1.00  0.00    -0.387 OA
HETATM   36  C25 UNL     1      22.412  27.166  19.865  1.00  0.00     0.193 C 
HETATM   37  C26 UNL     1      23.412  27.153  18.704  1.00  0.00     0.193 C 
HETATM   38  O6  UNL     1      22.861  27.907  17.705  1.00  0.00    -0.387 OA
HETATM   39  C27 UNL     1      23.713  28.176  16.649  1.00  0.00     0.193 C 
HETATM   40  C28 UNL     1      23.244  27.672  15.331  1.00  0.00     0.193 C 
HETATM   41  O7  UNL     1      22.377  28.516  14.670  1.00  0.00    -0.387 OA
HETATM   42  C29 UNL     1      21.266  28.874  15.391  1.00  0.00     0.193 C 
HETATM   43  C30 UNL     1      20.327  27.711  15.643  1.00  0.00     0.193 C 
HETATM   44  O8  UNL     1      19.543  27.424  14.535  1.00  0.00    -0.387 OA
HETATM   45  C31 UNL     1      19.417  26.033  14.351  1.00  0.00     0.193 C 
HETATM   46  C32 UNL     1      18.935  25.336  15.594  1.00  0.00     0.193 C 
HETATM   47  O9  UNL     1      17.694  24.748  15.445  1.00  0.00    -0.387 OA
HETATM   48  C33 UNL     1      17.234  24.491  16.752  1.00  0.00     0.187 C 
HETATM   49  C34 UNL     1      18.011  23.313  17.350  1.00  0.00     0.153 C 
ENDBRANCH  27  28
ENDBRANCH  26  27
ENDBRANCH   1  26
TORSDOF 13
ENDMDL
MODEL 5
REMARK VINA RESULT: -9.473078869      2.138      5.645
REMARK  13 active torsions:
REMARK  status: ('A' for Active; 'I' for Inactive)
REMARK       I    between atoms: C1_2  and  N1_3 
REMARK       I    between atoms: C1_2  and  N3_23 
REMARK    1  A    between atoms: N1_3  and  C2_5 
REMARK    2  A    between atoms: C2_5  and  C3_6 
REMARK    3  A    between atoms: C3_6  and  C4_7 
REMARK    4  A    between atoms: C4_7  and  C5_8 
REMARK    5  A    between atoms: C5_8  and  C6_9 
REMARK    6  A    between atoms: C6_9  and  C7_10 
REMARK    7  A    between atoms: C7_10  and  N2_11 
REMARK    8  A    between atoms: C11_15  and  C12_16 
REMARK    9  A    between atoms: C12_16  and  C13_18 
REMARK   10  A    between atoms: N3_23  and  C17_25 
REMARK   11  A    between atoms: C17_25  and  C18_26 
REMARK   12  A    between atoms: C18_26  and  C19_27 
REMARK   13  A    between atoms: C19_27  and  N4_28 
ROOT
HETATM    1  C17 UNL     1      12.349  19.991  17.757  1.00  0.00     0.129 C 
ENDROOT
BRANCH   1   2
HETATM    2  N3  UNL     1      12.394  18.868  16.855  1.00  0.00    -0.343 N 
HETATM    3  C1  UNL     1      11.265  17.990  16.782  1.00  0.00     0.316 C 
HETATM    4  O1  UNL     1      10.240  18.192  17.486  1.00  0.00    -0.247 OA
HETATM    5  N1  UNL     1      11.304  16.880  15.904  1.00  0.00    -0.343 N 
ATOM      6  H1  UNL     1      12.150  16.755  15.348  1.00  0.00     0.164 HD
ATOM      7  H3  UNL     1      13.218  18.700  16.277  1.00  0.00     0.164 HD
BRANCH   5   8
HETATM    8  C2  UNL     1      10.258  15.917  15.730  1.00  0.00     0.124 C 
BRANCH   8   9
HETATM    9  C3  UNL     1      10.552  15.019  14.529  1.00  0.00     0.020 C 
BRANCH   9  10
HETATM   10  C4  UNL     1      10.283  15.742  13.242  1.00  0.00     0.002 C 
BRANCH  10  11
HETATM   11  C5  UNL     1      11.540  15.997  12.451  1.00  0.00     0.002 C 
BRANCH  11  12
HETATM   12  C6  UNL     1      11.779  17.432  12.165  1.00  0.00     0.020 C 
BRANCH  12  13
HETATM   13  C7  UNL     1      10.751  18.352  12.735  1.00  0.00     0.129 C 
BRANCH  13  14
HETATM   14  N2  UNL     1      11.380  19.524  13.295  1.00  0.00    -0.354 N 
HETATM   15  C8  UNL     1      12.727  19.683  13.230  1.00  0.00     0.091 A 
HETATM   16  C9  UNL     1      13.081  20.847  13.863  1.00  0.00     0.020 A 
HETATM   17  C10 UNL     1      11.894  21.389  14.315  1.00  0.00     0.035 A 
HETATM   18  C11 UNL     1      10.835  20.562  13.958  1.00  0.00     0.087 A 
BRANCH  18  19
HETATM   19  C12 UNL     1       9.436  20.829  14.240  1.00  0.00     0.232 C 
HETATM   20  O2  UNL     1       8.894  20.353  15.270  1.00  0.00    -0.283 OA
BRANCH  19  21
HETATM   21  C13 UNL     1       8.584  21.643  13.380  1.00  0.00     0.127 A 
HETATM   22  C14 UNL     1       7.974  21.218  12.206  1.00  0.00     0.043 A 
HETATM   23  C15 UNL     1       7.264  22.272  11.697  1.00  0.00     0.027 A 
HETATM   24  C16 UNL     1       7.464  23.310  12.582  1.00  0.00     0.142 A 
HETATM   25  O3  UNL     1       8.235  22.882  13.534  1.00  0.00    -0.319 OA
ENDBRANCH  19  21
ENDBRANCH  18  19
ENDBRANCH  13  14
ENDBRANCH  12  13
ENDBRANCH  11  12
ENDBRANCH  10  11
ENDBRANCH   9  10
ENDBRANCH   8   9
ENDBRANCH   5   8
ENDBRANCH   1   2
BRANCH   1  26
HETATM   26  C18 UNL     1      13.767  20.415  18.117  1.00  0.00     0.064 C 
BRANCH  26  27
HETATM   27  C19 UNL     1      13.881  21.919  18.141  1.00  0.00     0.065 C 
BRANCH  27  28
HETATM   28  N4  UNL     1      15.081  22.427  17.619  1.00  0.00    -0.372 N 
HETATM   29  C20 UNL     1      15.479  22.087  16.314  1.00  0.00     0.065 C 
HETATM   30  C21 UNL     1      15.636  23.227  15.364  1.00  0.00     0.071 C 
HETATM   31  C22 UNL     1      16.985  23.373  14.747  1.00  0.00     0.172 C 
HETATM   32  O4  UNL     1      17.917  24.072  15.451  1.00  0.00    -0.389 OA
HETATM   33  C23 UNL     1      17.768  25.427  15.534  1.00  0.00     0.193 C 
HETATM   34  C24 UNL     1      18.030  26.213  14.303  1.00  0.00     0.193 C 
HETATM   35  O5  UNL     1      19.317  26.579  14.051  1.00  0.00    -0.387 OA
HETATM   36  C25 UNL     1      20.268  26.272  14.974  1.00  0.00     0.193 C 
HETATM   37  C26 UNL     1      20.541  27.427  15.943  1.00  0.00     0.193 C 
HETATM   38  O6  UNL     1      21.280  26.908  16.972  1.00  0.00    -0.387 OA
HETATM   39  C27 UNL     1      21.793  27.849  17.845  1.00  0.00     0.193 C 
HETATM   40  C28 UNL     1      21.344  27.698  19.254  1.00  0.00     0.193 C 
HETATM   41  O7  UNL     1      22.082  26.802  19.998  1.00  0.00    -0.387 OA
HETATM   42  C29 UNL     1      22.169  25.544  19.457  1.00  0.00     0.193 C 
HETATM   43  C30 UNL     1      20.841  24.813  19.447  1.00  0.00     0.193 C 
HETATM   44  O8  UNL     1      20.529  24.282  20.691  1.00  0.00    -0.387 OA
HETATM   45  C31 UNL     1      19.161  24.452  20.984  1.00  0.00     0.193 C 
HETATM   46  C32 UNL     1      18.275  23.921  19.891  1.00  0.00     0.193 C 
HETATM   47  O9  UNL     1      17.496  22.851  20.290  1.00  0.00    -0.387 OA
HETATM   48  C33 UNL     1      17.039  22.248  19.101  1.00  0.00     0.187 C 
HETATM   49  C34 UNL     1      15.962  23.129  18.457  1.00  0.00     0.153 C 
ENDBRANCH  27  28
ENDBRANCH  26  27
ENDBRANCH   1  26
TORSDOF 13
ENDMDL
