MODEL 1
REMARK VINA RESULT: -9.627143849      0.000      0.000
REMARK  12 active torsions:
REMARK  status: ('A' for Active; 'I' for Inactive)
REMARK    1  A    between atoms: C2_2  and  C3_3 
REMARK    2  A    between atoms: C3_3  and  C4_5 
REMARK    3  A    between atoms: C4_5  and  O2_6 
REMARK    4  A    between atoms: C4_5  and  N1_8 
REMARK    5  A    between atoms: N1_8  and  C5_9 
REMARK    6  A    between atoms: N1_8  and  C16_25 
REMARK    7  A    between atoms: C5_9  and  C6_10 
REMARK       I    between atoms: C6_10  and  N2_12 
REMARK    8  A    between atoms: N2_12  and  C7_14 
REMARK    9  A    between atoms: C7_14  and  C8_15 
REMARK   10  A    between atoms: C7_14  and  C15_22 
REMARK   11  A    between atoms: C8_15  and  C9_16 
REMARK   12  A    between atoms: C16_25  and  C17_26 
ROOT
HETATM    1  N1  UNL     1      -6.527  18.737   1.184  1.00  0.00    -0.325 N 
ENDROOT
BRANCH   1   2
HETATM    2  C4  UNL     1      -7.147  17.634   0.596  1.00  0.00     0.190 C 
BRANCH   2   3
HETATM    3  C3  UNL     1      -7.524  17.418  -0.784  1.00  0.00     0.208 C 
HETATM    4  O1  UNL     1      -8.503  17.990  -1.322  1.00  0.00    -0.288 OA
BRANCH   3   5
HETATM    5  C2  UNL     1      -6.728  16.469  -1.647  1.00  0.00     0.025 C 
HETATM    6  C1  UNL     1      -5.420  16.126  -0.994  1.00  0.00     0.024 C 
HETATM    7  C29 UNL     1      -7.507  15.182  -1.816  1.00  0.00     0.017 C 
HETATM    8  C30 UNL     1      -8.555  15.412  -2.886  1.00  0.00     0.001 C 
HETATM    9  C31 UNL     1      -7.855  15.424  -4.216  1.00  0.00     0.000 C 
HETATM   10  C32 UNL     1      -6.529  16.114  -4.107  1.00  0.00     0.001 C 
HETATM   11  C33 UNL     1      -6.529  17.146  -2.975  1.00  0.00     0.017 C 
ENDBRANCH   3   5
ENDBRANCH   2   3
BRANCH   2  12
HETATM   12  O2  UNL     1      -7.446  16.627   1.368  1.00  0.00    -0.343 OA
ATOM     13  H2  UNL     1      -7.019  15.820   1.107  1.00  0.00     0.219 HD
ENDBRANCH   2  12
ENDBRANCH   1   2
BRANCH   1  14
HETATM   14  C5  UNL     1      -7.407  19.697   1.863  1.00  0.00     0.233 C 
BRANCH  14  15
HETATM   15  C6  UNL     1      -7.955  20.686   0.918  1.00  0.00     0.236 C 
HETATM   16  O3  UNL     1      -7.445  21.814   0.829  1.00  0.00    -0.272 OA
HETATM   17  N2  UNL     1      -9.069  20.376   0.093  1.00  0.00    -0.345 N 
ATOM     18  H2  UNL     1      -9.484  19.447   0.174  1.00  0.00     0.163 HD
BRANCH  17  19
HETATM   19  C7  UNL     1      -9.653  21.308  -0.861  1.00  0.00     0.185 C 
BRANCH  19  20
HETATM   20  C8  UNL     1      -8.884  21.244  -2.126  1.00  0.00     0.041 C 
BRANCH  20  21
HETATM   21  C9  UNL     1      -8.171  22.460  -2.583  1.00  0.00    -0.012 C 
HETATM   22  C10 UNL     1      -9.242  23.372  -3.211  1.00  0.00     0.005 C 
HETATM   23  C11 UNL     1      -9.013  23.366  -4.696  1.00  0.00     0.000 C 
HETATM   24  C12 UNL     1      -7.751  24.174  -4.953  1.00  0.00     0.000 C 
HETATM   25  C13 UNL     1      -6.625  23.478  -4.263  1.00  0.00     0.000 C 
HETATM   26  C14 UNL     1      -7.071  22.201  -3.552  1.00  0.00     0.005 C 
ENDBRANCH  20  21
ENDBRANCH  19  20
BRANCH  19  27
HETATM   27  C15 UNL     1     -11.092  21.170  -0.909  1.00  0.00     0.196 C 
HETATM   28  O4  UNL     1     -11.782  21.165   0.139  1.00  0.00    -0.646 OA
HETATM   29  O5  UNL     1     -11.752  21.041  -2.122  1.00  0.00    -0.646 OA
ENDBRANCH  19  27
ENDBRANCH  17  19
ENDBRANCH  14  15
ENDBRANCH   1  14
BRANCH   1  30
HETATM   30  C16 UNL     1      -5.145  19.001   1.198  1.00  0.00     0.105 C 
BRANCH  30  31
HETATM   31  C17 UNL     1      -4.221  17.923   1.576  1.00  0.00    -0.020 A 
HETATM   32  C18 UNL     1      -3.039  17.668   0.945  1.00  0.00     0.013 A 
HETATM   33  C19 UNL     1      -2.205  16.612   1.334  1.00  0.00     0.008 A 
HETATM   34  C20 UNL     1      -2.601  15.814   2.383  1.00  0.00    -0.052 A 
HETATM   35  C21 UNL     1      -3.775  16.026   3.049  1.00  0.00    -0.051 A 
HETATM   36  C28 UNL     1      -1.523  14.804   2.543  1.00  0.00     0.039 C 
HETATM   37  C22 UNL     1      -4.574  17.074   2.644  1.00  0.00     0.020 A 
HETATM   38  C23 UNL     1      -4.568  15.467   4.168  1.00  0.00     0.039 C 
HETATM   39  C24 UNL     1      -4.005  14.259   4.816  1.00  0.00     0.005 C 
HETATM   40  C25 UNL     1      -2.543  14.286   5.101  1.00  0.00     0.000 C 
HETATM   41  C26 UNL     1      -1.917  13.150   4.277  1.00  0.00     0.000 C 
HETATM   42  C27 UNL     1      -2.105  13.447   2.798  1.00  0.00     0.005 C 
ENDBRANCH  30  31
ENDBRANCH   1  30
TORSDOF 12
ENDMDL
MODEL 2
REMARK VINA RESULT: -9.515596323      0.979      1.422
REMARK  12 active torsions:
REMARK  status: ('A' for Active; 'I' for Inactive)
REMARK    1  A    between atoms: C2_2  and  C3_3 
REMARK    2  A    between atoms: C3_3  and  C4_5 
REMARK    3  A    between atoms: C4_5  and  O2_6 
REMARK    4  A    between atoms: C4_5  and  N1_8 
REMARK    5  A    between atoms: N1_8  and  C5_9 
REMARK    6  A    between atoms: N1_8  and  C16_25 
REMARK    7  A    between atoms: C5_9  and  C6_10 
REMARK       I    between atoms: C6_10  and  N2_12 
REMARK    8  A    between atoms: N2_12  and  C7_14 
REMARK    9  A    between atoms: C7_14  and  C8_15 
REMARK   10  A    between atoms: C7_14  and  C15_22 
REMARK   11  A    between atoms: C8_15  and  C9_16 
REMARK   12  A    between atoms: C16_25  and  C17_26 
ROOT
HETATM    1  N1  UNL     1      -6.449  18.482   1.134  1.00  0.00    -0.325 N 
ENDROOT
BRANCH   1   2
HETATM    2  C4  UNL     1      -6.976  17.319   0.572  1.00  0.00     0.190 C 
BRANCH   2   3
HETATM    3  C3  UNL     1      -6.607  16.639  -0.651  1.00  0.00     0.208 C 
HETATM    4  O1  UNL     1      -5.809  15.670  -0.679  1.00  0.00    -0.288 OA
BRANCH   3   5
HETATM    5  C2  UNL     1      -7.187  17.086  -1.971  1.00  0.00     0.025 C 
HETATM    6  C1  UNL     1      -6.543  18.364  -2.429  1.00  0.00     0.024 C 
HETATM    7  C29 UNL     1      -6.903  16.030  -3.019  1.00  0.00     0.017 C 
HETATM    8  C30 UNL     1      -7.924  14.923  -2.849  1.00  0.00     0.001 C 
HETATM    9  C31 UNL     1      -9.234  15.424  -3.387  1.00  0.00     0.000 C 
HETATM   10  C32 UNL     1      -9.426  16.871  -3.045  1.00  0.00     0.001 C 
HETATM   11  C33 UNL     1      -8.668  17.248  -1.769  1.00  0.00     0.017 C 
ENDBRANCH   3   5
ENDBRANCH   2   3
BRANCH   2  12
HETATM   12  O2  UNL     1      -7.944  16.725   1.211  1.00  0.00    -0.343 OA
ATOM     13  H2  UNL     1      -8.419  17.310   1.791  1.00  0.00     0.219 HD
ENDBRANCH   2  12
ENDBRANCH   1   2
BRANCH   1  14
HETATM   14  C5  UNL     1      -7.419  19.459   1.645  1.00  0.00     0.233 C 
BRANCH  14  15
HETATM   15  C6  UNL     1      -7.826  20.413   0.599  1.00  0.00     0.236 C 
HETATM   16  O3  UNL     1      -7.120  21.403   0.348  1.00  0.00    -0.272 OA
HETATM   17  N2  UNL     1      -9.024  20.225  -0.142  1.00  0.00    -0.345 N 
ATOM     18  H2  UNL     1      -9.599  19.410   0.072  1.00  0.00     0.163 HD
BRANCH  17  19
HETATM   19  C7  UNL     1      -9.477  21.129  -1.189  1.00  0.00     0.185 C 
BRANCH  19  20
HETATM   20  C8  UNL     1      -8.997  20.627  -2.498  1.00  0.00     0.041 C 
BRANCH  20  21
HETATM   21  C9  UNL     1      -8.486  21.606  -3.487  1.00  0.00    -0.012 C 
HETATM   22  C10 UNL     1      -8.267  20.818  -4.792  1.00  0.00     0.005 C 
HETATM   23  C11 UNL     1      -6.782  20.694  -4.991  1.00  0.00     0.000 C 
HETATM   24  C12 UNL     1      -6.273  22.070  -5.388  1.00  0.00     0.000 C 
HETATM   25  C13 UNL     1      -6.558  22.998  -4.253  1.00  0.00     0.000 C 
HETATM   26  C14 UNL     1      -7.234  22.298  -3.076  1.00  0.00     0.005 C 
ENDBRANCH  20  21
ENDBRANCH  19  20
BRANCH  19  27
HETATM   27  C15 UNL     1     -10.880  21.445  -1.033  1.00  0.00     0.196 C 
HETATM   28  O4  UNL     1     -11.528  21.056  -0.031  1.00  0.00    -0.646 OA
HETATM   29  O5  UNL     1     -11.550  22.191  -1.989  1.00  0.00    -0.646 OA
ENDBRANCH  19  27
ENDBRANCH  17  19
ENDBRANCH  14  15
ENDBRANCH   1  14
BRANCH   1  30
HETATM   30  C16 UNL     1      -5.083  18.794   1.266  1.00  0.00     0.105 C 
BRANCH  30  31
HETATM   31  C17 UNL     1      -4.145  17.725   1.639  1.00  0.00    -0.020 A 
HETATM   32  C18 UNL     1      -2.967  17.479   0.997  1.00  0.00     0.013 A 
HETATM   33  C19 UNL     1      -2.121  16.432   1.381  1.00  0.00     0.008 A 
HETATM   34  C20 UNL     1      -2.498  15.633   2.436  1.00  0.00    -0.052 A 
HETATM   35  C21 UNL     1      -3.668  15.838   3.113  1.00  0.00    -0.051 A 
HETATM   36  C28 UNL     1      -1.410  14.634   2.589  1.00  0.00     0.039 C 
HETATM   37  C22 UNL     1      -4.480  16.876   2.712  1.00  0.00     0.020 A 
HETATM   38  C23 UNL     1      -4.445  15.274   4.241  1.00  0.00     0.039 C 
HETATM   39  C24 UNL     1      -3.865  14.074   4.887  1.00  0.00     0.005 C 
HETATM   40  C25 UNL     1      -2.401  14.115   5.158  1.00  0.00     0.000 C 
HETATM   41  C26 UNL     1      -1.772  12.983   4.332  1.00  0.00     0.000 C 
HETATM   42  C27 UNL     1      -1.977  13.273   2.854  1.00  0.00     0.005 C 
ENDBRANCH  30  31
ENDBRANCH   1  30
TORSDOF 12
ENDMDL
MODEL 3
REMARK VINA RESULT: -9.469524506      1.077      1.562
REMARK  12 active torsions:
REMARK  status: ('A' for Active; 'I' for Inactive)
REMARK    1  A    between atoms: C2_2  and  C3_3 
REMARK    2  A    between atoms: C3_3  and  C4_5 
REMARK    3  A    between atoms: C4_5  and  O2_6 
REMARK    4  A    between atoms: C4_5  and  N1_8 
REMARK    5  A    between atoms: N1_8  and  C5_9 
REMARK    6  A    between atoms: N1_8  and  C16_25 
REMARK    7  A    between atoms: C5_9  and  C6_10 
REMARK       I    between atoms: C6_10  and  N2_12 
REMARK    8  A    between atoms: N2_12  and  C7_14 
REMARK    9  A    between atoms: C7_14  and  C8_15 
REMARK   10  A    between atoms: C7_14  and  C15_22 
REMARK   11  A    between atoms: C8_15  and  C9_16 
REMARK   12  A    between atoms: C16_25  and  C17_26 
ROOT
HETATM    1  N1  UNL     1      -6.616  18.615   1.058  1.00  0.00    -0.325 N 
ENDROOT
BRANCH   1   2
HETATM    2  C4  UNL     1      -7.265  17.504   0.519  1.00  0.00     0.190 C 
BRANCH   2   3
HETATM    3  C3  UNL     1      -7.662  17.245  -0.848  1.00  0.00     0.208 C 
HETATM    4  O1  UNL     1      -8.690  17.747  -1.368  1.00  0.00    -0.288 OA
BRANCH   3   5
HETATM    5  C2  UNL     1      -6.831  16.335  -1.720  1.00  0.00     0.025 C 
HETATM    6  C1  UNL     1      -5.559  15.947  -1.022  1.00  0.00     0.024 C 
HETATM    7  C29 UNL     1      -7.609  15.066  -1.994  1.00  0.00     0.017 C 
HETATM    8  C30 UNL     1      -8.601  15.360  -3.101  1.00  0.00     0.001 C 
HETATM    9  C31 UNL     1      -7.837  15.435  -4.392  1.00  0.00     0.000 C 
HETATM   10  C32 UNL     1      -6.513  16.108  -4.182  1.00  0.00     0.001 C 
HETATM   11  C33 UNL     1      -6.562  17.079  -2.999  1.00  0.00     0.017 C 
ENDBRANCH   3   5
ENDBRANCH   2   3
BRANCH   2  12
HETATM   12  O2  UNL     1      -7.574  16.533   1.331  1.00  0.00    -0.343 OA
ATOM     13  H2  UNL     1      -7.112  16.582   2.160  1.00  0.00     0.219 HD
ENDBRANCH   2  12
ENDBRANCH   1   2
BRANCH   1  14
HETATM   14  C5  UNL     1      -7.457  19.575   1.785  1.00  0.00     0.233 C 
BRANCH  14  15
HETATM   15  C6  UNL     1      -7.895  20.677   0.912  1.00  0.00     0.236 C 
HETATM   16  O3  UNL     1      -7.378  21.801   1.019  1.00  0.00    -0.272 OA
HETATM   17  N2  UNL     1      -8.907  20.484  -0.065  1.00  0.00    -0.345 N 
ATOM     18  H2  UNL     1      -9.327  19.558  -0.146  1.00  0.00     0.163 HD
BRANCH  17  19
HETATM   19  C7  UNL     1      -9.379  21.532  -0.959  1.00  0.00     0.185 C 
BRANCH  19  20
HETATM   20  C8  UNL     1      -8.551  21.524  -2.188  1.00  0.00     0.041 C 
BRANCH  20  21
HETATM   21  C9  UNL     1      -8.433  20.259  -2.952  1.00  0.00    -0.012 C 
HETATM   22  C10 UNL     1      -7.126  20.368  -3.759  1.00  0.00     0.005 C 
HETATM   23  C11 UNL     1      -7.509  20.546  -5.201  1.00  0.00     0.000 C 
HETATM   24  C12 UNL     1      -8.042  19.207  -5.685  1.00  0.00     0.000 C 
HETATM   25  C13 UNL     1      -9.254  18.888  -4.874  1.00  0.00     0.000 C 
HETATM   26  C14 UNL     1      -9.583  19.977  -3.855  1.00  0.00     0.005 C 
ENDBRANCH  20  21
ENDBRANCH  19  20
BRANCH  19  27
HETATM   27  C15 UNL     1     -10.819  21.497  -1.086  1.00  0.00     0.196 C 
HETATM   28  O4  UNL     1     -11.527  20.816  -0.305  1.00  0.00    -0.646 OA
HETATM   29  O5  UNL     1     -11.462  22.221  -2.079  1.00  0.00    -0.646 OA
ENDBRANCH  19  27
ENDBRANCH  17  19
ENDBRANCH  14  15
ENDBRANCH   1  14
BRANCH   1  30
HETATM   30  C16 UNL     1      -5.237  18.889   0.981  1.00  0.00     0.105 C 
BRANCH  30  31
HETATM   31  C17 UNL     1      -4.285  17.856   1.413  1.00  0.00    -0.020 A 
HETATM   32  C18 UNL     1      -3.080  17.626   0.816  1.00  0.00     0.013 A 
HETATM   33  C19 UNL     1      -2.219  16.612   1.256  1.00  0.00     0.008 A 
HETATM   34  C20 UNL     1      -2.610  15.831   2.319  1.00  0.00    -0.052 A 
HETATM   35  C21 UNL     1      -3.807  16.021   2.952  1.00  0.00    -0.051 A 
HETATM   36  C28 UNL     1      -1.502  14.866   2.534  1.00  0.00     0.039 C 
HETATM   37  C22 UNL     1      -4.632  17.026   2.497  1.00  0.00     0.020 A 
HETATM   38  C23 UNL     1      -4.605  15.467   4.069  1.00  0.00     0.039 C 
HETATM   39  C24 UNL     1      -4.015  14.300   4.766  1.00  0.00     0.005 C 
HETATM   40  C25 UNL     1      -2.563  14.388   5.083  1.00  0.00     0.000 C 
HETATM   41  C26 UNL     1      -1.878  13.252   4.309  1.00  0.00     0.000 C 
HETATM   42  C27 UNL     1      -2.041  13.498   2.818  1.00  0.00     0.005 C 
ENDBRANCH  30  31
ENDBRANCH   1  30
TORSDOF 12
ENDMDL
MODEL 4
REMARK VINA RESULT: -9.363133378      1.603      2.479
REMARK  12 active torsions:
REMARK  status: ('A' for Active; 'I' for Inactive)
REMARK    1  A    between atoms: C2_2  and  C3_3 
REMARK    2  A    between atoms: C3_3  and  C4_5 
REMARK    3  A    between atoms: C4_5  and  O2_6 
REMARK    4  A    between atoms: C4_5  and  N1_8 
REMARK    5  A    between atoms: N1_8  and  C5_9 
REMARK    6  A    between atoms: N1_8  and  C16_25 
REMARK    7  A    between atoms: C5_9  and  C6_10 
REMARK       I    between atoms: C6_10  and  N2_12 
REMARK    8  A    between atoms: N2_12  and  C7_14 
REMARK    9  A    between atoms: C7_14  and  C8_15 
REMARK   10  A    between atoms: C7_14  and  C15_22 
REMARK   11  A    between atoms: C8_15  and  C9_16 
REMARK   12  A    between atoms: C16_25  and  C17_26 
ROOT
HETATM    1  N1  UNL     1      -6.684  19.106   1.267  1.00  0.00    -0.325 N 
ENDROOT
BRANCH   1   2
HETATM    2  C4  UNL     1      -7.053  18.031   0.458  1.00  0.00     0.190 C 
BRANCH   2   3
HETATM    3  C3  UNL     1      -6.906  17.862  -0.971  1.00  0.00     0.208 C 
HETATM    4  O1  UNL     1      -7.016  18.812  -1.786  1.00  0.00    -0.288 OA
BRANCH   3   5
HETATM    5  C2  UNL     1      -6.609  16.499  -1.548  1.00  0.00     0.025 C 
HETATM    6  C1  UNL     1      -5.358  15.928  -0.942  1.00  0.00     0.024 C 
HETATM    7  C29 UNL     1      -7.749  15.561  -1.215  1.00  0.00     0.017 C 
HETATM    8  C30 UNL     1      -8.869  15.826  -2.200  1.00  0.00     0.001 C 
HETATM    9  C31 UNL     1      -8.468  15.229  -3.519  1.00  0.00     0.000 C 
HETATM   10  C32 UNL     1      -7.003  15.429  -3.764  1.00  0.00     0.001 C 
HETATM   11  C33 UNL     1      -6.480  16.670  -3.036  1.00  0.00     0.017 C 
ENDBRANCH   3   5
ENDBRANCH   2   3
BRANCH   2  12
HETATM   12  O2  UNL     1      -7.614  17.006   1.036  1.00  0.00    -0.343 OA
ATOM     13  H2  UNL     1      -8.384  17.241   1.541  1.00  0.00     0.219 HD
ENDBRANCH   2  12
ENDBRANCH   1   2
BRANCH   1  14
HETATM   14  C5  UNL     1      -7.770  19.981   1.728  1.00  0.00     0.233 C 
BRANCH  14  15
HETATM   15  C6  UNL     1      -8.309  20.796   0.627  1.00  0.00     0.236 C 
HETATM   16  O3  UNL     1      -7.731  21.838   0.280  1.00  0.00    -0.272 OA
HETATM   17  N2  UNL     1      -9.493  20.414  -0.060  1.00  0.00    -0.345 N 
ATOM     18  H2  UNL     1      -9.964  19.558   0.233  1.00  0.00     0.163 HD
BRANCH  17  19
HETATM   19  C7  UNL     1     -10.072  21.175  -1.157  1.00  0.00     0.185 C 
BRANCH  19  20
HETATM   20  C8  UNL     1      -9.771  20.484  -2.433  1.00  0.00     0.041 C 
BRANCH  20  21
HETATM   21  C9  UNL     1     -10.199  19.073  -2.590  1.00  0.00    -0.012 C 
HETATM   22  C10 UNL     1      -9.699  18.628  -3.978  1.00  0.00     0.005 C 
HETATM   23  C11 UNL     1     -10.905  18.502  -4.864  1.00  0.00     0.000 C 
HETATM   24  C12 UNL     1     -11.660  17.263  -4.411  1.00  0.00     0.000 C 
HETATM   25  C13 UNL     1     -12.088  17.490  -2.999  1.00  0.00     0.000 C 
HETATM   26  C14 UNL     1     -11.667  18.859  -2.470  1.00  0.00     0.005 C 
ENDBRANCH  20  21
ENDBRANCH  19  20
BRANCH  19  27
HETATM   27  C15 UNL     1     -11.441  21.544  -0.869  1.00  0.00     0.196 C 
HETATM   28  O4  UNL     1     -12.010  21.166   0.184  1.00  0.00    -0.646 OA
HETATM   29  O5  UNL     1     -12.164  22.333  -1.750  1.00  0.00    -0.646 OA
ENDBRANCH  19  27
ENDBRANCH  17  19
ENDBRANCH  14  15
ENDBRANCH   1  14
BRANCH   1  30
HETATM   30  C16 UNL     1      -5.377  19.416   1.689  1.00  0.00     0.105 C 
BRANCH  30  31
HETATM   31  C17 UNL     1      -4.408  18.323   1.854  1.00  0.00    -0.020 A 
HETATM   32  C18 UNL     1      -3.290  18.167   1.088  1.00  0.00     0.013 A 
HETATM   33  C19 UNL     1      -2.410  17.093   1.274  1.00  0.00     0.008 A 
HETATM   34  C20 UNL     1      -2.692  16.175   2.260  1.00  0.00    -0.052 A 
HETATM   35  C21 UNL     1      -3.798  16.286   3.054  1.00  0.00    -0.051 A 
HETATM   36  C28 UNL     1      -1.592  15.179   2.201  1.00  0.00     0.039 C 
HETATM   37  C22 UNL     1      -4.645  17.353   2.848  1.00  0.00     0.020 A 
HETATM   38  C23 UNL     1      -4.471  15.588   4.174  1.00  0.00     0.039 C 
HETATM   39  C24 UNL     1      -3.833  14.330   4.625  1.00  0.00     0.005 C 
HETATM   40  C25 UNL     1      -2.351  14.358   4.770  1.00  0.00     0.000 C 
HETATM   41  C26 UNL     1      -1.795  13.335   3.768  1.00  0.00     0.000 C 
HETATM   42  C27 UNL     1      -2.130  13.789   2.357  1.00  0.00     0.005 C 
ENDBRANCH  30  31
ENDBRANCH   1  30
TORSDOF 12
ENDMDL
MODEL 5
REMARK VINA RESULT: -9.360707355      1.130      1.498
REMARK  12 active torsions:
REMARK  status: ('A' for Active; 'I' for Inactive)
REMARK    1  A    between atoms: C2_2  and  C3_3 
REMARK    2  A    between atoms: C3_3  and  C4_5 
REMARK    3  A    between atoms: C4_5  and  O2_6 
REMARK    4  A    between atoms: C4_5  and  N1_8 
REMARK    5  A    between atoms: N1_8  and  C5_9 
REMARK    6  A    between atoms: N1_8  and  C16_25 
REMARK    7  A    between atoms: C5_9  and  C6_10 
REMARK       I    between atoms: C6_10  and  N2_12 
REMARK    8  A    between atoms: N2_12  and  C7_14 
REMARK    9  A    between atoms: C7_14  and  C8_15 
REMARK   10  A    between atoms: C7_14  and  C15_22 
REMARK   11  A    between atoms: C8_15  and  C9_16 
REMARK   12  A    between atoms: C16_25  and  C17_26 
ROOT
HETATM    1  N1  UNL     1      -6.383  18.604   0.832  1.00  0.00    -0.325 N 
ENDROOT
BRANCH   1   2
HETATM    2  C4  UNL     1      -6.801  17.504   0.082  1.00  0.00     0.190 C 
BRANCH   2   3
HETATM    3  C3  UNL     1      -6.622  17.231  -1.327  1.00  0.00     0.208 C 
HETATM    4  O1  UNL     1      -5.824  17.874  -2.052  1.00  0.00    -0.288 OA
BRANCH   3   5
HETATM    5  C2  UNL     1      -7.413  16.130  -1.993  1.00  0.00     0.025 C 
HETATM    6  C1  UNL     1      -7.106  14.801  -1.363  1.00  0.00     0.024 C 
HETATM    7  C29 UNL     1      -8.890  16.397  -1.803  1.00  0.00     0.017 C 
HETATM    8  C30 UNL     1      -9.309  17.432  -2.827  1.00  0.00     0.001 C 
HETATM    9  C31 UNL     1      -9.377  16.751  -4.164  1.00  0.00     0.000 C 
HETATM   10  C32 UNL     1      -8.262  15.759  -4.307  1.00  0.00     0.001 C 
HETATM   11  C33 UNL     1      -7.053  16.152  -3.453  1.00  0.00     0.017 C 
ENDBRANCH   3   5
ENDBRANCH   2   3
BRANCH   2  12
HETATM   12  O2  UNL     1      -7.450  16.561   0.704  1.00  0.00    -0.343 OA
ATOM     13  H2  UNL     1      -7.479  16.690   1.645  1.00  0.00     0.219 HD
ENDBRANCH   2  12
ENDBRANCH   1   2
BRANCH   1  14
HETATM   14  C5  UNL     1      -7.439  19.496   1.330  1.00  0.00     0.233 C 
BRANCH  14  15
HETATM   15  C6  UNL     1      -7.827  20.490   0.315  1.00  0.00     0.236 C 
HETATM   16  O3  UNL     1      -7.197  21.555   0.212  1.00  0.00    -0.272 OA
HETATM   17  N2  UNL     1      -8.920  20.258  -0.563  1.00  0.00    -0.345 N 
ATOM     18  H2  UNL     1      -9.433  19.381  -0.470  1.00  0.00     0.163 HD
BRANCH  17  19
HETATM   19  C7  UNL     1      -9.348  21.199  -1.586  1.00  0.00     0.185 C 
BRANCH  19  20
HETATM   20  C8  UNL     1      -8.956  20.674  -2.916  1.00  0.00     0.041 C 
BRANCH  20  21
HETATM   21  C9  UNL     1      -7.520  20.685  -3.285  1.00  0.00    -0.012 C 
HETATM   22  C10 UNL     1      -7.119  22.169  -3.390  1.00  0.00     0.005 C 
HETATM   23  C11 UNL     1      -6.916  22.471  -4.848  1.00  0.00     0.000 C 
HETATM   24  C12 UNL     1      -5.625  21.786  -5.266  1.00  0.00     0.000 C 
HETATM   25  C13 UNL     1      -5.813  20.318  -5.073  1.00  0.00     0.000 C 
HETATM   26  C14 UNL     1      -7.206  19.967  -4.550  1.00  0.00     0.005 C 
ENDBRANCH  20  21
ENDBRANCH  19  20
BRANCH  19  27
HETATM   27  C15 UNL     1     -10.719  21.611  -1.374  1.00  0.00     0.196 C 
HETATM   28  O4  UNL     1     -11.309  22.357  -2.192  1.00  0.00    -0.646 OA
HETATM   29  O5  UNL     1     -11.422  21.187  -0.257  1.00  0.00    -0.646 OA
ENDBRANCH  19  27
ENDBRANCH  17  19
ENDBRANCH  14  15
ENDBRANCH   1  14
BRANCH   1  30
HETATM   30  C16 UNL     1      -5.053  18.924   1.164  1.00  0.00     0.105 C 
BRANCH  30  31
HETATM   31  C17 UNL     1      -4.137  17.840   1.545  1.00  0.00    -0.020 A 
HETATM   32  C18 UNL     1      -2.964  17.567   0.906  1.00  0.00     0.013 A 
HETATM   33  C19 UNL     1      -2.138  16.505   1.298  1.00  0.00     0.008 A 
HETATM   34  C20 UNL     1      -2.532  15.722   2.359  1.00  0.00    -0.052 A 
HETATM   35  C21 UNL     1      -3.698  15.954   3.033  1.00  0.00    -0.051 A 
HETATM   36  C28 UNL     1      -1.464  14.702   2.519  1.00  0.00     0.039 C 
HETATM   37  C22 UNL     1      -4.489  17.005   2.624  1.00  0.00     0.020 A 
HETATM   38  C23 UNL     1      -4.486  15.414   4.165  1.00  0.00     0.039 C 
HETATM   39  C24 UNL     1      -3.930  14.208   4.820  1.00  0.00     0.005 C 
HETATM   40  C25 UNL     1      -2.466  14.222   5.091  1.00  0.00     0.000 C 
HETATM   41  C26 UNL     1      -1.859  13.071   4.274  1.00  0.00     0.000 C 
HETATM   42  C27 UNL     1      -2.058  13.355   2.794  1.00  0.00     0.005 C 
ENDBRANCH  30  31
ENDBRANCH   1  30
TORSDOF 12
ENDMDL
