MODEL 1
REMARK VINA RESULT: -8.277769429      0.000      0.000
REMARK  8 active torsions:
REMARK  status: ('A' for Active; 'I' for Inactive)
REMARK    1  A    between atoms: C2_2  and  C3_3 
REMARK    2  A    between atoms: C2_2  and  C10_14 
REMARK    3  A    between atoms: C4_4  and  C5_5 
REMARK       I    between atoms: C5_5  and  N1_7 
REMARK    4  A    between atoms: N1_7  and  C6_9 
REMARK    5  A    between atoms: C6_9  and  C7_10 
REMARK    6  A    between atoms: C7_10  and  N2_11 
REMARK    7  A    between atoms: C21_25  and  N3_26 
REMARK    8  A    between atoms: N3_26  and  S1_28 
ROOT
HETATM    1  C10 UNL     1      -5.862  18.670   1.339  1.00  0.00     0.001 C 
HETATM    2  C11 UNL     1      -6.111  17.401   2.171  1.00  0.00     0.006 C 
HETATM    3  C12 UNL     1      -7.216  16.629   1.487  1.00  0.00     0.006 C 
HETATM    4  C13 UNL     1      -7.075  17.164   0.088  1.00  0.00    -0.001 C 
HETATM    5  C14 UNL     1      -8.133  16.752  -0.854  1.00  0.00    -0.001 C 
HETATM    6  C15 UNL     1      -7.648  15.503  -1.560  1.00  0.00     0.033 C 
HETATM    7  C16 UNL     1      -7.113  15.723  -2.918  1.00  0.00    -0.022 C 
HETATM    8  C17 UNL     1      -7.744  16.569  -3.720  1.00  0.00    -0.065 C 
HETATM    9  C18 UNL     1      -7.302  16.866  -5.100  1.00  0.00    -0.003 C 
HETATM   10  C19 UNL     1      -6.662  18.223  -5.252  1.00  0.00     0.021 C 
HETATM   11  C20 UNL     1      -6.253  15.862  -5.542  1.00  0.00     0.021 C 
HETATM   12  C21 UNL     1      -8.543  16.728  -5.963  1.00  0.00     0.105 C 
HETATM   13  C23 UNL     1      -9.669  17.570  -5.477  1.00  0.00     0.028 C 
HETATM   14  C24 UNL     1      -9.494  18.192  -4.119  1.00  0.00     0.016 C 
HETATM   15  C25 UNL     1      -8.959  17.214  -3.148  1.00  0.00    -0.016 C 
HETATM   16  C26 UNL     1     -10.068  16.157  -2.976  1.00  0.00     0.020 C 
HETATM   17  C27 UNL     1      -8.723  17.783  -1.759  1.00  0.00     0.003 C 
HETATM   18  C28 UNL     1      -8.130  19.122  -1.715  1.00  0.00     0.007 C 
HETATM   19  C29 UNL     1      -6.819  19.246  -0.970  1.00  0.00     0.010 C 
HETATM   20  C30 UNL     1      -6.939  18.639   0.379  1.00  0.00    -0.036 C 
HETATM   21  C31 UNL     1      -8.159  19.173   1.131  1.00  0.00     0.016 C 
ENDROOT
BRANCH   1  22
HETATM   22  C2  UNL     1      -4.416  18.770   0.944  1.00  0.00     0.009 C 
HETATM   23  C1  UNL     1      -3.516  18.786   2.120  1.00  0.00     0.014 C 
BRANCH  22  24
HETATM   24  C3  UNL     1      -4.070  17.661  -0.003  1.00  0.00    -0.017 C 
HETATM   25  C4  UNL     1      -3.642  16.355   0.435  1.00  0.00     0.071 C 
BRANCH  25  26
HETATM   26  C5  UNL     1      -2.414  16.037   1.131  1.00  0.00     0.244 C 
HETATM   27  O1  UNL     1      -1.295  16.570   0.991  1.00  0.00    -0.268 OA
HETATM   28  N1  UNL     1      -2.446  14.976   2.119  1.00  0.00    -0.336 N 
ATOM     29  H1  UNL     1      -3.330  14.494   2.282  1.00  0.00     0.168 HD
BRANCH  28  30
HETATM   30  C6  UNL     1      -1.321  14.576   2.865  1.00  0.00     0.094 C 
BRANCH  30  31
HETATM   31  C7  UNL     1      -1.543  13.973   4.207  1.00  0.00     0.315 C 
BRANCH  31  32
HETATM   32  N2  UNL     1      -2.907  13.764   4.582  1.00  0.00     0.084 N 
HETATM   33  C8  UNL     1      -3.176  12.597   5.354  1.00  0.00     0.309 C 
HETATM   34  C9  UNL     1      -3.506  14.937   5.195  1.00  0.00     0.309 C 
ENDBRANCH  31  32
ENDBRANCH  30  31
ENDBRANCH  28  30
ENDBRANCH  25  26
ENDBRANCH  22  24
ENDBRANCH   1  22
BRANCH  12  35
HETATM   35  N3  UNL     1      -8.299  17.008  -7.361  1.00  0.00    -0.314 N 
ATOM     36  H3  UNL     1      -7.818  17.847  -7.688  1.00  0.00     0.172 HD
BRANCH  35  37
HETATM   37  S1  UNL     1      -8.898  15.794  -8.419  1.00  0.00     0.223 S 
HETATM   38  C22 UNL     1      -8.383  16.079 -10.098  1.00  0.00     0.185 C 
HETATM   39  O2  UNL     1      -8.338  14.471  -7.986  1.00  0.00    -0.206 OA
HETATM   40  O3  UNL     1     -10.399  15.732  -8.449  1.00  0.00    -0.206 OA
ENDBRANCH  35  37
ENDBRANCH  12  35
TORSDOF 8
ENDMDL
MODEL 2
REMARK VINA RESULT: -7.710953933      3.951      5.239
REMARK  8 active torsions:
REMARK  status: ('A' for Active; 'I' for Inactive)
REMARK    1  A    between atoms: C2_2  and  C3_3 
REMARK    2  A    between atoms: C2_2  and  C10_14 
REMARK    3  A    between atoms: C4_4  and  C5_5 
REMARK       I    between atoms: C5_5  and  N1_7 
REMARK    4  A    between atoms: N1_7  and  C6_9 
REMARK    5  A    between atoms: C6_9  and  C7_10 
REMARK    6  A    between atoms: C7_10  and  N2_11 
REMARK    7  A    between atoms: C21_25  and  N3_26 
REMARK    8  A    between atoms: N3_26  and  S1_28 
ROOT
HETATM    1  C10 UNL     1      -8.105  15.873  -1.520  1.00  0.00     0.001 C 
HETATM    2  C11 UNL     1      -7.753  14.836  -2.600  1.00  0.00     0.006 C 
HETATM    3  C12 UNL     1      -8.062  15.465  -3.939  1.00  0.00     0.006 C 
HETATM    4  C13 UNL     1      -7.970  16.919  -3.568  1.00  0.00    -0.001 C 
HETATM    5  C14 UNL     1      -8.393  17.866  -4.618  1.00  0.00    -0.001 C 
HETATM    6  C15 UNL     1      -7.156  18.254  -5.402  1.00  0.00     0.033 C 
HETATM    7  C16 UNL     1      -6.579  19.565  -5.044  1.00  0.00    -0.022 C 
HETATM    8  C17 UNL     1      -7.400  20.581  -4.821  1.00  0.00    -0.065 C 
HETATM    9  C18 UNL     1      -6.936  21.938  -4.460  1.00  0.00    -0.003 C 
HETATM   10  C19 UNL     1      -7.161  22.291  -3.011  1.00  0.00     0.021 C 
HETATM   11  C20 UNL     1      -5.440  22.059  -4.688  1.00  0.00     0.021 C 
HETATM   12  C21 UNL     1      -7.675  22.882  -5.391  1.00  0.00     0.105 C 
HETATM   13  C23 UNL     1      -9.151  22.694  -5.334  1.00  0.00     0.028 C 
HETATM   14  C24 UNL     1      -9.637  21.477  -4.597  1.00  0.00     0.016 C 
HETATM   15  C25 UNL     1      -8.851  20.280  -4.966  1.00  0.00    -0.016 C 
HETATM   16  C26 UNL     1      -9.175  20.018  -6.450  1.00  0.00     0.020 C 
HETATM   17  C27 UNL     1      -9.265  19.015  -4.233  1.00  0.00     0.003 C 
HETATM   18  C28 UNL     1      -9.557  19.178  -2.806  1.00  0.00     0.007 C 
HETATM   19  C29 UNL     1      -8.729  18.338  -1.856  1.00  0.00     0.010 C 
HETATM   20  C30 UNL     1      -8.754  16.916  -2.278  1.00  0.00    -0.036 C 
HETATM   21  C31 UNL     1     -10.183  16.418  -2.497  1.00  0.00     0.016 C 
ENDROOT
BRANCH   1  22
HETATM   22  C2  UNL     1      -6.925  16.127  -0.624  1.00  0.00     0.009 C 
HETATM   23  C1  UNL     1      -5.910  16.992  -1.270  1.00  0.00     0.014 C 
BRANCH  22  24
HETATM   24  C3  UNL     1      -7.392  16.701   0.680  1.00  0.00    -0.017 C 
HETATM   25  C4  UNL     1      -6.655  17.703   1.409  1.00  0.00     0.071 C 
BRANCH  25  26
HETATM   26  C5  UNL     1      -5.360  17.540   2.034  1.00  0.00     0.244 C 
HETATM   27  O1  UNL     1      -4.327  18.211   1.840  1.00  0.00    -0.268 OA
HETATM   28  N1  UNL     1      -5.204  16.479   3.010  1.00  0.00    -0.336 N 
ATOM     29  H1  UNL     1      -6.010  15.888   3.215  1.00  0.00     0.168 HD
BRANCH  28  30
HETATM   30  C6  UNL     1      -3.998  16.222   3.690  1.00  0.00     0.094 C 
BRANCH  30  31
HETATM   31  C7  UNL     1      -4.004  15.202   4.773  1.00  0.00     0.315 C 
BRANCH  31  32
HETATM   32  N2  UNL     1      -2.921  14.268   4.761  1.00  0.00     0.084 N 
HETATM   33  C8  UNL     1      -3.253  12.916   5.063  1.00  0.00     0.309 C 
HETATM   34  C9  UNL     1      -2.127  14.347   3.549  1.00  0.00     0.309 C 
ENDBRANCH  31  32
ENDBRANCH  30  31
ENDBRANCH  28  30
ENDBRANCH  25  26
ENDBRANCH  22  24
ENDBRANCH   1  22
BRANCH  12  35
HETATM   35  N3  UNL     1      -7.357  24.275  -5.163  1.00  0.00    -0.314 N 
ATOM     36  H3  UNL     1      -7.389  24.711  -4.241  1.00  0.00     0.172 HD
BRANCH  35  37
HETATM   37  S1  UNL     1      -6.921  25.122  -6.592  1.00  0.00     0.223 S 
HETATM   38  C22 UNL     1      -7.004  26.884  -6.358  1.00  0.00     0.185 C 
HETATM   39  O2  UNL     1      -5.504  24.771  -6.937  1.00  0.00    -0.206 OA
HETATM   40  O3  UNL     1      -7.824  24.814  -7.754  1.00  0.00    -0.206 OA
ENDBRANCH  35  37
ENDBRANCH  12  35
TORSDOF 8
ENDMDL
MODEL 3
REMARK VINA RESULT: -7.661319258      1.894      3.173
REMARK  8 active torsions:
REMARK  status: ('A' for Active; 'I' for Inactive)
REMARK    1  A    between atoms: C2_2  and  C3_3 
REMARK    2  A    between atoms: C2_2  and  C10_14 
REMARK    3  A    between atoms: C4_4  and  C5_5 
REMARK       I    between atoms: C5_5  and  N1_7 
REMARK    4  A    between atoms: N1_7  and  C6_9 
REMARK    5  A    between atoms: C6_9  and  C7_10 
REMARK    6  A    between atoms: C7_10  and  N2_11 
REMARK    7  A    between atoms: C21_25  and  N3_26 
REMARK    8  A    between atoms: N3_26  and  S1_28 
ROOT
HETATM    1  C10 UNL     1      -8.202  21.132  -0.651  1.00  0.00     0.001 C 
HETATM    2  C11 UNL     1      -9.557  20.842   0.017  1.00  0.00     0.006 C 
HETATM    3  C12 UNL     1     -10.478  20.309  -1.056  1.00  0.00     0.006 C 
HETATM    4  C13 UNL     1      -9.461  19.784  -2.032  1.00  0.00    -0.001 C 
HETATM    5  C14 UNL     1     -10.004  19.330  -3.326  1.00  0.00    -0.001 C 
HETATM    6  C15 UNL     1     -10.275  17.844  -3.206  1.00  0.00     0.033 C 
HETATM    7  C16 UNL     1      -9.248  16.974  -3.812  1.00  0.00    -0.022 C 
HETATM    8  C17 UNL     1      -8.730  17.321  -4.982  1.00  0.00    -0.065 C 
HETATM    9  C18 UNL     1      -7.699  16.526  -5.683  1.00  0.00    -0.003 C 
HETATM   10  C19 UNL     1      -6.322  17.139  -5.633  1.00  0.00     0.021 C 
HETATM   11  C20 UNL     1      -7.566  15.157  -5.042  1.00  0.00     0.021 C 
HETATM   12  C21 UNL     1      -8.199  16.380  -7.109  1.00  0.00     0.105 C 
HETATM   13  C23 UNL     1      -8.507  17.693  -7.739  1.00  0.00     0.028 C 
HETATM   14  C24 UNL     1      -8.526  18.882  -6.820  1.00  0.00     0.016 C 
HETATM   15  C25 UNL     1      -9.261  18.581  -5.572  1.00  0.00    -0.016 C 
HETATM   16  C26 UNL     1     -10.727  18.368  -6.001  1.00  0.00     0.020 C 
HETATM   17  C27 UNL     1      -9.294  19.729  -4.577  1.00  0.00     0.003 C 
HETATM   18  C28 UNL     1      -8.037  20.466  -4.421  1.00  0.00     0.007 C 
HETATM   19  C29 UNL     1      -7.456  20.504  -3.023  1.00  0.00     0.010 C 
HETATM   20  C30 UNL     1      -8.489  20.940  -2.052  1.00  0.00    -0.036 C 
HETATM   21  C31 UNL     1      -9.173  22.233  -2.500  1.00  0.00     0.016 C 
ENDROOT
BRANCH   1  22
HETATM   22  C2  UNL     1      -7.093  20.412   0.062  1.00  0.00     0.009 C 
HETATM   23  C1  UNL     1      -6.617  21.159   1.249  1.00  0.00     0.014 C 
BRANCH  22  24
HETATM   24  C3  UNL     1      -7.537  19.026   0.422  1.00  0.00    -0.017 C 
HETATM   25  C4  UNL     1      -7.041  18.314   1.574  1.00  0.00     0.071 C 
BRANCH  25  26
HETATM   26  C5  UNL     1      -5.686  17.851   1.786  1.00  0.00     0.244 C 
HETATM   27  O1  UNL     1      -4.647  18.234   1.212  1.00  0.00    -0.268 OA
HETATM   28  N1  UNL     1      -5.468  16.814   2.778  1.00  0.00    -0.336 N 
ATOM     29  H1  UNL     1      -6.276  16.451   3.283  1.00  0.00     0.168 HD
BRANCH  28  30
HETATM   30  C6  UNL     1      -4.199  16.284   3.079  1.00  0.00     0.094 C 
BRANCH  30  31
HETATM   31  C7  UNL     1      -4.030  15.548   4.360  1.00  0.00     0.315 C 
BRANCH  31  32
HETATM   32  N2  UNL     1      -2.957  14.603   4.403  1.00  0.00     0.084 N 
HETATM   33  C8  UNL     1      -3.287  13.297   4.869  1.00  0.00     0.309 C 
HETATM   34  C9  UNL     1      -2.221  14.534   3.154  1.00  0.00     0.309 C 
ENDBRANCH  31  32
ENDBRANCH  30  31
ENDBRANCH  28  30
ENDBRANCH  25  26
ENDBRANCH  22  24
ENDBRANCH   1  22
BRANCH  12  35
HETATM   35  N3  UNL     1      -7.293  15.638  -7.959  1.00  0.00    -0.314 N 
ATOM     36  H3  UNL     1      -6.301  15.860  -8.046  1.00  0.00     0.172 HD
BRANCH  35  37
HETATM   37  S1  UNL     1      -8.048  14.348  -8.805  1.00  0.00     0.223 S 
HETATM   38  C22 UNL     1      -7.530  14.293 -10.507  1.00  0.00     0.185 C 
HETATM   39  O2  UNL     1      -7.641  13.056  -8.160  1.00  0.00    -0.206 OA
HETATM   40  O3  UNL     1      -9.546  14.461  -8.830  1.00  0.00    -0.206 OA
ENDBRANCH  35  37
ENDBRANCH  12  35
TORSDOF 8
ENDMDL
MODEL 4
REMARK VINA RESULT: -7.616591689      2.034      3.580
REMARK  8 active torsions:
REMARK  status: ('A' for Active; 'I' for Inactive)
REMARK    1  A    between atoms: C2_2  and  C3_3 
REMARK    2  A    between atoms: C2_2  and  C10_14 
REMARK    3  A    between atoms: C4_4  and  C5_5 
REMARK       I    between atoms: C5_5  and  N1_7 
REMARK    4  A    between atoms: N1_7  and  C6_9 
REMARK    5  A    between atoms: C6_9  and  C7_10 
REMARK    6  A    between atoms: C7_10  and  N2_11 
REMARK    7  A    between atoms: C21_25  and  N3_26 
REMARK    8  A    between atoms: N3_26  and  S1_28 
ROOT
HETATM    1  C10 UNL     1      -8.456  21.222  -0.742  1.00  0.00     0.001 C 
HETATM    2  C11 UNL     1      -9.810  20.904  -0.087  1.00  0.00     0.006 C 
HETATM    3  C12 UNL     1     -10.695  20.310  -1.159  1.00  0.00     0.006 C 
HETATM    4  C13 UNL     1      -9.644  19.793  -2.103  1.00  0.00    -0.001 C 
HETATM    5  C14 UNL     1     -10.150  19.284  -3.392  1.00  0.00    -0.001 C 
HETATM    6  C15 UNL     1     -10.372  17.794  -3.234  1.00  0.00     0.033 C 
HETATM    7  C16 UNL     1      -9.306  16.942  -3.798  1.00  0.00    -0.022 C 
HETATM    8  C17 UNL     1      -8.780  17.274  -4.969  1.00  0.00    -0.065 C 
HETATM    9  C18 UNL     1      -7.711  16.495  -5.630  1.00  0.00    -0.003 C 
HETATM   10  C19 UNL     1      -6.357  17.156  -5.575  1.00  0.00     0.021 C 
HETATM   11  C20 UNL     1      -7.543  15.150  -4.948  1.00  0.00     0.021 C 
HETATM   12  C21 UNL     1      -8.182  16.292  -7.060  1.00  0.00     0.105 C 
HETATM   13  C23 UNL     1      -8.523  17.576  -7.732  1.00  0.00     0.028 C 
HETATM   14  C24 UNL     1      -8.598  18.789  -6.847  1.00  0.00     0.016 C 
HETATM   15  C25 UNL     1      -9.344  18.498  -5.604  1.00  0.00    -0.016 C 
HETATM   16  C26 UNL     1     -10.794  18.223  -6.049  1.00  0.00     0.020 C 
HETATM   17  C27 UNL     1      -9.432  19.671  -4.643  1.00  0.00     0.003 C 
HETATM   18  C28 UNL     1      -8.203  20.455  -4.487  1.00  0.00     0.007 C 
HETATM   19  C29 UNL     1      -7.648  20.553  -3.082  1.00  0.00     0.010 C 
HETATM   20  C30 UNL     1      -8.712  20.980  -2.141  1.00  0.00    -0.036 C 
HETATM   21  C31 UNL     1      -9.431  22.236  -2.636  1.00  0.00     0.016 C 
ENDROOT
BRANCH   1  22
HETATM   22  C2  UNL     1      -7.335  20.560   0.010  1.00  0.00     0.009 C 
HETATM   23  C1  UNL     1      -6.605  21.515   0.876  1.00  0.00     0.014 C 
BRANCH  22  24
HETATM   24  C3  UNL     1      -7.866  19.397   0.794  1.00  0.00    -0.017 C 
HETATM   25  C4  UNL     1      -7.016  18.455   1.480  1.00  0.00     0.071 C 
BRANCH  25  26
HETATM   26  C5  UNL     1      -6.092  17.523   0.871  1.00  0.00     0.244 C 
HETATM   27  O1  UNL     1      -6.330  16.370   0.458  1.00  0.00    -0.268 OA
HETATM   28  N1  UNL     1      -4.713  17.940   0.705  1.00  0.00    -0.336 N 
ATOM     29  H1  UNL     1      -4.448  18.871   1.026  1.00  0.00     0.168 HD
BRANCH  28  30
HETATM   30  C6  UNL     1      -3.722  17.126   0.125  1.00  0.00     0.094 C 
BRANCH  30  31
HETATM   31  C7  UNL     1      -2.396  17.044   0.796  1.00  0.00     0.315 C 
BRANCH  31  32
HETATM   32  N2  UNL     1      -2.081  15.792   1.411  1.00  0.00     0.084 N 
HETATM   33  C8  UNL     1      -0.698  15.532   1.637  1.00  0.00     0.309 C 
HETATM   34  C9  UNL     1      -2.856  15.547   2.614  1.00  0.00     0.309 C 
ENDBRANCH  31  32
ENDBRANCH  30  31
ENDBRANCH  28  30
ENDBRANCH  25  26
ENDBRANCH  22  24
ENDBRANCH   1  22
BRANCH  12  35
HETATM   35  N3  UNL     1      -7.236  15.558  -7.872  1.00  0.00    -0.314 N 
ATOM     36  H3  UNL     1      -6.242  15.782  -7.913  1.00  0.00     0.172 HD
BRANCH  35  37
HETATM   37  S1  UNL     1      -7.950  14.274  -8.763  1.00  0.00     0.223 S 
HETATM   38  C22 UNL     1      -7.403  14.271 -10.456  1.00  0.00     0.185 C 
HETATM   39  O2  UNL     1      -7.528  12.975  -8.142  1.00  0.00    -0.206 OA
HETATM   40  O3  UNL     1      -9.449  14.357  -8.811  1.00  0.00    -0.206 OA
ENDBRANCH  35  37
ENDBRANCH  12  35
TORSDOF 8
ENDMDL
MODEL 5
REMARK VINA RESULT: -7.603814895      4.820      6.242
REMARK  8 active torsions:
REMARK  status: ('A' for Active; 'I' for Inactive)
REMARK    1  A    between atoms: C2_2  and  C3_3 
REMARK    2  A    between atoms: C2_2  and  C10_14 
REMARK    3  A    between atoms: C4_4  and  C5_5 
REMARK       I    between atoms: C5_5  and  N1_7 
REMARK    4  A    between atoms: N1_7  and  C6_9 
REMARK    5  A    between atoms: C6_9  and  C7_10 
REMARK    6  A    between atoms: C7_10  and  N2_11 
REMARK    7  A    between atoms: C21_25  and  N3_26 
REMARK    8  A    between atoms: N3_26  and  S1_28 
ROOT
HETATM    1  C10 UNL     1      -8.380  19.669  -1.227  1.00  0.00     0.001 C 
HETATM    2  C11 UNL     1      -8.421  18.202  -1.685  1.00  0.00     0.006 C 
HETATM    3  C12 UNL     1      -8.135  18.190  -3.169  1.00  0.00     0.006 C 
HETATM    4  C13 UNL     1      -7.388  19.489  -3.298  1.00  0.00    -0.001 C 
HETATM    5  C14 UNL     1      -7.089  19.910  -4.680  1.00  0.00    -0.001 C 
HETATM    6  C15 UNL     1      -5.712  19.382  -5.025  1.00  0.00     0.033 C 
HETATM    7  C16 UNL     1      -4.624  20.375  -4.937  1.00  0.00    -0.022 C 
HETATM    8  C17 UNL     1      -4.844  21.601  -5.388  1.00  0.00    -0.065 C 
HETATM    9  C18 UNL     1      -3.829  22.676  -5.354  1.00  0.00    -0.003 C 
HETATM   10  C19 UNL     1      -4.091  23.724  -4.301  1.00  0.00     0.021 C 
HETATM   11  C20 UNL     1      -2.464  22.098  -5.032  1.00  0.00     0.021 C 
HETATM   12  C21 UNL     1      -3.820  23.271  -6.751  1.00  0.00     0.105 C 
HETATM   13  C23 UNL     1      -5.174  23.708  -7.190  1.00  0.00     0.028 C 
HETATM   14  C24 UNL     1      -6.325  23.270  -6.329  1.00  0.00     0.016 C 
HETATM   15  C25 UNL     1      -6.200  21.844  -5.956  1.00  0.00    -0.016 C 
HETATM   16  C26 UNL     1      -6.352  21.060  -7.275  1.00  0.00     0.020 C 
HETATM   17  C27 UNL     1      -7.314  21.338  -5.055  1.00  0.00     0.003 C 
HETATM   18  C28 UNL     1      -7.724  22.249  -3.982  1.00  0.00     0.007 C 
HETATM   19  C29 UNL     1      -7.609  21.713  -2.571  1.00  0.00     0.010 C 
HETATM   20  C30 UNL     1      -8.274  20.390  -2.472  1.00  0.00    -0.036 C 
HETATM   21  C31 UNL     1      -9.698  20.432  -3.030  1.00  0.00     0.016 C 
ENDROOT
BRANCH   1  22
HETATM   22  C2  UNL     1      -7.408  19.845  -0.095  1.00  0.00     0.009 C 
HETATM   23  C1  UNL     1      -7.865  20.862   0.880  1.00  0.00     0.014 C 
BRANCH  22  24
HETATM   24  C3  UNL     1      -7.150  18.523   0.564  1.00  0.00    -0.017 C 
HETATM   25  C4  UNL     1      -6.163  18.337   1.599  1.00  0.00     0.071 C 
BRANCH  25  26
HETATM   26  C5  UNL     1      -4.728  18.456   1.456  1.00  0.00     0.244 C 
HETATM   27  O1  UNL     1      -4.001  19.409   1.800  1.00  0.00    -0.268 OA
HETATM   28  N1  UNL     1      -4.010  17.355   0.842  1.00  0.00    -0.336 N 
ATOM     29  H1  UNL     1      -4.545  16.543   0.533  1.00  0.00     0.168 HD
BRANCH  28  30
HETATM   30  C6  UNL     1      -2.616  17.349   0.651  1.00  0.00     0.094 C 
BRANCH  30  31
HETATM   31  C7  UNL     1      -1.910  16.039   0.655  1.00  0.00     0.315 C 
BRANCH  31  32
HETATM   32  N2  UNL     1      -1.353  15.630   1.907  1.00  0.00     0.084 N 
HETATM   33  C8  UNL     1      -2.193  14.837   2.741  1.00  0.00     0.309 C 
HETATM   34  C9  UNL     1      -0.043  15.022   1.765  1.00  0.00     0.309 C 
ENDBRANCH  31  32
ENDBRANCH  30  31
ENDBRANCH  28  30
ENDBRANCH  25  26
ENDBRANCH  22  24
ENDBRANCH   1  22
BRANCH  12  35
HETATM   35  N3  UNL     1      -2.888  24.368  -6.898  1.00  0.00    -0.314 N 
ATOM     36  H3  UNL     1      -2.963  25.239  -6.373  1.00  0.00     0.172 HD
BRANCH  35  37
HETATM   37  S1  UNL     1      -1.642  24.060  -8.041  1.00  0.00     0.223 S 
HETATM   38  C22 UNL     1      -1.849  22.474  -8.820  1.00  0.00     0.185 C 
HETATM   39  O2  UNL     1      -1.712  25.109  -9.111  1.00  0.00    -0.206 OA
HETATM   40  O3  UNL     1      -0.272  24.045  -7.424  1.00  0.00    -0.206 OA
ENDBRANCH  35  37
ENDBRANCH  12  35
TORSDOF 8
ENDMDL
