MODEL 1
REMARK VINA RESULT: -7.730116338      0.000      0.000
REMARK  10 active torsions:
REMARK  status: ('A' for Active; 'I' for Inactive)
REMARK    1  A    between atoms: C2_2  and  C3_3 
REMARK    2  A    between atoms: C2_2  and  C8_15 
REMARK    3  A    between atoms: C3_3  and  O1_4 
REMARK    4  A    between atoms: O1_4  and  C4_5 
REMARK    5  A    between atoms: C4_5  and  C5_7 
REMARK    6  A    between atoms: C10_17  and  O4_18 
REMARK    7  A    between atoms: O4_18  and  C11_19 
REMARK    8  A    between atoms: C13_22  and  O6_23 
REMARK    9  A    between atoms: C14_25  and  C15_26 
REMARK   10  A    between atoms: C15_26  and  O8_28 
ROOT
HETATM    1  C8  UNL     1      -3.471   1.450  13.632  1.00  0.00     0.034 C 
HETATM    2  C9  UNL     1      -4.324   0.299  14.191  1.00  0.00     0.045 C 
HETATM    3  C10 UNL     1      -4.424   0.664  15.626  1.00  0.00     0.162 C 
HETATM    4  C13 UNL     1      -4.144   2.114  15.723  1.00  0.00     0.162 C 
HETATM    5  C14 UNL     1      -4.137   2.610  14.242  1.00  0.00     0.125 C 
ENDROOT
BRANCH   1   6
HETATM    6  C2  UNL     1      -3.330   1.372  12.175  1.00  0.00    -0.060 C 
HETATM    7  C1  UNL     1      -3.977   0.391  11.571  1.00  0.00     0.017 C 
BRANCH   6   8
HETATM    8  C3  UNL     1      -2.575   2.333  11.351  1.00  0.00     0.212 C 
BRANCH   8   9
HETATM    9  O1  UNL     1      -1.279   2.639  11.734  1.00  0.00    -0.314 OA
BRANCH   9  10
HETATM   10  C4  UNL     1      -0.787   3.888  12.089  1.00  0.00     0.308 C 
HETATM   11  O2  UNL     1      -1.221   4.424  13.130  1.00  0.00    -0.260 OA
BRANCH  10  12
HETATM   12  C5  UNL     1       0.223   4.582  11.256  1.00  0.00     0.197 C 
HETATM   13  C6  UNL     1      -0.061   6.003  10.907  1.00  0.00     0.075 C 
HETATM   14  N1  UNL     1       1.602   4.261  11.630  1.00  0.00    -0.308 N 
HETATM   15  C7  UNL     1       1.942   3.919  10.293  1.00  0.00     0.320 C 
ATOM     16  H1  UNL     1       2.118   4.276  12.509  1.00  0.00     0.167 HD
HETATM   17  O3  UNL     1       3.006   3.770   9.617  1.00  0.00    -0.247 OA
HETATM   18  N2  UNL     1       0.547   3.820  10.045  1.00  0.00    -0.308 N 
ATOM     19  H2  UNL     1      -0.012   3.387   9.310  1.00  0.00     0.167 HD
ENDBRANCH  10  12
ENDBRANCH   9  10
ENDBRANCH   8   9
ENDBRANCH   6   8
ENDBRANCH   1   6
BRANCH   5  20
HETATM   20  C15 UNL     1      -5.456   3.011  13.821  1.00  0.00     0.265 C 
HETATM   21  O7  UNL     1      -5.853   2.770  12.650  1.00  0.00    -0.265 OA
BRANCH  20  22
HETATM   22  O8  UNL     1      -6.392   3.672  14.611  1.00  0.00    -0.326 OA
HETATM   23  C16 UNL     1      -6.297   5.001  15.013  1.00  0.00     0.213 C 
ENDBRANCH  20  22
ENDBRANCH   5  20
BRANCH   3  24
HETATM   24  O4  UNL     1      -5.618   0.261  16.247  1.00  0.00    -0.314 OA
BRANCH  24  25
HETATM   25  C11 UNL     1      -6.091   0.857  17.395  1.00  0.00     0.255 C 
HETATM   26  C12 UNL     1      -7.323   1.690  17.429  1.00  0.00     0.126 C 
HETATM   27  O5  UNL     1      -5.442   0.676  18.431  1.00  0.00    -0.266 OA
ENDBRANCH  24  25
ENDBRANCH   3  24
BRANCH   4  28
HETATM   28  O6  UNL     1      -2.827   2.328  16.184  1.00  0.00    -0.392 OA
ATOM     29  H6  UNL     1      -2.219   2.328  15.454  1.00  0.00     0.210 HD
ENDBRANCH   4  28
TORSDOF 10
ENDMDL
MODEL 2
REMARK VINA RESULT: -7.633494814      1.955      3.364
REMARK  10 active torsions:
REMARK  status: ('A' for Active; 'I' for Inactive)
REMARK    1  A    between atoms: C2_2  and  C3_3 
REMARK    2  A    between atoms: C2_2  and  C8_15 
REMARK    3  A    between atoms: C3_3  and  O1_4 
REMARK    4  A    between atoms: O1_4  and  C4_5 
REMARK    5  A    between atoms: C4_5  and  C5_7 
REMARK    6  A    between atoms: C10_17  and  O4_18 
REMARK    7  A    between atoms: O4_18  and  C11_19 
REMARK    8  A    between atoms: C13_22  and  O6_23 
REMARK    9  A    between atoms: C14_25  and  C15_26 
REMARK   10  A    between atoms: C15_26  and  O8_28 
ROOT
HETATM    1  C8  UNL     1      -4.180   4.563  14.631  1.00  0.00     0.034 C 
HETATM    2  C9  UNL     1      -3.565   3.554  15.615  1.00  0.00     0.045 C 
HETATM    3  C10 UNL     1      -4.771   3.007  16.283  1.00  0.00     0.162 C 
HETATM    4  C13 UNL     1      -5.917   3.268  15.384  1.00  0.00     0.162 C 
HETATM    5  C14 UNL     1      -5.266   3.758  14.052  1.00  0.00     0.125 C 
ENDROOT
BRANCH   1   6
HETATM    6  C2  UNL     1      -3.169   5.161  13.753  1.00  0.00    -0.060 C 
HETATM    7  C1  UNL     1      -3.591   6.092  12.916  1.00  0.00     0.017 C 
BRANCH   6   8
HETATM    8  C3  UNL     1      -1.731   4.836  13.784  1.00  0.00     0.212 C 
BRANCH   8   9
HETATM    9  O1  UNL     1      -1.286   3.784  13.000  1.00  0.00    -0.314 OA
BRANCH   9  10
HETATM   10  C4  UNL     1      -0.705   3.869  11.742  1.00  0.00     0.308 C 
HETATM   11  O2  UNL     1       0.272   4.630  11.588  1.00  0.00    -0.260 OA
BRANCH  10  12
HETATM   12  C5  UNL     1      -1.228   3.084  10.599  1.00  0.00     0.197 C 
HETATM   13  C6  UNL     1      -0.923   3.604   9.237  1.00  0.00     0.075 C 
HETATM   14  N1  UNL     1      -1.115   1.637  10.791  1.00  0.00    -0.308 N 
HETATM   15  C7  UNL     1      -2.489   1.435  10.491  1.00  0.00     0.320 C 
ATOM     16  H1  UNL     1      -0.347   1.015  11.042  1.00  0.00     0.167 HD
HETATM   17  O3  UNL     1      -3.231   0.460  10.157  1.00  0.00    -0.247 OA
HETATM   18  N2  UNL     1      -2.666   2.824  10.730  1.00  0.00    -0.308 N 
ATOM     19  H2  UNL     1      -3.478   3.411  10.919  1.00  0.00     0.167 HD
ENDBRANCH  10  12
ENDBRANCH   9  10
ENDBRANCH   8   9
ENDBRANCH   6   8
ENDBRANCH   1   6
BRANCH   5  20
HETATM   20  C15 UNL     1      -4.980   2.651  13.175  1.00  0.00     0.265 C 
HETATM   21  O7  UNL     1      -5.616   2.509  12.097  1.00  0.00    -0.265 OA
BRANCH  20  22
HETATM   22  O8  UNL     1      -4.022   1.666  13.401  1.00  0.00    -0.326 OA
HETATM   23  C16 UNL     1      -4.292   0.304  13.500  1.00  0.00     0.213 C 
ENDBRANCH  20  22
ENDBRANCH   5  20
BRANCH   3  24
HETATM   24  O4  UNL     1      -4.650   1.669  16.696  1.00  0.00    -0.314 OA
BRANCH  24  25
HETATM   25  C11 UNL     1      -5.585   1.058  17.502  1.00  0.00     0.255 C 
HETATM   26  C12 UNL     1      -6.264   1.752  18.629  1.00  0.00     0.126 C 
HETATM   27  O5  UNL     1      -5.854  -0.123  17.256  1.00  0.00    -0.266 OA
ENDBRANCH  24  25
ENDBRANCH   3  24
BRANCH   4  28
HETATM   28  O6  UNL     1      -6.663   4.372  15.852  1.00  0.00    -0.392 OA
ATOM     29  H6  UNL     1      -6.271   5.183  15.555  1.00  0.00     0.210 HD
ENDBRANCH   4  28
TORSDOF 10
ENDMDL
MODEL 3
REMARK VINA RESULT: -7.609028687      1.439      2.347
REMARK  10 active torsions:
REMARK  status: ('A' for Active; 'I' for Inactive)
REMARK    1  A    between atoms: C2_2  and  C3_3 
REMARK    2  A    between atoms: C2_2  and  C8_15 
REMARK    3  A    between atoms: C3_3  and  O1_4 
REMARK    4  A    between atoms: O1_4  and  C4_5 
REMARK    5  A    between atoms: C4_5  and  C5_7 
REMARK    6  A    between atoms: C10_17  and  O4_18 
REMARK    7  A    between atoms: O4_18  and  C11_19 
REMARK    8  A    between atoms: C13_22  and  O6_23 
REMARK    9  A    between atoms: C14_25  and  C15_26 
REMARK   10  A    between atoms: C15_26  and  O8_28 
ROOT
HETATM    1  C8  UNL     1      -3.466   1.300  13.560  1.00  0.00     0.034 C 
HETATM    2  C9  UNL     1      -4.484   0.302  14.135  1.00  0.00     0.045 C 
HETATM    3  C10 UNL     1      -4.578   0.745  15.547  1.00  0.00     0.162 C 
HETATM    4  C13 UNL     1      -4.107   2.147  15.593  1.00  0.00     0.162 C 
HETATM    5  C14 UNL     1      -3.986   2.567  14.094  1.00  0.00     0.125 C 
ENDROOT
BRANCH   1   6
HETATM    6  C2  UNL     1      -3.292   1.135  12.113  1.00  0.00    -0.060 C 
HETATM    7  C1  UNL     1      -4.079   0.256  11.520  1.00  0.00     0.017 C 
BRANCH   6   8
HETATM    8  C3  UNL     1      -2.352   1.914  11.286  1.00  0.00     0.212 C 
BRANCH   8   9
HETATM    9  O1  UNL     1      -1.223   2.434  11.899  1.00  0.00    -0.314 OA
BRANCH   9  10
HETATM   10  C4  UNL     1      -0.551   3.600  11.558  1.00  0.00     0.308 C 
HETATM   11  O2  UNL     1       0.223   3.576  10.579  1.00  0.00    -0.260 OA
BRANCH  10  12
HETATM   12  C5  UNL     1      -0.736   4.848  12.335  1.00  0.00     0.197 C 
HETATM   13  C6  UNL     1       0.353   5.861  12.240  1.00  0.00     0.075 C 
HETATM   14  N1  UNL     1      -2.109   5.355  12.299  1.00  0.00    -0.308 N 
HETATM   15  C7  UNL     1      -2.172   5.441  13.716  1.00  0.00     0.320 C 
ATOM     16  H1  UNL     1      -2.766   5.564  11.547  1.00  0.00     0.167 HD
HETATM   17  O3  UNL     1      -2.898   6.027  14.577  1.00  0.00    -0.247 OA
HETATM   18  N2  UNL     1      -1.048   4.573  13.742  1.00  0.00    -0.308 N 
ATOM     19  H2  UNL     1      -0.624   3.986  14.460  1.00  0.00     0.167 HD
ENDBRANCH  10  12
ENDBRANCH   9  10
ENDBRANCH   8   9
ENDBRANCH   6   8
ENDBRANCH   1   6
BRANCH   5  20
HETATM   20  C15 UNL     1      -5.225   3.121  13.607  1.00  0.00     0.265 C 
HETATM   21  O7  UNL     1      -5.434   3.227  12.370  1.00  0.00    -0.265 OA
BRANCH  20  22
HETATM   22  O8  UNL     1      -6.274   3.577  14.400  1.00  0.00    -0.326 OA
HETATM   23  C16 UNL     1      -6.354   4.850  14.958  1.00  0.00     0.213 C 
ENDBRANCH  20  22
ENDBRANCH   5  20
BRANCH   3  24
HETATM   24  O4  UNL     1      -5.835   0.535  16.140  1.00  0.00    -0.314 OA
BRANCH  24  25
HETATM   25  C11 UNL     1      -6.142   0.993  17.403  1.00  0.00     0.255 C 
HETATM   26  C12 UNL     1      -7.176   2.029  17.663  1.00  0.00     0.126 C 
HETATM   27  O5  UNL     1      -5.511   0.503  18.347  1.00  0.00    -0.266 OA
ENDBRANCH  24  25
ENDBRANCH   3  24
BRANCH   4  28
HETATM   28  O6  UNL     1      -2.788   2.203  16.094  1.00  0.00    -0.392 OA
ATOM     29  H6  UNL     1      -2.794   2.160  17.042  1.00  0.00     0.210 HD
ENDBRANCH   4  28
TORSDOF 10
ENDMDL
MODEL 4
REMARK VINA RESULT: -7.593316768      3.229      6.560
REMARK  10 active torsions:
REMARK  status: ('A' for Active; 'I' for Inactive)
REMARK    1  A    between atoms: C2_2  and  C3_3 
REMARK    2  A    between atoms: C2_2  and  C8_15 
REMARK    3  A    between atoms: C3_3  and  O1_4 
REMARK    4  A    between atoms: O1_4  and  C4_5 
REMARK    5  A    between atoms: C4_5  and  C5_7 
REMARK    6  A    between atoms: C10_17  and  O4_18 
REMARK    7  A    between atoms: O4_18  and  C11_19 
REMARK    8  A    between atoms: C13_22  and  O6_23 
REMARK    9  A    between atoms: C14_25  and  C15_26 
REMARK   10  A    between atoms: C15_26  and  O8_28 
ROOT
HETATM    1  C8  UNL     1      -4.218   3.484  12.533  1.00  0.00     0.034 C 
HETATM    2  C9  UNL     1      -3.519   2.153  12.855  1.00  0.00     0.045 C 
HETATM    3  C10 UNL     1      -4.195   1.222  11.918  1.00  0.00     0.162 C 
HETATM    4  C13 UNL     1      -4.779   2.045  10.836  1.00  0.00     0.162 C 
HETATM    5  C14 UNL     1      -4.179   3.469  11.063  1.00  0.00     0.125 C 
ENDROOT
BRANCH   1   6
HETATM    6  C2  UNL     1      -3.625   4.607  13.266  1.00  0.00    -0.060 C 
HETATM    7  C1  UNL     1      -4.018   5.817  12.912  1.00  0.00     0.017 C 
BRANCH   6   8
HETATM    8  C3  UNL     1      -2.679   4.471  14.389  1.00  0.00     0.212 C 
BRANCH   8   9
HETATM    9  O1  UNL     1      -3.194   4.169  15.640  1.00  0.00    -0.314 OA
BRANCH   9  10
HETATM   10  C4  UNL     1      -3.646   2.932  16.079  1.00  0.00     0.308 C 
HETATM   11  O2  UNL     1      -2.802   2.063  16.378  1.00  0.00    -0.260 OA
BRANCH  10  12
HETATM   12  C5  UNL     1      -5.094   2.637  16.187  1.00  0.00     0.197 C 
HETATM   13  C6  UNL     1      -6.028   3.709  15.742  1.00  0.00     0.075 C 
HETATM   14  N1  UNL     1      -5.436   1.266  15.803  1.00  0.00    -0.308 N 
HETATM   15  C7  UNL     1      -6.143   1.045  17.015  1.00  0.00     0.320 C 
ATOM     16  H1  UNL     1      -5.241   0.693  14.982  1.00  0.00     0.167 HD
HETATM   17  O3  UNL     1      -7.002   0.216  17.448  1.00  0.00    -0.247 OA
HETATM   18  N2  UNL     1      -5.458   2.176  17.532  1.00  0.00    -0.308 N 
ATOM     19  H2  UNL     1      -5.285   2.530  18.472  1.00  0.00     0.167 HD
ENDBRANCH  10  12
ENDBRANCH   9  10
ENDBRANCH   8   9
ENDBRANCH   6   8
ENDBRANCH   1   6
BRANCH   5  20
HETATM   20  C15 UNL     1      -2.934   3.629  10.354  1.00  0.00     0.265 C 
HETATM   21  O7  UNL     1      -2.854   4.414   9.373  1.00  0.00    -0.265 OA
BRANCH  20  22
HETATM   22  O8  UNL     1      -1.743   2.973  10.653  1.00  0.00    -0.326 OA
HETATM   23  C16 UNL     1      -0.582   3.597  11.100  1.00  0.00     0.213 C 
ENDBRANCH  20  22
ENDBRANCH   5  20
BRANCH   3  24
HETATM   24  O4  UNL     1      -3.389   0.161  11.470  1.00  0.00    -0.314 OA
BRANCH  24  25
HETATM   25  C11 UNL     1      -3.685  -1.157  11.739  1.00  0.00     0.255 C 
HETATM   26  C12 UNL     1      -2.708  -2.263  11.558  1.00  0.00     0.126 C 
HETATM   27  O5  UNL     1      -4.826  -1.404  12.149  1.00  0.00    -0.266 OA
ENDBRANCH  24  25
ENDBRANCH   3  24
BRANCH   4  28
HETATM   28  O6  UNL     1      -6.168   2.200  11.035  1.00  0.00    -0.392 OA
ATOM     29  H6  UNL     1      -6.564   1.364  11.252  1.00  0.00     0.210 HD
ENDBRANCH   4  28
TORSDOF 10
ENDMDL
MODEL 5
REMARK VINA RESULT: -7.591600429      1.502      2.721
REMARK  10 active torsions:
REMARK  status: ('A' for Active; 'I' for Inactive)
REMARK    1  A    between atoms: C2_2  and  C3_3 
REMARK    2  A    between atoms: C2_2  and  C8_15 
REMARK    3  A    between atoms: C3_3  and  O1_4 
REMARK    4  A    between atoms: O1_4  and  C4_5 
REMARK    5  A    between atoms: C4_5  and  C5_7 
REMARK    6  A    between atoms: C10_17  and  O4_18 
REMARK    7  A    between atoms: O4_18  and  C11_19 
REMARK    8  A    between atoms: C13_22  and  O6_23 
REMARK    9  A    between atoms: C14_25  and  C15_26 
REMARK   10  A    between atoms: C15_26  and  O8_28 
ROOT
HETATM    1  C8  UNL     1      -4.068   4.696  14.585  1.00  0.00     0.034 C 
HETATM    2  C9  UNL     1      -3.554   3.581  15.510  1.00  0.00     0.045 C 
HETATM    3  C10 UNL     1      -4.821   3.008  16.028  1.00  0.00     0.162 C 
HETATM    4  C13 UNL     1      -5.887   3.386  15.075  1.00  0.00     0.162 C 
HETATM    5  C14 UNL     1      -5.123   3.983  13.850  1.00  0.00     0.125 C 
ENDROOT
BRANCH   1   6
HETATM    6  C2  UNL     1      -2.978   5.346  13.850  1.00  0.00    -0.060 C 
HETATM    7  C1  UNL     1      -3.273   6.480  13.239  1.00  0.00     0.017 C 
BRANCH   6   8
HETATM    8  C3  UNL     1      -1.590   4.853  13.796  1.00  0.00     0.212 C 
BRANCH   8   9
HETATM    9  O1  UNL     1      -1.287   3.865  12.873  1.00  0.00    -0.314 OA
BRANCH   9  10
HETATM   10  C4  UNL     1      -1.141   4.021  11.501  1.00  0.00     0.308 C 
HETATM   11  O2  UNL     1      -2.045   3.593  10.755  1.00  0.00    -0.260 OA
BRANCH  10  12
HETATM   12  C5  UNL     1       0.059   4.674  10.926  1.00  0.00     0.197 C 
HETATM   13  C6  UNL     1      -0.036   6.138  10.669  1.00  0.00     0.075 C 
HETATM   14  N1  UNL     1       1.314   4.188  11.502  1.00  0.00    -0.308 N 
HETATM   15  C7  UNL     1       1.862   3.919  10.219  1.00  0.00     0.320 C 
ATOM     16  H1  UNL     1       1.661   4.083  12.456  1.00  0.00     0.167 HD
HETATM   17  O3  UNL     1       3.016   3.718   9.728  1.00  0.00    -0.247 OA
HETATM   18  N2  UNL     1       0.533   3.980   9.723  1.00  0.00    -0.308 N 
ATOM     19  H2  UNL     1       0.083   3.663   8.865  1.00  0.00     0.167 HD
ENDBRANCH  10  12
ENDBRANCH   9  10
ENDBRANCH   8   9
ENDBRANCH   6   8
ENDBRANCH   1   6
BRANCH   5  20
HETATM   20  C15 UNL     1      -4.792   2.956  12.893  1.00  0.00     0.265 C 
HETATM   21  O7  UNL     1      -5.296   2.974  11.739  1.00  0.00    -0.265 OA
BRANCH  20  22
HETATM   22  O8  UNL     1      -3.928   1.888  13.118  1.00  0.00    -0.326 OA
HETATM   23  C16 UNL     1      -4.144   0.585  12.680  1.00  0.00     0.213 C 
ENDBRANCH  20  22
ENDBRANCH   5  20
BRANCH   3  24
HETATM   24  O4  UNL     1      -4.762   1.634  16.317  1.00  0.00    -0.314 OA
BRANCH  24  25
HETATM   25  C11 UNL     1      -5.585   1.039  17.248  1.00  0.00     0.255 C 
HETATM   26  C12 UNL     1      -6.229   1.789  18.360  1.00  0.00     0.126 C 
HETATM   27  O5  UNL     1      -5.780  -0.176  17.131  1.00  0.00    -0.266 OA
ENDBRANCH  24  25
ENDBRANCH   3  24
BRANCH   4  28
HETATM   28  O6  UNL     1      -6.644   4.462  15.589  1.00  0.00    -0.392 OA
ATOM     29  H6  UNL     1      -6.799   4.339  16.518  1.00  0.00     0.210 HD
ENDBRANCH   4  28
TORSDOF 10
ENDMDL
