MODEL 1
REMARK VINA RESULT: -7.248031850      0.000      0.000
REMARK  12 active torsions:
REMARK  status: ('A' for Active; 'I' for Inactive)
REMARK    1  A    between atoms: O1_2  and  C2_3 
REMARK    2  A    between atoms: C6_7  and  O2_8 
REMARK    3  A    between atoms: N1_11  and  C8_12 
REMARK    4  A    between atoms: C8_12  and  C9_13 
REMARK    5  A    between atoms: C9_13  and  N2_14 
REMARK    6  A    between atoms: N2_14  and  O3_15 
REMARK    7  A    between atoms: N2_14  and  O4_17 
REMARK    8  A    between atoms: C10_19  and  N3_20 
REMARK    9  A    between atoms: N3_20  and  N4_22 
REMARK   10  A    between atoms: N4_22  and  N5_23 
REMARK   11  A    between atoms: C11_26  and  O5_27 
REMARK   12  A    between atoms: O5_27  and  C12_28 
ROOT
HETATM    1  C2  UNL     1      -2.415   5.613  13.257  1.00  0.00     0.098 C 
HETATM    2  C3  UNL     1      -3.217   6.905  13.494  1.00  0.00     0.042 C 
HETATM    3  C4  UNL     1      -3.876   6.709  14.870  1.00  0.00     0.012 C 
HETATM    4  C5  UNL     1      -3.475   5.290  15.223  1.00  0.00     0.052 C 
HETATM    5  C6  UNL     1      -2.043   5.356  14.704  1.00  0.00     0.160 C 
HETATM    6  C7  UNL     1      -4.163   4.389  14.231  1.00  0.00     0.246 C 
HETATM    7  N1  UNL     1      -4.051   2.990  14.557  1.00  0.00     0.123 N 
HETATM    8  C10 UNL     1      -3.798   2.292  13.310  1.00  0.00     0.380 C 
HETATM    9  C11 UNL     1      -2.934   3.257  12.484  1.00  0.00     0.200 C 
HETATM   10  C14 UNL     1      -3.441   4.573  12.912  1.00  0.00     0.052 C 
HETATM   11  C15 UNL     1      -4.424   5.064  11.861  1.00  0.00     0.023 C 
ENDROOT
BRANCH   7  12
HETATM   12  C8  UNL     1      -5.326   2.572  15.109  1.00  0.00     0.295 C 
BRANCH  12  13
HETATM   13  C9  UNL     1      -5.146   1.840  16.421  1.00  0.00     0.183 C 
BRANCH  13  14
HETATM   14  N2  UNL     1      -5.619   0.461  16.232  1.00  0.00    -0.072 NA
BRANCH  14  15
HETATM   15  O3  UNL     1      -5.853  -0.118  17.424  1.00  0.00    -0.289 OA
ATOM     16  H3  UNL     1      -6.603  -0.698  17.365  1.00  0.00     0.239 HD
ENDBRANCH  14  15
BRANCH  14  17
HETATM   17  O4  UNL     1      -4.729  -0.270  15.518  1.00  0.00    -0.289 OA
ATOM     18  H4  UNL     1      -4.967  -0.301  14.599  1.00  0.00     0.239 HD
ENDBRANCH  14  17
ENDBRANCH  13  14
ENDBRANCH  12  13
ENDBRANCH   7  12
BRANCH   8  19
HETATM   19  N3  UNL     1      -5.020   2.050  12.576  1.00  0.00    -0.216 N 
ATOM     20  H3  UNL     1      -5.829   2.627  12.809  1.00  0.00     0.199 HD
BRANCH  19  21
HETATM   21  N4  UNL     1      -5.159   1.221  11.711  1.00  0.00    -0.246 NA
BRANCH  21  22
HETATM   22  N5  UNL     1      -5.180   0.528  10.689  1.00  0.00    -0.261 N 
ATOM     23  H52 UNL     1      -4.453   1.115  10.281  1.00  0.00     0.193 HD
ATOM     24  H51 UNL     1      -5.338  -0.147   9.941  1.00  0.00     0.193 HD
ENDBRANCH  21  22
ENDBRANCH  19  21
ENDBRANCH   8  19
BRANCH   9  25
HETATM   25  O5  UNL     1      -3.143   3.011  11.085  1.00  0.00    -0.311 OA
BRANCH  25  26
HETATM   26  C12 UNL     1      -2.142   2.500  10.270  1.00  0.00     0.255 C 
HETATM   27  C13 UNL     1      -1.008   3.348   9.784  1.00  0.00     0.126 C 
HETATM   28  O6  UNL     1      -2.164   1.292   9.917  1.00  0.00    -0.266 OA
ENDBRANCH  25  26
ENDBRANCH   9  25
BRANCH   5  29
HETATM   29  O2  UNL     1      -1.332   4.219  14.941  1.00  0.00    -0.392 OA
ATOM     30  H2  UNL     1      -0.443   4.211  14.608  1.00  0.00     0.210 HD
ENDBRANCH   5  29
BRANCH   1  31
HETATM   31  O1  UNL     1      -1.397   5.733  12.388  1.00  0.00    -0.381 OA
HETATM   32  C1  UNL     1      -0.498   6.742  12.553  1.00  0.00     0.202 C 
ENDBRANCH   1  31
TORSDOF 12
ENDMDL
MODEL 2
REMARK VINA RESULT: -6.796949556      0.825      1.036
REMARK  12 active torsions:
REMARK  status: ('A' for Active; 'I' for Inactive)
REMARK    1  A    between atoms: O1_2  and  C2_3 
REMARK    2  A    between atoms: C6_7  and  O2_8 
REMARK    3  A    between atoms: N1_11  and  C8_12 
REMARK    4  A    between atoms: C8_12  and  C9_13 
REMARK    5  A    between atoms: C9_13  and  N2_14 
REMARK    6  A    between atoms: N2_14  and  O3_15 
REMARK    7  A    between atoms: N2_14  and  O4_17 
REMARK    8  A    between atoms: C10_19  and  N3_20 
REMARK    9  A    between atoms: N3_20  and  N4_22 
REMARK   10  A    between atoms: N4_22  and  N5_23 
REMARK   11  A    between atoms: C11_26  and  O5_27 
REMARK   12  A    between atoms: O5_27  and  C12_28 
ROOT
HETATM    1  C2  UNL     1      -2.595   5.654  13.112  1.00  0.00     0.098 C 
HETATM    2  C3  UNL     1      -3.664   6.753  13.242  1.00  0.00     0.042 C 
HETATM    3  C4  UNL     1      -4.363   6.461  14.581  1.00  0.00     0.012 C 
HETATM    4  C5  UNL     1      -3.700   5.171  15.019  1.00  0.00     0.052 C 
HETATM    5  C6  UNL     1      -2.280   5.523  14.589  1.00  0.00     0.160 C 
HETATM    6  C7  UNL     1      -4.112   4.116  14.026  1.00  0.00     0.246 C 
HETATM    7  N1  UNL     1      -3.734   2.782  14.419  1.00  0.00     0.123 N 
HETATM    8  C10 UNL     1      -3.253   2.118  13.221  1.00  0.00     0.380 C 
HETATM    9  C11 UNL     1      -2.554   3.220  12.410  1.00  0.00     0.200 C 
HETATM   10  C14 UNL     1      -3.353   4.411  12.748  1.00  0.00     0.052 C 
HETATM   11  C15 UNL     1      -4.341   4.653  11.617  1.00  0.00     0.023 C 
ENDROOT
BRANCH   7  12
HETATM   12  C8  UNL     1      -4.929   2.120  14.907  1.00  0.00     0.295 C 
BRANCH  12  13
HETATM   13  C9  UNL     1      -4.793   1.742  16.365  1.00  0.00     0.183 C 
BRANCH  13  14
HETATM   14  N2  UNL     1      -4.826   0.275  16.451  1.00  0.00    -0.072 NA
BRANCH  14  15
HETATM   15  O3  UNL     1      -4.835  -0.263  15.217  1.00  0.00    -0.289 OA
ATOM     16  H3  UNL     1      -4.497  -1.150  15.244  1.00  0.00     0.239 HD
ENDBRANCH  14  15
BRANCH  14  17
HETATM   17  O4  UNL     1      -5.897  -0.152  17.161  1.00  0.00    -0.289 OA
ATOM     18  H4  UNL     1      -5.697  -0.946  17.644  1.00  0.00     0.239 HD
ENDBRANCH  14  17
ENDBRANCH  13  14
ENDBRANCH  12  13
ENDBRANCH   7  12
BRANCH   8  19
HETATM   19  N3  UNL     1      -4.343   1.603  12.423  1.00  0.00    -0.216 N 
ATOM     20  H3  UNL     1      -5.019   2.275  12.061  1.00  0.00     0.199 HD
BRANCH  19  21
HETATM   21  N4  UNL     1      -4.516   0.440  12.150  1.00  0.00    -0.246 NA
BRANCH  21  22
HETATM   22  N5  UNL     1      -4.484  -0.783  11.983  1.00  0.00    -0.261 N 
ATOM     23  H52 UNL     1      -3.697  -0.847  12.629  1.00  0.00     0.193 HD
ATOM     24  H51 UNL     1      -4.610  -1.761  11.723  1.00  0.00     0.193 HD
ENDBRANCH  21  22
ENDBRANCH  19  21
ENDBRANCH   8  19
BRANCH   9  25
HETATM   25  O5  UNL     1      -2.608   2.895  11.012  1.00  0.00    -0.311 OA
BRANCH  25  26
HETATM   26  C12 UNL     1      -1.568   3.203  10.145  1.00  0.00     0.255 C 
HETATM   27  C13 UNL     1      -0.141   3.216  10.595  1.00  0.00     0.126 C 
HETATM   28  O6  UNL     1      -1.806   3.483   8.941  1.00  0.00    -0.266 OA
ENDBRANCH  25  26
ENDBRANCH   9  25
BRANCH   5  29
HETATM   29  O2  UNL     1      -1.366   4.570  14.919  1.00  0.00    -0.392 OA
ATOM     30  H2  UNL     1      -1.204   4.456  15.848  1.00  0.00     0.210 HD
ENDBRANCH   5  29
BRANCH   1  31
HETATM   31  O1  UNL     1      -1.566   5.961  12.304  1.00  0.00    -0.381 OA
HETATM   32  C1  UNL     1      -0.826   7.075  12.564  1.00  0.00     0.202 C 
ENDBRANCH   1  31
TORSDOF 12
ENDMDL
MODEL 3
REMARK VINA RESULT: -6.775127902      2.072      4.417
REMARK  12 active torsions:
REMARK  status: ('A' for Active; 'I' for Inactive)
REMARK    1  A    between atoms: O1_2  and  C2_3 
REMARK    2  A    between atoms: C6_7  and  O2_8 
REMARK    3  A    between atoms: N1_11  and  C8_12 
REMARK    4  A    between atoms: C8_12  and  C9_13 
REMARK    5  A    between atoms: C9_13  and  N2_14 
REMARK    6  A    between atoms: N2_14  and  O3_15 
REMARK    7  A    between atoms: N2_14  and  O4_17 
REMARK    8  A    between atoms: C10_19  and  N3_20 
REMARK    9  A    between atoms: N3_20  and  N4_22 
REMARK   10  A    between atoms: N4_22  and  N5_23 
REMARK   11  A    between atoms: C11_26  and  O5_27 
REMARK   12  A    between atoms: O5_27  and  C12_28 
ROOT
HETATM    1  C2  UNL     1      -3.702   3.109  10.857  1.00  0.00     0.098 C 
HETATM    2  C3  UNL     1      -2.429   2.286  10.592  1.00  0.00     0.042 C 
HETATM    3  C4  UNL     1      -2.584   1.033  11.471  1.00  0.00     0.012 C 
HETATM    4  C5  UNL     1      -3.867   1.321  12.224  1.00  0.00     0.052 C 
HETATM    5  C6  UNL     1      -4.642   1.938  11.065  1.00  0.00     0.160 C 
HETATM    6  C7  UNL     1      -3.586   2.500  13.120  1.00  0.00     0.246 C 
HETATM    7  N1  UNL     1      -4.645   2.770  14.059  1.00  0.00     0.123 N 
HETATM    8  C10 UNL     1      -4.804   4.212  14.100  1.00  0.00     0.380 C 
HETATM    9  C11 UNL     1      -4.516   4.684  12.667  1.00  0.00     0.200 C 
HETATM   10  C14 UNL     1      -3.502   3.713  12.216  1.00  0.00     0.052 C 
HETATM   11  C15 UNL     1      -2.133   4.359  12.361  1.00  0.00     0.023 C 
ENDROOT
BRANCH   7  12
HETATM   12  C8  UNL     1      -4.210   2.282  15.353  1.00  0.00     0.295 C 
BRANCH  12  13
HETATM   13  C9  UNL     1      -5.376   1.767  16.169  1.00  0.00     0.183 C 
BRANCH  13  14
HETATM   14  N2  UNL     1      -5.050   0.400  16.600  1.00  0.00    -0.072 NA
BRANCH  14  15
HETATM   15  O3  UNL     1      -4.782  -0.373  15.532  1.00  0.00    -0.289 OA
ATOM     16  H3  UNL     1      -4.374  -1.185  15.808  1.00  0.00     0.239 HD
ENDBRANCH  14  15
BRANCH  14  17
HETATM   17  O4  UNL     1      -6.056  -0.137  17.331  1.00  0.00    -0.289 OA
ATOM     18  H4  UNL     1      -5.730  -0.793  17.936  1.00  0.00     0.239 HD
ENDBRANCH  14  17
ENDBRANCH  13  14
ENDBRANCH  12  13
ENDBRANCH   7  12
BRANCH   8  19
HETATM   19  N3  UNL     1      -3.835   4.831  14.975  1.00  0.00    -0.216 N 
ATOM     20  H3  UNL     1      -3.128   4.227  15.394  1.00  0.00     0.199 HD
BRANCH  19  21
HETATM   21  N4  UNL     1      -3.796   6.005  15.251  1.00  0.00    -0.246 NA
BRANCH  21  22
HETATM   22  N5  UNL     1      -3.537   7.198  15.437  1.00  0.00    -0.261 N 
ATOM     23  H52 UNL     1      -2.699   7.101  14.863  1.00  0.00     0.193 HD
ATOM     24  H51 UNL     1      -3.489   8.183  15.698  1.00  0.00     0.193 HD
ENDBRANCH  21  22
ENDBRANCH  19  21
ENDBRANCH   8  19
BRANCH   9  25
HETATM   25  O5  UNL     1      -4.018   6.031  12.696  1.00  0.00    -0.311 OA
BRANCH  25  26
HETATM   26  C12 UNL     1      -4.668   7.070  12.043  1.00  0.00     0.255 C 
HETATM   27  C13 UNL     1      -3.920   8.224  11.452  1.00  0.00     0.126 C 
HETATM   28  O6  UNL     1      -5.921   7.064  11.930  1.00  0.00    -0.266 OA
ENDBRANCH  25  26
ENDBRANCH   9  25
BRANCH   5  29
HETATM   29  O2  UNL     1      -5.926   2.256  11.385  1.00  0.00    -0.392 OA
ATOM     30  H2  UNL     1      -6.423   1.578  11.827  1.00  0.00     0.210 HD
ENDBRANCH   5  29
BRANCH   1  31
HETATM   31  O1  UNL     1      -4.028   3.974   9.882  1.00  0.00    -0.381 OA
HETATM   32  C1  UNL     1      -3.046   4.715   9.296  1.00  0.00     0.202 C 
ENDBRANCH   1  31
TORSDOF 12
ENDMDL
MODEL 4
REMARK VINA RESULT: -6.661946644      1.059      1.233
REMARK  12 active torsions:
REMARK  status: ('A' for Active; 'I' for Inactive)
REMARK    1  A    between atoms: O1_2  and  C2_3 
REMARK    2  A    between atoms: C6_7  and  O2_8 
REMARK    3  A    between atoms: N1_11  and  C8_12 
REMARK    4  A    between atoms: C8_12  and  C9_13 
REMARK    5  A    between atoms: C9_13  and  N2_14 
REMARK    6  A    between atoms: N2_14  and  O3_15 
REMARK    7  A    between atoms: N2_14  and  O4_17 
REMARK    8  A    between atoms: C10_19  and  N3_20 
REMARK    9  A    between atoms: N3_20  and  N4_22 
REMARK   10  A    between atoms: N4_22  and  N5_23 
REMARK   11  A    between atoms: C11_26  and  O5_27 
REMARK   12  A    between atoms: O5_27  and  C12_28 
ROOT
HETATM    1  C2  UNL     1      -2.423   5.922  12.887  1.00  0.00     0.098 C 
HETATM    2  C3  UNL     1      -3.299   7.063  13.434  1.00  0.00     0.042 C 
HETATM    3  C4  UNL     1      -3.756   6.575  14.820  1.00  0.00     0.012 C 
HETATM    4  C5  UNL     1      -3.188   5.171  14.873  1.00  0.00     0.052 C 
HETATM    5  C6  UNL     1      -1.846   5.476  14.217  1.00  0.00     0.160 C 
HETATM    6  C7  UNL     1      -3.915   4.372  13.823  1.00  0.00     0.246 C 
HETATM    7  N1  UNL     1      -3.639   2.959  13.886  1.00  0.00     0.123 N 
HETATM    8  C10 UNL     1      -3.487   2.505  12.516  1.00  0.00     0.380 C 
HETATM    9  C11 UNL     1      -2.826   3.680  11.779  1.00  0.00     0.200 C 
HETATM   10  C14 UNL     1      -3.388   4.846  12.483  1.00  0.00     0.052 C 
HETATM   11  C15 UNL     1      -4.538   5.391  11.650  1.00  0.00     0.023 C 
ENDROOT
BRANCH   7  12
HETATM   12  C8  UNL     1      -4.790   2.321  14.495  1.00  0.00     0.295 C 
BRANCH  12  13
HETATM   13  C9  UNL     1      -4.420   1.643  15.796  1.00  0.00     0.183 C 
BRANCH  13  14
HETATM   14  N2  UNL     1      -4.573   0.194  15.604  1.00  0.00    -0.072 NA
BRANCH  14  15
HETATM   15  O3  UNL     1      -4.794  -0.082  14.305  1.00  0.00    -0.289 OA
ATOM     16  H3  UNL     1      -4.671  -1.010  14.141  1.00  0.00     0.239 HD
ENDBRANCH  14  15
BRANCH  14  17
HETATM   17  O4  UNL     1      -5.575  -0.300  16.369  1.00  0.00    -0.289 OA
ATOM     18  H4  UNL     1      -6.409   0.095  16.143  1.00  0.00     0.239 HD
ENDBRANCH  14  17
ENDBRANCH  13  14
ENDBRANCH  12  13
ENDBRANCH   7  12
BRANCH   8  19
HETATM   19  N3  UNL     1      -4.767   2.254  11.892  1.00  0.00    -0.216 N 
ATOM     20  H3  UNL     1      -5.486   2.971  11.991  1.00  0.00     0.199 HD
BRANCH  19  21
HETATM   21  N4  UNL     1      -5.052   1.264  11.263  1.00  0.00    -0.246 NA
BRANCH  21  22
HETATM   22  N5  UNL     1      -5.227   0.359  10.442  1.00  0.00    -0.261 N 
ATOM     23  H52 UNL     1      -4.894   0.974   9.699  1.00  0.00     0.193 HD
ATOM     24  H51 UNL     1      -5.434  -0.493   9.920  1.00  0.00     0.193 HD
ENDBRANCH  21  22
ENDBRANCH  19  21
ENDBRANCH   8  19
BRANCH   9  25
HETATM   25  O5  UNL     1      -3.190   3.643  10.390  1.00  0.00    -0.311 OA
BRANCH  25  26
HETATM   26  C12 UNL     1      -2.300   4.001   9.387  1.00  0.00     0.255 C 
HETATM   27  C13 UNL     1      -2.435   5.287   8.632  1.00  0.00     0.126 C 
HETATM   28  O6  UNL     1      -1.344   3.241   9.084  1.00  0.00    -0.266 OA
ENDBRANCH  25  26
ENDBRANCH   9  25
BRANCH   5  29
HETATM   29  O2  UNL     1      -1.013   4.401  14.171  1.00  0.00    -0.392 OA
ATOM     30  H2  UNL     1      -1.213   3.750  13.508  1.00  0.00     0.210 HD
ENDBRANCH   5  29
BRANCH   1  31
HETATM   31  O1  UNL     1      -1.540   6.292  11.944  1.00  0.00    -0.381 OA
HETATM   32  C1  UNL     1      -1.305   7.617  11.737  1.00  0.00     0.202 C 
ENDBRANCH   1  31
TORSDOF 12
ENDMDL
MODEL 5
REMARK VINA RESULT: -6.629802702      2.019      3.764
REMARK  12 active torsions:
REMARK  status: ('A' for Active; 'I' for Inactive)
REMARK    1  A    between atoms: O1_2  and  C2_3 
REMARK    2  A    between atoms: C6_7  and  O2_8 
REMARK    3  A    between atoms: N1_11  and  C8_12 
REMARK    4  A    between atoms: C8_12  and  C9_13 
REMARK    5  A    between atoms: C9_13  and  N2_14 
REMARK    6  A    between atoms: N2_14  and  O3_15 
REMARK    7  A    between atoms: N2_14  and  O4_17 
REMARK    8  A    between atoms: C10_19  and  N3_20 
REMARK    9  A    between atoms: N3_20  and  N4_22 
REMARK   10  A    between atoms: N4_22  and  N5_23 
REMARK   11  A    between atoms: C11_26  and  O5_27 
REMARK   12  A    between atoms: O5_27  and  C12_28 
ROOT
HETATM    1  C2  UNL     1      -3.960   4.971  14.789  1.00  0.00     0.098 C 
HETATM    2  C3  UNL     1      -5.396   5.511  14.906  1.00  0.00     0.042 C 
HETATM    3  C4  UNL     1      -6.281   4.255  14.970  1.00  0.00     0.012 C 
HETATM    4  C5  UNL     1      -5.275   3.138  14.774  1.00  0.00     0.052 C 
HETATM    5  C6  UNL     1      -4.159   3.725  15.630  1.00  0.00     0.160 C 
HETATM    6  C7  UNL     1      -4.746   3.277  13.370  1.00  0.00     0.246 C 
HETATM    7  N1  UNL     1      -3.932   2.164  12.953  1.00  0.00     0.123 N 
HETATM    8  C10 UNL     1      -2.806   2.723  12.228  1.00  0.00     0.380 C 
HETATM    9  C11 UNL     1      -2.498   4.052  12.935  1.00  0.00     0.200 C 
HETATM   10  C14 UNL     1      -3.836   4.489  13.374  1.00  0.00     0.052 C 
HETATM   11  C15 UNL     1      -4.350   5.512  12.372  1.00  0.00     0.023 C 
ENDROOT
BRANCH   7  12
HETATM   12  C8  UNL     1      -4.738   1.348  12.065  1.00  0.00     0.295 C 
BRANCH  12  13
HETATM   13  C9  UNL     1      -4.019   0.072  11.686  1.00  0.00     0.183 C 
BRANCH  13  14
HETATM   14  N2  UNL     1      -4.008  -0.015  10.218  1.00  0.00    -0.072 NA
BRANCH  14  15
HETATM   15  O3  UNL     1      -2.809   0.364   9.739  1.00  0.00    -0.289 OA
ATOM     16  H3  UNL     1      -2.348  -0.385   9.379  1.00  0.00     0.239 HD
ENDBRANCH  14  15
BRANCH  14  17
HETATM   17  O4  UNL     1      -4.995   0.737   9.674  1.00  0.00    -0.289 OA
ATOM     18  H4  UNL     1      -4.791   0.976   8.778  1.00  0.00     0.239 HD
ENDBRANCH  14  17
ENDBRANCH  13  14
ENDBRANCH  12  13
ENDBRANCH   7  12
BRANCH   8  19
HETATM   19  N3  UNL     1      -3.149   3.020  10.856  1.00  0.00    -0.216 N 
ATOM     20  H3  UNL     1      -4.139   3.109  10.628  1.00  0.00     0.199 HD
BRANCH  19  21
HETATM   21  N4  UNL     1      -2.357   3.171   9.957  1.00  0.00    -0.246 NA
BRANCH  21  22
HETATM   22  N5  UNL     1      -1.383   3.319   9.213  1.00  0.00    -0.261 N 
ATOM     23  H52 UNL     1      -0.821   2.743   9.840  1.00  0.00     0.193 HD
ATOM     24  H51 UNL     1      -0.703   3.550   8.489  1.00  0.00     0.193 HD
ENDBRANCH  21  22
ENDBRANCH  19  21
ENDBRANCH   8  19
BRANCH   9  25
HETATM   25  O5  UNL     1      -1.895   4.964  12.004  1.00  0.00    -0.311 OA
BRANCH  25  26
HETATM   26  C12 UNL     1      -0.559   5.329  12.093  1.00  0.00     0.255 C 
HETATM   27  C13 UNL     1      -0.135   6.644  12.668  1.00  0.00     0.126 C 
HETATM   28  O6  UNL     1       0.341   4.550  11.685  1.00  0.00    -0.266 OA
ENDBRANCH  25  26
ENDBRANCH   9  25
BRANCH   5  29
HETATM   29  O2  UNL     1      -3.079   2.906  15.742  1.00  0.00    -0.392 OA
ATOM     30  H2  UNL     1      -3.162   2.193  16.365  1.00  0.00     0.210 HD
ENDBRANCH   5  29
BRANCH   1  31
HETATM   31  O1  UNL     1      -3.002   5.822  15.196  1.00  0.00    -0.381 OA
HETATM   32  C1  UNL     1      -3.194   7.162  15.039  1.00  0.00     0.202 C 
ENDBRANCH   1  31
TORSDOF 12
ENDMDL
