MODEL 1
REMARK VINA RESULT: -7.227092514      0.000      0.000
REMARK  11 active torsions:
REMARK  status: ('A' for Active; 'I' for Inactive)
REMARK    1  A    between atoms: O1_2  and  C2_3 
REMARK    2  A    between atoms: C2_3  and  C3_5 
REMARK    3  A    between atoms: C3_5  and  N1_6 
REMARK    4  A    between atoms: N1_6  and  O3_7 
REMARK    5  A    between atoms: N1_6  and  C4_9 
REMARK    6  A    between atoms: C5_11  and  C6_12 
REMARK    7  A    between atoms: C6_12  and  O5_15 
REMARK    8  A    between atoms: C11_19  and  C12_20 
REMARK    9  A    between atoms: C13_21  and  C14_22 
REMARK   10  A    between atoms: C14_22  and  O6_23 
REMARK   11  A    between atoms: C17_30  and  O7_31 
ROOT
HETATM    1  C3  UNL     1      -3.437   3.699  12.389  1.00  0.00     0.190 C 
HETATM    2  C5  UNL     1      -3.858   4.653  13.416  1.00  0.00     0.074 C 
HETATM    3  C9  UNL     1      -5.072   3.793  13.674  1.00  0.00     0.067 C 
HETATM    4  C10 UNL     1      -5.259   3.478  15.088  1.00  0.00    -0.040 C 
HETATM    5  C11 UNL     1      -6.225   3.877  15.906  1.00  0.00     0.005 C 
HETATM    6  C15 UNL     1      -4.115   2.586  15.466  1.00  0.00     0.249 A 
HETATM    7  N2  UNL     1      -4.313   1.175  15.209  1.00  0.00    -0.055 N 
ATOM      8  H21 UNL     1      -5.136   0.573  15.203  1.00  0.00     0.278 HD
ATOM      9  H22 UNL     1      -4.071   0.328  15.724  1.00  0.00     0.278 HD
HETATM   10  C16 UNL     1      -3.639   1.942  14.191  1.00  0.00     0.259 A 
HETATM   11  C17 UNL     1      -4.276   2.645  13.086  1.00  0.00     0.136 C 
ENDROOT
BRANCH   1  12
HETATM   12  C2  UNL     1      -4.014   3.871  11.014  1.00  0.00     0.293 C 
HETATM   13  O2  UNL     1      -5.224   4.124  10.890  1.00  0.00    -0.262 OA
BRANCH  12  14
HETATM   14  O1  UNL     1      -3.274   3.767   9.848  1.00  0.00    -0.324 OA
HETATM   15  C1  UNL     1      -2.938   4.931   9.117  1.00  0.00     0.213 C 
ENDBRANCH  12  14
ENDBRANCH   1  12
BRANCH   1  16
HETATM   16  N1  UNL     1      -2.045   3.367  12.338  1.00  0.00    -0.212 N 
BRANCH  16  17
HETATM   17  O3  UNL     1      -1.215   4.004  13.241  1.00  0.00    -0.284 OA
ATOM     18  H3  UNL     1      -1.466   3.967  14.157  1.00  0.00     0.245 HD
ENDBRANCH  16  17
BRANCH  16  19
HETATM   19  C4  UNL     1      -1.378   2.488  11.479  1.00  0.00     0.378 C 
HETATM   20  O4  UNL     1      -1.281   1.245  11.677  1.00  0.00    -0.281 OA
ENDBRANCH  16  19
ENDBRANCH   1  16
BRANCH   2  21
HETATM   21  C6  UNL     1      -4.031   6.086  13.227  1.00  0.00     0.058 C 
HETATM   22  C7  UNL     1      -3.287   6.825  12.201  1.00  0.00     0.046 C 
HETATM   23  C8  UNL     1      -3.774   6.778  14.572  1.00  0.00     0.046 C 
BRANCH  21  24
HETATM   24  O5  UNL     1      -5.412   6.317  12.988  1.00  0.00    -0.390 OA
ATOM     25  H5  UNL     1      -5.885   6.003  13.749  1.00  0.00     0.210 HD
ENDBRANCH  21  24
ENDBRANCH   2  21
BRANCH  11  26
HETATM   26  O7  UNL     1      -4.954   1.895  12.140  1.00  0.00    -0.379 OA
HETATM   27  C18 UNL     1      -4.630   0.605  11.958  1.00  0.00     0.202 C 
ENDBRANCH  11  26
BRANCH   5  28
HETATM   28  C12 UNL     1      -6.294   3.494  17.280  1.00  0.00    -0.002 C 
HETATM   29  C13 UNL     1      -6.850   2.417  17.727  1.00  0.00    -0.001 C 
BRANCH  29  30
HETATM   30  C14 UNL     1      -7.492   1.438  16.850  1.00  0.00     0.191 C 
BRANCH  30  31
HETATM   31  O6  UNL     1      -6.740   0.261  16.822  1.00  0.00    -0.397 OA
ATOM     32  H6  UNL     1      -5.861   0.448  16.515  1.00  0.00     0.209 HD
ENDBRANCH  30  31
ENDBRANCH  29  30
ENDBRANCH   5  28
TORSDOF 11
ENDMDL
MODEL 2
REMARK VINA RESULT: -7.003074141      1.303      1.661
REMARK  11 active torsions:
REMARK  status: ('A' for Active; 'I' for Inactive)
REMARK    1  A    between atoms: O1_2  and  C2_3 
REMARK    2  A    between atoms: C2_3  and  C3_5 
REMARK    3  A    between atoms: C3_5  and  N1_6 
REMARK    4  A    between atoms: N1_6  and  O3_7 
REMARK    5  A    between atoms: N1_6  and  C4_9 
REMARK    6  A    between atoms: C5_11  and  C6_12 
REMARK    7  A    between atoms: C6_12  and  O5_15 
REMARK    8  A    between atoms: C11_19  and  C12_20 
REMARK    9  A    between atoms: C13_21  and  C14_22 
REMARK   10  A    between atoms: C14_22  and  O6_23 
REMARK   11  A    between atoms: C17_30  and  O7_31 
ROOT
HETATM    1  C3  UNL     1      -3.392   3.870  11.511  1.00  0.00     0.190 C 
HETATM    2  C5  UNL     1      -3.272   4.484  12.835  1.00  0.00     0.074 C 
HETATM    3  C9  UNL     1      -4.567   3.812  13.229  1.00  0.00     0.067 C 
HETATM    4  C10 UNL     1      -4.469   3.079  14.489  1.00  0.00    -0.040 C 
HETATM    5  C11 UNL     1      -5.057   3.343  15.650  1.00  0.00     0.005 C 
HETATM    6  C15 UNL     1      -3.547   1.927  14.226  1.00  0.00     0.249 A 
HETATM    7  N2  UNL     1      -4.171   0.742  13.678  1.00  0.00    -0.055 N 
ATOM      8  H21 UNL     1      -5.099   0.329  13.776  1.00  0.00     0.278 HD
ATOM      9  H22 UNL     1      -4.042  -0.257  13.841  1.00  0.00     0.278 HD
HETATM   10  C16 UNL     1      -3.596   1.675  12.742  1.00  0.00     0.259 A 
HETATM   11  C17 UNL     1      -4.279   2.807  12.132  1.00  0.00     0.136 C 
ENDROOT
BRANCH   1  12
HETATM   12  C2  UNL     1      -4.229   4.591  10.494  1.00  0.00     0.293 C 
HETATM   13  O2  UNL     1      -3.960   4.467   9.288  1.00  0.00    -0.262 OA
BRANCH  12  14
HETATM   14  O1  UNL     1      -5.306   5.401  10.815  1.00  0.00    -0.324 OA
HETATM   15  C1  UNL     1      -5.530   6.598  10.095  1.00  0.00     0.213 C 
ENDBRANCH  12  14
ENDBRANCH   1  12
BRANCH   1  16
HETATM   16  N1  UNL     1      -2.198   3.337  10.928  1.00  0.00    -0.212 N 
BRANCH  16  17
HETATM   17  O3  UNL     1      -2.356   2.388   9.936  1.00  0.00    -0.284 OA
ATOM     18  H3  UNL     1      -1.796   2.465   9.173  1.00  0.00     0.245 HD
ENDBRANCH  16  17
BRANCH  16  19
HETATM   19  C4  UNL     1      -0.864   3.625  11.229  1.00  0.00     0.378 C 
HETATM   20  O4  UNL     1      -0.200   3.041  12.131  1.00  0.00    -0.281 OA
ENDBRANCH  16  19
ENDBRANCH   1  16
BRANCH   2  21
HETATM   21  C6  UNL     1      -3.100   5.904  13.103  1.00  0.00     0.058 C 
HETATM   22  C7  UNL     1      -2.435   6.795  12.146  1.00  0.00     0.046 C 
HETATM   23  C8  UNL     1      -2.377   6.050  14.449  1.00  0.00     0.046 C 
BRANCH  21  24
HETATM   24  O5  UNL     1      -4.388   6.446  13.352  1.00  0.00    -0.390 OA
ATOM     25  H5  UNL     1      -4.268   7.225  13.881  1.00  0.00     0.210 HD
ENDBRANCH  21  24
ENDBRANCH   2  21
BRANCH  11  26
HETATM   26  O7  UNL     1      -5.347   2.548  11.290  1.00  0.00    -0.379 OA
HETATM   27  C18 UNL     1      -5.490   1.325  10.755  1.00  0.00     0.202 C 
ENDBRANCH  11  26
BRANCH   5  28
HETATM   28  C12 UNL     1      -4.878   2.540  16.818  1.00  0.00    -0.002 C 
HETATM   29  C13 UNL     1      -5.821   1.925  17.451  1.00  0.00    -0.001 C 
BRANCH  29  30
HETATM   30  C14 UNL     1      -7.221   1.982  17.031  1.00  0.00     0.191 C 
BRANCH  30  31
HETATM   31  O6  UNL     1      -7.698   0.691  16.794  1.00  0.00    -0.397 OA
ATOM     32  H6  UNL     1      -8.633   0.657  16.960  1.00  0.00     0.209 HD
ENDBRANCH  30  31
ENDBRANCH  29  30
ENDBRANCH   5  28
TORSDOF 11
ENDMDL
MODEL 3
REMARK VINA RESULT: -6.870545960      1.970      3.901
REMARK  11 active torsions:
REMARK  status: ('A' for Active; 'I' for Inactive)
REMARK    1  A    between atoms: O1_2  and  C2_3 
REMARK    2  A    between atoms: C2_3  and  C3_5 
REMARK    3  A    between atoms: C3_5  and  N1_6 
REMARK    4  A    between atoms: N1_6  and  O3_7 
REMARK    5  A    between atoms: N1_6  and  C4_9 
REMARK    6  A    between atoms: C5_11  and  C6_12 
REMARK    7  A    between atoms: C6_12  and  O5_15 
REMARK    8  A    between atoms: C11_19  and  C12_20 
REMARK    9  A    between atoms: C13_21  and  C14_22 
REMARK   10  A    between atoms: C14_22  and  O6_23 
REMARK   11  A    between atoms: C17_30  and  O7_31 
ROOT
HETATM    1  C3  UNL     1      -3.068   4.789  12.312  1.00  0.00     0.190 C 
HETATM    2  C5  UNL     1      -3.856   3.572  12.515  1.00  0.00     0.074 C 
HETATM    3  C9  UNL     1      -3.630   3.711  14.001  1.00  0.00     0.067 C 
HETATM    4  C10 UNL     1      -4.865   3.629  14.777  1.00  0.00    -0.040 C 
HETATM    5  C11 UNL     1      -5.252   2.682  15.625  1.00  0.00     0.005 C 
HETATM    6  C15 UNL     1      -5.652   4.857  14.431  1.00  0.00     0.249 A 
HETATM    7  N2  UNL     1      -5.338   6.037  15.207  1.00  0.00    -0.055 N 
ATOM      8  H21 UNL     1      -5.017   6.183  16.164  1.00  0.00     0.278 HD
ATOM      9  H22 UNL     1      -5.906   6.786  15.606  1.00  0.00     0.278 HD
HETATM   10  C16 UNL     1      -4.655   5.877  13.947  1.00  0.00     0.259 A 
HETATM   11  C17 UNL     1      -3.391   5.184  13.741  1.00  0.00     0.136 C 
ENDROOT
BRANCH   1  12
HETATM   12  C2  UNL     1      -1.577   4.636  12.232  1.00  0.00     0.293 C 
HETATM   13  O2  UNL     1      -1.025   3.722  12.869  1.00  0.00    -0.262 OA
BRANCH  12  14
HETATM   14  O1  UNL     1      -0.756   5.459  11.480  1.00  0.00    -0.324 OA
HETATM   15  C1  UNL     1       0.393   6.040  12.066  1.00  0.00     0.213 C 
ENDBRANCH  12  14
ENDBRANCH   1  12
BRANCH   1  16
HETATM   16  N1  UNL     1      -3.553   5.727  11.345  1.00  0.00    -0.212 N 
BRANCH  16  17
HETATM   17  O3  UNL     1      -3.065   7.018  11.425  1.00  0.00    -0.284 OA
ATOM     18  H3  UNL     1      -2.909   7.472  10.605  1.00  0.00     0.245 HD
ENDBRANCH  16  17
BRANCH  16  19
HETATM   19  C4  UNL     1      -4.482   5.536  10.318  1.00  0.00     0.378 C 
HETATM   20  O4  UNL     1      -5.689   5.901  10.380  1.00  0.00    -0.281 OA
ENDBRANCH  16  19
ENDBRANCH   1  16
BRANCH   2  21
HETATM   21  C6  UNL     1      -3.616   2.286  11.877  1.00  0.00     0.058 C 
HETATM   22  C7  UNL     1      -2.847   2.173  10.633  1.00  0.00     0.046 C 
HETATM   23  C8  UNL     1      -4.974   1.609  11.644  1.00  0.00     0.046 C 
BRANCH  21  24
HETATM   24  O5  UNL     1      -2.983   1.451  12.836  1.00  0.00    -0.390 OA
ATOM     25  H5  UNL     1      -2.817   0.616  12.416  1.00  0.00     0.210 HD
ENDBRANCH  21  24
ENDBRANCH   2  21
BRANCH  11  26
HETATM   26  O7  UNL     1      -2.257   5.703  14.343  1.00  0.00    -0.379 OA
HETATM   27  C18 UNL     1      -2.238   6.988  14.727  1.00  0.00     0.202 C 
ENDBRANCH  11  26
BRANCH   5  28
HETATM   28  C12 UNL     1      -6.495   2.721  16.326  1.00  0.00    -0.002 C 
HETATM   29  C13 UNL     1      -6.787   2.010  17.365  1.00  0.00    -0.001 C 
BRANCH  29  30
HETATM   30  C14 UNL     1      -5.850   1.057  17.958  1.00  0.00     0.191 C 
BRANCH  30  31
HETATM   31  O6  UNL     1      -6.041  -0.208  17.397  1.00  0.00    -0.397 OA
ATOM     32  H6  UNL     1      -5.230  -0.700  17.428  1.00  0.00     0.209 HD
ENDBRANCH  30  31
ENDBRANCH  29  30
ENDBRANCH   5  28
TORSDOF 11
ENDMDL
MODEL 4
REMARK VINA RESULT: -6.600724472      1.846      3.726
REMARK  11 active torsions:
REMARK  status: ('A' for Active; 'I' for Inactive)
REMARK    1  A    between atoms: O1_2  and  C2_3 
REMARK    2  A    between atoms: C2_3  and  C3_5 
REMARK    3  A    between atoms: C3_5  and  N1_6 
REMARK    4  A    between atoms: N1_6  and  O3_7 
REMARK    5  A    between atoms: N1_6  and  C4_9 
REMARK    6  A    between atoms: C5_11  and  C6_12 
REMARK    7  A    between atoms: C6_12  and  O5_15 
REMARK    8  A    between atoms: C11_19  and  C12_20 
REMARK    9  A    between atoms: C13_21  and  C14_22 
REMARK   10  A    between atoms: C14_22  and  O6_23 
REMARK   11  A    between atoms: C17_30  and  O7_31 
ROOT
HETATM    1  C3  UNL     1      -3.071   4.561  12.032  1.00  0.00     0.190 C 
HETATM    2  C5  UNL     1      -4.006   3.458  12.261  1.00  0.00     0.074 C 
HETATM    3  C9  UNL     1      -3.647   3.501  13.727  1.00  0.00     0.067 C 
HETATM    4  C10 UNL     1      -4.818   3.558  14.600  1.00  0.00    -0.040 C 
HETATM    5  C11 UNL     1      -5.268   2.640  15.446  1.00  0.00     0.005 C 
HETATM    6  C15 UNL     1      -5.447   4.897  14.358  1.00  0.00     0.249 A 
HETATM    7  N2  UNL     1      -4.909   5.989  15.142  1.00  0.00    -0.055 N 
ATOM      8  H21 UNL     1      -4.498   6.047  16.073  1.00  0.00     0.278 HD
ATOM      9  H22 UNL     1      -5.332   6.791  15.610  1.00  0.00     0.278 HD
HETATM   10  C16 UNL     1      -4.356   5.789  13.825  1.00  0.00     0.259 A 
HETATM   11  C17 UNL     1      -3.222   4.936  13.494  1.00  0.00     0.136 C 
ENDROOT
BRANCH   1  12
HETATM   12  C2  UNL     1      -1.627   4.206  11.824  1.00  0.00     0.293 C 
HETATM   13  O2  UNL     1      -1.101   3.349  12.555  1.00  0.00    -0.262 OA
BRANCH  12  14
HETATM   14  O1  UNL     1      -0.824   4.777  10.851  1.00  0.00    -0.324 OA
HETATM   15  C1  UNL     1      -0.018   3.956  10.027  1.00  0.00     0.213 C 
ENDBRANCH  12  14
ENDBRANCH   1  12
BRANCH   1  16
HETATM   16  N1  UNL     1      -3.491   5.598  11.138  1.00  0.00    -0.212 N 
BRANCH  16  17
HETATM   17  O3  UNL     1      -2.941   6.852  11.330  1.00  0.00    -0.284 OA
ATOM     18  H3  UNL     1      -2.223   7.099  10.759  1.00  0.00     0.245 HD
ENDBRANCH  16  17
BRANCH  16  19
HETATM   19  C4  UNL     1      -4.410   5.539  10.086  1.00  0.00     0.378 C 
HETATM   20  O4  UNL     1      -4.253   4.836   9.049  1.00  0.00    -0.281 OA
ENDBRANCH  16  19
ENDBRANCH   1  16
BRANCH   2  21
HETATM   21  C6  UNL     1      -4.001   2.180  11.566  1.00  0.00     0.058 C 
HETATM   22  C7  UNL     1      -5.228   1.599  11.008  1.00  0.00     0.046 C 
HETATM   23  C8  UNL     1      -3.378   1.133  12.499  1.00  0.00     0.046 C 
BRANCH  21  24
HETATM   24  O5  UNL     1      -3.066   2.281  10.502  1.00  0.00    -0.390 OA
ATOM     25  H5  UNL     1      -2.252   1.899  10.805  1.00  0.00     0.210 HD
ENDBRANCH  21  24
ENDBRANCH   2  21
BRANCH  11  26
HETATM   26  O7  UNL     1      -1.983   5.266  14.017  1.00  0.00    -0.379 OA
HETATM   27  C18 UNL     1      -1.761   6.511  14.464  1.00  0.00     0.202 C 
ENDBRANCH  11  26
BRANCH   5  28
HETATM   28  C12 UNL     1      -6.435   2.822  16.249  1.00  0.00    -0.002 C 
HETATM   29  C13 UNL     1      -6.695   2.183  17.342  1.00  0.00    -0.001 C 
BRANCH  29  30
HETATM   30  C14 UNL     1      -5.796   1.171  17.898  1.00  0.00     0.191 C 
BRANCH  30  31
HETATM   31  O6  UNL     1      -6.139  -0.090  17.405  1.00  0.00    -0.397 OA
ATOM     32  H6  UNL     1      -5.470  -0.721  17.641  1.00  0.00     0.209 HD
ENDBRANCH  30  31
ENDBRANCH  29  30
ENDBRANCH   5  28
TORSDOF 11
ENDMDL
MODEL 5
REMARK VINA RESULT: -6.415067083      1.647      2.179
REMARK  11 active torsions:
REMARK  status: ('A' for Active; 'I' for Inactive)
REMARK    1  A    between atoms: O1_2  and  C2_3 
REMARK    2  A    between atoms: C2_3  and  C3_5 
REMARK    3  A    between atoms: C3_5  and  N1_6 
REMARK    4  A    between atoms: N1_6  and  O3_7 
REMARK    5  A    between atoms: N1_6  and  C4_9 
REMARK    6  A    between atoms: C5_11  and  C6_12 
REMARK    7  A    between atoms: C6_12  and  O5_15 
REMARK    8  A    between atoms: C11_19  and  C12_20 
REMARK    9  A    between atoms: C13_21  and  C14_22 
REMARK   10  A    between atoms: C14_22  and  O6_23 
REMARK   11  A    between atoms: C17_30  and  O7_31 
ROOT
HETATM    1  C3  UNL     1      -2.600   4.252  11.914  1.00  0.00     0.190 C 
HETATM    2  C5  UNL     1      -3.647   5.229  12.221  1.00  0.00     0.074 C 
HETATM    3  C9  UNL     1      -4.460   4.116  12.837  1.00  0.00     0.067 C 
HETATM    4  C10 UNL     1      -4.944   4.438  14.178  1.00  0.00    -0.040 C 
HETATM    5  C11 UNL     1      -6.192   4.640  14.584  1.00  0.00     0.005 C 
HETATM    6  C15 UNL     1      -3.727   4.501  15.051  1.00  0.00     0.249 A 
HETATM    7  N2  UNL     1      -3.287   3.236  15.600  1.00  0.00    -0.055 N 
ATOM      8  H21 UNL     1      -3.776   2.385  15.878  1.00  0.00     0.278 HD
ATOM      9  H22 UNL     1      -2.916   2.958  16.509  1.00  0.00     0.278 HD
HETATM   10  C16 UNL     1      -2.672   3.669  14.369  1.00  0.00     0.259 A 
HETATM   11  C17 UNL     1      -3.151   3.378  13.025  1.00  0.00     0.136 C 
ENDROOT
BRANCH   1  12
HETATM   12  C2  UNL     1      -2.742   3.471  10.640  1.00  0.00     0.293 C 
HETATM   13  O2  UNL     1      -3.878   3.220  10.204  1.00  0.00    -0.262 OA
BRANCH  12  14
HETATM   14  O1  UNL     1      -1.669   3.003   9.899  1.00  0.00    -0.324 OA
HETATM   15  C1  UNL     1      -1.134   3.791   8.853  1.00  0.00     0.213 C 
ENDBRANCH  12  14
ENDBRANCH   1  12
BRANCH   1  16
HETATM   16  N1  UNL     1      -1.244   4.657  12.135  1.00  0.00    -0.212 N 
BRANCH  16  17
HETATM   17  O3  UNL     1      -0.311   3.652  12.307  1.00  0.00    -0.284 OA
ATOM     18  H3  UNL     1       0.138   3.344  11.528  1.00  0.00     0.245 HD
ENDBRANCH  16  17
BRANCH  16  19
HETATM   19  C4  UNL     1      -0.711   5.946  12.225  1.00  0.00     0.378 C 
HETATM   20  O4  UNL     1      -0.895   6.720  13.205  1.00  0.00    -0.281 OA
ENDBRANCH  16  19
ENDBRANCH   1  16
BRANCH   2  21
HETATM   21  C6  UNL     1      -4.280   6.126  11.265  1.00  0.00     0.058 C 
HETATM   22  C7  UNL     1      -3.532   6.722  10.153  1.00  0.00     0.046 C 
HETATM   23  C8  UNL     1      -4.933   7.272  12.050  1.00  0.00     0.046 C 
BRANCH  21  24
HETATM   24  O5  UNL     1      -5.383   5.432  10.702  1.00  0.00    -0.390 OA
ATOM     25  H5  UNL     1      -5.460   4.604  11.161  1.00  0.00     0.210 HD
ENDBRANCH  21  24
ENDBRANCH   2  21
BRANCH  11  26
HETATM   26  O7  UNL     1      -3.165   2.057  12.609  1.00  0.00    -0.379 OA
HETATM   27  C18 UNL     1      -3.993   1.183  13.202  1.00  0.00     0.202 C 
ENDBRANCH  11  26
BRANCH   5  28
HETATM   28  C12 UNL     1      -6.533   4.950  15.935  1.00  0.00    -0.002 C 
HETATM   29  C13 UNL     1      -6.790   4.082  16.857  1.00  0.00    -0.001 C 
BRANCH  29  30
HETATM   30  C14 UNL     1      -6.759   2.639  16.614  1.00  0.00     0.191 C 
BRANCH  30  31
HETATM   31  O6  UNL     1      -5.567   2.101  17.106  1.00  0.00    -0.397 OA
ATOM     32  H6  UNL     1      -5.422   1.242  16.728  1.00  0.00     0.209 HD
ENDBRANCH  30  31
ENDBRANCH  29  30
ENDBRANCH   5  28
TORSDOF 11
ENDMDL
