MODEL 1
REMARK VINA RESULT: -8.951651245      0.000      0.000
REMARK  16 active torsions:
REMARK  status: ('A' for Active; 'I' for Inactive)
REMARK    1  A    between atoms: C2_2  and  S1_3 
REMARK    2  A    between atoms: S1_3  and  N1_6 
REMARK       I    between atoms: N1_6  and  C3_8 
REMARK       I    between atoms: C3_8  and  N2_10 
REMARK    3  A    between atoms: N2_10  and  C4_12 
REMARK    4  A    between atoms: C5_14  and  C6_15 
REMARK    5  A    between atoms: C9_22  and  O9_23 
REMARK    6  A    between atoms: O9_23  and  N3_24 
REMARK    7  A    between atoms: N4_27  and  O10_28 
REMARK    8  A    between atoms: O10_28  and  S2_29 
REMARK    9  A    between atoms: S2_29  and  C11_32 
REMARK   10  A    between atoms: C11_32  and  C12_33 
REMARK   11  A    between atoms: C12_33  and  O13_35 
REMARK   12  A    between atoms: O13_35  and  C13_36 
REMARK   13  A    between atoms: C18_41  and  O14_42 
REMARK   14  A    between atoms: C18_41  and  C19_44 
REMARK   15  A    between atoms: C19_44  and  O15_45 
REMARK   16  A    between atoms: C21_48  and  O16_49 
ROOT
HETATM    1  C4  UNL     1       1.624 -23.666  -8.337  1.00  0.00     0.261 C 
HETATM    2  O4  UNL     1       1.461 -24.993  -8.569  1.00  0.00    -0.329 OA
HETATM    3  C5  UNL     1       0.190 -25.487  -8.654  1.00  0.00     0.284 C 
HETATM    4  C7  UNL     1      -0.608 -24.758  -9.706  1.00  0.00     0.310 C 
HETATM    5  O7  UNL     1      -1.525 -25.276 -10.334  1.00  0.00    -0.261 OA
HETATM    6  O8  UNL     1      -0.179 -23.448  -9.869  1.00  0.00    -0.304 OA
HETATM    7  C8  UNL     1       0.393 -22.884  -8.706  1.00  0.00     0.233 C 
HETATM    8  C9  UNL     1      -0.540 -22.867  -7.524  1.00  0.00     0.311 C 
HETATM    9  N4  UNL     1      -1.236 -24.060  -7.259  1.00  0.00    -0.212 N 
HETATM   10  C21 UNL     1      -0.569 -25.295  -7.362  1.00  0.00     0.302 C 
ENDROOT
BRANCH   9  11
HETATM   11  O10 UNL     1      -2.426 -24.140  -7.733  1.00  0.00    -0.185 OA
BRANCH  11  12
HETATM   12  S2  UNL     1      -3.603 -23.267  -8.071  1.00  0.00     0.087 S 
HETATM   13  C10 UNL     1      -4.490 -24.310  -9.353  1.00  0.00     0.146 C 
HETATM   14  O11 UNL     1      -4.420 -21.747  -8.792  1.00  0.00    -0.241 OA
BRANCH  12  15
HETATM   15  C11 UNL     1      -4.290 -22.853  -6.436  1.00  0.00     0.237 C 
BRANCH  15  16
HETATM   16  C12 UNL     1      -3.635 -21.717  -5.711  1.00  0.00     0.276 C 
HETATM   17  O12 UNL     1      -2.696 -22.062  -4.915  1.00  0.00    -0.264 OA
BRANCH  16  18
HETATM   18  O13 UNL     1      -4.000 -20.401  -5.871  1.00  0.00    -0.290 OA
BRANCH  18  19
HETATM   19  C13 UNL     1      -3.164 -19.420  -5.366  1.00  0.00     0.148 C 
HETATM   20  C14 UNL     1      -2.419 -18.733  -6.195  1.00  0.00    -0.054 C 
HETATM   21  C15 UNL     1      -2.481 -19.012  -7.646  1.00  0.00     0.036 C 
HETATM   22  C20 UNL     1      -1.488 -17.659  -5.756  1.00  0.00     0.076 C 
HETATM   23  C16 UNL     1      -2.565 -17.673  -8.350  1.00  0.00     0.007 C 
HETATM   24  C17 UNL     1      -3.032 -16.605  -7.403  1.00  0.00     0.040 C 
HETATM   25  C18 UNL     1      -2.036 -16.356  -6.287  1.00  0.00     0.083 C 
BRANCH  25  26
HETATM   26  O14 UNL     1      -0.985 -15.583  -6.779  1.00  0.00    -0.387 OA
ATOM     27  H14 UNL     1      -0.161 -15.992  -6.542  1.00  0.00     0.210 HD
ENDBRANCH  25  26
BRANCH  25  28
HETATM   28  C19 UNL     1      -2.673 -15.564  -5.161  1.00  0.00     0.202 C 
BRANCH  28  29
HETATM   29  O15 UNL     1      -2.002 -15.862  -3.987  1.00  0.00    -0.398 OA
ATOM     30  H15 UNL     1      -1.869 -15.053  -3.507  1.00  0.00     0.209 HD
ENDBRANCH  28  29
ENDBRANCH  25  28
ENDBRANCH  18  19
ENDBRANCH  16  18
ENDBRANCH  15  16
ENDBRANCH  12  15
ENDBRANCH  11  12
ENDBRANCH   9  11
BRANCH   8  31
HETATM   31  O9  UNL     1       0.154 -22.354  -6.425  1.00  0.00    -0.256 OA
BRANCH  31  32
HETATM   32  N3  UNL     1       0.125 -21.006  -6.395  1.00  0.00    -0.309 N 
ATOM     33  H32 UNL     1       0.722 -20.421  -6.981  1.00  0.00     0.184 HD
ATOM     34  H31 UNL     1      -0.558 -20.654  -5.725  1.00  0.00     0.184 HD
ENDBRANCH  31  32
ENDBRANCH   8  31
BRANCH  10  35
HETATM   35  O16 UNL     1       0.309 -25.580  -6.325  1.00  0.00    -0.371 OA
ATOM     36  H16 UNL     1      -0.059 -25.203  -5.535  1.00  0.00     0.212 HD
ENDBRANCH  10  35
BRANCH   3  37
HETATM   37  C6  UNL     1       0.244 -26.933  -8.944  1.00  0.00     0.225 C 
HETATM   38  O5  UNL     1       1.085 -27.352  -9.770  1.00  0.00    -0.645 OA
HETATM   39  O6  UNL     1      -0.610 -27.794  -8.322  1.00  0.00    -0.645 OA
ENDBRANCH   3  37
BRANCH   1  40
HETATM   40  N2  UNL     1       2.785 -23.160  -9.087  1.00  0.00    -0.313 N 
HETATM   41  C3  UNL     1       3.268 -21.871  -8.797  1.00  0.00     0.331 C 
HETATM   42  N1  UNL     1       4.374 -21.352  -9.489  1.00  0.00    -0.236 N 
HETATM   43  O3  UNL     1       2.704 -21.163  -7.898  1.00  0.00    -0.246 OA
ATOM     44  H1  UNL     1       4.821 -21.924 -10.206  1.00  0.00     0.183 HD
ATOM     45  H2  UNL     1       3.231 -23.733  -9.804  1.00  0.00     0.167 HD
BRANCH  42  46
HETATM   46  S1  UNL     1       5.002 -19.772  -9.166  1.00  0.00     0.233 S 
HETATM   47  O1  UNL     1       5.830 -19.297 -10.313  1.00  0.00    -0.206 OA
HETATM   48  O2  UNL     1       3.849 -18.844  -8.955  1.00  0.00    -0.206 OA
BRANCH  46  49
HETATM   49  C2  UNL     1       6.007 -19.773  -7.712  1.00  0.00     0.159 C 
HETATM   50  C1  UNL     1       7.031 -18.679  -7.737  1.00  0.00     0.023 C 
ENDBRANCH  46  49
ENDBRANCH  42  46
ENDBRANCH   1  40
TORSDOF 16
ENDMDL
MODEL 2
REMARK VINA RESULT: -8.775978884      4.547      9.590
REMARK  16 active torsions:
REMARK  status: ('A' for Active; 'I' for Inactive)
REMARK    1  A    between atoms: C2_2  and  S1_3 
REMARK    2  A    between atoms: S1_3  and  N1_6 
REMARK       I    between atoms: N1_6  and  C3_8 
REMARK       I    between atoms: C3_8  and  N2_10 
REMARK    3  A    between atoms: N2_10  and  C4_12 
REMARK    4  A    between atoms: C5_14  and  C6_15 
REMARK    5  A    between atoms: C9_22  and  O9_23 
REMARK    6  A    between atoms: O9_23  and  N3_24 
REMARK    7  A    between atoms: N4_27  and  O10_28 
REMARK    8  A    between atoms: O10_28  and  S2_29 
REMARK    9  A    between atoms: S2_29  and  C11_32 
REMARK   10  A    between atoms: C11_32  and  C12_33 
REMARK   11  A    between atoms: C12_33  and  O13_35 
REMARK   12  A    between atoms: O13_35  and  C13_36 
REMARK   13  A    between atoms: C18_41  and  O14_42 
REMARK   14  A    between atoms: C18_41  and  C19_44 
REMARK   15  A    between atoms: C19_44  and  O15_45 
REMARK   16  A    between atoms: C21_48  and  O16_49 
ROOT
HETATM    1  C4  UNL     1      -4.946 -15.809  -6.950  1.00  0.00     0.261 C 
HETATM    2  O4  UNL     1      -3.682 -15.784  -6.458  1.00  0.00    -0.329 OA
HETATM    3  C5  UNL     1      -3.054 -16.972  -6.213  1.00  0.00     0.284 C 
HETATM    4  C7  UNL     1      -3.024 -17.836  -7.450  1.00  0.00     0.310 C 
HETATM    5  O7  UNL     1      -2.142 -18.658  -7.675  1.00  0.00    -0.261 OA
HETATM    6  O8  UNL     1      -4.105 -17.587  -8.284  1.00  0.00    -0.304 OA
HETATM    7  C8  UNL     1      -5.257 -17.126  -7.607  1.00  0.00     0.233 C 
HETATM    8  C9  UNL     1      -5.761 -18.082  -6.558  1.00  0.00     0.311 C 
HETATM    9  N4  UNL     1      -4.797 -18.614  -5.682  1.00  0.00    -0.212 N 
HETATM   10  C21 UNL     1      -3.786 -17.782  -5.168  1.00  0.00     0.302 C 
ENDROOT
BRANCH   9  11
HETATM   11  O10 UNL     1      -4.330 -19.770  -5.988  1.00  0.00    -0.185 OA
BRANCH  11  12
HETATM   12  S2  UNL     1      -3.966 -21.082  -5.350  1.00  0.00     0.087 S 
HETATM   13  C10 UNL     1      -5.624 -21.648  -4.680  1.00  0.00     0.146 C 
HETATM   14  O11 UNL     1      -3.121 -22.157  -4.073  1.00  0.00    -0.241 OA
BRANCH  12  15
HETATM   15  C11 UNL     1      -3.049 -21.940  -6.669  1.00  0.00     0.237 C 
BRANCH  15  16
HETATM   16  C12 UNL     1      -2.874 -23.419  -6.500  1.00  0.00     0.276 C 
HETATM   17  O12 UNL     1      -3.956 -24.097  -6.576  1.00  0.00    -0.264 OA
BRANCH  16  18
HETATM   18  O13 UNL     1      -1.658 -24.021  -6.277  1.00  0.00    -0.290 OA
BRANCH  18  19
HETATM   19  C13 UNL     1      -0.509 -23.323  -6.605  1.00  0.00     0.148 C 
HETATM   20  C14 UNL     1       0.511 -23.978  -7.101  1.00  0.00    -0.054 C 
HETATM   21  C15 UNL     1       0.421 -25.440  -7.301  1.00  0.00     0.036 C 
HETATM   22  C20 UNL     1       1.790 -23.324  -7.486  1.00  0.00     0.076 C 
HETATM   23  C16 UNL     1       0.976 -25.732  -8.680  1.00  0.00     0.007 C 
HETATM   24  C17 UNL     1       0.970 -24.492  -9.527  1.00  0.00     0.040 C 
HETATM   25  C18 UNL     1       1.904 -23.427  -8.988  1.00  0.00     0.083 C 
BRANCH  25  26
HETATM   26  O14 UNL     1       3.215 -23.757  -9.328  1.00  0.00    -0.387 OA
ATOM     27  H14 UNL     1       3.270 -23.883 -10.268  1.00  0.00     0.210 HD
ENDBRANCH  25  26
BRANCH  25  28
HETATM   28  C19 UNL     1       1.612 -22.080  -9.623  1.00  0.00     0.202 C 
BRANCH  28  29
HETATM   29  O15 UNL     1       2.300 -22.007 -10.822  1.00  0.00    -0.398 OA
ATOM     30  H15 UNL     1       1.776 -22.430 -11.492  1.00  0.00     0.209 HD
ENDBRANCH  28  29
ENDBRANCH  25  28
ENDBRANCH  18  19
ENDBRANCH  16  18
ENDBRANCH  15  16
ENDBRANCH  12  15
ENDBRANCH  11  12
ENDBRANCH   9  11
BRANCH   8  31
HETATM   31  O9  UNL     1      -6.853 -17.492  -5.915  1.00  0.00    -0.256 OA
BRANCH  31  32
HETATM   32  N3  UNL     1      -7.581 -18.395  -5.227  1.00  0.00    -0.309 N 
ATOM     33  H32 UNL     1      -7.374 -19.394  -5.224  1.00  0.00     0.184 HD
ATOM     34  H31 UNL     1      -8.349 -17.957  -4.719  1.00  0.00     0.184 HD
ENDBRANCH  31  32
ENDBRANCH   8  31
BRANCH  10  35
HETATM   35  O16 UNL     1      -4.193 -16.899  -4.178  1.00  0.00    -0.371 OA
ATOM     36  H16 UNL     1      -3.818 -17.205  -3.360  1.00  0.00     0.212 HD
ENDBRANCH  10  35
BRANCH   3  37
HETATM   37  C6  UNL     1      -1.687 -16.714  -5.720  1.00  0.00     0.225 C 
HETATM   38  O5  UNL     1      -1.342 -17.199  -4.620  1.00  0.00    -0.645 OA
HETATM   39  O6  UNL     1      -0.820 -15.960  -6.452  1.00  0.00    -0.645 OA
ENDBRANCH   3  37
BRANCH   1  40
HETATM   40  N2  UNL     1      -5.138 -14.710  -7.911  1.00  0.00    -0.313 N 
HETATM   41  C3  UNL     1      -6.365 -14.615  -8.592  1.00  0.00     0.331 C 
HETATM   42  N1  UNL     1      -6.588 -13.581  -9.516  1.00  0.00    -0.236 N 
HETATM   43  O3  UNL     1      -7.288 -15.469  -8.374  1.00  0.00    -0.246 OA
ATOM     44  H1  UNL     1      -5.847 -12.900  -9.684  1.00  0.00     0.183 HD
ATOM     45  H2  UNL     1      -4.396 -14.031  -8.079  1.00  0.00     0.167 HD
BRANCH  42  46
HETATM   46  S1  UNL     1      -8.081 -13.424 -10.377  1.00  0.00     0.233 S 
HETATM   47  O1  UNL     1      -8.296 -14.604 -11.264  1.00  0.00    -0.206 OA
HETATM   48  O2  UNL     1      -9.190 -13.332  -9.379  1.00  0.00    -0.206 OA
BRANCH  46  49
HETATM   49  C2  UNL     1      -8.089 -11.965 -11.374  1.00  0.00     0.159 C 
HETATM   50  C1  UNL     1      -8.716 -12.204 -12.714  1.00  0.00     0.023 C 
ENDBRANCH  46  49
ENDBRANCH  42  46
ENDBRANCH   1  40
TORSDOF 16
ENDMDL
MODEL 3
REMARK VINA RESULT: -8.768473671      2.694      4.503
REMARK  16 active torsions:
REMARK  status: ('A' for Active; 'I' for Inactive)
REMARK    1  A    between atoms: C2_2  and  S1_3 
REMARK    2  A    between atoms: S1_3  and  N1_6 
REMARK       I    between atoms: N1_6  and  C3_8 
REMARK       I    between atoms: C3_8  and  N2_10 
REMARK    3  A    between atoms: N2_10  and  C4_12 
REMARK    4  A    between atoms: C5_14  and  C6_15 
REMARK    5  A    between atoms: C9_22  and  O9_23 
REMARK    6  A    between atoms: O9_23  and  N3_24 
REMARK    7  A    between atoms: N4_27  and  O10_28 
REMARK    8  A    between atoms: O10_28  and  S2_29 
REMARK    9  A    between atoms: S2_29  and  C11_32 
REMARK   10  A    between atoms: C11_32  and  C12_33 
REMARK   11  A    between atoms: C12_33  and  O13_35 
REMARK   12  A    between atoms: O13_35  and  C13_36 
REMARK   13  A    between atoms: C18_41  and  O14_42 
REMARK   14  A    between atoms: C18_41  and  C19_44 
REMARK   15  A    between atoms: C19_44  and  O15_45 
REMARK   16  A    between atoms: C21_48  and  O16_49 
ROOT
HETATM    1  C4  UNL     1      -1.626 -22.094  -6.899  1.00  0.00     0.261 C 
HETATM    2  O4  UNL     1      -2.079 -22.331  -5.642  1.00  0.00    -0.329 OA
HETATM    3  C5  UNL     1      -3.426 -22.443  -5.445  1.00  0.00     0.284 C 
HETATM    4  C7  UNL     1      -4.019 -23.511  -6.331  1.00  0.00     0.310 C 
HETATM    5  O7  UNL     1      -5.016 -24.158  -6.030  1.00  0.00    -0.261 OA
HETATM    6  O8  UNL     1      -3.303 -23.663  -7.511  1.00  0.00    -0.304 OA
HETATM    7  C8  UNL     1      -2.643 -22.487  -7.936  1.00  0.00     0.233 C 
HETATM    8  C9  UNL     1      -3.572 -21.325  -8.167  1.00  0.00     0.311 C 
HETATM    9  N4  UNL     1      -4.524 -21.076  -7.161  1.00  0.00    -0.212 N 
HETATM   10  C21 UNL     1      -4.148 -21.167  -5.808  1.00  0.00     0.302 C 
ENDROOT
BRANCH   9  11
HETATM   11  O10 UNL     1      -5.691 -21.575  -7.348  1.00  0.00    -0.185 OA
BRANCH  11  12
HETATM   12  S2  UNL     1      -7.131 -21.155  -7.449  1.00  0.00     0.087 S 
HETATM   13  C10 UNL     1      -7.913 -22.152  -6.067  1.00  0.00     0.146 C 
HETATM   14  O11 UNL     1      -8.804 -21.060  -8.282  1.00  0.00    -0.241 OA
BRANCH  12  15
HETATM   15  C11 UNL     1      -7.028 -19.336  -7.467  1.00  0.00     0.237 C 
BRANCH  15  16
HETATM   16  C12 UNL     1      -6.974 -18.663  -6.129  1.00  0.00     0.276 C 
HETATM   17  O12 UNL     1      -8.057 -18.731  -5.452  1.00  0.00    -0.264 OA
BRANCH  16  18
HETATM   18  O13 UNL     1      -5.860 -18.016  -5.647  1.00  0.00    -0.290 OA
BRANCH  18  19
HETATM   19  C13 UNL     1      -4.950 -17.507  -6.557  1.00  0.00     0.148 C 
HETATM   20  C14 UNL     1      -4.085 -16.610  -6.154  1.00  0.00    -0.054 C 
HETATM   21  C15 UNL     1      -4.093 -16.158  -4.746  1.00  0.00     0.036 C 
HETATM   22  C20 UNL     1      -3.065 -16.001  -7.050  1.00  0.00     0.076 C 
HETATM   23  C16 UNL     1      -2.652 -16.152  -4.277  1.00  0.00     0.007 C 
HETATM   24  C17 UNL     1      -1.803 -17.020  -5.160  1.00  0.00     0.040 C 
HETATM   25  C18 UNL     1      -1.716 -16.483  -6.575  1.00  0.00     0.083 C 
BRANCH  25  26
HETATM   26  O14 UNL     1      -0.813 -15.421  -6.604  1.00  0.00    -0.387 OA
ATOM     27  H14 UNL     1      -1.117 -14.772  -7.227  1.00  0.00     0.210 HD
ENDBRANCH  25  26
BRANCH  25  28
HETATM   28  C19 UNL     1      -1.179 -17.539  -7.522  1.00  0.00     0.202 C 
BRANCH  28  29
HETATM   29  O15 UNL     1      -1.143 -18.748  -6.850  1.00  0.00    -0.398 OA
ATOM     30  H15 UNL     1      -0.795 -19.407  -7.439  1.00  0.00     0.209 HD
ENDBRANCH  28  29
ENDBRANCH  25  28
ENDBRANCH  18  19
ENDBRANCH  16  18
ENDBRANCH  15  16
ENDBRANCH  12  15
ENDBRANCH  11  12
ENDBRANCH   9  11
BRANCH   8  31
HETATM   31  O9  UNL     1      -2.803 -20.212  -8.515  1.00  0.00    -0.256 OA
BRANCH  31  32
HETATM   32  N3  UNL     1      -3.569 -19.168  -8.891  1.00  0.00    -0.309 N 
ATOM     33  H32 UNL     1      -4.513 -19.273  -9.262  1.00  0.00     0.184 HD
ATOM     34  H31 UNL     1      -3.091 -18.277  -8.759  1.00  0.00     0.184 HD
ENDBRANCH  31  32
ENDBRANCH   8  31
BRANCH  10  35
HETATM   35  O16 UNL     1      -3.379 -20.113  -5.336  1.00  0.00    -0.371 OA
ATOM     36  H16 UNL     1      -3.977 -19.418  -5.088  1.00  0.00     0.212 HD
ENDBRANCH  10  35
BRANCH   3  37
HETATM   37  C6  UNL     1      -3.692 -22.734  -4.023  1.00  0.00     0.225 C 
HETATM   38  O5  UNL     1      -2.790 -23.261  -3.336  1.00  0.00    -0.645 OA
HETATM   39  O6  UNL     1      -4.901 -22.432  -3.472  1.00  0.00    -0.645 OA
ENDBRANCH   3  37
BRANCH   1  40
HETATM   40  N2  UNL     1      -0.366 -22.820  -7.130  1.00  0.00    -0.313 N 
HETATM   41  C3  UNL     1       0.630 -22.212  -7.913  1.00  0.00     0.331 C 
HETATM   42  N1  UNL     1       1.847 -22.870  -8.156  1.00  0.00    -0.236 N 
HETATM   43  O3  UNL     1       0.437 -21.052  -8.410  1.00  0.00    -0.246 OA
ATOM     44  H1  UNL     1       1.996 -23.796  -7.754  1.00  0.00     0.183 HD
ATOM     45  H2  UNL     1      -0.219 -23.746  -6.728  1.00  0.00     0.167 HD
BRANCH  42  46
HETATM   46  S1  UNL     1       3.101 -22.161  -9.114  1.00  0.00     0.233 S 
HETATM   47  O1  UNL     1       4.293 -23.057  -9.157  1.00  0.00    -0.206 OA
HETATM   48  O2  UNL     1       2.573 -21.953 -10.498  1.00  0.00    -0.206 OA
BRANCH  46  49
HETATM   49  C2  UNL     1       3.599 -20.599  -8.453  1.00  0.00     0.159 C 
HETATM   50  C1  UNL     1       4.850 -20.709  -7.635  1.00  0.00     0.023 C 
ENDBRANCH  46  49
ENDBRANCH  42  46
ENDBRANCH   1  40
TORSDOF 16
ENDMDL
MODEL 4
REMARK VINA RESULT: -8.720830547      4.396      9.494
REMARK  16 active torsions:
REMARK  status: ('A' for Active; 'I' for Inactive)
REMARK    1  A    between atoms: C2_2  and  S1_3 
REMARK    2  A    between atoms: S1_3  and  N1_6 
REMARK       I    between atoms: N1_6  and  C3_8 
REMARK       I    between atoms: C3_8  and  N2_10 
REMARK    3  A    between atoms: N2_10  and  C4_12 
REMARK    4  A    between atoms: C5_14  and  C6_15 
REMARK    5  A    between atoms: C9_22  and  O9_23 
REMARK    6  A    between atoms: O9_23  and  N3_24 
REMARK    7  A    between atoms: N4_27  and  O10_28 
REMARK    8  A    between atoms: O10_28  and  S2_29 
REMARK    9  A    between atoms: S2_29  and  C11_32 
REMARK   10  A    between atoms: C11_32  and  C12_33 
REMARK   11  A    between atoms: C12_33  and  O13_35 
REMARK   12  A    between atoms: O13_35  and  C13_36 
REMARK   13  A    between atoms: C18_41  and  O14_42 
REMARK   14  A    between atoms: C18_41  and  C19_44 
REMARK   15  A    between atoms: C19_44  and  O15_45 
REMARK   16  A    between atoms: C21_48  and  O16_49 
ROOT
HETATM    1  C4  UNL     1      -5.230 -16.618  -6.944  1.00  0.00     0.261 C 
HETATM    2  O4  UNL     1      -4.582 -16.421  -5.768  1.00  0.00    -0.329 OA
HETATM    3  C5  UNL     1      -3.674 -17.356  -5.360  1.00  0.00     0.284 C 
HETATM    4  C7  UNL     1      -2.614 -17.581  -6.410  1.00  0.00     0.310 C 
HETATM    5  O7  UNL     1      -1.469 -17.930  -6.147  1.00  0.00    -0.261 OA
HETATM    6  O8  UNL     1      -3.095 -17.345  -7.691  1.00  0.00    -0.304 OA
HETATM    7  C8  UNL     1      -4.482 -17.573  -7.834  1.00  0.00     0.233 C 
HETATM    8  C9  UNL     1      -4.899 -18.979  -7.492  1.00  0.00     0.311 C 
HETATM    9  N4  UNL     1      -4.385 -19.510  -6.295  1.00  0.00    -0.212 N 
HETATM   10  C21 UNL     1      -4.323 -18.704  -5.143  1.00  0.00     0.302 C 
ENDROOT
BRANCH   9  11
HETATM   11  O10 UNL     1      -3.333 -20.238  -6.403  1.00  0.00    -0.185 OA
BRANCH  11  12
HETATM   12  S2  UNL     1      -2.824 -21.605  -6.037  1.00  0.00     0.087 S 
HETATM   13  C10 UNL     1      -4.106 -22.713  -6.840  1.00  0.00     0.146 C 
HETATM   14  O11 UNL     1      -2.423 -22.989  -4.845  1.00  0.00    -0.241 OA
BRANCH  12  15
HETATM   15  C11 UNL     1      -1.073 -21.537  -6.536  1.00  0.00     0.237 C 
BRANCH  15  16
HETATM   16  C12 UNL     1      -0.797 -21.005  -7.910  1.00  0.00     0.276 C 
HETATM   17  O12 UNL     1      -1.810 -20.493  -8.499  1.00  0.00    -0.264 OA
BRANCH  16  18
HETATM   18  O13 UNL     1       0.439 -21.055  -8.511  1.00  0.00    -0.290 OA
BRANCH  18  19
HETATM   19  C13 UNL     1       1.554 -20.753  -7.748  1.00  0.00     0.148 C 
HETATM   20  C14 UNL     1       2.583 -21.562  -7.780  1.00  0.00    -0.054 C 
HETATM   21  C15 UNL     1       2.539 -22.777  -8.622  1.00  0.00     0.036 C 
HETATM   22  C20 UNL     1       3.828 -21.329  -7.000  1.00  0.00     0.076 C 
HETATM   23  C16 UNL     1       3.860 -22.850  -9.361  1.00  0.00     0.007 C 
HETATM   24  C17 UNL     1       4.529 -21.505  -9.383  1.00  0.00     0.040 C 
HETATM   25  C18 UNL     1       4.925 -21.041  -7.995  1.00  0.00     0.083 C 
BRANCH  25  26
HETATM   26  O14 UNL     1       6.085 -21.709  -7.606  1.00  0.00    -0.387 OA
ATOM     27  H14 UNL     1       6.438 -22.179  -8.352  1.00  0.00     0.210 HD
ENDBRANCH  25  26
BRANCH  25  28
HETATM   28  C19 UNL     1       5.251 -19.560  -7.993  1.00  0.00     0.202 C 
BRANCH  28  29
HETATM   29  O15 UNL     1       6.401 -19.368  -7.246  1.00  0.00    -0.398 OA
ATOM     30  H15 UNL     1       7.001 -18.835  -7.754  1.00  0.00     0.209 HD
ENDBRANCH  28  29
ENDBRANCH  25  28
ENDBRANCH  18  19
ENDBRANCH  16  18
ENDBRANCH  15  16
ENDBRANCH  12  15
ENDBRANCH  11  12
ENDBRANCH   9  11
BRANCH   8  31
HETATM   31  O9  UNL     1      -6.289 -19.063  -7.604  1.00  0.00    -0.256 OA
BRANCH  31  32
HETATM   32  N3  UNL     1      -6.772 -20.194  -7.048  1.00  0.00    -0.309 N 
ATOM     33  H32 UNL     1      -6.309 -21.099  -7.132  1.00  0.00     0.184 HD
ATOM     34  H31 UNL     1      -7.642 -20.028  -6.544  1.00  0.00     0.184 HD
ENDBRANCH  31  32
ENDBRANCH   8  31
BRANCH  10  35
HETATM   35  O16 UNL     1      -5.539 -18.476  -4.515  1.00  0.00    -0.371 OA
ATOM     36  H16 UNL     1      -5.646 -17.535  -4.446  1.00  0.00     0.212 HD
ENDBRANCH  10  35
BRANCH   3  37
HETATM   37  C6  UNL     1      -3.067 -16.929  -4.084  1.00  0.00     0.225 C 
HETATM   38  O5  UNL     1      -2.913 -17.776  -3.176  1.00  0.00    -0.645 OA
HETATM   39  O6  UNL     1      -2.682 -15.635  -3.902  1.00  0.00    -0.645 OA
ENDBRANCH   3  37
BRANCH   1  40
HETATM   40  N2  UNL     1      -5.426 -15.334  -7.636  1.00  0.00    -0.313 N 
HETATM   41  C3  UNL     1      -6.542 -15.183  -8.477  1.00  0.00     0.331 C 
HETATM   42  N1  UNL     1      -6.765 -13.973  -9.155  1.00  0.00    -0.236 N 
HETATM   43  O3  UNL     1      -7.365 -16.147  -8.631  1.00  0.00    -0.246 OA
ATOM     44  H1  UNL     1      -6.105 -13.206  -9.027  1.00  0.00     0.183 HD
ATOM     45  H2  UNL     1      -4.764 -14.568  -7.507  1.00  0.00     0.167 HD
BRANCH  42  46
HETATM   46  S1  UNL     1      -8.125 -13.742 -10.201  1.00  0.00     0.233 S 
HETATM   47  O1  UNL     1      -8.240 -14.877 -11.162  1.00  0.00    -0.206 OA
HETATM   48  O2  UNL     1      -9.357 -13.666  -9.357  1.00  0.00    -0.206 OA
BRANCH  46  49
HETATM   49  C2  UNL     1      -7.971 -12.242 -11.121  1.00  0.00     0.159 C 
HETATM   50  C1  UNL     1      -8.735 -12.292 -12.410  1.00  0.00     0.023 C 
ENDBRANCH  46  49
ENDBRANCH  42  46
ENDBRANCH   1  40
TORSDOF 16
ENDMDL
MODEL 5
REMARK VINA RESULT: -8.674116499      1.130      1.835
REMARK  16 active torsions:
REMARK  status: ('A' for Active; 'I' for Inactive)
REMARK    1  A    between atoms: C2_2  and  S1_3 
REMARK    2  A    between atoms: S1_3  and  N1_6 
REMARK       I    between atoms: N1_6  and  C3_8 
REMARK       I    between atoms: C3_8  and  N2_10 
REMARK    3  A    between atoms: N2_10  and  C4_12 
REMARK    4  A    between atoms: C5_14  and  C6_15 
REMARK    5  A    between atoms: C9_22  and  O9_23 
REMARK    6  A    between atoms: O9_23  and  N3_24 
REMARK    7  A    between atoms: N4_27  and  O10_28 
REMARK    8  A    between atoms: O10_28  and  S2_29 
REMARK    9  A    between atoms: S2_29  and  C11_32 
REMARK   10  A    between atoms: C11_32  and  C12_33 
REMARK   11  A    between atoms: C12_33  and  O13_35 
REMARK   12  A    between atoms: O13_35  and  C13_36 
REMARK   13  A    between atoms: C18_41  and  O14_42 
REMARK   14  A    between atoms: C18_41  and  C19_44 
REMARK   15  A    between atoms: C19_44  and  O15_45 
REMARK   16  A    between atoms: C21_48  and  O16_49 
ROOT
HETATM    1  C4  UNL     1       1.248 -23.404  -8.417  1.00  0.00     0.261 C 
HETATM    2  O4  UNL     1       1.057 -24.723  -8.673  1.00  0.00    -0.329 OA
HETATM    3  C5  UNL     1      -0.207 -25.230  -8.570  1.00  0.00     0.284 C 
HETATM    4  C7  UNL     1      -1.170 -24.470  -9.449  1.00  0.00     0.310 C 
HETATM    5  O7  UNL     1      -2.174 -24.975  -9.940  1.00  0.00    -0.261 OA
HETATM    6  O8  UNL     1      -0.782 -23.150  -9.625  1.00  0.00    -0.304 OA
HETATM    7  C8  UNL     1      -0.031 -22.624  -8.549  1.00  0.00     0.233 C 
HETATM    8  C9  UNL     1      -0.760 -22.665  -7.232  1.00  0.00     0.311 C 
HETATM    9  N4  UNL     1      -1.396 -23.877  -6.906  1.00  0.00    -0.212 N 
HETATM   10  C21 UNL     1      -0.747 -25.098  -7.166  1.00  0.00     0.302 C 
ENDROOT
BRANCH   9  11
HETATM   11  O10 UNL     1      -2.647 -23.953  -7.183  1.00  0.00    -0.185 OA
BRANCH  11  12
HETATM   12  S2  UNL     1      -3.958 -23.311  -6.825  1.00  0.00     0.087 S 
HETATM   13  C10 UNL     1      -3.635 -22.750  -5.065  1.00  0.00     0.146 C 
HETATM   14  O11 UNL     1      -5.791 -23.319  -6.450  1.00  0.00    -0.241 OA
BRANCH  12  15
HETATM   15  C11 UNL     1      -4.256 -22.180  -8.221  1.00  0.00     0.237 C 
BRANCH  15  16
HETATM   16  C12 UNL     1      -4.013 -20.724  -7.957  1.00  0.00     0.276 C 
HETATM   17  O12 UNL     1      -2.964 -20.249  -8.512  1.00  0.00    -0.264 OA
BRANCH  16  18
HETATM   18  O13 UNL     1      -4.838 -19.943  -7.182  1.00  0.00    -0.290 OA
BRANCH  18  19
HETATM   19  C13 UNL     1      -4.552 -18.593  -7.071  1.00  0.00     0.148 C 
HETATM   20  C14 UNL     1      -4.160 -18.122  -5.914  1.00  0.00    -0.054 C 
HETATM   21  C15 UNL     1      -4.031 -19.029  -4.754  1.00  0.00     0.036 C 
HETATM   22  C20 UNL     1      -3.828 -16.689  -5.688  1.00  0.00     0.076 C 
HETATM   23  C16 UNL     1      -2.708 -18.707  -4.087  1.00  0.00     0.007 C 
HETATM   24  C17 UNL     1      -1.800 -17.980  -5.037  1.00  0.00     0.040 C 
HETATM   25  C18 UNL     1      -2.344 -16.618  -5.418  1.00  0.00     0.083 C 
BRANCH  25  26
HETATM   26  O14 UNL     1      -2.110 -15.725  -4.373  1.00  0.00    -0.387 OA
ATOM     27  H14 UNL     1      -2.941 -15.379  -4.069  1.00  0.00     0.210 HD
ENDBRANCH  25  26
BRANCH  25  28
HETATM   28  C19 UNL     1      -1.623 -16.068  -6.634  1.00  0.00     0.202 C 
BRANCH  28  29
HETATM   29  O15 UNL     1      -0.465 -16.803  -6.821  1.00  0.00    -0.398 OA
ATOM     30  H15 UNL     1       0.215 -16.214  -7.127  1.00  0.00     0.209 HD
ENDBRANCH  28  29
ENDBRANCH  25  28
ENDBRANCH  18  19
ENDBRANCH  16  18
ENDBRANCH  15  16
ENDBRANCH  12  15
ENDBRANCH  11  12
ENDBRANCH   9  11
BRANCH   8  31
HETATM   31  O9  UNL     1       0.100 -22.186  -6.240  1.00  0.00    -0.256 OA
BRANCH  31  32
HETATM   32  N3  UNL     1       0.194 -20.841  -6.261  1.00  0.00    -0.309 N 
ATOM     33  H32 UNL     1      -0.606 -20.223  -6.129  1.00  0.00     0.184 HD
ATOM     34  H31 UNL     1       1.151 -20.528  -6.423  1.00  0.00     0.184 HD
ENDBRANCH  31  32
ENDBRANCH   8  31
BRANCH  10  35
HETATM   35  O16 UNL     1       0.289 -25.412  -6.298  1.00  0.00    -0.371 OA
ATOM     36  H16 UNL     1      -0.072 -25.976  -5.624  1.00  0.00     0.212 HD
ENDBRANCH  10  35
BRANCH   3  37
HETATM   37  C6  UNL     1      -0.192 -26.663  -8.924  1.00  0.00     0.225 C 
HETATM   38  O5  UNL     1       0.454 -27.029  -9.931  1.00  0.00    -0.645 OA
HETATM   39  O6  UNL     1      -0.871 -27.568  -8.165  1.00  0.00    -0.645 OA
ENDBRANCH   3  37
BRANCH   1  40
HETATM   40  N2  UNL     1       2.268 -22.854  -9.324  1.00  0.00    -0.313 N 
HETATM   41  C3  UNL     1       2.981 -21.709  -8.926  1.00  0.00     0.331 C 
HETATM   42  N1  UNL     1       3.963 -21.154  -9.762  1.00  0.00    -0.236 N 
HETATM   43  O3  UNL     1       2.741 -21.166  -7.796  1.00  0.00    -0.246 OA
ATOM     44  H1  UNL     1       4.151 -21.594 -10.663  1.00  0.00     0.183 HD
ATOM     45  H2  UNL     1       2.455 -23.295 -10.225  1.00  0.00     0.167 HD
BRANCH  42  46
HETATM   46  S1  UNL     1       4.864 -19.747  -9.313  1.00  0.00     0.233 S 
HETATM   47  O1  UNL     1       5.738 -19.307 -10.440  1.00  0.00    -0.206 OA
HETATM   48  O2  UNL     1       3.897 -18.660  -8.970  1.00  0.00    -0.206 OA
BRANCH  46  49
HETATM   49  C2  UNL     1       5.884 -20.068  -7.906  1.00  0.00     0.159 C 
HETATM   50  C1  UNL     1       6.743 -18.891  -7.555  1.00  0.00     0.023 C 
ENDBRANCH  46  49
ENDBRANCH  42  46
ENDBRANCH   1  40
TORSDOF 16
ENDMDL
