MODEL 1
REMARK VINA RESULT: -9.037564916      0.000      0.000
REMARK  16 active torsions:
REMARK  status: ('A' for Active; 'I' for Inactive)
REMARK       I    between atoms: C2_2  and  N1_4 
REMARK    1  A    between atoms: N1_4  and  C4_6 
REMARK    2  A    between atoms: C5_7  and  C6_8 
REMARK    3  A    between atoms: C6_8  and  O2_9 
REMARK    4  A    between atoms: C6_8  and  N2_11 
REMARK    5  A    between atoms: N2_11  and  S1_13 
REMARK    6  A    between atoms: S1_13  and  C7_16 
REMARK    7  A    between atoms: N8_30  and  C9_31 
REMARK    8  A    between atoms: C12_34  and  S3_35 
REMARK    9  A    between atoms: S3_35  and  C13_38 
REMARK   10  A    between atoms: C13_38  and  C14_39 
REMARK   11  A    between atoms: C15_43  and  C16_44 
REMARK   12  A    between atoms: C16_44  and  O10_45 
REMARK   13  A    between atoms: C16_44  and  C17_47 
REMARK   14  A    between atoms: C17_47  and  O11_48 
REMARK   15  A    between atoms: C17_47  and  C18_50 
REMARK   16  A    between atoms: C18_50  and  O12_51 
ROOT
HETATM    1  C4  UNL     1      -3.455 -17.840  -6.092  1.00  0.00     0.166 A 
HETATM    2  C5  UNL     1      -3.479 -16.486  -5.930  1.00  0.00     0.147 A 
HETATM    3  N6  UNL     1      -2.216 -16.087  -6.317  1.00  0.00    -0.278 N 
ATOM      4  H6  UNL     1      -1.881 -15.124  -6.323  1.00  0.00     0.189 HD
HETATM    5  N7  UNL     1      -1.513 -17.130  -6.674  1.00  0.00    -0.233 N 
ATOM      6  H7  UNL     1      -0.548 -17.104  -7.001  1.00  0.00     0.209 HD
HETATM    7  N8  UNL     1      -2.262 -18.246  -6.544  1.00  0.00    -0.223 N 
ENDROOT
BRANCH   7   8
HETATM    8  C9  UNL     1      -1.774 -19.528  -6.835  1.00  0.00     0.060 A 
HETATM    9  C10 UNL     1      -2.315 -20.434  -7.694  1.00  0.00     0.033 A 
HETATM   10  C11 UNL     1      -1.764 -21.676  -7.947  1.00  0.00     0.026 A 
HETATM   11  C12 UNL     1      -0.601 -22.070  -7.319  1.00  0.00     0.065 A 
HETATM   12  C19 UNL     1      -0.028 -21.174  -6.443  1.00  0.00     0.026 A 
HETATM   13  C20 UNL     1      -0.587 -19.939  -6.200  1.00  0.00     0.033 A 
BRANCH  11  14
HETATM   14  S3  UNL     1       0.031 -23.640  -7.694  1.00  0.00     0.246 S 
HETATM   15  O5  UNL     1       0.871 -24.117  -6.553  1.00  0.00    -0.216 OA
HETATM   16  O6  UNL     1      -1.157 -24.562  -7.852  1.00  0.00    -0.216 OA
BRANCH  14  17
HETATM   17  C13 UNL     1       0.988 -23.710  -9.165  1.00  0.00     0.372 C 
HETATM   18  O9  UNL     1       2.356 -23.609  -9.003  1.00  0.00    -0.300 OA
HETATM   19  C15 UNL     1       2.262 -22.220  -9.203  1.00  0.00     0.301 C 
HETATM   20  O13 UNL     1       1.012 -22.395  -9.726  1.00  0.00    -0.300 OA
BRANCH  17  21
HETATM   21  C14 UNL     1       0.500 -24.612 -10.237  1.00  0.00     0.257 C 
HETATM   22  O7  UNL     1       0.613 -25.851 -10.039  1.00  0.00    -0.643 OA
HETATM   23  O8  UNL     1      -0.061 -24.207 -11.419  1.00  0.00    -0.643 OA
ENDBRANCH  17  21
BRANCH  19  24
HETATM   24  C16 UNL     1       3.265 -21.727 -10.195  1.00  0.00     0.204 C 
BRANCH  24  25
HETATM   25  O10 UNL     1       3.870 -22.789 -10.845  1.00  0.00    -0.388 OA
ATOM     26  H10 UNL     1       4.813 -22.753 -10.737  1.00  0.00     0.210 HD
ENDBRANCH  24  25
BRANCH  24  27
HETATM   27  C17 UNL     1       4.194 -20.705  -9.639  1.00  0.00     0.175 C 
BRANCH  27  28
HETATM   28  O11 UNL     1       4.032 -19.450 -10.212  1.00  0.00    -0.391 OA
ATOM     29  H11 UNL     1       4.853 -18.991 -10.344  1.00  0.00     0.210 HD
ENDBRANCH  27  28
BRANCH  27  30
HETATM   30  C18 UNL     1       4.170 -20.561  -8.149  1.00  0.00     0.198 C 
BRANCH  30  31
HETATM   31  O12 UNL     1       5.196 -21.237  -7.501  1.00  0.00    -0.398 OA
ATOM     32  H12 UNL     1       5.569 -20.760  -6.769  1.00  0.00     0.209 HD
ENDBRANCH  30  31
ENDBRANCH  27  30
ENDBRANCH  24  27
ENDBRANCH  19  24
ENDBRANCH  14  17
ENDBRANCH  11  14
ENDBRANCH   7   8
BRANCH   1  33
HETATM   33  N1  UNL     1      -4.553 -18.705  -5.848  1.00  0.00    -0.305 N 
HETATM   34  C2  UNL     1      -4.677 -19.469  -4.633  1.00  0.00     0.221 C 
HETATM   35  C1  UNL     1      -5.818 -20.382  -4.383  1.00  0.00     0.117 C 
HETATM   36  O1  UNL     1      -3.798 -19.383  -3.725  1.00  0.00    -0.273 OA
HETATM   37  C3  UNL     1      -5.617 -18.841  -6.825  1.00  0.00     0.161 C 
ENDBRANCH   1  33
BRANCH   2  38
HETATM   38  C6  UNL     1      -4.454 -15.552  -5.446  1.00  0.00     0.182 C 
BRANCH  38  39
HETATM   39  O2  UNL     1      -4.869 -15.668  -4.217  1.00  0.00    -0.344 OA
ATOM     40  H2  UNL     1      -5.738 -15.349  -4.000  1.00  0.00     0.219 HD
ENDBRANCH  38  39
BRANCH  38  41
HETATM   41  N2  UNL     1      -5.060 -14.486  -6.129  1.00  0.00    -0.257 N 
ATOM     42  H2  UNL     1      -5.533 -13.766  -5.583  1.00  0.00     0.181 HD
BRANCH  41  43
HETATM   43  S1  UNL     1      -5.043 -14.336  -7.851  1.00  0.00     0.288 S 
HETATM   44  O3  UNL     1      -4.604 -12.969  -8.219  1.00  0.00    -0.198 OA
HETATM   45  O4  UNL     1      -4.135 -15.369  -8.462  1.00  0.00    -0.198 OA
BRANCH  43  46
HETATM   46  C7  UNL     1      -6.661 -14.633  -8.451  1.00  0.00     0.209 A 
HETATM   47  N3  UNL     1      -7.512 -13.745  -8.942  1.00  0.00    -0.281 N 
HETATM   48  N4  UNL     1      -8.658 -14.109  -9.343  1.00  0.00    -0.279 N 
ATOM     49  H3  UNL     1      -7.244 -12.762  -8.996  1.00  0.00     0.188 HD
HETATM   50  C8  UNL     1      -8.991 -15.402  -9.262  1.00  0.00     0.159 A 
ATOM     51  H4  UNL     1      -9.315 -13.428  -9.722  1.00  0.00     0.189 HD
HETATM   52  N5  UNL     1     -10.117 -15.969  -9.620  1.00  0.00    -0.379 N 
HETATM   53  S2  UNL     1      -7.573 -16.075  -8.578  1.00  0.00    -0.020 SA
ATOM     54  H52 UNL     1     -10.961 -15.567 -10.028  1.00  0.00     0.158 HD
ATOM     55  H51 UNL     1     -10.371 -16.955  -9.558  1.00  0.00     0.158 HD
ENDBRANCH  43  46
ENDBRANCH  41  43
ENDBRANCH  38  41
ENDBRANCH   2  38
TORSDOF 16
ENDMDL
MODEL 2
REMARK VINA RESULT: -8.938001623      3.036      4.645
REMARK  16 active torsions:
REMARK  status: ('A' for Active; 'I' for Inactive)
REMARK       I    between atoms: C2_2  and  N1_4 
REMARK    1  A    between atoms: N1_4  and  C4_6 
REMARK    2  A    between atoms: C5_7  and  C6_8 
REMARK    3  A    between atoms: C6_8  and  O2_9 
REMARK    4  A    between atoms: C6_8  and  N2_11 
REMARK    5  A    between atoms: N2_11  and  S1_13 
REMARK    6  A    between atoms: S1_13  and  C7_16 
REMARK    7  A    between atoms: N8_30  and  C9_31 
REMARK    8  A    between atoms: C12_34  and  S3_35 
REMARK    9  A    between atoms: S3_35  and  C13_38 
REMARK   10  A    between atoms: C13_38  and  C14_39 
REMARK   11  A    between atoms: C15_43  and  C16_44 
REMARK   12  A    between atoms: C16_44  and  O10_45 
REMARK   13  A    between atoms: C16_44  and  C17_47 
REMARK   14  A    between atoms: C17_47  and  O11_48 
REMARK   15  A    between atoms: C17_47  and  C18_50 
REMARK   16  A    between atoms: C18_50  and  O12_51 
ROOT
HETATM    1  C4  UNL     1      -2.483 -20.874  -5.888  1.00  0.00     0.166 A 
HETATM    2  C5  UNL     1      -2.304 -19.595  -5.449  1.00  0.00     0.147 A 
HETATM    3  N6  UNL     1      -1.005 -19.304  -5.808  1.00  0.00    -0.278 N 
ATOM      4  H6  UNL     1      -0.532 -18.417  -5.633  1.00  0.00     0.189 HD
HETATM    5  N7  UNL     1      -0.469 -20.334  -6.407  1.00  0.00    -0.233 N 
ATOM      6  H7  UNL     1       0.483 -20.375  -6.769  1.00  0.00     0.209 HD
HETATM    7  N8  UNL     1      -1.371 -21.338  -6.472  1.00  0.00    -0.223 N 
ENDROOT
BRANCH   7   8
HETATM    8  C9  UNL     1      -1.082 -22.585  -7.044  1.00  0.00     0.060 A 
HETATM    9  C10 UNL     1      -1.824 -23.721  -6.948  1.00  0.00     0.033 A 
HETATM   10  C11 UNL     1      -1.486 -24.914  -7.559  1.00  0.00     0.026 A 
HETATM   11  C12 UNL     1      -0.340 -25.013  -8.321  1.00  0.00     0.065 A 
HETATM   12  C19 UNL     1       0.434 -23.878  -8.438  1.00  0.00     0.026 A 
HETATM   13  C20 UNL     1       0.085 -22.696  -7.824  1.00  0.00     0.033 A 
BRANCH  11  14
HETATM   14  S3  UNL     1       0.013 -26.541  -9.060  1.00  0.00     0.246 S 
HETATM   15  O5  UNL     1       1.441 -26.555  -9.501  1.00  0.00    -0.216 OA
HETATM   16  O6  UNL     1      -0.187 -27.597  -7.996  1.00  0.00    -0.216 OA
BRANCH  14  17
HETATM   17  C13 UNL     1      -1.005 -26.938 -10.435  1.00  0.00     0.372 C 
HETATM   18  O9  UNL     1      -0.362 -27.042 -11.654  1.00  0.00    -0.300 OA
HETATM   19  C15 UNL     1      -0.655 -25.690 -11.906  1.00  0.00     0.301 C 
HETATM   20  O13 UNL     1      -1.586 -25.721 -10.907  1.00  0.00    -0.300 OA
BRANCH  17  21
HETATM   21  C14 UNL     1      -2.132 -27.869 -10.185  1.00  0.00     0.257 C 
HETATM   22  O7  UNL     1      -3.224 -27.360  -9.815  1.00  0.00    -0.643 OA
HETATM   23  O8  UNL     1      -2.081 -29.231 -10.322  1.00  0.00    -0.643 OA
ENDBRANCH  17  21
BRANCH  19  24
HETATM   24  C16 UNL     1      -1.239 -25.487 -13.267  1.00  0.00     0.204 C 
BRANCH  24  25
HETATM   25  O10 UNL     1      -2.381 -26.254 -13.426  1.00  0.00    -0.388 OA
ATOM     26  H10 UNL     1      -2.260 -26.894 -14.117  1.00  0.00     0.210 HD
ENDBRANCH  24  25
BRANCH  24  27
HETATM   27  C17 UNL     1      -0.239 -25.597 -14.363  1.00  0.00     0.175 C 
BRANCH  27  28
HETATM   28  O11 UNL     1       1.067 -25.390 -13.934  1.00  0.00    -0.391 OA
ATOM     29  H11 UNL     1       1.571 -24.843 -14.525  1.00  0.00     0.210 HD
ENDBRANCH  27  28
BRANCH  27  30
HETATM   30  C18 UNL     1      -0.291 -26.867 -15.153  1.00  0.00     0.198 C 
BRANCH  30  31
HETATM   31  O12 UNL     1      -0.059 -28.010 -14.397  1.00  0.00    -0.398 OA
ATOM     32  H12 UNL     1       0.754 -27.988 -13.906  1.00  0.00     0.209 HD
ENDBRANCH  30  31
ENDBRANCH  27  30
ENDBRANCH  24  27
ENDBRANCH  19  24
ENDBRANCH  14  17
ENDBRANCH  11  14
ENDBRANCH   7   8
BRANCH   1  33
HETATM   33  N1  UNL     1      -3.691 -21.610  -5.773  1.00  0.00    -0.305 N 
HETATM   34  C2  UNL     1      -3.931 -22.533  -4.693  1.00  0.00     0.221 C 
HETATM   35  C1  UNL     1      -5.188 -23.310  -4.579  1.00  0.00     0.117 C 
HETATM   36  O1  UNL     1      -3.059 -22.712  -3.792  1.00  0.00    -0.273 OA
HETATM   37  C3  UNL     1      -4.752 -21.443  -6.748  1.00  0.00     0.161 C 
ENDBRANCH   1  33
BRANCH   2  38
HETATM   38  C6  UNL     1      -3.123 -18.657  -4.736  1.00  0.00     0.182 C 
BRANCH  38  39
HETATM   39  O2  UNL     1      -3.129 -18.702  -3.435  1.00  0.00    -0.344 OA
ATOM     40  H2  UNL     1      -3.943 -18.913  -2.992  1.00  0.00     0.219 HD
ENDBRANCH  38  39
BRANCH  38  41
HETATM   41  N2  UNL     1      -3.960 -17.656  -5.252  1.00  0.00    -0.257 N 
ATOM     42  H2  UNL     1      -4.969 -17.793  -5.199  1.00  0.00     0.181 HD
BRANCH  41  43
HETATM   43  S1  UNL     1      -3.362 -16.203  -5.972  1.00  0.00     0.288 S 
HETATM   44  O3  UNL     1      -2.979 -15.250  -4.904  1.00  0.00    -0.198 OA
HETATM   45  O4  UNL     1      -2.189 -16.501  -6.866  1.00  0.00    -0.198 OA
BRANCH  43  46
HETATM   46  C7  UNL     1      -4.626 -15.516  -6.971  1.00  0.00     0.209 A 
HETATM   47  N3  UNL     1      -5.624 -16.158  -7.559  1.00  0.00    -0.281 N 
HETATM   48  N4  UNL     1      -6.471 -15.523  -8.256  1.00  0.00    -0.279 N 
ATOM     49  H3  UNL     1      -5.711 -17.168  -7.451  1.00  0.00     0.188 HD
HETATM   50  C8  UNL     1      -6.340 -14.199  -8.387  1.00  0.00     0.159 A 
ATOM     51  H4  UNL     1      -7.241 -16.015  -8.710  1.00  0.00     0.189 HD
HETATM   52  N5  UNL     1      -7.106 -13.375  -9.059  1.00  0.00    -0.379 N 
HETATM   53  S2  UNL     1      -4.934 -13.904  -7.456  1.00  0.00    -0.020 SA
ATOM     54  H52 UNL     1      -7.943 -13.550  -9.614  1.00  0.00     0.158 HD
ATOM     55  H51 UNL     1      -7.005 -12.364  -9.160  1.00  0.00     0.158 HD
ENDBRANCH  43  46
ENDBRANCH  41  43
ENDBRANCH  38  41
ENDBRANCH   2  38
TORSDOF 16
ENDMDL
MODEL 3
REMARK VINA RESULT: -8.831944171      2.349      3.670
REMARK  16 active torsions:
REMARK  status: ('A' for Active; 'I' for Inactive)
REMARK       I    between atoms: C2_2  and  N1_4 
REMARK    1  A    between atoms: N1_4  and  C4_6 
REMARK    2  A    between atoms: C5_7  and  C6_8 
REMARK    3  A    between atoms: C6_8  and  O2_9 
REMARK    4  A    between atoms: C6_8  and  N2_11 
REMARK    5  A    between atoms: N2_11  and  S1_13 
REMARK    6  A    between atoms: S1_13  and  C7_16 
REMARK    7  A    between atoms: N8_30  and  C9_31 
REMARK    8  A    between atoms: C12_34  and  S3_35 
REMARK    9  A    between atoms: S3_35  and  C13_38 
REMARK   10  A    between atoms: C13_38  and  C14_39 
REMARK   11  A    between atoms: C15_43  and  C16_44 
REMARK   12  A    between atoms: C16_44  and  O10_45 
REMARK   13  A    between atoms: C16_44  and  C17_47 
REMARK   14  A    between atoms: C17_47  and  O11_48 
REMARK   15  A    between atoms: C17_47  and  C18_50 
REMARK   16  A    between atoms: C18_50  and  O12_51 
ROOT
HETATM    1  C4  UNL     1      -2.917 -19.580  -5.960  1.00  0.00     0.166 A 
HETATM    2  C5  UNL     1      -2.908 -18.347  -5.375  1.00  0.00     0.147 A 
HETATM    3  N6  UNL     1      -1.571 -18.110  -5.132  1.00  0.00    -0.278 N 
ATOM      4  H6  UNL     1      -1.194 -17.268  -4.697  1.00  0.00     0.189 HD
HETATM    5  N7  UNL     1      -0.859 -19.127  -5.541  1.00  0.00    -0.233 N 
ATOM      6  H7  UNL     1       0.156 -19.199  -5.475  1.00  0.00     0.209 HD
HETATM    7  N8  UNL     1      -1.675 -20.068  -6.065  1.00  0.00    -0.223 N 
ENDROOT
BRANCH   7   8
HETATM    8  C9  UNL     1      -1.203 -21.287  -6.572  1.00  0.00     0.060 A 
HETATM    9  C10 UNL     1      -1.557 -22.535  -6.162  1.00  0.00     0.033 A 
HETATM   10  C11 UNL     1      -1.064 -23.698  -6.725  1.00  0.00     0.026 A 
HETATM   11  C12 UNL     1      -0.159 -23.645  -7.764  1.00  0.00     0.065 A 
HETATM   12  C19 UNL     1       0.220 -22.395  -8.202  1.00  0.00     0.026 A 
HETATM   13  C20 UNL     1      -0.279 -21.245  -7.633  1.00  0.00     0.033 A 
BRANCH  11  14
HETATM   14  S3  UNL     1       0.409 -25.146  -8.421  1.00  0.00     0.246 S 
HETATM   15  O5  UNL     1       1.784 -24.952  -8.974  1.00  0.00    -0.216 OA
HETATM   16  O6  UNL     1       0.471 -26.129  -7.274  1.00  0.00    -0.216 OA
BRANCH  14  17
HETATM   17  C13 UNL     1      -0.613 -25.825  -9.679  1.00  0.00     0.372 C 
HETATM   18  O9  UNL     1      -0.039 -25.935 -10.931  1.00  0.00    -0.300 OA
HETATM   19  C15 UNL     1      -0.567 -24.676 -11.267  1.00  0.00     0.301 C 
HETATM   20  O13 UNL     1      -1.416 -24.763 -10.200  1.00  0.00    -0.300 OA
BRANCH  17  21
HETATM   21  C14 UNL     1      -1.553 -26.897  -9.270  1.00  0.00     0.257 C 
HETATM   22  O7  UNL     1      -2.580 -26.545  -8.630  1.00  0.00    -0.643 OA
HETATM   23  O8  UNL     1      -1.394 -28.232  -9.530  1.00  0.00    -0.643 OA
ENDBRANCH  17  21
BRANCH  19  24
HETATM   24  C16 UNL     1      -1.261 -24.693 -12.590  1.00  0.00     0.204 C 
BRANCH  24  25
HETATM   25  O10 UNL     1      -1.905 -25.902 -12.787  1.00  0.00    -0.388 OA
ATOM     26  H10 UNL     1      -2.765 -25.765 -13.167  1.00  0.00     0.210 HD
ENDBRANCH  24  25
BRANCH  24  27
HETATM   27  C17 UNL     1      -0.400 -24.238 -13.716  1.00  0.00     0.175 C 
BRANCH  27  28
HETATM   28  O11 UNL     1       0.698 -23.495 -13.298  1.00  0.00    -0.391 OA
ATOM     29  H11 UNL     1       1.316 -23.316 -13.998  1.00  0.00     0.210 HD
ENDBRANCH  27  28
BRANCH  27  30
HETATM   30  C18 UNL     1       0.073 -25.318 -14.638  1.00  0.00     0.198 C 
BRANCH  30  31
HETATM   31  O12 UNL     1       0.691 -26.381 -13.991  1.00  0.00    -0.398 OA
ATOM     32  H12 UNL     1       0.111 -26.878 -13.427  1.00  0.00     0.209 HD
ENDBRANCH  30  31
ENDBRANCH  27  30
ENDBRANCH  24  27
ENDBRANCH  19  24
ENDBRANCH  14  17
ENDBRANCH  11  14
ENDBRANCH   7   8
BRANCH   1  33
HETATM   33  N1  UNL     1      -4.079 -20.248  -6.424  1.00  0.00    -0.305 N 
HETATM   34  C2  UNL     1      -4.423 -20.315  -7.822  1.00  0.00     0.221 C 
HETATM   35  C1  UNL     1      -5.644 -21.002  -8.307  1.00  0.00     0.117 C 
HETATM   36  O1  UNL     1      -3.678 -19.778  -8.696  1.00  0.00    -0.273 OA
HETATM   37  C3  UNL     1      -4.971 -20.912  -5.492  1.00  0.00     0.161 C 
ENDBRANCH   1  33
BRANCH   2  38
HETATM   38  C6  UNL     1      -3.926 -17.415  -4.989  1.00  0.00     0.182 C 
BRANCH  38  39
HETATM   39  O2  UNL     1      -3.871 -16.892  -3.797  1.00  0.00    -0.344 OA
ATOM     40  H2  UNL     1      -4.655 -16.490  -3.442  1.00  0.00     0.219 HD
ENDBRANCH  38  39
BRANCH  38  41
HETATM   41  N2  UNL     1      -5.028 -16.963  -5.733  1.00  0.00    -0.257 N 
ATOM     42  H2  UNL     1      -5.961 -17.259  -5.447  1.00  0.00     0.181 HD
BRANCH  41  43
HETATM   43  S1  UNL     1      -4.877 -15.929  -7.110  1.00  0.00     0.288 S 
HETATM   44  O3  UNL     1      -4.439 -14.584  -6.666  1.00  0.00    -0.198 OA
HETATM   45  O4  UNL     1      -3.902 -16.506  -8.100  1.00  0.00    -0.198 OA
BRANCH  43  46
HETATM   46  C7  UNL     1      -6.436 -15.825  -7.901  1.00  0.00     0.209 A 
HETATM   47  N3  UNL     1      -6.972 -14.765  -8.485  1.00  0.00    -0.281 N 
HETATM   48  N4  UNL     1      -8.117 -14.839  -9.022  1.00  0.00    -0.279 N 
ATOM     49  H3  UNL     1      -6.461 -13.882  -8.501  1.00  0.00     0.188 HD
HETATM   50  C8  UNL     1      -8.773 -16.004  -8.989  1.00  0.00     0.159 A 
ATOM     51  H4  UNL     1      -8.533 -14.024  -9.473  1.00  0.00     0.189 HD
HETATM   52  N5  UNL     1      -9.955 -16.280  -9.484  1.00  0.00    -0.379 N 
HETATM   53  S2  UNL     1      -7.660 -16.995  -8.145  1.00  0.00    -0.020 SA
ATOM     54  H52 UNL     1     -10.617 -15.690  -9.987  1.00  0.00     0.158 HD
ATOM     55  H51 UNL     1     -10.455 -17.169  -9.458  1.00  0.00     0.158 HD
ENDBRANCH  43  46
ENDBRANCH  41  43
ENDBRANCH  38  41
ENDBRANCH   2  38
TORSDOF 16
ENDMDL
MODEL 4
REMARK VINA RESULT: -8.744566815      3.532      4.992
REMARK  16 active torsions:
REMARK  status: ('A' for Active; 'I' for Inactive)
REMARK       I    between atoms: C2_2  and  N1_4 
REMARK    1  A    between atoms: N1_4  and  C4_6 
REMARK    2  A    between atoms: C5_7  and  C6_8 
REMARK    3  A    between atoms: C6_8  and  O2_9 
REMARK    4  A    between atoms: C6_8  and  N2_11 
REMARK    5  A    between atoms: N2_11  and  S1_13 
REMARK    6  A    between atoms: S1_13  and  C7_16 
REMARK    7  A    between atoms: N8_30  and  C9_31 
REMARK    8  A    between atoms: C12_34  and  S3_35 
REMARK    9  A    between atoms: S3_35  and  C13_38 
REMARK   10  A    between atoms: C13_38  and  C14_39 
REMARK   11  A    between atoms: C15_43  and  C16_44 
REMARK   12  A    between atoms: C16_44  and  O10_45 
REMARK   13  A    between atoms: C16_44  and  C17_47 
REMARK   14  A    between atoms: C17_47  and  O11_48 
REMARK   15  A    between atoms: C17_47  and  C18_50 
REMARK   16  A    between atoms: C18_50  and  O12_51 
ROOT
HETATM    1  C4  UNL     1      -2.589 -20.868  -5.656  1.00  0.00     0.166 A 
HETATM    2  C5  UNL     1      -2.349 -19.619  -5.161  1.00  0.00     0.147 A 
HETATM    3  N6  UNL     1      -1.061 -19.346  -5.572  1.00  0.00    -0.278 N 
ATOM      4  H6  UNL     1      -0.552 -18.484  -5.375  1.00  0.00     0.189 HD
HETATM    5  N7  UNL     1      -0.589 -20.358  -6.251  1.00  0.00    -0.233 N 
ATOM      6  H7  UNL     1       0.342 -20.406  -6.664  1.00  0.00     0.209 HD
HETATM    7  N8  UNL     1      -1.523 -21.330  -6.321  1.00  0.00    -0.223 N 
ENDROOT
BRANCH   7   8
HETATM    8  C9  UNL     1      -1.302 -22.552  -6.971  1.00  0.00     0.060 A 
HETATM    9  C10 UNL     1      -0.575 -23.606  -6.509  1.00  0.00     0.033 A 
HETATM   10  C11 UNL     1      -0.418 -24.793  -7.200  1.00  0.00     0.026 A 
HETATM   11  C12 UNL     1      -1.009 -24.972  -8.433  1.00  0.00     0.065 A 
HETATM   12  C19 UNL     1      -1.752 -23.923  -8.929  1.00  0.00     0.026 A 
HETATM   13  C20 UNL     1      -1.901 -22.746  -8.230  1.00  0.00     0.033 A 
BRANCH  11  14
HETATM   14  S3  UNL     1      -0.770 -26.490  -9.234  1.00  0.00     0.246 S 
HETATM   15  O5  UNL     1       0.639 -26.568  -9.728  1.00  0.00    -0.216 OA
HETATM   16  O6  UNL     1      -0.991 -27.570  -8.198  1.00  0.00    -0.216 OA
BRANCH  14  17
HETATM   17  C13 UNL     1      -1.856 -26.784 -10.582  1.00  0.00     0.372 C 
HETATM   18  O9  UNL     1      -1.304 -27.419 -11.677  1.00  0.00    -0.300 OA
HETATM   19  C15 UNL     1      -1.032 -26.164 -12.249  1.00  0.00     0.301 C 
HETATM   20  O13 UNL     1      -1.901 -25.589 -11.367  1.00  0.00    -0.300 OA
BRANCH  17  21
HETATM   21  C14 UNL     1      -3.263 -27.115 -10.247  1.00  0.00     0.257 C 
HETATM   22  O7  UNL     1      -3.886 -27.854 -11.056  1.00  0.00    -0.643 OA
HETATM   23  O8  UNL     1      -3.935 -26.685  -9.134  1.00  0.00    -0.643 OA
ENDBRANCH  17  21
BRANCH  19  24
HETATM   24  C16 UNL     1      -1.481 -26.086 -13.673  1.00  0.00     0.204 C 
BRANCH  24  25
HETATM   25  O10 UNL     1      -2.600 -26.876 -13.874  1.00  0.00    -0.388 OA
ATOM     26  H10 UNL     1      -3.155 -26.503 -14.549  1.00  0.00     0.210 HD
ENDBRANCH  24  25
BRANCH  24  27
HETATM   27  C17 UNL     1      -0.378 -26.280 -14.653  1.00  0.00     0.175 C 
BRANCH  27  28
HETATM   28  O11 UNL     1       0.860 -25.875 -14.170  1.00  0.00    -0.391 OA
ATOM     29  H11 UNL     1       1.587 -26.194 -14.692  1.00  0.00     0.210 HD
ENDBRANCH  27  28
BRANCH  27  30
HETATM   30  C18 UNL     1      -0.249 -27.666 -15.206  1.00  0.00     0.198 C 
BRANCH  30  31
HETATM   31  O12 UNL     1      -0.375 -28.667 -14.251  1.00  0.00    -0.398 OA
ATOM     32  H12 UNL     1       0.386 -29.231 -14.181  1.00  0.00     0.209 HD
ENDBRANCH  30  31
ENDBRANCH  27  30
ENDBRANCH  24  27
ENDBRANCH  19  24
ENDBRANCH  14  17
ENDBRANCH  11  14
ENDBRANCH   7   8
BRANCH   1  33
HETATM   33  N1  UNL     1      -3.812 -21.574  -5.516  1.00  0.00    -0.305 N 
HETATM   34  C2  UNL     1      -4.004 -22.591  -4.514  1.00  0.00     0.221 C 
HETATM   35  C1  UNL     1      -5.277 -23.338  -4.375  1.00  0.00     0.117 C 
HETATM   36  O1  UNL     1      -3.073 -22.885  -3.706  1.00  0.00    -0.273 OA
HETATM   37  C3  UNL     1      -4.937 -21.279  -6.383  1.00  0.00     0.161 C 
ENDBRANCH   1  33
BRANCH   2  38
HETATM   38  C6  UNL     1      -3.100 -18.699  -4.357  1.00  0.00     0.182 C 
BRANCH  38  39
HETATM   39  O2  UNL     1      -3.871 -19.176  -3.422  1.00  0.00    -0.344 OA
ATOM     40  H2  UNL     1      -4.022 -18.648  -2.647  1.00  0.00     0.219 HD
ENDBRANCH  38  39
BRANCH  38  41
HETATM   41  N2  UNL     1      -3.137 -17.297  -4.433  1.00  0.00    -0.257 N 
ATOM     42  H2  UNL     1      -2.723 -16.759  -3.673  1.00  0.00     0.181 HD
BRANCH  41  43
HETATM   43  S1  UNL     1      -3.849 -16.441  -5.755  1.00  0.00     0.288 S 
HETATM   44  O3  UNL     1      -4.058 -15.027  -5.367  1.00  0.00    -0.198 OA
HETATM   45  O4  UNL     1      -2.976 -16.534  -6.977  1.00  0.00    -0.198 OA
BRANCH  43  46
HETATM   46  C7  UNL     1      -5.382 -17.193  -6.144  1.00  0.00     0.209 A 
HETATM   47  N3  UNL     1      -6.139 -17.934  -5.348  1.00  0.00    -0.281 N 
HETATM   48  N4  UNL     1      -7.233 -18.415  -5.769  1.00  0.00    -0.279 N 
ATOM     49  H3  UNL     1      -5.839 -18.119  -4.391  1.00  0.00     0.188 HD
HETATM   50  C8  UNL     1      -7.608 -18.163  -7.028  1.00  0.00     0.159 A 
ATOM     51  H4  UNL     1      -7.818 -18.985  -5.159  1.00  0.00     0.189 HD
HETATM   52  N5  UNL     1      -8.693 -18.567  -7.643  1.00  0.00    -0.379 N 
HETATM   53  S2  UNL     1      -6.308 -17.197  -7.582  1.00  0.00    -0.020 SA
ATOM     54  H52 UNL     1      -9.467 -19.143  -7.313  1.00  0.00     0.158 HD
ATOM     55  H51 UNL     1      -8.978 -18.375  -8.603  1.00  0.00     0.158 HD
ENDBRANCH  43  46
ENDBRANCH  41  43
ENDBRANCH  38  41
ENDBRANCH   2  38
TORSDOF 16
ENDMDL
MODEL 5
REMARK VINA RESULT: -8.714899777      3.240      5.508
REMARK  16 active torsions:
REMARK  status: ('A' for Active; 'I' for Inactive)
REMARK       I    between atoms: C2_2  and  N1_4 
REMARK    1  A    between atoms: N1_4  and  C4_6 
REMARK    2  A    between atoms: C5_7  and  C6_8 
REMARK    3  A    between atoms: C6_8  and  O2_9 
REMARK    4  A    between atoms: C6_8  and  N2_11 
REMARK    5  A    between atoms: N2_11  and  S1_13 
REMARK    6  A    between atoms: S1_13  and  C7_16 
REMARK    7  A    between atoms: N8_30  and  C9_31 
REMARK    8  A    between atoms: C12_34  and  S3_35 
REMARK    9  A    between atoms: S3_35  and  C13_38 
REMARK   10  A    between atoms: C13_38  and  C14_39 
REMARK   11  A    between atoms: C15_43  and  C16_44 
REMARK   12  A    between atoms: C16_44  and  O10_45 
REMARK   13  A    between atoms: C16_44  and  C17_47 
REMARK   14  A    between atoms: C17_47  and  O11_48 
REMARK   15  A    between atoms: C17_47  and  C18_50 
REMARK   16  A    between atoms: C18_50  and  O12_51 
ROOT
HETATM    1  C4  UNL     1      -2.528 -20.928  -5.923  1.00  0.00     0.166 A 
HETATM    2  C5  UNL     1      -2.336 -19.655  -5.470  1.00  0.00     0.147 A 
HETATM    3  N6  UNL     1      -1.039 -19.368  -5.841  1.00  0.00    -0.278 N 
ATOM      4  H6  UNL     1      -0.558 -18.487  -5.659  1.00  0.00     0.189 HD
HETATM    5  N7  UNL     1      -0.517 -20.395  -6.459  1.00  0.00    -0.233 N 
ATOM      6  H7  UNL     1       0.431 -20.437  -6.832  1.00  0.00     0.209 HD
HETATM    7  N8  UNL     1      -1.426 -21.391  -6.526  1.00  0.00    -0.223 N 
ENDROOT
BRANCH   7   8
HETATM    8  C9  UNL     1      -1.151 -22.633  -7.117  1.00  0.00     0.060 A 
HETATM    9  C10 UNL     1      -0.746 -23.768  -6.486  1.00  0.00     0.033 A 
HETATM   10  C11 UNL     1      -0.513 -24.966  -7.134  1.00  0.00     0.026 A 
HETATM   11  C12 UNL     1      -0.687 -25.072  -8.499  1.00  0.00     0.065 A 
HETATM   12  C19 UNL     1      -1.098 -23.939  -9.167  1.00  0.00     0.026 A 
HETATM   13  C20 UNL     1      -1.326 -22.752  -8.509  1.00  0.00     0.033 A 
BRANCH  11  14
HETATM   14  S3  UNL     1      -0.382 -26.610  -9.238  1.00  0.00     0.246 S 
HETATM   15  O5  UNL     1       1.070 -26.710  -9.582  1.00  0.00    -0.216 OA
HETATM   16  O6  UNL     1      -0.719 -27.664  -8.207  1.00  0.00    -0.216 OA
BRANCH  14  17
HETATM   17  C13 UNL     1      -1.327 -26.925 -10.684  1.00  0.00     0.372 C 
HETATM   18  O9  UNL     1      -2.643 -26.509 -10.649  1.00  0.00    -0.300 OA
HETATM   19  C15 UNL     1      -3.019 -27.787 -10.200  1.00  0.00     0.301 C 
HETATM   20  O13 UNL     1      -1.806 -28.269 -10.601  1.00  0.00    -0.300 OA
BRANCH  17  21
HETATM   21  C14 UNL     1      -0.618 -26.815 -11.982  1.00  0.00     0.257 C 
HETATM   22  O7  UNL     1      -0.433 -27.882 -12.627  1.00  0.00    -0.643 OA
HETATM   23  O8  UNL     1      -0.149 -25.652 -12.534  1.00  0.00    -0.643 OA
ENDBRANCH  17  21
BRANCH  19  24
HETATM   24  C16 UNL     1      -4.172 -28.339 -10.975  1.00  0.00     0.204 C 
BRANCH  24  25
HETATM   25  O10 UNL     1      -3.878 -28.370 -12.328  1.00  0.00    -0.388 OA
ATOM     26  H10 UNL     1      -4.623 -28.073 -12.838  1.00  0.00     0.210 HD
ENDBRANCH  24  25
BRANCH  24  27
HETATM   27  C17 UNL     1      -5.477 -27.717 -10.619  1.00  0.00     0.175 C 
BRANCH  27  28
HETATM   28  O11 UNL     1      -5.432 -26.992  -9.435  1.00  0.00    -0.391 OA
ATOM     29  H11 UNL     1      -6.181 -27.148  -8.873  1.00  0.00     0.210 HD
ENDBRANCH  27  28
BRANCH  27  30
HETATM   30  C18 UNL     1      -6.090 -26.862 -11.684  1.00  0.00     0.198 C 
BRANCH  30  31
HETATM   31  O12 UNL     1      -5.307 -25.775 -12.055  1.00  0.00    -0.398 OA
ATOM     32  H12 UNL     1      -4.906 -25.322 -11.322  1.00  0.00     0.209 HD
ENDBRANCH  30  31
ENDBRANCH  27  30
ENDBRANCH  24  27
ENDBRANCH  19  24
ENDBRANCH  14  17
ENDBRANCH  11  14
ENDBRANCH   7   8
BRANCH   1  33
HETATM   33  N1  UNL     1      -3.739 -21.657  -5.803  1.00  0.00    -0.305 N 
HETATM   34  C2  UNL     1      -3.985 -22.570  -4.716  1.00  0.00     0.221 C 
HETATM   35  C1  UNL     1      -5.245 -23.341  -4.597  1.00  0.00     0.117 C 
HETATM   36  O1  UNL     1      -3.115 -22.745  -3.812  1.00  0.00    -0.273 OA
HETATM   37  C3  UNL     1      -4.798 -21.494  -6.781  1.00  0.00     0.161 C 
ENDBRANCH   1  33
BRANCH   2  38
HETATM   38  C6  UNL     1      -3.140 -18.722  -4.735  1.00  0.00     0.182 C 
BRANCH  38  39
HETATM   39  O2  UNL     1      -3.136 -18.788  -3.435  1.00  0.00    -0.344 OA
ATOM     40  H2  UNL     1      -3.952 -18.637  -2.971  1.00  0.00     0.219 HD
ENDBRANCH  38  39
BRANCH  38  41
HETATM   41  N2  UNL     1      -3.972 -17.705  -5.229  1.00  0.00    -0.257 N 
ATOM     42  H2  UNL     1      -4.982 -17.826  -5.156  1.00  0.00     0.181 HD
BRANCH  41  43
HETATM   43  S1  UNL     1      -3.367 -16.258  -5.954  1.00  0.00     0.288 S 
HETATM   44  O3  UNL     1      -2.982 -15.301  -4.889  1.00  0.00    -0.198 OA
HETATM   45  O4  UNL     1      -2.193 -16.564  -6.843  1.00  0.00    -0.198 OA
BRANCH  43  46
HETATM   46  C7  UNL     1      -4.626 -15.570  -6.959  1.00  0.00     0.209 A 
HETATM   47  N3  UNL     1      -5.619 -16.212  -7.553  1.00  0.00    -0.281 N 
HETATM   48  N4  UNL     1      -6.463 -15.577  -8.254  1.00  0.00    -0.279 N 
ATOM     49  H3  UNL     1      -5.706 -17.222  -7.447  1.00  0.00     0.188 HD
HETATM   50  C8  UNL     1      -6.332 -14.253  -8.383  1.00  0.00     0.159 A 
ATOM     51  H4  UNL     1      -7.230 -16.068  -8.713  1.00  0.00     0.189 HD
HETATM   52  N5  UNL     1      -7.094 -13.428  -9.059  1.00  0.00    -0.379 N 
HETATM   53  S2  UNL     1      -4.931 -13.958  -7.444  1.00  0.00    -0.020 SA
ATOM     54  H52 UNL     1      -7.929 -13.603  -9.618  1.00  0.00     0.158 HD
ATOM     55  H51 UNL     1      -6.993 -12.417  -9.157  1.00  0.00     0.158 HD
ENDBRANCH  43  46
ENDBRANCH  41  43
ENDBRANCH  38  41
ENDBRANCH   2  38
TORSDOF 16
ENDMDL
