MODEL 1
REMARK VINA RESULT: -8.137507408      0.000      0.000
REMARK  16 active torsions:
REMARK  status: ('A' for Active; 'I' for Inactive)
REMARK    1  A    between atoms: O1_2  and  C2_3 
REMARK    2  A    between atoms: C2_3  and  C3_5 
REMARK    3  A    between atoms: C3_5  and  N1_6 
REMARK    4  A    between atoms: C3_5  and  C21_45 
REMARK    5  A    between atoms: N1_6  and  C4_8 
REMARK    6  A    between atoms: C7_14  and  C8_15 
REMARK    7  A    between atoms: C8_15  and  O3_16 
REMARK    8  A    between atoms: C8_15  and  O4_18 
REMARK    9  A    between atoms: C9_20  and  C10_21 
REMARK   10  A    between atoms: C10_21  and  O6_23 
REMARK   11  A    between atoms: O6_23  and  C11_24 
REMARK   12  A    between atoms: C11_24  and  O7_27 
REMARK   13  A    between atoms: C16_34  and  N4_35 
REMARK       I    between atoms: N4_35  and  C17_37 
REMARK   14  A    between atoms: C19_40  and  N5_41 
REMARK   15  A    between atoms: C21_45  and  O12_46 
REMARK   16  A    between atoms: C21_45  and  N6_48 
ROOT
HETATM    1  C4  UNL     1      -1.741 -22.448  -7.597  1.00  0.00     0.112 C 
HETATM    2  C5  UNL     1      -2.576 -23.707  -7.535  1.00  0.00     0.106 C 
HETATM    3  S1  UNL     1      -2.869 -24.295  -9.257  1.00  0.00    -0.102 SA
HETATM    4  C6  UNL     1      -1.197 -24.658  -9.861  1.00  0.00     0.213 C 
HETATM    5  N2  UNL     1      -1.173 -24.580 -11.301  1.00  0.00    -0.345 N 
ATOM      6  H2  UNL     1      -0.920 -23.692 -11.735  1.00  0.00     0.163 HD
HETATM    7  C7  UNL     1      -1.488 -25.693 -12.155  1.00  0.00     0.076 C 
HETATM    8  C9  UNL     1      -0.990 -26.881 -11.956  1.00  0.00     0.054 C 
HETATM    9  C14 UNL     1       0.004 -27.100 -10.819  1.00  0.00     0.126 C 
HETATM   10  S2  UNL     1      -0.724 -26.358  -9.336  1.00  0.00    -0.099 SA
HETATM   11  N3  UNL     1      -0.313 -23.720  -9.202  1.00  0.00    -0.296 N 
HETATM   12  C15 UNL     1       1.108 -23.924  -9.015  1.00  0.00     0.248 C 
HETATM   13  O8  UNL     1       1.751 -24.984  -8.936  1.00  0.00    -0.271 OA
HETATM   14  C16 UNL     1       1.698 -22.552  -8.929  1.00  0.00     0.208 C 
HETATM   15  C19 UNL     1       0.597 -21.905  -8.064  1.00  0.00     0.212 C 
HETATM   16  C20 UNL     1      -0.695 -22.460  -8.651  1.00  0.00     0.146 C 
ENDROOT
BRANCH   7  17
HETATM   17  C8  UNL     1      -2.389 -25.392 -13.290  1.00  0.00     0.305 C 
BRANCH  17  18
HETATM   18  O3  UNL     1      -2.224 -23.996 -13.600  1.00  0.00    -0.366 OA
ATOM     19  H3  UNL     1      -1.951 -23.943 -14.508  1.00  0.00     0.213 HD
ENDBRANCH  17  18
BRANCH  17  20
HETATM   20  O4  UNL     1      -3.707 -25.674 -13.063  1.00  0.00    -0.366 OA
ATOM     21  H4  UNL     1      -4.166 -26.049 -13.805  1.00  0.00     0.213 HD
ENDBRANCH  17  20
ENDBRANCH   7  17
BRANCH   1  22
HETATM   22  N1  UNL     1      -2.642 -21.358  -7.878  1.00  0.00    -0.398 N 
ATOM     23  H1  UNL     1      -3.358 -21.439  -8.599  1.00  0.00     0.154 HD
BRANCH  22  24
HETATM   24  C3  UNL     1      -2.498 -20.176  -7.121  1.00  0.00     0.226 C 
BRANCH  24  25
HETATM   25  C2  UNL     1      -2.006 -18.985  -7.853  1.00  0.00     0.285 C 
HETATM   26  O2  UNL     1      -2.386 -18.633  -8.996  1.00  0.00    -0.263 OA
BRANCH  25  27
HETATM   27  O1  UNL     1      -1.050 -18.195  -7.226  1.00  0.00    -0.325 OA
HETATM   28  C1  UNL     1      -1.182 -16.779  -7.167  1.00  0.00     0.213 C 
ENDBRANCH  25  27
ENDBRANCH  24  25
BRANCH  24  29
HETATM   29  C21 UNL     1      -3.904 -19.753  -6.627  1.00  0.00     0.250 C 
BRANCH  29  30
HETATM   30  O12 UNL     1      -4.737 -20.008  -7.715  1.00  0.00    -0.374 OA
ATOM     31  H12 UNL     1      -5.599 -19.746  -7.413  1.00  0.00     0.212 HD
ENDBRANCH  29  30
BRANCH  29  32
HETATM   32  N6  UNL     1      -3.911 -18.411  -6.205  1.00  0.00    -0.369 N 
HETATM   33  C22 UNL     1      -3.862 -18.119  -4.969  1.00  0.00    -0.024 C 
HETATM   34  C23 UNL     1      -3.795 -19.096  -3.855  1.00  0.00     0.062 C 
HETATM   35  C24 UNL     1      -3.877 -16.667  -4.618  1.00  0.00     0.062 C 
ATOM     36  H6  UNL     1      -3.957 -17.664  -6.898  1.00  0.00     0.161 HD
ENDBRANCH  29  32
ENDBRANCH  24  29
ENDBRANCH  22  24
ENDBRANCH   1  22
BRANCH   8  37
HETATM   37  C10 UNL     1      -1.288 -28.015 -12.775  1.00  0.00     0.294 C 
HETATM   38  O5  UNL     1      -0.341 -28.557 -13.449  1.00  0.00    -0.259 OA
BRANCH  37  39
HETATM   39  O6  UNL     1      -2.495 -28.597 -12.918  1.00  0.00    -0.281 OA
BRANCH  39  40
HETATM   40  C11 UNL     1      -3.279 -29.032 -11.822  1.00  0.00     0.163 C 
HETATM   41  C12 UNL     1      -4.407 -29.874 -12.395  1.00  0.00     0.078 C 
HETATM   42  C13 UNL     1      -2.512 -29.874 -10.859  1.00  0.00     0.078 C 
BRANCH  40  43
HETATM   43  O7  UNL     1      -3.852 -27.971 -11.116  1.00  0.00    -0.365 OA
ATOM     44  H7  UNL     1      -3.289 -27.647 -10.423  1.00  0.00     0.213 HD
ENDBRANCH  40  43
ENDBRANCH  39  40
ENDBRANCH  37  39
ENDBRANCH   8  37
BRANCH  14  45
HETATM   45  N4  UNL     1       2.984 -22.510  -8.312  1.00  0.00    -0.346 N 
HETATM   46  C17 UNL     1       3.779 -21.348  -8.513  1.00  0.00     0.214 C 
HETATM   47  C18 UNL     1       5.128 -21.211  -7.916  1.00  0.00     0.117 C 
HETATM   48  O9  UNL     1       3.373 -20.373  -9.212  1.00  0.00    -0.274 OA
ATOM     49  H4  UNL     1       3.323 -23.288  -7.746  1.00  0.00     0.163 HD
ENDBRANCH  14  45
BRANCH  15  50
HETATM   50  N5  UNL     1       0.865 -22.382  -6.732  1.00  0.00    -0.146 N 
HETATM   51  O10 UNL     1       1.290 -21.580  -5.882  1.00  0.00    -0.536 OA
HETATM   52  O11 UNL     1       0.669 -23.679  -6.405  1.00  0.00    -0.536 OA
ENDBRANCH  15  50
TORSDOF 16
ENDMDL
MODEL 2
REMARK VINA RESULT: -7.876774661      1.296      2.126
REMARK  16 active torsions:
REMARK  status: ('A' for Active; 'I' for Inactive)
REMARK    1  A    between atoms: O1_2  and  C2_3 
REMARK    2  A    between atoms: C2_3  and  C3_5 
REMARK    3  A    between atoms: C3_5  and  N1_6 
REMARK    4  A    between atoms: C3_5  and  C21_45 
REMARK    5  A    between atoms: N1_6  and  C4_8 
REMARK    6  A    between atoms: C7_14  and  C8_15 
REMARK    7  A    between atoms: C8_15  and  O3_16 
REMARK    8  A    between atoms: C8_15  and  O4_18 
REMARK    9  A    between atoms: C9_20  and  C10_21 
REMARK   10  A    between atoms: C10_21  and  O6_23 
REMARK   11  A    between atoms: O6_23  and  C11_24 
REMARK   12  A    between atoms: C11_24  and  O7_27 
REMARK   13  A    between atoms: C16_34  and  N4_35 
REMARK       I    between atoms: N4_35  and  C17_37 
REMARK   14  A    between atoms: C19_40  and  N5_41 
REMARK   15  A    between atoms: C21_45  and  O12_46 
REMARK   16  A    between atoms: C21_45  and  N6_48 
ROOT
HETATM    1  C4  UNL     1      -1.405 -22.209  -7.345  1.00  0.00     0.112 C 
HETATM    2  C5  UNL     1      -2.248 -23.462  -7.256  1.00  0.00     0.106 C 
HETATM    3  S1  UNL     1      -2.637 -24.024  -8.968  1.00  0.00    -0.102 SA
HETATM    4  C6  UNL     1      -1.002 -24.392  -9.664  1.00  0.00     0.213 C 
HETATM    5  N2  UNL     1      -1.054 -24.294 -11.102  1.00  0.00    -0.345 N 
ATOM      6  H2  UNL     1      -0.816 -23.402 -11.537  1.00  0.00     0.163 HD
HETATM    7  C7  UNL     1      -1.424 -25.393 -11.953  1.00  0.00     0.076 C 
HETATM    8  C9  UNL     1      -0.926 -26.588 -11.797  1.00  0.00     0.054 C 
HETATM    9  C14 UNL     1       0.124 -26.831 -10.717  1.00  0.00     0.126 C 
HETATM   10  S2  UNL     1      -0.517 -26.104  -9.188  1.00  0.00    -0.099 SA
HETATM   11  N3  UNL     1      -0.076 -23.471  -9.040  1.00  0.00    -0.296 N 
HETATM   12  C15 UNL     1       1.351 -23.689  -8.932  1.00  0.00     0.248 C 
HETATM   13  O8  UNL     1       1.987 -24.756  -8.901  1.00  0.00    -0.271 OA
HETATM   14  C16 UNL     1       1.957 -22.324  -8.859  1.00  0.00     0.208 C 
HETATM   15  C19 UNL     1       0.909 -21.679  -7.928  1.00  0.00     0.212 C 
HETATM   16  C20 UNL     1      -0.416 -22.215  -8.453  1.00  0.00     0.146 C 
ENDROOT
BRANCH   7  17
HETATM   17  C8  UNL     1      -2.381 -25.069 -13.034  1.00  0.00     0.305 C 
BRANCH  17  18
HETATM   18  O3  UNL     1      -1.732 -24.121 -13.902  1.00  0.00    -0.366 OA
ATOM     19  H3  UNL     1      -1.373 -24.611 -14.632  1.00  0.00     0.213 HD
ENDBRANCH  17  18
BRANCH  17  20
HETATM   20  O4  UNL     1      -3.580 -24.575 -12.606  1.00  0.00    -0.366 OA
ATOM     21  H4  UNL     1      -4.148 -24.256 -13.298  1.00  0.00     0.213 HD
ENDBRANCH  17  20
ENDBRANCH   7  17
BRANCH   1  22
HETATM   22  N1  UNL     1      -2.310 -21.109  -7.563  1.00  0.00    -0.398 N 
ATOM     23  H1  UNL     1      -3.284 -21.269  -7.819  1.00  0.00     0.154 HD
BRANCH  22  24
HETATM   24  C3  UNL     1      -1.802 -19.801  -7.410  1.00  0.00     0.226 C 
BRANCH  24  25
HETATM   25  C2  UNL     1      -2.508 -18.732  -8.155  1.00  0.00     0.285 C 
HETATM   26  O2  UNL     1      -2.555 -18.633  -9.404  1.00  0.00    -0.263 OA
BRANCH  25  27
HETATM   27  O1  UNL     1      -3.171 -17.762  -7.412  1.00  0.00    -0.325 OA
HETATM   28  C1  UNL     1      -4.539 -17.453  -7.653  1.00  0.00     0.213 C 
ENDBRANCH  25  27
ENDBRANCH  24  25
BRANCH  24  29
HETATM   29  C21 UNL     1      -1.973 -19.395  -5.926  1.00  0.00     0.250 C 
BRANCH  29  30
HETATM   30  O12 UNL     1      -0.766 -19.758  -5.331  1.00  0.00    -0.374 OA
ATOM     31  H12 UNL     1      -0.355 -20.327  -5.972  1.00  0.00     0.212 HD
ENDBRANCH  29  30
BRANCH  29  32
HETATM   32  N6  UNL     1      -3.100 -20.017  -5.356  1.00  0.00    -0.369 N 
HETATM   33  C22 UNL     1      -3.751 -19.452  -4.423  1.00  0.00    -0.024 C 
HETATM   34  C23 UNL     1      -3.436 -18.129  -3.831  1.00  0.00     0.062 C 
HETATM   35  C24 UNL     1      -4.930 -20.192  -3.881  1.00  0.00     0.062 C 
ATOM     36  H6  UNL     1      -3.396 -20.932  -5.696  1.00  0.00     0.161 HD
ENDBRANCH  29  32
ENDBRANCH  24  29
ENDBRANCH  22  24
ENDBRANCH   1  22
BRANCH   8  37
HETATM   37  C10 UNL     1      -1.277 -27.708 -12.614  1.00  0.00     0.294 C 
HETATM   38  O5  UNL     1      -2.383 -28.314 -12.389  1.00  0.00    -0.259 OA
BRANCH  37  39
HETATM   39  O6  UNL     1      -0.548 -28.208 -13.632  1.00  0.00    -0.281 OA
BRANCH  39  40
HETATM   40  C11 UNL     1      -0.484 -27.602 -14.909  1.00  0.00     0.163 C 
HETATM   41  C12 UNL     1       0.617 -26.555 -14.845  1.00  0.00     0.078 C 
HETATM   42  C13 UNL     1      -0.143 -28.569 -15.993  1.00  0.00     0.078 C 
BRANCH  40  43
HETATM   43  O7  UNL     1      -1.672 -26.955 -15.258  1.00  0.00    -0.365 OA
ATOM     44  H7  UNL     1      -2.103 -27.359 -16.001  1.00  0.00     0.213 HD
ENDBRANCH  40  43
ENDBRANCH  39  40
ENDBRANCH  37  39
ENDBRANCH   8  37
BRANCH  14  45
HETATM   45  N4  UNL     1       3.275 -22.301  -8.311  1.00  0.00    -0.346 N 
HETATM   46  C17 UNL     1       4.023 -21.098  -8.433  1.00  0.00     0.214 C 
HETATM   47  C18 UNL     1       5.400 -20.977  -7.898  1.00  0.00     0.117 C 
HETATM   48  O9  UNL     1       3.551 -20.071  -9.005  1.00  0.00    -0.274 OA
ATOM     49  H4  UNL     1       3.667 -23.120  -7.847  1.00  0.00     0.163 HD
ENDBRANCH  14  45
BRANCH  15  50
HETATM   50  N5  UNL     1       1.243 -22.177  -6.619  1.00  0.00    -0.146 N 
HETATM   51  O10 UNL     1       1.666 -21.379  -5.765  1.00  0.00    -0.536 OA
HETATM   52  O11 UNL     1       1.109 -23.488  -6.318  1.00  0.00    -0.536 OA
ENDBRANCH  15  50
TORSDOF 16
ENDMDL
MODEL 3
REMARK VINA RESULT: -7.819376737      1.354      1.994
REMARK  16 active torsions:
REMARK  status: ('A' for Active; 'I' for Inactive)
REMARK    1  A    between atoms: O1_2  and  C2_3 
REMARK    2  A    between atoms: C2_3  and  C3_5 
REMARK    3  A    between atoms: C3_5  and  N1_6 
REMARK    4  A    between atoms: C3_5  and  C21_45 
REMARK    5  A    between atoms: N1_6  and  C4_8 
REMARK    6  A    between atoms: C7_14  and  C8_15 
REMARK    7  A    between atoms: C8_15  and  O3_16 
REMARK    8  A    between atoms: C8_15  and  O4_18 
REMARK    9  A    between atoms: C9_20  and  C10_21 
REMARK   10  A    between atoms: C10_21  and  O6_23 
REMARK   11  A    between atoms: O6_23  and  C11_24 
REMARK   12  A    between atoms: C11_24  and  O7_27 
REMARK   13  A    between atoms: C16_34  and  N4_35 
REMARK       I    between atoms: N4_35  and  C17_37 
REMARK   14  A    between atoms: C19_40  and  N5_41 
REMARK   15  A    between atoms: C21_45  and  O12_46 
REMARK   16  A    between atoms: C21_45  and  N6_48 
ROOT
HETATM    1  C4  UNL     1      -1.937 -21.633  -7.450  1.00  0.00     0.112 C 
HETATM    2  C5  UNL     1      -2.926 -22.735  -7.142  1.00  0.00     0.106 C 
HETATM    3  S1  UNL     1      -3.311 -23.626  -8.710  1.00  0.00    -0.102 SA
HETATM    4  C6  UNL     1      -1.706 -24.315  -9.200  1.00  0.00     0.213 C 
HETATM    5  N2  UNL     1      -1.689 -24.540 -10.625  1.00  0.00    -0.345 N 
ATOM      6  H2  UNL     1      -1.329 -23.801 -11.229  1.00  0.00     0.163 HD
HETATM    7  C7  UNL     1      -2.153 -25.757 -11.235  1.00  0.00     0.076 C 
HETATM    8  C9  UNL     1      -1.808 -26.932 -10.787  1.00  0.00     0.054 C 
HETATM    9  C14 UNL     1      -0.838 -27.035  -9.614  1.00  0.00     0.126 C 
HETATM   10  S2  UNL     1      -1.448 -25.916  -8.328  1.00  0.00    -0.099 SA
HETATM   11  N3  UNL     1      -0.702 -23.382  -8.735  1.00  0.00    -0.296 N 
HETATM   12  C15 UNL     1       0.683 -23.721  -8.489  1.00  0.00     0.248 C 
HETATM   13  O8  UNL     1       1.186 -24.816  -8.182  1.00  0.00    -0.271 OA
HETATM   14  C16 UNL     1       1.445 -22.448  -8.679  1.00  0.00     0.208 C 
HETATM   15  C19 UNL     1       0.445 -21.501  -7.983  1.00  0.00     0.212 C 
HETATM   16  C20 UNL     1      -0.913 -21.996  -8.463  1.00  0.00     0.146 C 
ENDROOT
BRANCH   7  17
HETATM   17  C8  UNL     1      -3.021 -25.585 -12.421  1.00  0.00     0.305 C 
BRANCH  17  18
HETATM   18  O3  UNL     1      -2.332 -24.700 -13.324  1.00  0.00    -0.366 OA
ATOM     19  H3  UNL     1      -1.997 -25.233 -14.035  1.00  0.00     0.213 HD
ENDBRANCH  17  18
BRANCH  17  20
HETATM   20  O4  UNL     1      -4.271 -25.104 -12.150  1.00  0.00    -0.366 OA
ATOM     21  H4  UNL     1      -4.776 -24.859 -12.915  1.00  0.00     0.213 HD
ENDBRANCH  17  20
ENDBRANCH   7  17
BRANCH   1  22
HETATM   22  N1  UNL     1      -2.694 -20.520  -7.964  1.00  0.00    -0.398 N 
ATOM     23  H1  UNL     1      -3.015 -20.503  -8.932  1.00  0.00     0.154 HD
BRANCH  22  24
HETATM   24  C3  UNL     1      -2.977 -19.455  -7.082  1.00  0.00     0.226 C 
BRANCH  24  25
HETATM   25  C2  UNL     1      -1.825 -18.905  -6.330  1.00  0.00     0.285 C 
HETATM   26  O2  UNL     1      -0.814 -18.371  -6.846  1.00  0.00    -0.263 OA
BRANCH  25  27
HETATM   27  O1  UNL     1      -1.867 -18.985  -4.943  1.00  0.00    -0.325 OA
HETATM   28  C1  UNL     1      -3.066 -19.328  -4.257  1.00  0.00     0.213 C 
ENDBRANCH  25  27
ENDBRANCH  24  25
BRANCH  24  29
HETATM   29  C21 UNL     1      -3.474 -18.257  -7.928  1.00  0.00     0.250 C 
BRANCH  29  30
HETATM   30  O12 UNL     1      -2.670 -18.286  -9.066  1.00  0.00    -0.374 OA
ATOM     31  H12 UNL     1      -3.276 -18.467  -9.774  1.00  0.00     0.212 HD
ENDBRANCH  29  30
BRANCH  29  32
HETATM   32  N6  UNL     1      -3.392 -17.054  -7.202  1.00  0.00    -0.369 N 
HETATM   33  C22 UNL     1      -4.416 -16.316  -7.051  1.00  0.00    -0.024 C 
HETATM   34  C23 UNL     1      -5.768 -16.597  -7.589  1.00  0.00     0.062 C 
HETATM   35  C24 UNL     1      -4.229 -15.058  -6.267  1.00  0.00     0.062 C 
ATOM     36  H6  UNL     1      -2.501 -16.771  -6.792  1.00  0.00     0.161 HD
ENDBRANCH  29  32
ENDBRANCH  24  29
ENDBRANCH  22  24
ENDBRANCH   1  22
BRANCH   8  37
HETATM   37  C10 UNL     1      -2.258 -28.163 -11.359  1.00  0.00     0.294 C 
HETATM   38  O5  UNL     1      -2.382 -29.188 -10.599  1.00  0.00    -0.259 OA
BRANCH  37  39
HETATM   39  O6  UNL     1      -2.579 -28.368 -12.652  1.00  0.00    -0.281 OA
BRANCH  39  40
HETATM   40  C11 UNL     1      -1.666 -28.880 -13.604  1.00  0.00     0.163 C 
HETATM   41  C12 UNL     1      -2.493 -29.503 -14.717  1.00  0.00     0.078 C 
HETATM   42  C13 UNL     1      -0.801 -27.822 -14.205  1.00  0.00     0.078 C 
BRANCH  40  43
HETATM   43  O7  UNL     1      -0.839 -29.874 -13.076  1.00  0.00    -0.365 OA
ATOM     44  H7  UNL     1      -0.206 -30.196 -13.707  1.00  0.00     0.213 HD
ENDBRANCH  40  43
ENDBRANCH  39  40
ENDBRANCH  37  39
ENDBRANCH   8  37
BRANCH  14  45
HETATM   45  N4  UNL     1       2.733 -22.443  -8.064  1.00  0.00    -0.346 N 
HETATM   46  C17 UNL     1       3.649 -21.427  -8.452  1.00  0.00     0.214 C 
HETATM   47  C18 UNL     1       5.010 -21.340  -7.872  1.00  0.00     0.117 C 
HETATM   48  O9  UNL     1       3.348 -20.547  -9.311  1.00  0.00    -0.274 OA
ATOM     49  H4  UNL     1       2.989 -23.146  -7.371  1.00  0.00     0.163 HD
ENDBRANCH  14  45
BRANCH  15  50
HETATM   50  N5  UNL     1       0.665 -21.722  -6.578  1.00  0.00    -0.146 N 
HETATM   51  O10 UNL     1       1.156 -20.805  -5.897  1.00  0.00    -0.536 OA
HETATM   52  O11 UNL     1       0.354 -22.905  -6.003  1.00  0.00    -0.536 OA
ENDBRANCH  15  50
TORSDOF 16
ENDMDL
MODEL 4
REMARK VINA RESULT: -7.810073130      0.894      1.746
REMARK  16 active torsions:
REMARK  status: ('A' for Active; 'I' for Inactive)
REMARK    1  A    between atoms: O1_2  and  C2_3 
REMARK    2  A    between atoms: C2_3  and  C3_5 
REMARK    3  A    between atoms: C3_5  and  N1_6 
REMARK    4  A    between atoms: C3_5  and  C21_45 
REMARK    5  A    between atoms: N1_6  and  C4_8 
REMARK    6  A    between atoms: C7_14  and  C8_15 
REMARK    7  A    between atoms: C8_15  and  O3_16 
REMARK    8  A    between atoms: C8_15  and  O4_18 
REMARK    9  A    between atoms: C9_20  and  C10_21 
REMARK   10  A    between atoms: C10_21  and  O6_23 
REMARK   11  A    between atoms: O6_23  and  C11_24 
REMARK   12  A    between atoms: C11_24  and  O7_27 
REMARK   13  A    between atoms: C16_34  and  N4_35 
REMARK       I    between atoms: N4_35  and  C17_37 
REMARK   14  A    between atoms: C19_40  and  N5_41 
REMARK   15  A    between atoms: C21_45  and  O12_46 
REMARK   16  A    between atoms: C21_45  and  N6_48 
ROOT
HETATM    1  C4  UNL     1      -1.685 -22.421  -7.439  1.00  0.00     0.112 C 
HETATM    2  C5  UNL     1      -2.502 -23.693  -7.377  1.00  0.00     0.106 C 
HETATM    3  S1  UNL     1      -2.849 -24.246  -9.101  1.00  0.00    -0.102 SA
HETATM    4  C6  UNL     1      -1.195 -24.571  -9.772  1.00  0.00     0.213 C 
HETATM    5  N2  UNL     1      -1.223 -24.459 -11.210  1.00  0.00    -0.345 N 
ATOM      6  H2  UNL     1      -0.998 -23.557 -11.632  1.00  0.00     0.163 HD
HETATM    7  C7  UNL     1      -1.554 -25.557 -12.078  1.00  0.00     0.076 C 
HETATM    8  C9  UNL     1      -1.033 -26.742 -11.926  1.00  0.00     0.054 C 
HETATM    9  C14 UNL     1       0.004 -26.973 -10.830  1.00  0.00     0.126 C 
HETATM   10  S2  UNL     1      -0.680 -26.276  -9.305  1.00  0.00    -0.099 SA
HETATM   11  N3  UNL     1      -0.300 -23.636  -9.123  1.00  0.00    -0.296 N 
HETATM   12  C15 UNL     1       1.130 -23.823  -8.992  1.00  0.00     0.248 C 
HETATM   13  O8  UNL     1       1.789 -24.876  -8.961  1.00  0.00    -0.271 OA
HETATM   14  C16 UNL     1       1.704 -22.446  -8.895  1.00  0.00     0.208 C 
HETATM   15  C19 UNL     1       0.626 -21.835  -7.976  1.00  0.00     0.212 C 
HETATM   16  C20 UNL     1      -0.678 -22.394  -8.529  1.00  0.00     0.146 C 
ENDROOT
BRANCH   7  17
HETATM   17  C8  UNL     1      -2.500 -25.243 -13.173  1.00  0.00     0.305 C 
BRANCH  17  18
HETATM   18  O3  UNL     1      -1.980 -24.090 -13.861  1.00  0.00    -0.366 OA
ATOM     19  H3  UNL     1      -1.162 -23.858 -13.438  1.00  0.00     0.213 HD
ENDBRANCH  17  18
BRANCH  17  20
HETATM   20  O4  UNL     1      -3.784 -25.013 -12.769  1.00  0.00    -0.366 OA
ATOM     21  H4  UNL     1      -4.391 -24.810 -13.472  1.00  0.00     0.213 HD
ENDBRANCH  17  20
ENDBRANCH   7  17
BRANCH   1  22
HETATM   22  N1  UNL     1      -2.611 -21.339  -7.662  1.00  0.00    -0.398 N 
ATOM     23  H1  UNL     1      -3.364 -21.421  -8.344  1.00  0.00     0.154 HD
BRANCH  22  24
HETATM   24  C3  UNL     1      -2.438 -20.161  -6.903  1.00  0.00     0.226 C 
BRANCH  24  25
HETATM   25  C2  UNL     1      -1.957 -18.971  -7.642  1.00  0.00     0.285 C 
HETATM   26  O2  UNL     1      -2.337 -18.630  -8.787  1.00  0.00    -0.263 OA
BRANCH  25  27
HETATM   27  O1  UNL     1      -1.010 -18.167  -7.017  1.00  0.00    -0.325 OA
HETATM   28  C1  UNL     1      -1.051 -16.749  -7.134  1.00  0.00     0.213 C 
ENDBRANCH  25  27
ENDBRANCH  24  25
BRANCH  24  29
HETATM   29  C21 UNL     1      -3.827 -19.731  -6.370  1.00  0.00     0.250 C 
BRANCH  29  30
HETATM   30  O12 UNL     1      -4.711 -20.111  -7.378  1.00  0.00    -0.374 OA
ATOM     31  H12 UNL     1      -4.442 -19.595  -8.130  1.00  0.00     0.212 HD
ENDBRANCH  29  30
BRANCH  29  32
HETATM   32  N6  UNL     1      -3.855 -18.355  -6.077  1.00  0.00    -0.369 N 
HETATM   33  C22 UNL     1      -3.715 -17.942  -4.883  1.00  0.00    -0.024 C 
HETATM   34  C23 UNL     1      -3.517 -18.803  -3.692  1.00  0.00     0.062 C 
HETATM   35  C24 UNL     1      -3.761 -16.464  -4.672  1.00  0.00     0.062 C 
ATOM     36  H6  UNL     1      -3.988 -17.681  -6.831  1.00  0.00     0.161 HD
ENDBRANCH  29  32
ENDBRANCH  24  29
ENDBRANCH  22  24
ENDBRANCH   1  22
BRANCH   8  37
HETATM   37  C10 UNL     1      -1.345 -27.860 -12.760  1.00  0.00     0.294 C 
HETATM   38  O5  UNL     1      -2.489 -28.425 -12.634  1.00  0.00    -0.259 OA
BRANCH  37  39
HETATM   39  O6  UNL     1      -0.542 -28.401 -13.698  1.00  0.00    -0.281 OA
BRANCH  39  40
HETATM   40  C11 UNL     1      -0.196 -27.734 -14.898  1.00  0.00     0.163 C 
HETATM   41  C12 UNL     1      -1.499 -27.385 -15.599  1.00  0.00     0.078 C 
HETATM   42  C13 UNL     1       0.558 -26.469 -14.663  1.00  0.00     0.078 C 
BRANCH  40  43
HETATM   43  O7  UNL     1       0.554 -28.537 -15.762  1.00  0.00    -0.365 OA
ATOM     44  H7  UNL     1       0.870 -28.061 -16.520  1.00  0.00     0.213 HD
ENDBRANCH  40  43
ENDBRANCH  39  40
ENDBRANCH  37  39
ENDBRANCH   8  37
BRANCH  14  45
HETATM   45  N4  UNL     1       3.011 -22.400  -8.324  1.00  0.00    -0.346 N 
HETATM   46  C17 UNL     1       3.761 -21.202  -8.480  1.00  0.00     0.214 C 
HETATM   47  C18 UNL     1       5.128 -21.058  -7.924  1.00  0.00     0.117 C 
HETATM   48  O9  UNL     1       3.300 -20.199  -9.101  1.00  0.00    -0.274 OA
ATOM     49  H4  UNL     1       3.395 -23.199  -7.820  1.00  0.00     0.163 HD
ENDBRANCH  14  45
BRANCH  15  50
HETATM   50  N5  UNL     1       0.948 -22.338  -6.666  1.00  0.00    -0.146 N 
HETATM   51  O10 UNL     1       1.373 -21.546  -5.807  1.00  0.00    -0.536 OA
HETATM   52  O11 UNL     1       0.803 -23.649  -6.370  1.00  0.00    -0.536 OA
ENDBRANCH  15  50
TORSDOF 16
ENDMDL
MODEL 5
REMARK VINA RESULT: -7.784299717      2.545      8.884
REMARK  16 active torsions:
REMARK  status: ('A' for Active; 'I' for Inactive)
REMARK    1  A    between atoms: O1_2  and  C2_3 
REMARK    2  A    between atoms: C2_3  and  C3_5 
REMARK    3  A    between atoms: C3_5  and  N1_6 
REMARK    4  A    between atoms: C3_5  and  C21_45 
REMARK    5  A    between atoms: N1_6  and  C4_8 
REMARK    6  A    between atoms: C7_14  and  C8_15 
REMARK    7  A    between atoms: C8_15  and  O3_16 
REMARK    8  A    between atoms: C8_15  and  O4_18 
REMARK    9  A    between atoms: C9_20  and  C10_21 
REMARK   10  A    between atoms: C10_21  and  O6_23 
REMARK   11  A    between atoms: O6_23  and  C11_24 
REMARK   12  A    between atoms: C11_24  and  O7_27 
REMARK   13  A    between atoms: C16_34  and  N4_35 
REMARK       I    between atoms: N4_35  and  C17_37 
REMARK   14  A    between atoms: C19_40  and  N5_41 
REMARK   15  A    between atoms: C21_45  and  O12_46 
REMARK   16  A    between atoms: C21_45  and  N6_48 
ROOT
HETATM    1  C4  UNL     1      -2.106 -25.993  -9.503  1.00  0.00     0.112 C 
HETATM    2  C5  UNL     1      -0.806 -26.485  -8.908  1.00  0.00     0.106 C 
HETATM    3  S1  UNL     1       0.551 -25.374  -9.477  1.00  0.00    -0.102 SA
HETATM    4  C6  UNL     1       0.089 -23.764  -8.779  1.00  0.00     0.213 C 
HETATM    5  N2  UNL     1       0.685 -22.708  -9.559  1.00  0.00    -0.345 N 
ATOM      6  H2  UNL     1       0.145 -22.305 -10.325  1.00  0.00     0.163 HD
HETATM    7  C7  UNL     1       2.005 -22.194  -9.307  1.00  0.00     0.076 C 
HETATM    8  C9  UNL     1       2.412 -21.886  -8.107  1.00  0.00     0.054 C 
HETATM    9  C14 UNL     1       1.450 -22.018  -6.930  1.00  0.00     0.126 C 
HETATM   10  S2  UNL     1       0.701 -23.662  -7.046  1.00  0.00    -0.099 SA
HETATM   11  N3  UNL     1      -1.358 -23.733  -8.749  1.00  0.00    -0.296 N 
HETATM   12  C15 UNL     1      -2.143 -22.885  -7.877  1.00  0.00     0.248 C 
HETATM   13  O8  UNL     1      -1.851 -22.404  -6.769  1.00  0.00    -0.271 OA
HETATM   14  C16 UNL     1      -3.442 -22.678  -8.589  1.00  0.00     0.208 C 
HETATM   15  C19 UNL     1      -3.625 -24.117  -9.113  1.00  0.00     0.212 C 
HETATM   16  C20 UNL     1      -2.227 -24.514  -9.570  1.00  0.00     0.146 C 
ENDROOT
BRANCH   7  17
HETATM   17  C8  UNL     1       2.856 -22.009 -10.503  1.00  0.00     0.305 C 
BRANCH  17  18
HETATM   18  O3  UNL     1       2.011 -22.192 -11.655  1.00  0.00    -0.366 OA
ATOM     19  H3  UNL     1       2.452 -22.807 -12.228  1.00  0.00     0.213 HD
ENDBRANCH  17  18
BRANCH  17  20
HETATM   20  O4  UNL     1       3.936 -22.843 -10.571  1.00  0.00    -0.366 OA
ATOM     21  H4  UNL     1       4.128 -23.174 -11.440  1.00  0.00     0.213 HD
ENDBRANCH  17  20
ENDBRANCH   7  17
BRANCH   1  22
HETATM   22  N1  UNL     1      -2.173 -26.504 -10.849  1.00  0.00    -0.398 N 
ATOM     23  H1  UNL     1      -2.731 -26.038 -11.564  1.00  0.00     0.154 HD
BRANCH  22  24
HETATM   24  C3  UNL     1      -1.439 -27.673 -11.144  1.00  0.00     0.226 C 
BRANCH  24  25
HETATM   25  C2  UNL     1      -2.162 -28.957 -10.993  1.00  0.00     0.285 C 
HETATM   26  O2  UNL     1      -1.848 -29.874 -10.197  1.00  0.00    -0.263 OA
BRANCH  25  27
HETATM   27  O1  UNL     1      -3.279 -29.163 -11.796  1.00  0.00    -0.325 OA
HETATM   28  C1  UNL     1      -4.589 -29.209 -11.243  1.00  0.00     0.213 C 
ENDBRANCH  25  27
ENDBRANCH  24  25
BRANCH  24  29
HETATM   29  C21 UNL     1      -1.064 -27.633 -12.647  1.00  0.00     0.250 C 
BRANCH  29  30
HETATM   30  O12 UNL     1      -0.441 -28.858 -12.875  1.00  0.00    -0.374 OA
ATOM     31  H12 UNL     1      -0.662 -29.067 -13.775  1.00  0.00     0.212 HD
ENDBRANCH  29  30
BRANCH  29  32
HETATM   32  N6  UNL     1      -0.256 -26.518 -12.938  1.00  0.00    -0.369 N 
HETATM   33  C22 UNL     1      -0.402 -25.878 -14.026  1.00  0.00    -0.024 C 
HETATM   34  C23 UNL     1      -1.388 -26.195 -15.088  1.00  0.00     0.062 C 
HETATM   35  C24 UNL     1       0.504 -24.711 -14.248  1.00  0.00     0.062 C 
ATOM     36  H6  UNL     1       0.455 -26.222 -12.270  1.00  0.00     0.161 HD
ENDBRANCH  29  32
ENDBRANCH  24  29
ENDBRANCH  22  24
ENDBRANCH   1  22
BRANCH   8  37
HETATM   37  C10 UNL     1       3.719 -21.384  -7.816  1.00  0.00     0.294 C 
HETATM   38  O5  UNL     1       4.087 -21.295  -6.592  1.00  0.00    -0.259 OA
BRANCH  37  39
HETATM   39  O6  UNL     1       4.636 -20.985  -8.719  1.00  0.00    -0.281 OA
BRANCH  39  40
HETATM   40  C11 UNL     1       4.931 -19.624  -8.974  1.00  0.00     0.163 C 
HETATM   41  C12 UNL     1       6.130 -19.264  -8.112  1.00  0.00     0.078 C 
HETATM   42  C13 UNL     1       5.287 -19.364 -10.399  1.00  0.00     0.078 C 
BRANCH  40  43
HETATM   43  O7  UNL     1       3.880 -18.772  -8.623  1.00  0.00    -0.365 OA
ATOM     44  H7  UNL     1       4.111 -17.854  -8.708  1.00  0.00     0.213 HD
ENDBRANCH  40  43
ENDBRANCH  39  40
ENDBRANCH  37  39
ENDBRANCH   8  37
BRANCH  14  45
HETATM   45  N4  UNL     1      -4.510 -22.257  -7.740  1.00  0.00    -0.346 N 
HETATM   46  C17 UNL     1      -4.836 -20.873  -7.720  1.00  0.00     0.214 C 
HETATM   47  C18 UNL     1      -5.926 -20.339  -6.870  1.00  0.00     0.117 C 
HETATM   48  O9  UNL     1      -4.210 -20.028  -8.427  1.00  0.00    -0.274 OA
ATOM     49  H4  UNL     1      -5.022 -22.926  -7.166  1.00  0.00     0.163 HD
ENDBRANCH  14  45
BRANCH  15  50
HETATM   50  N5  UNL     1      -4.078 -24.858  -7.965  1.00  0.00    -0.146 N 
HETATM   51  O10 UNL     1      -5.231 -25.323  -7.969  1.00  0.00    -0.536 OA
HETATM   52  O11 UNL     1      -3.274 -25.044  -6.895  1.00  0.00    -0.536 OA
ENDBRANCH  15  50
TORSDOF 16
ENDMDL
