MODEL 1
REMARK VINA RESULT: -4.753396154      0.000      0.000
REMARK  2 active torsions:
REMARK  status: ('A' for Active; 'I' for Inactive)
REMARK    1  A    between atoms: O1_1  and  C1_3 
REMARK    2  A    between atoms: C6_8  and  O2_9 
ROOT
HETATM    1  C1  UNL     1     -33.790 -33.757  56.060  1.00  0.00     0.118 C 
HETATM    2  C2  UNL     1     -34.594 -32.510  55.738  1.00  0.00     0.032 C 
HETATM    3  C3  UNL     1     -34.409 -32.170  54.298  1.00  0.00     0.002 C 
HETATM    4  C4  UNL     1     -35.581 -32.499  53.426  1.00  0.00     0.002 C 
HETATM    5  C5  UNL     1     -36.318 -33.744  53.858  1.00  0.00     0.032 C 
HETATM    6  C6  UNL     1     -35.301 -34.861  53.936  1.00  0.00     0.118 C 
HETATM    7  C7  UNL     1     -35.319 -35.577  55.234  1.00  0.00     0.034 C 
HETATM    8  C8  UNL     1     -34.731 -34.869  56.383  1.00  0.00     0.034 C 
ENDROOT
BRANCH   1   9
HETATM    9  O1  UNL     1     -33.064 -33.476  57.242  1.00  0.00    -0.396 OA
ATOM     10  H1  UNL     1     -32.883 -34.313  57.655  1.00  0.00     0.210 HD
ENDBRANCH   1   9
BRANCH   6  11
HETATM   11  O2  UNL     1     -35.545 -35.781  52.891  1.00  0.00    -0.396 OA
ATOM     12  H2  UNL     1     -35.362 -36.660  53.202  1.00  0.00     0.210 HD
ENDBRANCH   6  11
TORSDOF 2
ENDMDL
MODEL 2
REMARK VINA RESULT: -4.566804493      1.358      3.624
REMARK  2 active torsions:
REMARK  status: ('A' for Active; 'I' for Inactive)
REMARK    1  A    between atoms: O1_1  and  C1_3 
REMARK    2  A    between atoms: C6_8  and  O2_9 
ROOT
HETATM    1  C1  UNL     1     -35.370 -35.075  54.096  1.00  0.00     0.118 C 
HETATM    2  C2  UNL     1     -35.441 -35.005  55.611  1.00  0.00     0.032 C 
HETATM    3  C3  UNL     1     -34.078 -34.730  56.150  1.00  0.00     0.002 C 
HETATM    4  C4  UNL     1     -33.872 -33.327  56.631  1.00  0.00     0.002 C 
HETATM    5  C5  UNL     1     -34.627 -32.299  55.823  1.00  0.00     0.032 C 
HETATM    6  C6  UNL     1     -34.238 -32.495  54.374  1.00  0.00     0.118 C 
HETATM    7  C7  UNL     1     -35.405 -32.638  53.471  1.00  0.00     0.034 C 
HETATM    8  C8  UNL     1     -36.123 -33.922  53.524  1.00  0.00     0.034 C 
ENDROOT
BRANCH   1   9
HETATM    9  O1  UNL     1     -36.062 -36.249  53.713  1.00  0.00    -0.396 OA
ATOM     10  H1  UNL     1     -35.412 -36.940  53.653  1.00  0.00     0.210 HD
ENDBRANCH   1   9
BRANCH   6  11
HETATM   11  O2  UNL     1     -33.453 -31.398  53.955  1.00  0.00    -0.396 OA
ATOM     12  H2  UNL     1     -32.562 -31.693  53.806  1.00  0.00     0.210 HD
ENDBRANCH   6  11
TORSDOF 2
ENDMDL
MODEL 3
REMARK VINA RESULT: -4.539587954      5.726      7.148
REMARK  2 active torsions:
REMARK  status: ('A' for Active; 'I' for Inactive)
REMARK    1  A    between atoms: O1_1  and  C1_3 
REMARK    2  A    between atoms: C6_8  and  O2_9 
ROOT
HETATM    1  C1  UNL     1     -36.513 -40.642  56.381  1.00  0.00     0.118 C 
HETATM    2  C2  UNL     1     -35.545 -40.814  55.225  1.00  0.00     0.032 C 
HETATM    3  C3  UNL     1     -35.103 -39.470  54.755  1.00  0.00     0.002 C 
HETATM    4  C4  UNL     1     -33.711 -39.097  55.162  1.00  0.00     0.002 C 
HETATM    5  C5  UNL     1     -33.319 -39.631  56.519  1.00  0.00     0.032 C 
HETATM    6  C6  UNL     1     -34.372 -39.167  57.502  1.00  0.00     0.118 C 
HETATM    7  C7  UNL     1     -34.941 -40.272  58.311  1.00  0.00     0.034 C 
HETATM    8  C8  UNL     1     -35.881 -41.172  57.624  1.00  0.00     0.034 C 
ENDROOT
BRANCH   1   9
HETATM    9  O1  UNL     1     -37.628 -41.467  56.102  1.00  0.00    -0.396 OA
ATOM     10  H1  UNL     1     -38.357 -40.886  55.918  1.00  0.00     0.210 HD
ENDBRANCH   1   9
BRANCH   6  11
HETATM   11  O2  UNL     1     -33.805 -38.201  58.363  1.00  0.00    -0.396 OA
ATOM     12  H2  UNL     1     -33.584 -38.614  59.190  1.00  0.00     0.210 HD
ENDBRANCH   6  11
TORSDOF 2
ENDMDL
MODEL 4
REMARK VINA RESULT: -4.407106833      5.584      7.021
REMARK  2 active torsions:
REMARK  status: ('A' for Active; 'I' for Inactive)
REMARK    1  A    between atoms: O1_1  and  C1_3 
REMARK    2  A    between atoms: C6_8  and  O2_9 
ROOT
HETATM    1  C1  UNL     1     -35.567 -40.168  58.400  1.00  0.00     0.118 C 
HETATM    2  C2  UNL     1     -35.989 -41.414  57.643  1.00  0.00     0.032 C 
HETATM    3  C3  UNL     1     -36.994 -41.038  56.607  1.00  0.00     0.002 C 
HETATM    4  C4  UNL     1     -36.464 -41.018  55.207  1.00  0.00     0.002 C 
HETATM    5  C5  UNL     1     -35.025 -40.568  55.116  1.00  0.00     0.032 C 
HETATM    6  C6  UNL     1     -34.933 -39.225  55.807  1.00  0.00     0.118 C 
HETATM    7  C7  UNL     1     -33.867 -39.171  56.836  1.00  0.00     0.034 C 
HETATM    8  C8  UNL     1     -34.136 -39.880  58.098  1.00  0.00     0.034 C 
ENDROOT
BRANCH   1   9
HETATM    9  O1  UNL     1     -35.641 -40.488  59.777  1.00  0.00    -0.396 OA
ATOM     10  H1  UNL     1     -35.646 -39.662  60.248  1.00  0.00     0.210 HD
ENDBRANCH   1   9
BRANCH   6  11
HETATM   11  O2  UNL     1     -34.700 -38.223  54.839  1.00  0.00    -0.396 OA
ATOM     12  H2  UNL     1     -34.650 -37.379  55.272  1.00  0.00     0.210 HD
ENDBRANCH   6  11
TORSDOF 2
ENDMDL
MODEL 5
REMARK VINA RESULT: -4.406703438     10.855     11.989
REMARK  2 active torsions:
REMARK  status: ('A' for Active; 'I' for Inactive)
REMARK    1  A    between atoms: O1_1  and  C1_3 
REMARK    2  A    between atoms: C6_8  and  O2_9 
ROOT
HETATM    1  C1  UNL     1     -27.352 -40.752  49.331  1.00  0.00     0.118 C 
HETATM    2  C2  UNL     1     -26.698 -42.122  49.345  1.00  0.00     0.032 C 
HETATM    3  C3  UNL     1     -26.844 -42.717  50.704  1.00  0.00     0.002 C 
HETATM    4  C4  UNL     1     -27.873 -43.800  50.800  1.00  0.00     0.002 C 
HETATM    5  C5  UNL     1     -29.065 -43.577  49.900  1.00  0.00     0.032 C 
HETATM    6  C6  UNL     1     -29.614 -42.203  50.220  1.00  0.00     0.118 C 
HETATM    7  C7  UNL     1     -29.777 -41.348  49.020  1.00  0.00     0.034 C 
HETATM    8  C8  UNL     1     -28.544 -40.795  48.435  1.00  0.00     0.034 C 
ENDROOT
BRANCH   1   9
HETATM    9  O1  UNL     1     -26.422 -39.866  48.736  1.00  0.00    -0.396 OA
ATOM     10  H1  UNL     1     -25.649 -40.380  48.533  1.00  0.00     0.210 HD
ENDBRANCH   1   9
BRANCH   6  11
HETATM   11  O2  UNL     1     -30.862 -42.345  50.866  1.00  0.00    -0.396 OA
ATOM     12  H2  UNL     1     -30.767 -42.104  51.781  1.00  0.00     0.210 HD
ENDBRANCH   6  11
TORSDOF 2
ENDMDL
