MODEL 1
REMARK VINA RESULT: -4.143255824      0.000      0.000
REMARK  0 active torsions:
REMARK  status: ('A' for Active; 'I' for Inactive)
ROOT
HETATM    1  S1  UNL     1     -35.058 -40.295  54.078  1.00  0.00     0.009 SA
HETATM    2  N1  UNL     1     -35.343 -39.266  55.461  1.00  0.00    -0.243 NA
HETATM    3  C1  UNL     1     -36.100 -39.930  56.487  1.00  0.00     0.108 C 
HETATM    4  C2  UNL     1     -35.638 -39.333  57.825  1.00  0.00    -0.000 C 
HETATM    5  C3  UNL     1     -35.658 -37.839  57.653  1.00  0.00     0.007 C 
HETATM    6  C4  UNL     1     -34.457 -37.432  56.810  1.00  0.00     0.021 C 
HETATM    7  C5  UNL     1     -34.132 -38.652  55.941  1.00  0.00     0.070 C 
HETATM    8  C6  UNL     1     -33.345 -39.581  56.862  1.00  0.00     0.021 C 
HETATM    9  C7  UNL     1     -34.231 -39.869  58.045  1.00  0.00     0.007 C 
ENDROOT
TORSDOF 0
ENDMDL
MODEL 2
REMARK VINA RESULT: -4.006502195      1.479      1.813
REMARK  0 active torsions:
REMARK  status: ('A' for Active; 'I' for Inactive)
ROOT
HETATM    1  S1  UNL     1     -36.935 -41.150  56.574  1.00  0.00     0.009 SA
HETATM    2  N1  UNL     1     -36.028 -39.661  56.695  1.00  0.00    -0.243 NA
HETATM    3  C1  UNL     1     -35.311 -39.560  57.938  1.00  0.00     0.108 C 
HETATM    4  C2  UNL     1     -34.046 -38.741  57.645  1.00  0.00    -0.000 C 
HETATM    5  C3  UNL     1     -34.494 -37.528  56.877  1.00  0.00     0.007 C 
HETATM    6  C4  UNL     1     -34.811 -37.949  55.448  1.00  0.00     0.021 C 
HETATM    7  C5  UNL     1     -35.210 -39.427  55.534  1.00  0.00     0.070 C 
HETATM    8  C6  UNL     1     -33.882 -40.178  55.607  1.00  0.00     0.021 C 
HETATM    9  C7  UNL     1     -33.153 -39.652  56.815  1.00  0.00     0.007 C 
ENDROOT
TORSDOF 0
ENDMDL
MODEL 3
REMARK VINA RESULT: -3.990256406      1.368      2.607
REMARK  0 active torsions:
REMARK  status: ('A' for Active; 'I' for Inactive)
ROOT
HETATM    1  S1  UNL     1     -37.349 -41.102  56.095  1.00  0.00     0.009 SA
HETATM    2  N1  UNL     1     -35.698 -40.578  56.328  1.00  0.00    -0.243 NA
HETATM    3  C1  UNL     1     -35.162 -39.932  55.161  1.00  0.00     0.108 C 
HETATM    4  C2  UNL     1     -34.150 -38.892  55.664  1.00  0.00    -0.000 C 
HETATM    5  C3  UNL     1     -33.275 -39.601  56.662  1.00  0.00     0.007 C 
HETATM    6  C4  UNL     1     -34.060 -39.779  57.954  1.00  0.00     0.021 C 
HETATM    7  C5  UNL     1     -35.535 -39.816  57.538  1.00  0.00     0.070 C 
HETATM    8  C6  UNL     1     -35.916 -38.349  57.347  1.00  0.00     0.021 C 
HETATM    9  C7  UNL     1     -34.982 -37.791  56.306  1.00  0.00     0.007 C 
ENDROOT
TORSDOF 0
ENDMDL
MODEL 4
REMARK VINA RESULT: -3.977429885      1.843      2.556
REMARK  0 active torsions:
REMARK  status: ('A' for Active; 'I' for Inactive)
ROOT
HETATM    1  S1  UNL     1     -35.032 -36.071  56.254  1.00  0.00     0.009 SA
HETATM    2  N1  UNL     1     -34.624 -37.587  57.022  1.00  0.00    -0.243 NA
HETATM    3  C1  UNL     1     -35.699 -38.094  57.832  1.00  0.00     0.108 C 
HETATM    4  C2  UNL     1     -35.593 -39.625  57.789  1.00  0.00    -0.000 C 
HETATM    5  C3  UNL     1     -34.152 -39.959  58.067  1.00  0.00     0.007 C 
HETATM    6  C4  UNL     1     -33.335 -39.652  56.819  1.00  0.00     0.021 C 
HETATM    7  C5  UNL     1     -34.104 -38.549  56.084  1.00  0.00     0.070 C 
HETATM    8  C6  UNL     1     -35.216 -39.285  55.342  1.00  0.00     0.021 C 
HETATM    9  C7  UNL     1     -36.016 -40.023  56.383  1.00  0.00     0.007 C 
ENDROOT
TORSDOF 0
ENDMDL
MODEL 5
REMARK VINA RESULT: -3.965668456      2.040      2.627
REMARK  0 active torsions:
REMARK  status: ('A' for Active; 'I' for Inactive)
ROOT
HETATM    1  S1  UNL     1     -36.557 -41.693  58.480  1.00  0.00     0.009 SA
HETATM    2  N1  UNL     1     -35.784 -40.142  58.251  1.00  0.00    -0.243 NA
HETATM    3  C1  UNL     1     -34.359 -40.212  58.430  1.00  0.00     0.108 C 
HETATM    4  C2  UNL     1     -33.751 -39.148  57.505  1.00  0.00    -0.000 C 
HETATM    5  C3  UNL     1     -34.528 -37.883  57.744  1.00  0.00     0.007 C 
HETATM    6  C4  UNL     1     -35.884 -38.011  57.062  1.00  0.00     0.021 C 
HETATM    7  C5  UNL     1     -36.182 -39.513  57.018  1.00  0.00     0.070 C 
HETATM    8  C6  UNL     1     -35.379 -40.029  55.826  1.00  0.00     0.021 C 
HETATM    9  C7  UNL     1     -33.938 -39.682  56.092  1.00  0.00     0.007 C 
ENDROOT
TORSDOF 0
ENDMDL
