MODEL 1
REMARK VINA RESULT: -4.588732487      0.000      0.000
REMARK  0 active torsions:
REMARK  status: ('A' for Active; 'I' for Inactive)
ROOT
HETATM    1  C1  UNL     1     -33.405 -39.548  56.883  1.00  0.00     0.002 C 
HETATM    2  C2  UNL     1     -33.441 -39.392  55.393  1.00  0.00     0.002 C 
HETATM    3  C3  UNL     1     -33.442 -40.780  54.764  1.00  0.00     0.027 C 
HETATM    4  C4  UNL     1     -34.584 -40.953  53.790  1.00  0.00     0.232 C 
HETATM    5  N1  UNL     1     -35.674 -41.728  54.335  1.00  0.00    -0.074 N 
ATOM      6  H11 UNL     1     -35.348 -42.328  55.093  1.00  0.00     0.277 HD
ATOM      7  H12 UNL     1     -35.978 -42.441  53.673  1.00  0.00     0.277 HD
HETATM    8  C5  UNL     1     -36.788 -40.922  54.765  1.00  0.00     0.259 C 
HETATM    9  C6  UNL     1     -36.802 -40.719  56.278  1.00  0.00     0.259 C 
HETATM   10  N2  UNL     1     -36.283 -39.412  56.578  1.00  0.00    -0.074 N 
ATOM     11  H21 UNL     1     -37.018 -38.708  56.498  1.00  0.00     0.277 HD
ATOM     12  H22 UNL     1     -35.659 -39.095  55.836  1.00  0.00     0.277 HD
HETATM   13  C7  UNL     1     -35.634 -39.320  57.854  1.00  0.00     0.232 C 
HETATM   14  C8  UNL     1     -34.303 -38.596  57.614  1.00  0.00     0.027 C 
ENDROOT
TORSDOF 0
ENDMDL
MODEL 2
REMARK VINA RESULT: -4.406202978      1.165      3.152
REMARK  0 active torsions:
REMARK  status: ('A' for Active; 'I' for Inactive)
ROOT
HETATM    1  C1  UNL     1     -33.806 -39.074  54.926  1.00  0.00     0.002 C 
HETATM    2  C2  UNL     1     -33.201 -39.754  56.117  1.00  0.00     0.002 C 
HETATM    3  C3  UNL     1     -33.792 -39.131  57.376  1.00  0.00     0.027 C 
HETATM    4  C4  UNL     1     -34.367 -40.178  58.301  1.00  0.00     0.232 C 
HETATM    5  N1  UNL     1     -35.808 -40.246  58.243  1.00  0.00    -0.074 N 
ATOM      6  H11 UNL     1     -36.199 -39.366  57.908  1.00  0.00     0.277 HD
ATOM      7  H12 UNL     1     -36.209 -40.263  59.181  1.00  0.00     0.277 HD
HETATM    8  C5  UNL     1     -36.296 -41.353  57.460  1.00  0.00     0.259 C 
HETATM    9  C6  UNL     1     -36.733 -40.921  56.063  1.00  0.00     0.259 C 
HETATM   10  N2  UNL     1     -35.697 -41.259  55.125  1.00  0.00    -0.074 N 
ATOM     11  H21 UNL     1     -35.786 -42.232  54.829  1.00  0.00     0.277 HD
ATOM     12  H22 UNL     1     -34.792 -41.303  55.591  1.00  0.00     0.277 HD
HETATM   13  C7  UNL     1     -35.635 -40.390  53.985  1.00  0.00     0.232 C 
HETATM   14  C8  UNL     1     -34.159 -40.010  53.809  1.00  0.00     0.027 C 
ENDROOT
TORSDOF 0
ENDMDL
MODEL 3
REMARK VINA RESULT: -4.381701059      0.974      1.117
REMARK  0 active torsions:
REMARK  status: ('A' for Active; 'I' for Inactive)
ROOT
HETATM    1  C1  UNL     1     -33.360 -39.680  56.238  1.00  0.00     0.002 C 
HETATM    2  C2  UNL     1     -34.227 -39.269  55.088  1.00  0.00     0.002 C 
HETATM    3  C3  UNL     1     -34.502 -40.499  54.230  1.00  0.00     0.027 C 
HETATM    4  C4  UNL     1     -35.982 -40.702  54.000  1.00  0.00     0.232 C 
HETATM    5  N1  UNL     1     -36.538 -41.749  54.824  1.00  0.00    -0.074 N 
ATOM      6  H11 UNL     1     -35.813 -42.405  55.115  1.00  0.00     0.277 HD
ATOM      7  H12 UNL     1     -37.120 -42.377  54.268  1.00  0.00     0.277 HD
HETATM    8  C5  UNL     1     -37.267 -41.253  55.963  1.00  0.00     0.259 C 
HETATM    9  C6  UNL     1     -36.446 -41.330  57.248  1.00  0.00     0.259 C 
HETATM   10  N2  UNL     1     -35.922 -40.025  57.546  1.00  0.00    -0.074 N 
ATOM     11  H21 UNL     1     -36.614 -39.466  58.045  1.00  0.00     0.277 HD
ATOM     12  H22 UNL     1     -35.836 -39.471  56.694  1.00  0.00     0.277 HD
HETATM   13  C7  UNL     1     -34.679 -40.044  58.261  1.00  0.00     0.232 C 
HETATM   14  C8  UNL     1     -33.749 -39.056  57.545  1.00  0.00     0.027 C 
ENDROOT
TORSDOF 0
ENDMDL
MODEL 4
REMARK VINA RESULT: -4.372040129      3.506      4.193
REMARK  0 active torsions:
REMARK  status: ('A' for Active; 'I' for Inactive)
ROOT
HETATM    1  C1  UNL     1     -34.829 -35.751  56.541  1.00  0.00     0.002 C 
HETATM    2  C2  UNL     1     -35.955 -35.393  55.620  1.00  0.00     0.002 C 
HETATM    3  C3  UNL     1     -35.361 -34.915  54.300  1.00  0.00     0.027 C 
HETATM    4  C4  UNL     1     -35.937 -35.666  53.122  1.00  0.00     0.232 C 
HETATM    5  N1  UNL     1     -35.040 -36.672  52.605  1.00  0.00    -0.074 N 
ATOM      6  H11 UNL     1     -34.073 -36.454  52.848  1.00  0.00     0.277 HD
ATOM      7  H12 UNL     1     -34.976 -36.613  51.589  1.00  0.00     0.277 HD
HETATM    8  C5  UNL     1     -35.382 -38.009  53.018  1.00  0.00     0.259 C 
HETATM    9  C6  UNL     1     -34.506 -38.497  54.169  1.00  0.00     0.259 C 
HETATM   10  N2  UNL     1     -35.243 -38.381  55.399  1.00  0.00    -0.074 N 
ATOM     11  H21 UNL     1     -35.842 -39.196  55.536  1.00  0.00     0.277 HD
ATOM     12  H22 UNL     1     -35.955 -37.655  55.321  1.00  0.00     0.277 HD
HETATM   13  C7  UNL     1     -34.421 -38.159  56.554  1.00  0.00     0.232 C 
HETATM   14  C8  UNL     1     -35.066 -37.004  57.330  1.00  0.00     0.027 C 
ENDROOT
TORSDOF 0
ENDMDL
MODEL 5
REMARK VINA RESULT: -4.353173956      0.619      3.175
REMARK  0 active torsions:
REMARK  status: ('A' for Active; 'I' for Inactive)
ROOT
HETATM    1  C1  UNL     1     -32.774 -39.658  55.057  1.00  0.00     0.002 C 
HETATM    2  C2  UNL     1     -33.094 -39.799  56.514  1.00  0.00     0.002 C 
HETATM    3  C3  UNL     1     -34.049 -38.678  56.907  1.00  0.00     0.027 C 
HETATM    4  C4  UNL     1     -35.287 -39.211  57.588  1.00  0.00     0.232 C 
HETATM    5  N1  UNL     1     -36.440 -39.233  56.719  1.00  0.00    -0.074 N 
ATOM      6  H11 UNL     1     -36.335 -38.559  55.961  1.00  0.00     0.277 HD
ATOM      7  H12 UNL     1     -37.254 -38.834  57.188  1.00  0.00     0.277 HD
HETATM    8  C5  UNL     1     -36.739 -40.543  56.201  1.00  0.00     0.259 C 
HETATM    9  C6  UNL     1     -36.247 -40.721  54.768  1.00  0.00     0.259 C 
HETATM   10  N2  UNL     1     -35.019 -41.469  54.786  1.00  0.00    -0.074 N 
ATOM     11  H21 UNL     1     -35.210 -42.471  54.822  1.00  0.00     0.277 HD
ATOM     12  H22 UNL     1     -34.541 -41.353  55.679  1.00  0.00     0.277 HD
HETATM   13  C7  UNL     1     -34.134 -41.165  53.698  1.00  0.00     0.232 C 
HETATM   14  C8  UNL     1     -32.743 -40.961  54.314  1.00  0.00     0.027 C 
ENDROOT
TORSDOF 0
ENDMDL
