MODEL 1
REMARK VINA RESULT: -4.334356916      0.000      0.000
REMARK  2 active torsions:
REMARK  status: ('A' for Active; 'I' for Inactive)
REMARK    1  A    between atoms: C4_4  and  N1_5 
REMARK    2  A    between atoms: C7_11  and  N2_13 
ROOT
HETATM    1  C1  UNL     1     -34.593 -36.732  56.710  1.00  0.00     0.012 C 
HETATM    2  C2  UNL     1     -34.491 -38.245  56.941  1.00  0.00     0.019 C 
HETATM    3  C3  UNL     1     -35.441 -38.578  58.031  1.00  0.00     0.039 C 
HETATM    4  C4  UNL     1     -35.753 -40.004  58.232  1.00  0.00     0.184 C 
HETATM    5  C5  UNL     1     -35.324 -40.923  57.140  1.00  0.00     0.035 C 
HETATM    6  C6  UNL     1     -35.401 -40.292  55.799  1.00  0.00     0.040 C 
HETATM    7  C7  UNL     1     -34.617 -39.023  55.694  1.00  0.00     0.123 C 
HETATM    8  C8  UNL     1     -33.222 -39.336  55.135  1.00  0.00     0.046 C 
ENDROOT
BRANCH   7   9
HETATM    9  N2  UNL     1     -35.272 -38.238  54.632  1.00  0.00    -0.070 N 
ATOM     10  H23 UNL     1     -35.603 -38.837  53.877  1.00  0.00     0.275 HD
ATOM     11  H22 UNL     1     -36.169 -37.865  54.943  1.00  0.00     0.275 HD
ATOM     12  H21 UNL     1     -34.661 -37.499  54.283  1.00  0.00     0.275 HD
ENDBRANCH   7   9
BRANCH   4  13
HETATM   13  N1  UNL     1     -35.168 -40.516  59.481  1.00  0.00    -0.075 N 
ATOM     14  H13 UNL     1     -35.747 -40.281  60.287  1.00  0.00     0.274 HD
ATOM     15  H12 UNL     1     -35.231 -41.533  59.532  1.00  0.00     0.274 HD
ATOM     16  H11 UNL     1     -34.207 -40.196  59.606  1.00  0.00     0.274 HD
ENDBRANCH   4  13
TORSDOF 2
ENDMDL
MODEL 2
REMARK VINA RESULT: -4.323520799      1.922      3.691
REMARK  2 active torsions:
REMARK  status: ('A' for Active; 'I' for Inactive)
REMARK    1  A    between atoms: C4_4  and  N1_5 
REMARK    2  A    between atoms: C7_11  and  N2_13 
ROOT
HETATM    1  C1  UNL     1     -37.221 -40.719  55.978  1.00  0.00     0.012 C 
HETATM    2  C2  UNL     1     -35.690 -40.754  56.071  1.00  0.00     0.019 C 
HETATM    3  C3  UNL     1     -35.179 -40.906  54.686  1.00  0.00     0.039 C 
HETATM    4  C4  UNL     1     -33.741 -40.662  54.476  1.00  0.00     0.184 C 
HETATM    5  C5  UNL     1     -33.021 -40.002  55.601  1.00  0.00     0.035 C 
HETATM    6  C6  UNL     1     -33.875 -39.034  56.335  1.00  0.00     0.040 C 
HETATM    7  C7  UNL     1     -35.140 -39.636  56.860  1.00  0.00     0.123 C 
HETATM    8  C8  UNL     1     -34.921 -40.084  58.312  1.00  0.00     0.046 C 
ENDROOT
BRANCH   7   9
HETATM    9  N2  UNL     1     -36.099 -38.522  56.959  1.00  0.00    -0.070 N 
ATOM     10  H23 UNL     1     -36.624 -38.403  56.093  1.00  0.00     0.275 HD
ATOM     11  H22 UNL     1     -36.873 -38.750  57.582  1.00  0.00     0.275 HD
ATOM     12  H21 UNL     1     -35.638 -37.656  57.238  1.00  0.00     0.275 HD
ENDBRANCH   7   9
BRANCH   4  13
HETATM   13  N1  UNL     1     -33.018 -41.908  54.174  1.00  0.00    -0.075 N 
ATOM     14  H13 UNL     1     -33.561 -42.513  53.558  1.00  0.00     0.274 HD
ATOM     15  H12 UNL     1     -32.219 -41.735  53.564  1.00  0.00     0.274 HD
ATOM     16  H11 UNL     1     -32.738 -42.396  55.025  1.00  0.00     0.274 HD
ENDBRANCH   4  13
TORSDOF 2
ENDMDL
MODEL 3
REMARK VINA RESULT: -4.251529410      1.823      2.665
REMARK  2 active torsions:
REMARK  status: ('A' for Active; 'I' for Inactive)
REMARK    1  A    between atoms: C4_4  and  N1_5 
REMARK    2  A    between atoms: C7_11  and  N2_13 
ROOT
HETATM    1  C1  UNL     1     -36.475 -41.040  54.885  1.00  0.00     0.012 C 
HETATM    2  C2  UNL     1     -35.567 -39.997  55.549  1.00  0.00     0.019 C 
HETATM    3  C3  UNL     1     -35.840 -40.056  57.006  1.00  0.00     0.039 C 
HETATM    4  C4  UNL     1     -34.883 -39.370  57.892  1.00  0.00     0.184 C 
HETATM    5  C5  UNL     1     -33.597 -38.955  57.264  1.00  0.00     0.035 C 
HETATM    6  C6  UNL     1     -33.144 -39.900  56.212  1.00  0.00     0.040 C 
HETATM    7  C7  UNL     1     -34.157 -40.121  55.135  1.00  0.00     0.123 C 
HETATM    8  C8  UNL     1     -33.872 -39.161  53.970  1.00  0.00     0.046 C 
ENDROOT
BRANCH   7   9
HETATM    9  N2  UNL     1     -33.871 -41.458  54.587  1.00  0.00    -0.070 N 
ATOM     10  H23 UNL     1     -34.725 -41.998  54.454  1.00  0.00     0.275 HD
ATOM     11  H22 UNL     1     -33.564 -41.407  53.616  1.00  0.00     0.275 HD
ATOM     12  H21 UNL     1     -33.197 -41.962  55.164  1.00  0.00     0.275 HD
ENDBRANCH   7   9
BRANCH   4  13
HETATM   13  N1  UNL     1     -35.473 -38.167  58.501  1.00  0.00    -0.075 N 
ATOM     14  H13 UNL     1     -36.454 -38.313  58.738  1.00  0.00     0.274 HD
ATOM     15  H12 UNL     1     -35.104 -38.005  59.438  1.00  0.00     0.274 HD
ATOM     16  H11 UNL     1     -35.352 -37.347  57.906  1.00  0.00     0.274 HD
ENDBRANCH   4  13
TORSDOF 2
ENDMDL
MODEL 4
REMARK VINA RESULT: -4.205904872      0.963      1.039
REMARK  2 active torsions:
REMARK  status: ('A' for Active; 'I' for Inactive)
REMARK    1  A    between atoms: C4_4  and  N1_5 
REMARK    2  A    between atoms: C7_11  and  N2_13 
ROOT
HETATM    1  C1  UNL     1     -34.326 -37.733  56.396  1.00  0.00     0.012 C 
HETATM    2  C2  UNL     1     -34.508 -39.183  56.864  1.00  0.00     0.019 C 
HETATM    3  C3  UNL     1     -35.195 -39.127  58.178  1.00  0.00     0.039 C 
HETATM    4  C4  UNL     1     -35.754 -40.388  58.693  1.00  0.00     0.184 C 
HETATM    5  C5  UNL     1     -35.837 -41.510  57.716  1.00  0.00     0.035 C 
HETATM    6  C6  UNL     1     -36.114 -41.044  56.334  1.00  0.00     0.040 C 
HETATM    7  C7  UNL     1     -35.121 -40.043  55.835  1.00  0.00     0.123 C 
HETATM    8  C8  UNL     1     -34.023 -40.772  55.046  1.00  0.00     0.046 C 
ENDROOT
BRANCH   7   9
HETATM    9  N2  UNL     1     -35.834 -39.247  54.821  1.00  0.00    -0.070 N 
ATOM     10  H23 UNL     1     -35.211 -38.584  54.360  1.00  0.00     0.275 HD
ATOM     11  H22 UNL     1     -36.088 -39.813  54.011  1.00  0.00     0.275 HD
ATOM     12  H21 UNL     1     -36.649 -38.779  55.218  1.00  0.00     0.275 HD
ENDBRANCH   7   9
BRANCH   4  13
HETATM   13  N1  UNL     1     -34.997 -40.884  59.854  1.00  0.00    -0.075 N 
ATOM     14  H13 UNL     1     -34.963 -40.189  60.600  1.00  0.00     0.274 HD
ATOM     15  H12 UNL     1     -35.507 -41.619  60.344  1.00  0.00     0.274 HD
ATOM     16  H11 UNL     1     -34.062 -41.193  59.589  1.00  0.00     0.274 HD
ENDBRANCH   4  13
TORSDOF 2
ENDMDL
MODEL 5
REMARK VINA RESULT: -4.100734920      1.768      3.326
REMARK  2 active torsions:
REMARK  status: ('A' for Active; 'I' for Inactive)
REMARK    1  A    between atoms: C4_4  and  N1_5 
REMARK    2  A    between atoms: C7_11  and  N2_13 
ROOT
HETATM    1  C1  UNL     1     -33.012 -40.151  55.371  1.00  0.00     0.012 C 
HETATM    2  C2  UNL     1     -33.774 -39.242  56.345  1.00  0.00     0.019 C 
HETATM    3  C3  UNL     1     -34.163 -38.029  55.585  1.00  0.00     0.039 C 
HETATM    4  C4  UNL     1     -35.161 -37.143  56.209  1.00  0.00     0.184 C 
HETATM    5  C5  UNL     1     -35.889 -37.707  57.381  1.00  0.00     0.035 C 
HETATM    6  C6  UNL     1     -36.112 -39.170  57.265  1.00  0.00     0.040 C 
HETATM    7  C7  UNL     1     -34.852 -39.949  57.061  1.00  0.00     0.123 C 
HETATM    8  C8  UNL     1     -34.336 -40.440  58.421  1.00  0.00     0.046 C 
ENDROOT
BRANCH   7   9
HETATM    9  N2  UNL     1     -35.254 -41.177  56.354  1.00  0.00    -0.070 N 
ATOM     10  H23 UNL     1     -35.570 -40.976  55.406  1.00  0.00     0.275 HD
ATOM     11  H22 UNL     1     -34.448 -41.761  56.131  1.00  0.00     0.275 HD
ATOM     12  H21 UNL     1     -35.957 -41.698  56.879  1.00  0.00     0.275 HD
ENDBRANCH   7   9
BRANCH   4  13
HETATM   13  N1  UNL     1     -34.562 -35.872  56.645  1.00  0.00    -0.075 N 
ATOM     14  H13 UNL     1     -35.124 -35.074  56.349  1.00  0.00     0.274 HD
ATOM     15  H12 UNL     1     -34.636 -35.752  57.656  1.00  0.00     0.274 HD
ATOM     16  H11 UNL     1     -33.595 -35.784  56.331  1.00  0.00     0.274 HD
ENDBRANCH   4  13
TORSDOF 2
ENDMDL
