MODEL 1
REMARK VINA RESULT: -5.269007929      0.000      0.000
REMARK  2 active torsions:
REMARK  status: ('A' for Active; 'I' for Inactive)
REMARK    1  A    between atoms: O1_1  and  C1_3 
REMARK    2  A    between atoms: C1_3  and  C2_4 
ROOT
HETATM    1  C2  UNL     1     -36.580  31.976  54.395  1.00  0.00     0.009 C 
HETATM    2  C3  UNL     1     -36.933  33.224  55.117  1.00  0.00     0.007 C 
HETATM    3  C4  UNL     1     -36.404  34.479  54.463  1.00  0.00     0.010 C 
HETATM    4  C5  UNL     1     -34.906  34.294  54.347  1.00  0.00    -0.040 C 
HETATM    5  C6  UNL     1     -34.229  34.187  55.673  1.00  0.00     0.009 C 
HETATM    6  C7  UNL     1     -33.001  35.076  55.626  1.00  0.00     0.001 C 
HETATM    7  C8  UNL     1     -32.885  35.529  54.176  1.00  0.00     0.001 C 
HETATM    8  C9  UNL     1     -34.347  35.583  53.768  1.00  0.00     0.009 C 
HETATM    9  C10 UNL     1     -34.538  33.140  53.479  1.00  0.00     0.010 C 
HETATM   10  C11 UNL     1     -35.619  32.143  53.262  1.00  0.00     0.007 C 
ENDROOT
BRANCH   1  11
HETATM   11  C1  UNL     1     -37.838  31.297  53.838  1.00  0.00     0.168 C 
BRANCH  11  12
HETATM   12  O1  UNL     1     -38.009  31.550  52.499  1.00  0.00    -0.400 OA
ATOM     13  H1  UNL     1     -38.917  31.730  52.284  1.00  0.00     0.209 HD
ENDBRANCH  11  12
ENDBRANCH   1  11
TORSDOF 2
ENDMDL
MODEL 2
REMARK VINA RESULT: -5.263957943      2.942      4.634
REMARK  2 active torsions:
REMARK  status: ('A' for Active; 'I' for Inactive)
REMARK    1  A    between atoms: O1_1  and  C1_3 
REMARK    2  A    between atoms: C1_3  and  C2_4 
ROOT
HETATM    1  C2  UNL     1     -34.091  35.057  54.319  1.00  0.00     0.009 C 
HETATM    2  C3  UNL     1     -34.438  36.488  54.135  1.00  0.00     0.007 C 
HETATM    3  C4  UNL     1     -34.955  37.158  55.388  1.00  0.00     0.010 C 
HETATM    4  C5  UNL     1     -36.144  36.339  55.843  1.00  0.00    -0.040 C 
HETATM    5  C6  UNL     1     -37.267  36.348  54.860  1.00  0.00     0.009 C 
HETATM    6  C7  UNL     1     -38.546  36.587  55.641  1.00  0.00     0.001 C 
HETATM    7  C8  UNL     1     -38.146  36.509  57.108  1.00  0.00     0.001 C 
HETATM    8  C9  UNL     1     -36.727  37.047  57.055  1.00  0.00     0.009 C 
HETATM    9  C10 UNL     1     -35.772  34.940  56.197  1.00  0.00     0.010 C 
HETATM   10  C11 UNL     1     -34.476  34.470  55.640  1.00  0.00     0.007 C 
ENDROOT
BRANCH   1  11
HETATM   11  C1  UNL     1     -32.584  34.836  54.138  1.00  0.00     0.168 C 
BRANCH  11  12
HETATM   12  O1  UNL     1     -32.313  33.691  53.429  1.00  0.00    -0.400 OA
ATOM     13  H1  UNL     1     -31.514  33.271  53.724  1.00  0.00     0.209 HD
ENDBRANCH  11  12
ENDBRANCH   1  11
TORSDOF 2
ENDMDL
MODEL 3
REMARK VINA RESULT: -5.225810834      3.134      3.964
REMARK  2 active torsions:
REMARK  status: ('A' for Active; 'I' for Inactive)
REMARK    1  A    between atoms: O1_1  and  C1_3 
REMARK    2  A    between atoms: C1_3  and  C2_4 
ROOT
HETATM    1  C2  UNL     1     -36.960  36.093  57.281  1.00  0.00     0.009 C 
HETATM    2  C3  UNL     1     -36.656  37.010  56.156  1.00  0.00     0.007 C 
HETATM    3  C4  UNL     1     -36.454  36.309  54.832  1.00  0.00     0.010 C 
HETATM    4  C5  UNL     1     -35.350  35.297  55.056  1.00  0.00    -0.040 C 
HETATM    5  C6  UNL     1     -34.045  35.928  55.406  1.00  0.00     0.009 C 
HETATM    6  C7  UNL     1     -32.976  35.247  54.571  1.00  0.00     0.001 C 
HETATM    7  C8  UNL     1     -33.678  34.078  53.891  1.00  0.00     0.001 C 
HETATM    8  C9  UNL     1     -35.077  34.640  53.713  1.00  0.00     0.009 C 
HETATM    9  C10 UNL     1     -35.718  34.264  56.066  1.00  0.00     0.010 C 
HETATM   10  C11 UNL     1     -36.839  34.636  56.970  1.00  0.00     0.007 C 
ENDROOT
BRANCH   1  11
HETATM   11  C1  UNL     1     -38.381  36.335  57.809  1.00  0.00     0.168 C 
BRANCH  11  12
HETATM   12  O1  UNL     1     -38.556  35.819  59.070  1.00  0.00    -0.400 OA
ATOM     13  H1  UNL     1     -39.475  35.742  59.298  1.00  0.00     0.209 HD
ENDBRANCH  11  12
ENDBRANCH   1  11
TORSDOF 2
ENDMDL
MODEL 4
REMARK VINA RESULT: -5.220281788      3.012      4.073
REMARK  2 active torsions:
REMARK  status: ('A' for Active; 'I' for Inactive)
REMARK    1  A    between atoms: O1_1  and  C1_3 
REMARK    2  A    between atoms: C1_3  and  C2_4 
ROOT
HETATM    1  C2  UNL     1     -37.044  36.706  54.683  1.00  0.00     0.009 C 
HETATM    2  C3  UNL     1     -36.781  35.540  55.563  1.00  0.00     0.007 C 
HETATM    3  C4  UNL     1     -35.336  35.407  55.986  1.00  0.00     0.010 C 
HETATM    4  C5  UNL     1     -34.527  35.349  54.707  1.00  0.00    -0.040 C 
HETATM    5  C6  UNL     1     -34.839  34.150  53.876  1.00  0.00     0.009 C 
HETATM    6  C7  UNL     1     -33.517  33.558  53.424  1.00  0.00     0.001 C 
HETATM    7  C8  UNL     1     -32.456  34.566  53.849  1.00  0.00     0.001 C 
HETATM    8  C9  UNL     1     -33.078  35.131  55.114  1.00  0.00     0.009 C 
HETATM    9  C10 UNL     1     -34.650  36.594  53.897  1.00  0.00     0.010 C 
HETATM   10  C11 UNL     1     -35.830  37.441  54.214  1.00  0.00     0.007 C 
ENDROOT
BRANCH   1  11
HETATM   11  C1  UNL     1     -37.956  37.721  55.386  1.00  0.00     0.168 C 
BRANCH  11  12
HETATM   12  O1  UNL     1     -37.251  38.799  55.865  1.00  0.00    -0.400 OA
ATOM     13  H1  UNL     1     -37.802  39.566  55.968  1.00  0.00     0.209 HD
ENDBRANCH  11  12
ENDBRANCH   1  11
TORSDOF 2
ENDMDL
MODEL 5
REMARK VINA RESULT: -5.172466475      2.761      4.615
REMARK  2 active torsions:
REMARK  status: ('A' for Active; 'I' for Inactive)
REMARK    1  A    between atoms: O1_1  and  C1_3 
REMARK    2  A    between atoms: C1_3  and  C2_4 
ROOT
HETATM    1  C2  UNL     1     -34.957  36.439  55.298  1.00  0.00     0.009 C 
HETATM    2  C3  UNL     1     -34.860  36.326  53.822  1.00  0.00     0.007 C 
HETATM    3  C4  UNL     1     -35.998  35.556  53.191  1.00  0.00     0.010 C 
HETATM    4  C5  UNL     1     -36.014  34.201  53.865  1.00  0.00    -0.040 C 
HETATM    5  C6  UNL     1     -34.774  33.410  53.612  1.00  0.00     0.009 C 
HETATM    6  C7  UNL     1     -35.204  31.999  53.257  1.00  0.00     0.001 C 
HETATM    7  C8  UNL     1     -36.705  31.956  53.515  1.00  0.00     0.001 C 
HETATM    8  C9  UNL     1     -37.100  33.384  53.184  1.00  0.00     0.009 C 
HETATM    9  C10 UNL     1     -36.284  34.294  55.328  1.00  0.00     0.010 C 
HETATM   10  C11 UNL     1     -36.044  35.631  55.932  1.00  0.00     0.007 C 
ENDROOT
BRANCH   1  11
HETATM   11  C1  UNL     1     -35.163  37.900  55.718  1.00  0.00     0.168 C 
BRANCH  11  12
HETATM   12  O1  UNL     1     -35.930  38.006  56.853  1.00  0.00    -0.400 OA
ATOM     13  H1  UNL     1     -36.146  37.155  57.216  1.00  0.00     0.209 HD
ENDBRANCH  11  12
ENDBRANCH   1  11
TORSDOF 2
ENDMDL
