MODEL 1
REMARK VINA RESULT: -5.056786608      0.000      0.000
REMARK  2 active torsions:
REMARK  status: ('A' for Active; 'I' for Inactive)
REMARK    1  A    between atoms: N1_1  and  C1_5 
REMARK    2  A    between atoms: C4_8  and  C5_9 
ROOT
HETATM    1  C1  UNL     1     -33.607  34.441  53.679  1.00  0.00     0.188 C 
HETATM    2  C2  UNL     1     -34.542  33.254  53.426  1.00  0.00     0.033 C 
HETATM    3  C3  UNL     1     -34.541  33.043  54.930  1.00  0.00     0.009 C 
HETATM    4  C4  UNL     1     -34.131  34.495  55.077  1.00  0.00     0.020 C 
ENDROOT
BRANCH   4   5
HETATM    5  C5  UNL     1     -35.300  35.432  55.309  1.00  0.00    -0.008 C 
HETATM    6  C6  UNL     1     -36.063  34.886  56.499  1.00  0.00     0.005 C 
HETATM    7  C7  UNL     1     -37.296  35.776  56.616  1.00  0.00     0.000 C 
HETATM    8  C8  UNL     1     -36.826  37.112  57.070  1.00  0.00     0.000 C 
HETATM    9  C9  UNL     1     -35.740  37.724  56.277  1.00  0.00     0.000 C 
HETATM   10  C10 UNL     1     -34.885  36.852  55.469  1.00  0.00     0.005 C 
ENDBRANCH   4   5
BRANCH   1  11
HETATM   11  N1  UNL     1     -32.219  33.978  53.691  1.00  0.00    -0.075 N 
ATOM     12  H13 UNL     1     -32.133  33.029  54.057  1.00  0.00     0.274 HD
ATOM     13  H12 UNL     1     -31.862  33.805  52.751  1.00  0.00     0.274 HD
ATOM     14  H11 UNL     1     -31.641  34.643  54.205  1.00  0.00     0.274 HD
ENDBRANCH   1  11
TORSDOF 2
ENDMDL
MODEL 2
REMARK VINA RESULT: -5.034635117      2.419      4.691
REMARK  2 active torsions:
REMARK  status: ('A' for Active; 'I' for Inactive)
REMARK    1  A    between atoms: N1_1  and  C1_5 
REMARK    2  A    between atoms: C4_8  and  C5_9 
ROOT
HETATM    1  C1  UNL     1     -37.259  36.691  55.835  1.00  0.00     0.188 C 
HETATM    2  C2  UNL     1     -36.838  38.130  55.519  1.00  0.00     0.033 C 
HETATM    3  C3  UNL     1     -35.570  37.839  56.304  1.00  0.00     0.009 C 
HETATM    4  C4  UNL     1     -35.817  36.366  56.050  1.00  0.00     0.020 C 
ENDROOT
BRANCH   4   5
HETATM    5  C5  UNL     1     -35.074  35.828  54.842  1.00  0.00    -0.008 C 
HETATM    6  C6  UNL     1     -33.656  35.546  55.297  1.00  0.00     0.005 C 
HETATM    7  C7  UNL     1     -32.912  35.135  54.030  1.00  0.00     0.000 C 
HETATM    8  C8  UNL     1     -33.437  33.802  53.632  1.00  0.00     0.000 C 
HETATM    9  C9  UNL     1     -34.905  33.690  53.507  1.00  0.00     0.000 C 
HETATM   10  C10 UNL     1     -35.745  34.654  54.221  1.00  0.00     0.005 C 
ENDBRANCH   4   5
BRANCH   1  11
HETATM   11  N1  UNL     1     -37.967  36.658  57.115  1.00  0.00    -0.075 N 
ATOM     12  H13 UNL     1     -38.973  36.789  57.003  1.00  0.00     0.274 HD
ATOM     13  H12 UNL     1     -37.985  35.722  57.521  1.00  0.00     0.274 HD
ATOM     14  H11 UNL     1     -37.558  37.344  57.750  1.00  0.00     0.274 HD
ENDBRANCH   1  11
TORSDOF 2
ENDMDL
MODEL 3
REMARK VINA RESULT: -4.983730688      2.482      3.723
REMARK  2 active torsions:
REMARK  status: ('A' for Active; 'I' for Inactive)
REMARK    1  A    between atoms: N1_1  and  C1_5 
REMARK    2  A    between atoms: C4_8  and  C5_9 
ROOT
HETATM    1  C1  UNL     1     -35.807  31.344  52.892  1.00  0.00     0.188 C 
HETATM    2  C2  UNL     1     -37.218  31.917  52.725  1.00  0.00     0.033 C 
HETATM    3  C3  UNL     1     -37.254  32.040  54.239  1.00  0.00     0.009 C 
HETATM    4  C4  UNL     1     -35.739  32.024  54.221  1.00  0.00     0.020 C 
ENDROOT
BRANCH   4   5
HETATM    5  C5  UNL     1     -35.120  33.409  54.223  1.00  0.00    -0.008 C 
HETATM    6  C6  UNL     1     -35.011  33.831  55.675  1.00  0.00     0.005 C 
HETATM    7  C7  UNL     1     -34.511  35.272  55.627  1.00  0.00     0.000 C 
HETATM    8  C8  UNL     1     -33.102  35.227  55.156  1.00  0.00     0.000 C 
HETATM    9  C9  UNL     1     -32.857  34.484  53.903  1.00  0.00     0.000 C 
HETATM   10  C10 UNL     1     -33.829  33.471  53.486  1.00  0.00     0.005 C 
ENDBRANCH   4   5
BRANCH   1  11
HETATM   11  N1  UNL     1     -35.886  29.895  53.085  1.00  0.00    -0.075 N 
ATOM     12  H13 UNL     1     -36.846  29.553  53.040  1.00  0.00     0.274 HD
ATOM     13  H12 UNL     1     -35.510  29.380  52.289  1.00  0.00     0.274 HD
ATOM     14  H11 UNL     1     -35.427  29.641  53.959  1.00  0.00     0.274 HD
ENDBRANCH   1  11
TORSDOF 2
ENDMDL
MODEL 4
REMARK VINA RESULT: -4.937686474      2.307      4.378
REMARK  2 active torsions:
REMARK  status: ('A' for Active; 'I' for Inactive)
REMARK    1  A    between atoms: N1_1  and  C1_5 
REMARK    2  A    between atoms: C4_8  and  C5_9 
ROOT
HETATM    1  C1  UNL     1     -36.291  37.413  55.979  1.00  0.00     0.188 C 
HETATM    2  C2  UNL     1     -36.984  36.609  57.084  1.00  0.00     0.033 C 
HETATM    3  C3  UNL     1     -37.585  35.764  55.974  1.00  0.00     0.009 C 
HETATM    4  C4  UNL     1     -36.450  36.228  55.083  1.00  0.00     0.020 C 
ENDROOT
BRANCH   4   5
HETATM    5  C5  UNL     1     -35.279  35.266  55.046  1.00  0.00    -0.008 C 
HETATM    6  C6  UNL     1     -35.439  34.438  53.787  1.00  0.00     0.005 C 
HETATM    7  C7  UNL     1     -34.322  33.401  53.855  1.00  0.00     0.000 C 
HETATM    8  C8  UNL     1     -33.042  34.128  53.649  1.00  0.00     0.000 C 
HETATM    9  C9  UNL     1     -32.807  35.294  54.524  1.00  0.00     0.000 C 
HETATM   10  C10 UNL     1     -33.961  35.949  55.145  1.00  0.00     0.005 C 
ENDBRANCH   4   5
BRANCH   1  11
HETATM   11  N1  UNL     1     -37.174  38.491  55.531  1.00  0.00    -0.075 N 
ATOM     12  H13 UNL     1     -37.750  38.211  54.736  1.00  0.00     0.274 HD
ATOM     13  H12 UNL     1     -37.923  38.677  56.197  1.00  0.00     0.274 HD
ATOM     14  H11 UNL     1     -36.621  39.324  55.331  1.00  0.00     0.274 HD
ENDBRANCH   1  11
TORSDOF 2
ENDMDL
MODEL 5
REMARK VINA RESULT: -4.905923106      3.494      4.515
REMARK  2 active torsions:
REMARK  status: ('A' for Active; 'I' for Inactive)
REMARK    1  A    between atoms: N1_1  and  C1_5 
REMARK    2  A    between atoms: C4_8  and  C5_9 
ROOT
HETATM    1  C1  UNL     1     -35.611  33.546  54.964  1.00  0.00     0.188 C 
HETATM    2  C2  UNL     1     -35.498  33.829  53.462  1.00  0.00     0.033 C 
HETATM    3  C3  UNL     1     -35.617  32.329  53.258  1.00  0.00     0.009 C 
HETATM    4  C4  UNL     1     -36.273  32.251  54.621  1.00  0.00     0.020 C 
ENDROOT
BRANCH   4   5
HETATM    5  C5  UNL     1     -37.788  32.278  54.566  1.00  0.00    -0.008 C 
HETATM    6  C6  UNL     1     -38.242  30.836  54.451  1.00  0.00     0.005 C 
HETATM    7  C7  UNL     1     -39.754  30.916  54.264  1.00  0.00     0.000 C 
HETATM    8  C8  UNL     1     -40.327  31.374  55.558  1.00  0.00     0.000 C 
HETATM    9  C9  UNL     1     -39.746  32.606  56.128  1.00  0.00     0.000 C 
HETATM   10  C10 UNL     1     -38.400  33.005  55.710  1.00  0.00     0.005 C 
ENDBRANCH   4   5
BRANCH   1  11
HETATM   11  N1  UNL     1     -34.280  33.288  55.515  1.00  0.00    -0.075 N 
ATOM     12  H13 UNL     1     -34.322  32.898  56.457  1.00  0.00     0.274 HD
ATOM     13  H12 UNL     1     -33.817  32.505  55.053  1.00  0.00     0.274 HD
ATOM     14  H11 UNL     1     -33.722  34.141  55.476  1.00  0.00     0.274 HD
ENDBRANCH   1  11
TORSDOF 2
ENDMDL
