MODEL 1
REMARK VINA RESULT: -7.129565068      0.000      0.000
REMARK  6 active torsions:
REMARK  status: ('A' for Active; 'I' for Inactive)
REMARK    1  A    between atoms: O1_2  and  C2_3 
REMARK    2  A    between atoms: C4_5  and  O2_6 
REMARK    3  A    between atoms: C5_8  and  C6_9 
REMARK    4  A    between atoms: C7_10  and  C8_11 
REMARK    5  A    between atoms: C8_11  and  C9_13 
REMARK    6  A    between atoms: C11_19  and  O4_20 
ROOT
HETATM    1  C2  UNL     1      33.999  -7.503  12.957  1.00  0.00     0.105 A 
HETATM    2  C3  UNL     1      34.031  -7.143  14.281  1.00  0.00     0.077 A 
HETATM    3  C4  UNL     1      33.049  -6.373  14.881  1.00  0.00     0.080 A 
HETATM    4  C5  UNL     1      31.967  -5.948  14.077  1.00  0.00     0.022 A 
HETATM    5  C10 UNL     1      31.964  -6.323  12.758  1.00  0.00     0.083 A 
HETATM    6 CL4  UNL     1      30.685  -5.851  11.651  1.00  0.00    -0.080 Cl
HETATM    7  C11 UNL     1      32.963  -7.103  12.157  1.00  0.00     0.122 A 
ENDROOT
BRANCH   4   8
HETATM    8  C6  UNL     1      30.952  -5.134  14.729  1.00  0.00     0.020 C 
HETATM    9  C7  UNL     1      29.826  -5.489  15.256  1.00  0.00     0.056 C 
BRANCH   9  10
HETATM   10  C8  UNL     1      28.940  -4.511  15.867  1.00  0.00     0.203 C 
HETATM   11  O3  UNL     1      28.862  -4.503  17.152  1.00  0.00    -0.288 OA
BRANCH  10  12
HETATM   12  C9  UNL     1      28.127  -3.528  15.138  1.00  0.00     0.252 C 
HETATM   13 CL1  UNL     1      29.038  -2.010  15.002  1.00  0.00    -0.075 Cl
HETATM   14 CL2  UNL     1      27.632  -4.080  13.540  1.00  0.00    -0.075 Cl
HETATM   15 CL3  UNL     1      26.604  -3.212  16.074  1.00  0.00    -0.075 Cl
ENDBRANCH  10  12
ENDBRANCH   9  10
ENDBRANCH   4   8
BRANCH   3  16
HETATM   16  O2  UNL     1      33.174  -6.072  16.201  1.00  0.00    -0.360 OA
ATOM     17  H2  UNL     1      32.720  -5.308  16.539  1.00  0.00     0.217 HD
ENDBRANCH   3  16
BRANCH   7  18
HETATM   18  O4  UNL     1      32.907  -7.456  10.805  1.00  0.00    -0.356 OA
ATOM     19  H4  UNL     1      33.184  -8.313  10.506  1.00  0.00     0.218 HD
ENDBRANCH   7  18
BRANCH   1  20
HETATM   20  O1  UNL     1      35.013  -8.285  12.383  1.00  0.00    -0.353 OA
HETATM   21  C1  UNL     1      35.029  -9.674  12.626  1.00  0.00     0.210 C 
ENDBRANCH   1  20
TORSDOF 6
ENDMDL
MODEL 2
REMARK VINA RESULT: -7.122645818      0.104      1.174
REMARK  6 active torsions:
REMARK  status: ('A' for Active; 'I' for Inactive)
REMARK    1  A    between atoms: O1_2  and  C2_3 
REMARK    2  A    between atoms: C4_5  and  O2_6 
REMARK    3  A    between atoms: C5_8  and  C6_9 
REMARK    4  A    between atoms: C7_10  and  C8_11 
REMARK    5  A    between atoms: C8_11  and  C9_13 
REMARK    6  A    between atoms: C11_19  and  O4_20 
ROOT
HETATM    1  C2  UNL     1      33.996  -7.490  12.968  1.00  0.00     0.105 A 
HETATM    2  C3  UNL     1      34.014  -7.125  14.291  1.00  0.00     0.077 A 
HETATM    3  C4  UNL     1      33.021  -6.364  14.881  1.00  0.00     0.080 A 
HETATM    4  C5  UNL     1      31.941  -5.952  14.068  1.00  0.00     0.022 A 
HETATM    5  C10 UNL     1      31.951  -6.332  12.751  1.00  0.00     0.083 A 
HETATM    6 CL4  UNL     1      30.675  -5.876  11.633  1.00  0.00    -0.080 Cl
HETATM    7  C11 UNL     1      32.962  -7.103  12.160  1.00  0.00     0.122 A 
ENDROOT
BRANCH   4   8
HETATM    8  C6  UNL     1      30.913  -5.146  14.710  1.00  0.00     0.020 C 
HETATM    9  C7  UNL     1      29.772  -5.507  15.201  1.00  0.00     0.056 C 
BRANCH   9  10
HETATM   10  C8  UNL     1      28.874  -4.536  15.808  1.00  0.00     0.203 C 
HETATM   11  O3  UNL     1      28.832  -4.492  17.094  1.00  0.00    -0.288 OA
BRANCH  10  12
HETATM   12  C9  UNL     1      28.012  -3.599  15.075  1.00  0.00     0.252 C 
HETATM   13 CL1  UNL     1      27.563  -4.324  13.517  1.00  0.00    -0.075 Cl
HETATM   14 CL2  UNL     1      26.564  -3.140  15.967  1.00  0.00    -0.075 Cl
HETATM   15 CL3  UNL     1      28.938  -2.070  14.760  1.00  0.00    -0.075 Cl
ENDBRANCH  10  12
ENDBRANCH   9  10
ENDBRANCH   4   8
BRANCH   3  16
HETATM   16  O2  UNL     1      33.133  -6.056  16.201  1.00  0.00    -0.360 OA
ATOM     17  H2  UNL     1      33.911  -5.599  16.498  1.00  0.00     0.217 HD
ENDBRANCH   3  16
BRANCH   7  18
HETATM   18  O4  UNL     1      32.919  -7.461  10.809  1.00  0.00    -0.356 OA
ATOM     19  H4  UNL     1      33.206  -6.864  10.129  1.00  0.00     0.218 HD
ENDBRANCH   7  18
BRANCH   1  20
HETATM   20  O1  UNL     1      35.022  -8.263  12.404  1.00  0.00    -0.353 OA
HETATM   21  C1  UNL     1      35.026  -9.658  12.616  1.00  0.00     0.210 C 
ENDBRANCH   1  20
TORSDOF 6
ENDMDL
MODEL 3
REMARK VINA RESULT: -7.121339288      0.106      1.132
REMARK  6 active torsions:
REMARK  status: ('A' for Active; 'I' for Inactive)
REMARK    1  A    between atoms: O1_2  and  C2_3 
REMARK    2  A    between atoms: C4_5  and  O2_6 
REMARK    3  A    between atoms: C5_8  and  C6_9 
REMARK    4  A    between atoms: C7_10  and  C8_11 
REMARK    5  A    between atoms: C8_11  and  C9_13 
REMARK    6  A    between atoms: C11_19  and  O4_20 
ROOT
HETATM    1  C2  UNL     1      33.994  -7.497  12.962  1.00  0.00     0.105 A 
HETATM    2  C3  UNL     1      34.011  -7.128  14.284  1.00  0.00     0.077 A 
HETATM    3  C4  UNL     1      33.018  -6.362  14.871  1.00  0.00     0.080 A 
HETATM    4  C5  UNL     1      31.941  -5.948  14.054  1.00  0.00     0.022 A 
HETATM    5  C10 UNL     1      31.952  -6.332  12.738  1.00  0.00     0.083 A 
HETATM    6 CL4  UNL     1      30.680  -5.875  11.616  1.00  0.00    -0.080 Cl
HETATM    7  C11 UNL     1      32.962  -7.109  12.151  1.00  0.00     0.122 A 
ENDROOT
BRANCH   4   8
HETATM    8  C6  UNL     1      30.915  -5.138  14.692  1.00  0.00     0.020 C 
HETATM    9  C7  UNL     1      29.780  -5.496  15.200  1.00  0.00     0.056 C 
BRANCH   9  10
HETATM   10  C8  UNL     1      28.883  -4.520  15.799  1.00  0.00     0.203 C 
HETATM   11  O3  UNL     1      28.800  -4.503  17.084  1.00  0.00    -0.288 OA
BRANCH  10  12
HETATM   12  C9  UNL     1      28.065  -3.550  15.059  1.00  0.00     0.252 C 
HETATM   13 CL1  UNL     1      26.599  -3.195  15.996  1.00  0.00    -0.075 Cl
HETATM   14 CL2  UNL     1      28.921  -2.055  14.689  1.00  0.00    -0.075 Cl
HETATM   15 CL3  UNL     1      27.579  -4.280  13.470  1.00  0.00    -0.075 Cl
ENDBRANCH  10  12
ENDBRANCH   9  10
ENDBRANCH   4   8
BRANCH   3  16
HETATM   16  O2  UNL     1      33.129  -6.051  16.190  1.00  0.00    -0.360 OA
ATOM     17  H2  UNL     1      32.456  -5.512  16.589  1.00  0.00     0.217 HD
ENDBRANCH   3  16
BRANCH   7  18
HETATM   18  O4  UNL     1      32.920  -7.470  10.801  1.00  0.00    -0.356 OA
ATOM     19  H4  UNL     1      32.242  -7.144  10.222  1.00  0.00     0.218 HD
ENDBRANCH   7  18
BRANCH   1  20
HETATM   20  O1  UNL     1      35.018  -8.274  12.402  1.00  0.00    -0.353 OA
HETATM   21  C1  UNL     1      35.019  -9.668  12.622  1.00  0.00     0.210 C 
ENDBRANCH   1  20
TORSDOF 6
ENDMDL
MODEL 4
REMARK VINA RESULT: -7.112317067      5.844      7.968
REMARK  6 active torsions:
REMARK  status: ('A' for Active; 'I' for Inactive)
REMARK    1  A    between atoms: O1_2  and  C2_3 
REMARK    2  A    between atoms: C4_5  and  O2_6 
REMARK    3  A    between atoms: C5_8  and  C6_9 
REMARK    4  A    between atoms: C7_10  and  C8_11 
REMARK    5  A    between atoms: C8_11  and  C9_13 
REMARK    6  A    between atoms: C11_19  and  O4_20 
ROOT
HETATM    1  C2  UNL     1      25.185  -3.872  15.950  1.00  0.00     0.105 A 
HETATM    2  C3  UNL     1      25.413  -3.280  14.733  1.00  0.00     0.077 A 
HETATM    3  C4  UNL     1      26.613  -2.677  14.396  1.00  0.00     0.080 A 
HETATM    4  C5  UNL     1      27.643  -2.681  15.365  1.00  0.00     0.022 A 
HETATM    5  C10 UNL     1      27.384  -3.280  16.570  1.00  0.00     0.083 A 
HETATM    6 CL4  UNL     1      28.574  -3.344  17.861  1.00  0.00    -0.080 Cl
HETATM    7  C11 UNL     1      26.166  -3.889  16.904  1.00  0.00     0.122 A 
ENDROOT
BRANCH   4   8
HETATM    8  C6  UNL     1      28.892  -2.035  14.989  1.00  0.00     0.020 C 
HETATM    9  C7  UNL     1      29.334  -0.858  15.296  1.00  0.00     0.056 C 
BRANCH   9  10
HETATM   10  C8  UNL     1      30.625  -0.392  14.814  1.00  0.00     0.203 C 
HETATM   11  O3  UNL     1      31.107  -0.962  13.766  1.00  0.00    -0.288 OA
BRANCH  10  12
HETATM   12  C9  UNL     1      31.424   0.680  15.424  1.00  0.00     0.252 C 
HETATM   13 CL1  UNL     1      32.170   0.069  16.915  1.00  0.00    -0.075 Cl
HETATM   14 CL2  UNL     1      32.662   1.324  14.350  1.00  0.00    -0.075 Cl
HETATM   15 CL3  UNL     1      30.328   2.064  15.846  1.00  0.00    -0.075 Cl
ENDBRANCH  10  12
ENDBRANCH   9  10
ENDBRANCH   4   8
BRANCH   3  16
HETATM   16  O2  UNL     1      26.738  -2.118  13.163  1.00  0.00    -0.360 OA
ATOM     17  H2  UNL     1      26.758  -2.690  12.404  1.00  0.00     0.217 HD
ENDBRANCH   3  16
BRANCH   7  18
HETATM   18  O4  UNL     1      25.959  -4.485  18.152  1.00  0.00    -0.356 OA
ATOM     19  H4  UNL     1      25.310  -4.151  18.759  1.00  0.00     0.218 HD
ENDBRANCH   7  18
BRANCH   1  20
HETATM   20  O1  UNL     1      23.955  -4.473  16.256  1.00  0.00    -0.353 OA
HETATM   21  C1  UNL     1      22.798  -3.670  16.329  1.00  0.00     0.210 C 
ENDBRANCH   1  20
TORSDOF 6
ENDMDL
MODEL 5
REMARK VINA RESULT: -7.048484116      2.286      3.382
REMARK  6 active torsions:
REMARK  status: ('A' for Active; 'I' for Inactive)
REMARK    1  A    between atoms: O1_2  and  C2_3 
REMARK    2  A    between atoms: C4_5  and  O2_6 
REMARK    3  A    between atoms: C5_8  and  C6_9 
REMARK    4  A    between atoms: C7_10  and  C8_11 
REMARK    5  A    between atoms: C8_11  and  C9_13 
REMARK    6  A    between atoms: C11_19  and  O4_20 
ROOT
HETATM    1  C2  UNL     1      31.866  -6.829  10.551  1.00  0.00     0.105 A 
HETATM    2  C3  UNL     1      30.791  -6.008  10.791  1.00  0.00     0.077 A 
HETATM    3  C4  UNL     1      30.522  -5.455  12.030  1.00  0.00     0.080 A 
HETATM    4  C5  UNL     1      31.407  -5.758  13.090  1.00  0.00     0.022 A 
HETATM    5  C10 UNL     1      32.470  -6.580  12.819  1.00  0.00     0.083 A 
HETATM    6 CL4  UNL     1      33.635  -7.043  14.049  1.00  0.00    -0.080 Cl
HETATM    7  C11 UNL     1      32.736  -7.138  11.560  1.00  0.00     0.122 A 
ENDROOT
BRANCH   4   8
HETATM    8  C6  UNL     1      31.098  -5.170  14.385  1.00  0.00     0.020 C 
HETATM    9  C7  UNL     1      30.429  -5.665  15.375  1.00  0.00     0.056 C 
BRANCH   9  10
HETATM   10  C8  UNL     1      30.228  -4.907  16.600  1.00  0.00     0.203 C 
HETATM   11  O3  UNL     1      30.983  -5.192  17.603  1.00  0.00    -0.288 OA
BRANCH  10  12
HETATM   12  C9  UNL     1      29.236  -3.839  16.787  1.00  0.00     0.252 C 
HETATM   13 CL1  UNL     1      27.898  -4.086  15.646  1.00  0.00    -0.075 Cl
HETATM   14 CL2  UNL     1      28.615  -3.746  18.433  1.00  0.00    -0.075 Cl
HETATM   15 CL3  UNL     1      30.017  -2.240  16.433  1.00  0.00    -0.075 Cl
ENDBRANCH  10  12
ENDBRANCH   9  10
ENDBRANCH   4   8
BRANCH   3  16
HETATM   16  O2  UNL     1      29.431  -4.654  12.163  1.00  0.00    -0.360 OA
ATOM     17  H2  UNL     1      29.391  -3.852  11.655  1.00  0.00     0.217 HD
ENDBRANCH   3  16
BRANCH   7  18
HETATM   18  O4  UNL     1      33.838  -7.971  11.343  1.00  0.00    -0.356 OA
ATOM     19  H4  UNL     1      33.900  -8.826  11.751  1.00  0.00     0.218 HD
ENDBRANCH   7  18
BRANCH   1  20
HETATM   20  O1  UNL     1      32.107  -7.372   9.281  1.00  0.00    -0.353 OA
HETATM   21  C1  UNL     1      31.556  -6.738   8.147  1.00  0.00     0.210 C 
ENDBRANCH   1  20
TORSDOF 6
ENDMDL
