MODEL 1
REMARK VINA RESULT: -8.264518857      0.000      0.000
REMARK  4 active torsions:
REMARK  status: ('A' for Active; 'I' for Inactive)
REMARK    1  A    between atoms: O1_1  and  C1_3 
REMARK    2  A    between atoms: N1_8  and  C4_9 
REMARK    3  A    between atoms: C4_9  and  N2_10 
REMARK    4  A    between atoms: C8_14  and  C9_15 
ROOT
HETATM    1  N2  UNL     1      30.744  -4.211  15.191  1.00  0.00     0.115 N 
HETATM    2  C5  UNL     1      30.936  -4.327  16.649  1.00  0.00     0.275 C 
HETATM    3  C6  UNL     1      29.607  -4.019  17.251  1.00  0.00     0.033 C 
HETATM    4  C7  UNL     1      28.844  -3.328  16.149  1.00  0.00     0.042 C 
HETATM    5  C8  UNL     1      29.823  -3.115  15.029  1.00  0.00     0.261 C 
ENDROOT
BRANCH   1   6
HETATM    6  C4  UNL     1      30.363  -5.492  14.739  1.00  0.00     0.406 C 
BRANCH   6   7
HETATM    7  N1  UNL     1      31.265  -6.091  13.722  1.00  0.00    -0.285 N 
HETATM    8  C1  UNL     1      32.357  -6.747  14.003  1.00  0.00     0.151 A 
HETATM    9  C2  UNL     1      33.076  -7.283  12.961  1.00  0.00     0.108 A 
HETATM   10  S1  UNL     1      32.145  -6.817  11.613  1.00  0.00    -0.068 SA
HETATM   11  C3  UNL     1      30.916  -5.982  12.430  1.00  0.00     0.148 A 
HETATM   12  S2  UNL     1      29.612  -5.222  11.766  1.00  0.00    -0.052 SA
BRANCH   8  13
HETATM   13  O1  UNL     1      32.846  -6.932  15.332  1.00  0.00    -0.346 OA
ATOM     14  H1  UNL     1      33.416  -6.266  15.701  1.00  0.00     0.219 HD
ENDBRANCH   8  13
ENDBRANCH   6   7
ENDBRANCH   1   6
BRANCH   5  15
HETATM   15  C9  UNL     1      30.542  -1.808  15.121  1.00  0.00     0.017 A 
HETATM   16  C10 UNL     1      30.698  -1.195  16.328  1.00  0.00     0.058 A 
HETATM   17  C11 UNL     1      31.389   0.023  16.352  1.00  0.00     0.155 A 
HETATM   18  F1  UNL     1      31.561   0.660  17.537  1.00  0.00    -0.203 F 
HETATM   19  C12 UNL     1      31.901   0.599  15.211  1.00  0.00     0.157 A 
HETATM   20  F2  UNL     1      32.576   1.792  15.249  1.00  0.00    -0.203 F 
HETATM   21  C13 UNL     1      31.721  -0.054  14.013  1.00  0.00     0.088 A 
HETATM   22  C14 UNL     1      31.041  -1.263  13.945  1.00  0.00     0.128 A 
HETATM   23  F3  UNL     1      30.888  -1.862  12.749  1.00  0.00    -0.205 F 
ENDBRANCH   5  15
TORSDOF 4
ENDMDL
MODEL 2
REMARK VINA RESULT: -8.044828985      1.376      1.807
REMARK  4 active torsions:
REMARK  status: ('A' for Active; 'I' for Inactive)
REMARK    1  A    between atoms: O1_1  and  C1_3 
REMARK    2  A    between atoms: N1_8  and  C4_9 
REMARK    3  A    between atoms: C4_9  and  N2_10 
REMARK    4  A    between atoms: C8_14  and  C9_15 
ROOT
HETATM    1  N2  UNL     1      30.692  -4.275  15.180  1.00  0.00     0.115 N 
HETATM    2  C5  UNL     1      30.942  -4.392  16.629  1.00  0.00     0.275 C 
HETATM    3  C6  UNL     1      29.643  -4.069  17.284  1.00  0.00     0.033 C 
HETATM    4  C7  UNL     1      28.842  -3.372  16.215  1.00  0.00     0.042 C 
HETATM    5  C8  UNL     1      29.777  -3.169  15.054  1.00  0.00     0.261 C 
ENDROOT
BRANCH   1   6
HETATM    6  C4  UNL     1      30.279  -5.553  14.745  1.00  0.00     0.406 C 
BRANCH   6   7
HETATM    7  N1  UNL     1      30.852  -5.987  13.446  1.00  0.00    -0.285 N 
HETATM    8  C1  UNL     1      30.292  -5.774  12.288  1.00  0.00     0.151 A 
HETATM    9  C2  UNL     1      30.957  -6.197  11.161  1.00  0.00     0.108 A 
HETATM   10  S1  UNL     1      32.367  -6.888  11.821  1.00  0.00    -0.068 SA
HETATM   11  C3  UNL     1      32.043  -6.608  13.462  1.00  0.00     0.148 A 
HETATM   12  S2  UNL     1      32.986  -7.017  14.750  1.00  0.00    -0.052 SA
BRANCH   8  13
HETATM   13  O1  UNL     1      29.027  -5.132  12.130  1.00  0.00    -0.346 OA
ATOM     14  H1  UNL     1      28.240  -5.633  12.308  1.00  0.00     0.219 HD
ENDBRANCH   8  13
ENDBRANCH   6   7
ENDBRANCH   1   6
BRANCH   5  15
HETATM   15  C9  UNL     1      30.513  -1.870  15.115  1.00  0.00     0.017 A 
HETATM   16  C10 UNL     1      30.689  -1.237  16.309  1.00  0.00     0.058 A 
HETATM   17  C11 UNL     1      31.395  -0.028  16.302  1.00  0.00     0.155 A 
HETATM   18  F1  UNL     1      31.588   0.628  17.474  1.00  0.00    -0.203 F 
HETATM   19  C12 UNL     1      31.902   0.521  15.146  1.00  0.00     0.157 A 
HETATM   20  F2  UNL     1      32.592   1.705  15.155  1.00  0.00    -0.203 F 
HETATM   21  C13 UNL     1      31.701  -0.151  13.962  1.00  0.00     0.088 A 
HETATM   22  C14 UNL     1      31.005  -1.354  13.924  1.00  0.00     0.128 A 
HETATM   23  F3  UNL     1      30.831  -1.971  12.740  1.00  0.00    -0.205 F 
ENDBRANCH   5  15
TORSDOF 4
ENDMDL
MODEL 3
REMARK VINA RESULT: -8.041608159      3.836      6.341
REMARK  4 active torsions:
REMARK  status: ('A' for Active; 'I' for Inactive)
REMARK    1  A    between atoms: O1_1  and  C1_3 
REMARK    2  A    between atoms: N1_8  and  C4_9 
REMARK    3  A    between atoms: C4_9  and  N2_10 
REMARK    4  A    between atoms: C8_14  and  C9_15 
ROOT
HETATM    1  N2  UNL     1      29.447  -4.206  13.391  1.00  0.00     0.115 N 
HETATM    2  C5  UNL     1      28.362  -5.138  13.033  1.00  0.00     0.275 C 
HETATM    3  C6  UNL     1      28.157  -5.992  14.238  1.00  0.00     0.033 C 
HETATM    4  C7  UNL     1      29.407  -5.797  15.057  1.00  0.00     0.042 C 
HETATM    5  C8  UNL     1      30.344  -4.984  14.207  1.00  0.00     0.261 C 
ENDROOT
BRANCH   1   6
HETATM    6  C4  UNL     1      28.825  -3.072  13.955  1.00  0.00     0.406 C 
BRANCH   6   7
HETATM    7  N1  UNL     1      29.751  -2.104  14.595  1.00  0.00    -0.285 N 
HETATM    8  C1  UNL     1      30.613  -1.371  13.946  1.00  0.00     0.151 A 
HETATM    9  C2  UNL     1      31.380  -0.485  14.665  1.00  0.00     0.108 A 
HETATM   10  S1  UNL     1      30.826  -0.746  16.254  1.00  0.00    -0.068 SA
HETATM   11  C3  UNL     1      29.671  -1.944  15.926  1.00  0.00     0.148 A 
HETATM   12  S2  UNL     1      28.696  -2.715  17.010  1.00  0.00    -0.052 SA
BRANCH   8  13
HETATM   13  O1  UNL     1      30.804  -1.444  12.533  1.00  0.00    -0.346 OA
ATOM     14  H1  UNL     1      30.791  -2.300  12.119  1.00  0.00     0.219 HD
ENDBRANCH   8  13
ENDBRANCH   6   7
ENDBRANCH   1   6
BRANCH   5  15
HETATM   15  C9  UNL     1      31.236  -5.824  13.352  1.00  0.00     0.017 A 
HETATM   16  C10 UNL     1      30.983  -5.956  12.019  1.00  0.00     0.058 A 
HETATM   17  C11 UNL     1      31.861  -6.749  11.269  1.00  0.00     0.155 A 
HETATM   18  F1  UNL     1      31.636  -6.902   9.940  1.00  0.00    -0.203 F 
HETATM   19  C12 UNL     1      32.946  -7.380  11.834  1.00  0.00     0.157 A 
HETATM   20  F2  UNL     1      33.797  -8.153  11.087  1.00  0.00    -0.203 F 
HETATM   21  C13 UNL     1      33.164  -7.220  13.183  1.00  0.00     0.088 A 
HETATM   22  C14 UNL     1      32.318  -6.443  13.964  1.00  0.00     0.128 A 
HETATM   23  F3  UNL     1      32.573  -6.319  15.281  1.00  0.00    -0.205 F 
ENDBRANCH   5  15
TORSDOF 4
ENDMDL
MODEL 4
REMARK VINA RESULT: -7.999218865      2.968      4.295
REMARK  4 active torsions:
REMARK  status: ('A' for Active; 'I' for Inactive)
REMARK    1  A    between atoms: O1_1  and  C1_3 
REMARK    2  A    between atoms: N1_8  and  C4_9 
REMARK    3  A    between atoms: C4_9  and  N2_10 
REMARK    4  A    between atoms: C8_14  and  C9_15 
ROOT
HETATM    1  N2  UNL     1      28.767  -4.084  15.059  1.00  0.00     0.115 N 
HETATM    2  C5  UNL     1      29.952  -4.940  15.247  1.00  0.00     0.275 C 
HETATM    3  C6  UNL     1      30.183  -4.983  16.719  1.00  0.00     0.033 C 
HETATM    4  C7  UNL     1      29.394  -3.817  17.260  1.00  0.00     0.042 C 
HETATM    5  C8  UNL     1      28.893  -3.057  16.063  1.00  0.00     0.261 C 
ENDROOT
BRANCH   1   6
HETATM    6  C4  UNL     1      27.647  -4.942  15.100  1.00  0.00     0.406 C 
BRANCH   6   7
HETATM    7  N1  UNL     1      26.335  -4.254  15.188  1.00  0.00    -0.285 N 
HETATM    8  C1  UNL     1      25.670  -4.077  16.296  1.00  0.00     0.151 A 
HETATM    9  C2  UNL     1      24.483  -3.385  16.236  1.00  0.00     0.108 A 
HETATM   10  S1  UNL     1      24.373  -3.018  14.576  1.00  0.00    -0.068 SA
HETATM   11  C3  UNL     1      25.814  -3.749  14.058  1.00  0.00     0.148 A 
HETATM   12  S2  UNL     1      26.406  -3.811  12.521  1.00  0.00    -0.052 SA
BRANCH   8  13
HETATM   13  O1  UNL     1      26.107  -4.567  17.564  1.00  0.00    -0.346 OA
ATOM     14  H1  UNL     1      26.763  -5.255  17.582  1.00  0.00     0.219 HD
ENDBRANCH   8  13
ENDBRANCH   6   7
ENDBRANCH   1   6
BRANCH   5  15
HETATM   15  C9  UNL     1      29.837  -1.992  15.608  1.00  0.00     0.017 A 
HETATM   16  C10 UNL     1      30.691  -1.408  16.495  1.00  0.00     0.058 A 
HETATM   17  C11 UNL     1      31.558  -0.423  16.007  1.00  0.00     0.155 A 
HETATM   18  F1  UNL     1      32.421   0.178  16.864  1.00  0.00    -0.203 F 
HETATM   19  C12 UNL     1      31.565  -0.042  14.684  1.00  0.00     0.157 A 
HETATM   20  F2  UNL     1      32.421   0.924  14.220  1.00  0.00    -0.203 F 
HETATM   21  C13 UNL     1      30.686  -0.657  13.822  1.00  0.00     0.088 A 
HETATM   22  C14 UNL     1      29.809  -1.638  14.265  1.00  0.00     0.128 A 
HETATM   23  F3  UNL     1      28.965  -2.208  13.384  1.00  0.00    -0.205 F 
ENDBRANCH   5  15
TORSDOF 4
ENDMDL
MODEL 5
REMARK VINA RESULT: -7.920955964      3.848      5.870
REMARK  4 active torsions:
REMARK  status: ('A' for Active; 'I' for Inactive)
REMARK    1  A    between atoms: O1_1  and  C1_3 
REMARK    2  A    between atoms: N1_8  and  C4_9 
REMARK    3  A    between atoms: C4_9  and  N2_10 
REMARK    4  A    between atoms: C8_14  and  C9_15 
ROOT
HETATM    1  N2  UNL     1      29.453  -2.944  14.947  1.00  0.00     0.115 N 
HETATM    2  C5  UNL     1      30.631  -2.057  14.966  1.00  0.00     0.275 C 
HETATM    3  C6  UNL     1      30.684  -1.436  13.612  1.00  0.00     0.033 C 
HETATM    4  C7  UNL     1      29.804  -2.313  12.759  1.00  0.00     0.042 C 
HETATM    5  C8  UNL     1      29.429  -3.492  13.614  1.00  0.00     0.261 C 
ENDROOT
BRANCH   1   6
HETATM    6  C4  UNL     1      28.361  -2.162  15.381  1.00  0.00     0.406 C 
BRANCH   6   7
HETATM    7  N1  UNL     1      27.110  -2.921  15.633  1.00  0.00    -0.285 N 
HETATM    8  C1  UNL     1      26.907  -3.679  16.675  1.00  0.00     0.151 A 
HETATM    9  C2  UNL     1      25.682  -4.291  16.801  1.00  0.00     0.108 A 
HETATM   10  S1  UNL     1      24.870  -3.746  15.406  1.00  0.00    -0.068 SA
HETATM   11  C3  UNL     1      26.106  -2.788  14.751  1.00  0.00     0.148 A 
HETATM   12  S2  UNL     1      26.059  -1.914  13.354  1.00  0.00    -0.052 SA
BRANCH   8  13
HETATM   13  O1  UNL     1      27.890  -3.911  17.685  1.00  0.00    -0.346 OA
ATOM     14  H1  UNL     1      27.812  -3.441  18.507  1.00  0.00     0.219 HD
ENDBRANCH   8  13
ENDBRANCH   6   7
ENDBRANCH   1   6
BRANCH   5  15
HETATM   15  C9  UNL     1      30.390  -4.630  13.497  1.00  0.00     0.017 A 
HETATM   16  C10 UNL     1      31.178  -4.973  14.554  1.00  0.00     0.058 A 
HETATM   17  C11 UNL     1      32.052  -6.055  14.386  1.00  0.00     0.155 A 
HETATM   18  F1  UNL     1      32.851  -6.422  15.419  1.00  0.00    -0.203 F 
HETATM   19  C12 UNL     1      32.130  -6.759  13.206  1.00  0.00     0.157 A 
HETATM   20  F2  UNL     1      32.990  -7.816  13.056  1.00  0.00    -0.203 F 
HETATM   21  C13 UNL     1      31.316  -6.379  12.164  1.00  0.00     0.088 A 
HETATM   22  C14 UNL     1      30.435  -5.311  12.288  1.00  0.00     0.128 A 
HETATM   23  F3  UNL     1      29.662  -4.976  11.238  1.00  0.00    -0.205 F 
ENDBRANCH   5  15
TORSDOF 4
ENDMDL
