MODEL 1
REMARK VINA RESULT: -5.489569823      0.000      0.000
REMARK  2 active torsions:
REMARK  status: ('A' for Active; 'I' for Inactive)
REMARK    1  A    between atoms: S1_2  and  C2_3 
REMARK    2  A    between atoms: C2_3  and  C3_7 
ROOT
HETATM    1  C3  UNL     1      27.879  -2.649  16.874  1.00  0.00     0.240 C 
HETATM    2  C4  UNL     1      28.597  -3.118  15.621  1.00  0.00     0.214 C 
HETATM    3  O1  UNL     1      29.291  -4.291  16.001  1.00  0.00    -0.343 OA
HETATM    4  C5  UNL     1      30.009  -3.928  17.140  1.00  0.00     0.396 C 
HETATM    5 CL1  UNL     1      31.408  -4.972  17.412  1.00  0.00    -0.063 Cl
HETATM    6  O2  UNL     1      29.129  -3.956  18.220  1.00  0.00    -0.191 OA
HETATM    7  O3  UNL     1      27.946  -3.561  17.898  1.00  0.00    -0.223 OA
ENDROOT
BRANCH   1   8
HETATM    8  C2  UNL     1      26.441  -2.418  16.559  1.00  0.00     0.074 C 
HETATM    9  N1  UNL     1      25.968  -1.240  16.498  1.00  0.00    -0.395 N 
ATOM     10  H12 UNL     1      24.983  -1.083  16.282  1.00  0.00     0.156 HD
ATOM     11  H11 UNL     1      26.590  -0.451  16.668  1.00  0.00     0.156 HD
BRANCH   8  12
HETATM   12  S1  UNL     1      25.352  -3.801  16.260  1.00  0.00    -0.119 SA
HETATM   13  C1  UNL     1      23.627  -3.249  16.285  1.00  0.00     0.097 C 
ENDBRANCH   8  12
ENDBRANCH   1   8
TORSDOF 2
ENDMDL
MODEL 2
REMARK VINA RESULT: -5.354261158      1.577      1.641
REMARK  2 active torsions:
REMARK  status: ('A' for Active; 'I' for Inactive)
REMARK    1  A    between atoms: S1_2  and  C2_3 
REMARK    2  A    between atoms: C2_3  and  C3_7 
ROOT
HETATM    1  C3  UNL     1      26.632  -3.044  16.484  1.00  0.00     0.240 C 
HETATM    2  C4  UNL     1      27.411  -3.499  15.263  1.00  0.00     0.214 C 
HETATM    3  O1  UNL     1      28.427  -4.351  15.759  1.00  0.00    -0.343 OA
HETATM    4  C5  UNL     1      29.048  -3.615  16.768  1.00  0.00     0.396 C 
HETATM    5 CL1  UNL     1      30.697  -4.166  17.082  1.00  0.00    -0.063 Cl
HETATM    6  O2  UNL     1      28.251  -3.704  17.907  1.00  0.00    -0.191 OA
HETATM    7  O3  UNL     1      26.994  -3.715  17.626  1.00  0.00    -0.223 OA
ENDROOT
BRANCH   1   8
HETATM    8  C2  UNL     1      25.178  -3.280  16.255  1.00  0.00     0.074 C 
HETATM    9  N1  UNL     1      24.326  -3.022  17.161  1.00  0.00    -0.395 N 
ATOM     10  H12 UNL     1      23.331  -3.184  17.004  1.00  0.00     0.156 HD
ATOM     11  H11 UNL     1      24.652  -2.649  18.052  1.00  0.00     0.156 HD
BRANCH   8  12
HETATM   12  S1  UNL     1      24.608  -3.933  14.695  1.00  0.00    -0.119 SA
HETATM   13  C1  UNL     1      24.481  -5.738  14.786  1.00  0.00     0.097 C 
ENDBRANCH   8  12
ENDBRANCH   1   8
TORSDOF 2
ENDMDL
MODEL 3
REMARK VINA RESULT: -5.279940107      1.388      1.436
REMARK  2 active torsions:
REMARK  status: ('A' for Active; 'I' for Inactive)
REMARK    1  A    between atoms: S1_2  and  C2_3 
REMARK    2  A    between atoms: C2_3  and  C3_7 
ROOT
HETATM    1  C3  UNL     1      26.748  -2.964  16.591  1.00  0.00     0.240 C 
HETATM    2  C4  UNL     1      27.433  -3.427  15.317  1.00  0.00     0.214 C 
HETATM    3  O1  UNL     1      28.432  -4.338  15.736  1.00  0.00    -0.343 OA
HETATM    4  C5  UNL     1      29.145  -3.659  16.723  1.00  0.00     0.396 C 
HETATM    5 CL1  UNL     1      30.779  -4.297  16.929  1.00  0.00    -0.063 Cl
HETATM    6  O2  UNL     1      28.409  -3.737  17.904  1.00  0.00    -0.191 OA
HETATM    7  O3  UNL     1      27.140  -3.680  17.695  1.00  0.00    -0.223 OA
ENDROOT
BRANCH   1   8
HETATM    8  C2  UNL     1      25.274  -3.124  16.440  1.00  0.00     0.074 C 
HETATM    9  N1  UNL     1      24.492  -2.910  17.419  1.00  0.00    -0.395 N 
ATOM     10  H12 UNL     1      23.483  -3.019  17.316  1.00  0.00     0.156 HD
ATOM     11  H11 UNL     1      24.890  -2.626  18.314  1.00  0.00     0.156 HD
BRANCH   8  12
HETATM   12  S1  UNL     1      24.578  -3.621  14.873  1.00  0.00    -0.119 SA
HETATM   13  C1  UNL     1      23.520  -2.304  14.218  1.00  0.00     0.097 C 
ENDBRANCH   8  12
ENDBRANCH   1   8
TORSDOF 2
ENDMDL
MODEL 4
REMARK VINA RESULT: -5.263921860      3.373      4.575
REMARK  2 active torsions:
REMARK  status: ('A' for Active; 'I' for Inactive)
REMARK    1  A    between atoms: S1_2  and  C2_3 
REMARK    2  A    between atoms: C2_3  and  C3_7 
ROOT
HETATM    1  C3  UNL     1      27.689  -3.322  16.092  1.00  0.00     0.240 C 
HETATM    2  C4  UNL     1      26.837  -2.216  15.495  1.00  0.00     0.214 C 
HETATM    3  O1  UNL     1      25.726  -2.086  16.361  1.00  0.00    -0.343 OA
HETATM    4  C5  UNL     1      25.223  -3.380  16.494  1.00  0.00     0.396 C 
HETATM    5 CL1  UNL     1      23.521  -3.393  16.966  1.00  0.00    -0.063 Cl
HETATM    6  O2  UNL     1      26.019  -4.048  17.421  1.00  0.00    -0.191 OA
HETATM    7  O3  UNL     1      27.259  -3.710  17.337  1.00  0.00    -0.223 OA
ENDROOT
BRANCH   1   8
HETATM    8  C2  UNL     1      29.095  -2.844  16.220  1.00  0.00     0.074 C 
HETATM    9  N1  UNL     1      29.354  -1.715  16.743  1.00  0.00    -0.395 N 
ATOM     10  H12 UNL     1      30.316  -1.388  16.830  1.00  0.00     0.156 HD
ATOM     11  H11 UNL     1      28.582  -1.138  17.075  1.00  0.00     0.156 HD
BRANCH   8  12
HETATM   12  S1  UNL     1      30.445  -3.856  15.639  1.00  0.00    -0.119 SA
HETATM   13  C1  UNL     1      31.388  -4.501  17.044  1.00  0.00     0.097 C 
ENDBRANCH   8  12
ENDBRANCH   1   8
TORSDOF 2
ENDMDL
MODEL 5
REMARK VINA RESULT: -5.144089678      3.318      4.493
REMARK  2 active torsions:
REMARK  status: ('A' for Active; 'I' for Inactive)
REMARK    1  A    between atoms: S1_2  and  C2_3 
REMARK    2  A    between atoms: C2_3  and  C3_7 
ROOT
HETATM    1  C3  UNL     1      27.358  -3.246  15.736  1.00  0.00     0.240 C 
HETATM    2  C4  UNL     1      26.133  -3.294  16.632  1.00  0.00     0.214 C 
HETATM    3  O1  UNL     1      25.621  -4.606  16.500  1.00  0.00    -0.343 OA
HETATM    4  C5  UNL     1      25.507  -4.809  15.125  1.00  0.00     0.396 C 
HETATM    5 CL1  UNL     1      24.324  -6.060  14.727  1.00  0.00    -0.063 Cl
HETATM    6  O2  UNL     1      26.774  -5.126  14.639  1.00  0.00    -0.191 OA
HETATM    7  O3  UNL     1      27.707  -4.480  15.247  1.00  0.00    -0.223 OA
ENDROOT
BRANCH   1   8
HETATM    8  C2  UNL     1      28.514  -2.716  16.514  1.00  0.00     0.074 C 
HETATM    9  N1  UNL     1      28.335  -1.907  17.477  1.00  0.00    -0.395 N 
ATOM     10  H12 UNL     1      29.127  -1.544  18.009  1.00  0.00     0.156 HD
ATOM     11  H11 UNL     1      27.384  -1.623  17.712  1.00  0.00     0.156 HD
BRANCH   8  12
HETATM   12  S1  UNL     1      30.178  -3.213  16.102  1.00  0.00    -0.119 SA
HETATM   13  C1  UNL     1      30.715  -4.552  17.198  1.00  0.00     0.097 C 
ENDBRANCH   8  12
ENDBRANCH   1   8
TORSDOF 2
ENDMDL
