MODEL 1
REMARK VINA RESULT: -6.539906704      0.000      0.000
REMARK  2 active torsions:
REMARK  status: ('A' for Active; 'I' for Inactive)
REMARK    1  A    between atoms: N1_7  and  N2_9 
REMARK    2  A    between atoms: N2_9  and  C6_11 
ROOT
HETATM    1  N2  UNL     1      33.235  -5.738  14.510  1.00  0.00    -0.277 N 
ATOM      2  H2  UNL     1      34.218  -6.003  14.579  1.00  0.00     0.189 HD
ENDROOT
BRANCH   1   3
HETATM    3  N1  UNL     1      32.534  -5.784  13.309  1.00  0.00    -0.304 N 
HETATM    4  C5  UNL     1      32.699  -6.624  12.384  1.00  0.00     0.037 C 
HETATM    5  C1  UNL     1      31.949  -6.658  11.123  1.00  0.00     0.217 C 
HETATM    6  C4  UNL     1      33.645  -7.739  12.336  1.00  0.00     0.057 C 
HETATM    7  F1  UNL     1      31.091  -7.735  11.034  1.00  0.00    -0.243 F 
HETATM    8  C2  UNL     1      33.074  -6.905  10.131  1.00  0.00     0.044 C 
HETATM    9  C3  UNL     1      34.049  -7.775  10.874  1.00  0.00     0.009 C 
ATOM     10  H1  UNL     1      31.820  -5.071  13.164  1.00  0.00     0.186 HD
ENDBRANCH   1   3
BRANCH   1  11
HETATM   11  C6  UNL     1      32.540  -5.328  15.551  1.00  0.00     0.197 A 
HETATM   12  N3  UNL     1      32.976  -5.108  16.793  1.00  0.00    -0.262 N 
HETATM   13  N4  UNL     1      32.139  -4.712  17.661  1.00  0.00    -0.234 N 
ATOM     14  H3  UNL     1      33.955  -5.254  17.038  1.00  0.00     0.190 HD
HETATM   15  N5  UNL     1      30.892  -4.529  17.336  1.00  0.00    -0.252 N 
ATOM     16  H4  UNL     1      32.445  -4.536  18.618  1.00  0.00     0.209 HD
HETATM   17  S1  UNL     1      30.879  -4.938  15.699  1.00  0.00     0.043 SA
ATOM     18  H5  UNL     1      30.118  -4.218  17.922  1.00  0.00     0.197 HD
ENDBRANCH   1  11
TORSDOF 2
ENDMDL
MODEL 2
REMARK VINA RESULT: -6.294650787      5.528      7.282
REMARK  2 active torsions:
REMARK  status: ('A' for Active; 'I' for Inactive)
REMARK    1  A    between atoms: N1_7  and  N2_9 
REMARK    2  A    between atoms: N2_9  and  C6_11 
ROOT
HETATM    1  N2  UNL     1      31.461  -6.252   8.323  1.00  0.00    -0.277 N 
ATOM      2  H2  UNL     1      30.599  -6.214   8.868  1.00  0.00     0.189 HD
ENDROOT
BRANCH   1   3
HETATM    3  N1  UNL     1      32.606  -6.893   8.784  1.00  0.00    -0.304 N 
HETATM    4  C5  UNL     1      32.819  -7.275   9.967  1.00  0.00     0.037 C 
HETATM    5  C1  UNL     1      34.034  -7.950  10.437  1.00  0.00     0.217 C 
HETATM    6  C4  UNL     1      31.938  -7.146  11.129  1.00  0.00     0.057 C 
HETATM    7  F1  UNL     1      33.823  -9.275  10.763  1.00  0.00    -0.243 F 
HETATM    8  C2  UNL     1      34.286  -7.209  11.739  1.00  0.00     0.044 C 
HETATM    9  C3  UNL     1      32.913  -6.888  12.262  1.00  0.00     0.009 C 
ATOM     10  H1  UNL     1      33.343  -7.070   8.102  1.00  0.00     0.186 HD
ENDBRANCH   1   3
BRANCH   1  11
HETATM   11  C6  UNL     1      31.568  -5.697   7.134  1.00  0.00     0.197 A 
HETATM   12  N3  UNL     1      31.859  -6.292   5.975  1.00  0.00    -0.262 N 
HETATM   13  N4  UNL     1      31.916  -5.574   4.930  1.00  0.00    -0.234 N 
ATOM     14  H3  UNL     1      32.029  -7.296   5.930  1.00  0.00     0.190 HD
HETATM   15  N5  UNL     1      31.697  -4.293   5.000  1.00  0.00    -0.252 N 
ATOM     16  H4  UNL     1      32.135  -6.003   4.031  1.00  0.00     0.209 HD
HETATM   17  S1  UNL     1      31.385  -4.067   6.642  1.00  0.00     0.043 SA
ATOM     18  H5  UNL     1      31.709  -3.600   4.251  1.00  0.00     0.197 HD
ENDBRANCH   1  11
TORSDOF 2
ENDMDL
MODEL 3
REMARK VINA RESULT: -6.250181645      5.090      6.694
REMARK  2 active torsions:
REMARK  status: ('A' for Active; 'I' for Inactive)
REMARK    1  A    between atoms: N1_7  and  N2_9 
REMARK    2  A    between atoms: N2_9  and  C6_11 
ROOT
HETATM    1  N2  UNL     1      28.186  -1.876  17.304  1.00  0.00    -0.277 N 
ATOM      2  H2  UNL     1      28.581  -0.977  17.580  1.00  0.00     0.189 HD
ENDROOT
BRANCH   1   3
HETATM    3  N1  UNL     1      28.864  -3.077  17.493  1.00  0.00    -0.304 N 
HETATM    4  C5  UNL     1      29.852  -3.486  16.824  1.00  0.00     0.037 C 
HETATM    5  C1  UNL     1      30.555  -4.756  17.038  1.00  0.00     0.217 C 
HETATM    6  C4  UNL     1      30.522  -2.820  15.707  1.00  0.00     0.057 C 
HETATM    7  F1  UNL     1      31.826  -4.589  17.548  1.00  0.00    -0.243 F 
HETATM    8  C2  UNL     1      30.713  -5.237  15.605  1.00  0.00     0.044 C 
HETATM    9  C3  UNL     1      30.897  -3.979  14.802  1.00  0.00     0.009 C 
ATOM     10  H1  UNL     1      28.530  -3.683  18.242  1.00  0.00     0.186 HD
ENDBRANCH   1   3
BRANCH   1  11
HETATM   11  C6  UNL     1      26.999  -1.984  16.745  1.00  0.00     0.197 A 
HETATM   12  N3  UNL     1      26.290  -1.031  16.136  1.00  0.00    -0.262 N 
HETATM   13  N4  UNL     1      25.156  -1.340  15.657  1.00  0.00    -0.234 N 
ATOM     14  H3  UNL     1      26.650  -0.080  16.057  1.00  0.00     0.190 HD
HETATM   15  N5  UNL     1      24.707  -2.557  15.764  1.00  0.00    -0.252 N 
ATOM     16  H4  UNL     1      24.594  -0.631  15.186  1.00  0.00     0.209 HD
HETATM   17  S1  UNL     1      25.956  -3.333  16.592  1.00  0.00     0.043 SA
ATOM     18  H5  UNL     1      23.824  -2.944  15.431  1.00  0.00     0.197 HD
ENDBRANCH   1  11
TORSDOF 2
ENDMDL
MODEL 4
REMARK VINA RESULT: -6.046170585      2.406      3.168
REMARK  2 active torsions:
REMARK  status: ('A' for Active; 'I' for Inactive)
REMARK    1  A    between atoms: N1_7  and  N2_9 
REMARK    2  A    between atoms: N2_9  and  C6_11 
ROOT
HETATM    1  N2  UNL     1      30.814  -4.908  15.131  1.00  0.00    -0.277 N 
ATOM      2  H2  UNL     1      30.403  -4.939  14.197  1.00  0.00     0.189 HD
ENDROOT
BRANCH   1   3
HETATM    3  N1  UNL     1      32.082  -5.411  15.402  1.00  0.00    -0.304 N 
HETATM    4  C5  UNL     1      32.917  -5.822  14.551  1.00  0.00     0.037 C 
HETATM    5  C1  UNL     1      34.252  -6.349  14.856  1.00  0.00     0.217 C 
HETATM    6  C4  UNL     1      32.770  -5.875  13.096  1.00  0.00     0.057 C 
HETATM    7  F1  UNL     1      35.269  -5.508  14.452  1.00  0.00    -0.243 F 
HETATM    8  C2  UNL     1      34.293  -7.563  13.943  1.00  0.00     0.044 C 
HETATM    9  C3  UNL     1      33.505  -7.151  12.730  1.00  0.00     0.009 C 
ATOM     10  H1  UNL     1      32.364  -5.451  16.381  1.00  0.00     0.186 HD
ENDBRANCH   1   3
BRANCH   1  11
HETATM   11  C6  UNL     1      30.182  -4.392  16.163  1.00  0.00     0.197 A 
HETATM   12  N3  UNL     1      30.442  -4.573  17.460  1.00  0.00    -0.262 N 
HETATM   13  N4  UNL     1      29.708  -3.981  18.309  1.00  0.00    -0.234 N 
ATOM     14  H3  UNL     1      31.211  -5.173  17.760  1.00  0.00     0.190 HD
HETATM   15  N5  UNL     1      28.730  -3.218  17.913  1.00  0.00    -0.252 N 
ATOM     16  H4  UNL     1      29.886  -4.101  19.306  1.00  0.00     0.209 HD
HETATM   17  S1  UNL     1      28.838  -3.332  16.233  1.00  0.00     0.043 SA
ATOM     18  H5  UNL     1      28.067  -2.686  18.476  1.00  0.00     0.197 HD
ENDBRANCH   1  11
TORSDOF 2
ENDMDL
MODEL 5
REMARK VINA RESULT: -6.042501355      5.929      7.863
REMARK  2 active torsions:
REMARK  status: ('A' for Active; 'I' for Inactive)
REMARK    1  A    between atoms: N1_7  and  N2_9 
REMARK    2  A    between atoms: N2_9  and  C6_11 
ROOT
HETATM    1  N2  UNL     1      31.179  -4.951   7.595  1.00  0.00    -0.277 N 
ATOM      2  H2  UNL     1      30.501  -4.380   8.100  1.00  0.00     0.189 HD
ENDROOT
BRANCH   1   3
HETATM    3  N1  UNL     1      31.823  -6.036   8.183  1.00  0.00    -0.304 N 
HETATM    4  C5  UNL     1      31.723  -6.397   9.387  1.00  0.00     0.037 C 
HETATM    5  C1  UNL     1      32.410  -7.545   9.990  1.00  0.00     0.217 C 
HETATM    6  C4  UNL     1      30.925  -5.783  10.449  1.00  0.00     0.057 C 
HETATM    7  F1  UNL     1      31.553  -8.577  10.312  1.00  0.00    -0.243 F 
HETATM    8  C2  UNL     1      32.883  -6.936  11.299  1.00  0.00     0.044 C 
HETATM    9  C3  UNL     1      31.804  -5.958  11.673  1.00  0.00     0.009 C 
ATOM     10  H1  UNL     1      32.433  -6.591   7.583  1.00  0.00     0.186 HD
ENDBRANCH   1   3
BRANCH   1  11
HETATM   11  C6  UNL     1      31.507  -4.714   6.343  1.00  0.00     0.197 A 
HETATM   12  N3  UNL     1      31.874  -5.596   5.410  1.00  0.00    -0.262 N 
HETATM   13  N4  UNL     1      32.153  -5.163   4.250  1.00  0.00    -0.234 N 
ATOM     14  H3  UNL     1      31.927  -6.592   5.624  1.00  0.00     0.190 HD
HETATM   15  N5  UNL     1      32.082  -3.889   3.990  1.00  0.00    -0.252 N 
ATOM     16  H4  UNL     1      32.435  -5.815   3.519  1.00  0.00     0.209 HD
HETATM   17  S1  UNL     1      31.587  -3.244   5.468  1.00  0.00     0.043 SA
ATOM     18  H5  UNL     1      32.275  -3.404   3.115  1.00  0.00     0.197 HD
ENDBRANCH   1  11
TORSDOF 2
ENDMDL
