MODEL 1
REMARK VINA RESULT: -5.767300703      0.000      0.000
REMARK  2 active torsions:
REMARK  status: ('A' for Active; 'I' for Inactive)
REMARK    1  A    between atoms: N1_2  and  C1_4 
REMARK    2  A    between atoms: N3_9  and  O3_10 
ROOT
HETATM    1  C1  UNL     1      33.749  -6.981  12.817  1.00  0.00     0.216 A 
HETATM    2  N2  UNL     1      32.650  -6.289  12.459  1.00  0.00    -0.310 N 
ATOM      3  H2  UNL     1      32.192  -5.709  13.163  1.00  0.00     0.170 HD
HETATM    4  C2  UNL     1      32.127  -6.324  11.219  1.00  0.00     0.204 A 
HETATM    5  S1  UNL     1      30.784  -5.465  10.819  1.00  0.00    -0.038 SA
HETATM    6  N3  UNL     1      32.705  -7.078  10.265  1.00  0.00    -0.206 N 
HETATM    7  C3  UNL     1      33.802  -7.778  10.597  1.00  0.00     0.172 A 
HETATM    8  C4  UNL     1      34.347  -7.752  11.859  1.00  0.00     0.184 A 
HETATM    9  F1  UNL     1      35.465  -8.467  12.193  1.00  0.00    -0.200 F 
ENDROOT
BRANCH   1  10
HETATM   10  N1  UNL     1      34.261  -6.908  14.142  1.00  0.00    -0.095 N 
HETATM   11  O1  UNL     1      33.658  -7.505  15.057  1.00  0.00    -0.530 OA
HETATM   12  O2  UNL     1      35.407  -6.180  14.366  1.00  0.00    -0.530 OA
ENDBRANCH   1  10
BRANCH   6  13
HETATM   13  O3  UNL     1      32.153  -7.098   9.006  1.00  0.00    -0.281 OA
ATOM     14  H3  UNL     1      32.627  -7.524   8.302  1.00  0.00     0.245 HD
ENDBRANCH   6  13
TORSDOF 2
ENDMDL
MODEL 2
REMARK VINA RESULT: -5.432568054      1.525      3.744
REMARK  2 active torsions:
REMARK  status: ('A' for Active; 'I' for Inactive)
REMARK    1  A    between atoms: N1_2  and  C1_4 
REMARK    2  A    between atoms: N3_9  and  O3_10 
ROOT
HETATM    1  C1  UNL     1      33.115  -7.115  11.532  1.00  0.00     0.216 A 
HETATM    2  N2  UNL     1      32.330  -6.163  12.073  1.00  0.00    -0.310 N 
ATOM      3  H2  UNL     1      31.622  -5.725  11.483  1.00  0.00     0.170 HD
HETATM    4  C2  UNL     1      32.435  -5.760  13.353  1.00  0.00     0.204 A 
HETATM    5  S1  UNL     1      31.461  -4.594  13.979  1.00  0.00    -0.038 SA
HETATM    6  N3  UNL     1      33.358  -6.316  14.161  1.00  0.00    -0.206 N 
HETATM    7  C3  UNL     1      34.152  -7.269  13.645  1.00  0.00     0.172 A 
HETATM    8  C4  UNL     1      34.057  -7.689  12.340  1.00  0.00     0.184 A 
HETATM    9  F1  UNL     1      34.868  -8.660  11.817  1.00  0.00    -0.200 F 
ENDROOT
BRANCH   1  10
HETATM   10  N1  UNL     1      32.961  -7.504  10.172  1.00  0.00    -0.095 N 
HETATM   11  O1  UNL     1      31.819  -7.768   9.744  1.00  0.00    -0.530 OA
HETATM   12  O2  UNL     1      34.082  -7.572   9.375  1.00  0.00    -0.530 OA
ENDBRANCH   1  10
BRANCH   6  13
HETATM   13  O3  UNL     1      33.447  -5.889  15.465  1.00  0.00    -0.281 OA
ATOM     14  H3  UNL     1      34.100  -6.278  16.033  1.00  0.00     0.245 HD
ENDBRANCH   6  13
TORSDOF 2
ENDMDL
MODEL 3
REMARK VINA RESULT: -5.209175010      2.146      2.451
REMARK  2 active torsions:
REMARK  status: ('A' for Active; 'I' for Inactive)
REMARK    1  A    between atoms: N1_2  and  C1_4 
REMARK    2  A    between atoms: N3_9  and  O3_10 
ROOT
HETATM    1  C1  UNL     1      33.729  -7.394  11.442  1.00  0.00     0.216 A 
HETATM    2  N2  UNL     1      32.961  -6.645  12.258  1.00  0.00    -0.310 N 
ATOM      3  H2  UNL     1      33.218  -6.582  13.243  1.00  0.00     0.170 HD
HETATM    4  C2  UNL     1      31.871  -5.977  11.836  1.00  0.00     0.204 A 
HETATM    5  S1  UNL     1      30.956  -5.074  12.860  1.00  0.00    -0.038 SA
HETATM    6  N3  UNL     1      31.501  -6.038  10.543  1.00  0.00    -0.206 N 
HETATM    7  C3  UNL     1      32.252  -6.778   9.709  1.00  0.00     0.172 A 
HETATM    8  C4  UNL     1      33.367  -7.465  10.125  1.00  0.00     0.184 A 
HETATM    9  F1  UNL     1      34.129  -8.218   9.273  1.00  0.00    -0.200 F 
ENDROOT
BRANCH   1  10
HETATM   10  N1  UNL     1      34.872  -8.079  11.940  1.00  0.00    -0.095 N 
HETATM   11  O1  UNL     1      35.996  -7.551  11.815  1.00  0.00    -0.530 OA
HETATM   12  O2  UNL     1      34.695  -9.303  12.544  1.00  0.00    -0.530 OA
ENDBRANCH   1  10
BRANCH   6  13
HETATM   13  O3  UNL     1      30.384  -5.347  10.135  1.00  0.00    -0.281 OA
ATOM     14  H3  UNL     1      30.460  -4.419   9.948  1.00  0.00     0.245 HD
ENDBRANCH   6  13
TORSDOF 2
ENDMDL
MODEL 4
REMARK VINA RESULT: -5.187692132      1.793      2.000
REMARK  2 active torsions:
REMARK  status: ('A' for Active; 'I' for Inactive)
REMARK    1  A    between atoms: N1_2  and  C1_4 
REMARK    2  A    between atoms: N3_9  and  O3_10 
ROOT
HETATM    1  C1  UNL     1      32.985  -6.313  13.095  1.00  0.00     0.216 A 
HETATM    2  N2  UNL     1      32.301  -6.186  11.941  1.00  0.00    -0.310 N 
ATOM      3  H2  UNL     1      31.472  -5.592  11.931  1.00  0.00     0.170 HD
HETATM    4  C2  UNL     1      32.658  -6.806  10.800  1.00  0.00     0.204 A 
HETATM    5  S1  UNL     1      31.800  -6.628   9.410  1.00  0.00    -0.038 SA
HETATM    6  N3  UNL     1      33.747  -7.599  10.776  1.00  0.00    -0.206 N 
HETATM    7  C3  UNL     1      34.445  -7.741  11.914  1.00  0.00     0.172 A 
HETATM    8  C4  UNL     1      34.093  -7.116  13.086  1.00  0.00     0.184 A 
HETATM    9  F1  UNL     1      34.807  -7.263  14.244  1.00  0.00    -0.200 F 
ENDROOT
BRANCH   1  10
HETATM   10  N1  UNL     1      32.564  -5.635  14.273  1.00  0.00    -0.095 N 
HETATM   11  O1  UNL     1      31.857  -4.613  14.162  1.00  0.00    -0.530 OA
HETATM   12  O2  UNL     1      32.952  -6.135  15.495  1.00  0.00    -0.530 OA
ENDBRANCH   1  10
BRANCH   6  13
HETATM   13  O3  UNL     1      34.092  -8.221   9.599  1.00  0.00    -0.281 OA
ATOM     14  H3  UNL     1      33.403  -8.520   9.017  1.00  0.00     0.245 HD
ENDBRANCH   6  13
TORSDOF 2
ENDMDL
MODEL 5
REMARK VINA RESULT: -5.144042701      3.280      3.847
REMARK  2 active torsions:
REMARK  status: ('A' for Active; 'I' for Inactive)
REMARK    1  A    between atoms: N1_2  and  C1_4 
REMARK    2  A    between atoms: N3_9  and  O3_10 
ROOT
HETATM    1  C1  UNL     1      31.593  -5.816  11.847  1.00  0.00     0.216 A 
HETATM    2  N2  UNL     1      32.660  -6.476  12.338  1.00  0.00    -0.310 N 
ATOM      3  H2  UNL     1      32.862  -6.398  13.335  1.00  0.00     0.170 HD
HETATM    4  C2  UNL     1      33.474  -7.234  11.578  1.00  0.00     0.204 A 
HETATM    5  S1  UNL     1      34.767  -8.024  12.212  1.00  0.00    -0.038 SA
HETATM    6  N3  UNL     1      33.238  -7.359  10.258  1.00  0.00    -0.206 N 
HETATM    7  C3  UNL     1      32.180  -6.711   9.745  1.00  0.00     0.172 A 
HETATM    8  C4  UNL     1      31.341  -5.934  10.508  1.00  0.00     0.184 A 
HETATM    9  F1  UNL     1      30.264  -5.275   9.981  1.00  0.00    -0.200 F 
ENDROOT
BRANCH   1  10
HETATM   10  N1  UNL     1      30.766  -5.029  12.696  1.00  0.00    -0.095 N 
HETATM   11  O1  UNL     1      31.251  -4.020  13.246  1.00  0.00    -0.530 OA
HETATM   12  O2  UNL     1      29.456  -5.411  12.877  1.00  0.00    -0.530 OA
ENDBRANCH   1  10
BRANCH   6  13
HETATM   13  O3  UNL     1      34.082  -8.138   9.502  1.00  0.00    -0.281 OA
ATOM     14  H3  UNL     1      33.709  -8.781   8.911  1.00  0.00     0.245 HD
ENDBRANCH   6  13
TORSDOF 2
ENDMDL
