MODEL 1
REMARK VINA RESULT: -6.285976154      0.000      0.000
REMARK  18 active torsions:
REMARK  status: ('A' for Active; 'I' for Inactive)
REMARK    1  A    between atoms: C2_2  and  C3_3 
REMARK    2  A    between atoms: C2_2  and  C7_9 
REMARK    3  A    between atoms: C3_3  and  C4_4 
REMARK    4  A    between atoms: C4_4  and  O2_6 
REMARK    5  A    between atoms: O2_6  and  C5_7 
REMARK    6  A    between atoms: C7_9  and  N1_10 
REMARK    7  A    between atoms: C7_9  and  C12_24 
REMARK       I    between atoms: N1_10  and  C8_12 
REMARK    8  A    between atoms: C8_12  and  O4_14 
REMARK    9  A    between atoms: O4_14  and  C9_15 
REMARK   10  A    between atoms: C9_15  and  O5_16 
REMARK   11  A    between atoms: C9_15  and  C10_18 
REMARK   12  A    between atoms: C10_18  and  O6_19 
REMARK   13  A    between atoms: C10_18  and  C11_21 
REMARK   14  A    between atoms: C11_21  and  O7_22 
REMARK   15  A    between atoms: C12_24  and  C14_26 
REMARK   16  A    between atoms: C14_26  and  O9_28 
REMARK   17  A    between atoms: O9_28  and  C15_29 
REMARK   18  A    between atoms: C15_29  and  C16_30 
ROOT
HETATM    1  C7  UNL     1     -29.070  14.386 -17.547  1.00  0.00     0.129 C 
ENDROOT
BRANCH   1   2
HETATM    2  C2  UNL     1     -30.339  13.653 -17.107  1.00  0.00    -0.057 C 
HETATM    3  C1  UNL     1     -30.154  12.528 -16.512  1.00  0.00     0.017 C 
BRANCH   2   4
HETATM    4  C3  UNL     1     -31.623  14.290 -17.393  1.00  0.00     0.146 C 
BRANCH   4   5
HETATM    5  C4  UNL     1     -32.097  14.394 -18.772  1.00  0.00     0.262 C 
HETATM    6  O1  UNL     1     -32.328  13.450 -19.550  1.00  0.00    -0.265 OA
BRANCH   5   7
HETATM    7  O2  UNL     1     -32.334  15.670 -19.338  1.00  0.00    -0.322 OA
BRANCH   7   8
HETATM    8  C5  UNL     1     -32.089  16.816 -18.552  1.00  0.00     0.174 C 
HETATM    9  C6  UNL     1     -30.919  17.543 -19.175  1.00  0.00     0.034 C 
ENDBRANCH   7   8
ENDBRANCH   5   7
ENDBRANCH   4   5
ENDBRANCH   2   4
ENDBRANCH   1   2
BRANCH   1  10
HETATM   10  N1  UNL     1     -28.508  13.642 -18.628  1.00  0.00    -0.328 N 
HETATM   11  C8  UNL     1     -28.174  14.225 -19.898  1.00  0.00     0.363 C 
HETATM   12  O3  UNL     1     -28.367  15.456 -20.121  1.00  0.00    -0.238 OA
ATOM     13  H1  UNL     1     -28.334  12.647 -18.492  1.00  0.00     0.165 HD
BRANCH  11  14
HETATM   14  O4  UNL     1     -27.636  13.481 -20.917  1.00  0.00    -0.270 OA
BRANCH  14  15
HETATM   15  C9  UNL     1     -26.453  13.769 -21.610  1.00  0.00     0.298 C 
BRANCH  15  16
HETATM   16  O5  UNL     1     -25.803  14.906 -21.083  1.00  0.00    -0.368 OA
ATOM     17  H5  UNL     1     -24.946  14.691 -20.734  1.00  0.00     0.212 HD
ENDBRANCH  15  16
BRANCH  15  18
HETATM   18  C10 UNL     1     -25.500  12.605 -21.373  1.00  0.00     0.197 C 
BRANCH  18  19
HETATM   19  O6  UNL     1     -25.246  11.892 -22.542  1.00  0.00    -0.388 OA
ATOM     20  H6  UNL     1     -24.445  11.384 -22.483  1.00  0.00     0.210 HD
ENDBRANCH  18  19
BRANCH  18  21
HETATM   21  C11 UNL     1     -26.067  11.657 -20.322  1.00  0.00     0.200 C 
BRANCH  21  22
HETATM   22  O7  UNL     1     -26.755  10.614 -20.932  1.00  0.00    -0.398 OA
ATOM     23  H7  UNL     1     -27.019  10.862 -21.810  1.00  0.00     0.209 HD
ENDBRANCH  21  22
ENDBRANCH  18  21
ENDBRANCH  15  18
ENDBRANCH  14  15
ENDBRANCH  11  14
ENDBRANCH   1  10
BRANCH   1  24
HETATM   24  C12 UNL     1     -28.139  14.578 -16.391  1.00  0.00     0.108 C 
HETATM   25  C13 UNL     1     -26.762  14.046 -16.723  1.00  0.00     0.023 C 
BRANCH  24  26
HETATM   26  C14 UNL     1     -28.026  16.017 -15.997  1.00  0.00     0.265 C 
HETATM   27  O8  UNL     1     -27.005  16.403 -15.382  1.00  0.00    -0.265 OA
BRANCH  26  28
HETATM   28  O9  UNL     1     -28.990  16.941 -16.276  1.00  0.00    -0.321 OA
BRANCH  28  29
HETATM   29  C15 UNL     1     -29.042  18.286 -15.891  1.00  0.00     0.182 C 
BRANCH  29  30
HETATM   30  C16 UNL     1     -30.300  18.557 -15.143  1.00  0.00     0.002 C 
HETATM   31  C17 UNL     1     -31.147  17.310 -14.964  1.00  0.00     0.011 C 
HETATM   32  C18 UNL     1     -31.112  19.540 -15.962  1.00  0.00     0.011 C 
ENDBRANCH  29  30
ENDBRANCH  28  29
ENDBRANCH  26  28
ENDBRANCH  24  26
ENDBRANCH   1  24
TORSDOF 18
ENDMDL
MODEL 2
REMARK VINA RESULT: -6.274037277      1.913      4.414
REMARK  18 active torsions:
REMARK  status: ('A' for Active; 'I' for Inactive)
REMARK    1  A    between atoms: C2_2  and  C3_3 
REMARK    2  A    between atoms: C2_2  and  C7_9 
REMARK    3  A    between atoms: C3_3  and  C4_4 
REMARK    4  A    between atoms: C4_4  and  O2_6 
REMARK    5  A    between atoms: O2_6  and  C5_7 
REMARK    6  A    between atoms: C7_9  and  N1_10 
REMARK    7  A    between atoms: C7_9  and  C12_24 
REMARK       I    between atoms: N1_10  and  C8_12 
REMARK    8  A    between atoms: C8_12  and  O4_14 
REMARK    9  A    between atoms: O4_14  and  C9_15 
REMARK   10  A    between atoms: C9_15  and  O5_16 
REMARK   11  A    between atoms: C9_15  and  C10_18 
REMARK   12  A    between atoms: C10_18  and  O6_19 
REMARK   13  A    between atoms: C10_18  and  C11_21 
REMARK   14  A    between atoms: C11_21  and  O7_22 
REMARK   15  A    between atoms: C12_24  and  C14_26 
REMARK   16  A    between atoms: C14_26  and  O9_28 
REMARK   17  A    between atoms: O9_28  and  C15_29 
REMARK   18  A    between atoms: C15_29  and  C16_30 
ROOT
HETATM    1  C7  UNL     1     -29.234  15.102 -17.575  1.00  0.00     0.129 C 
ENDROOT
BRANCH   1   2
HETATM    2  C2  UNL     1     -28.101  15.481 -16.620  1.00  0.00    -0.057 C 
HETATM    3  C1  UNL     1     -28.375  16.406 -15.769  1.00  0.00     0.017 C 
BRANCH   2   4
HETATM    4  C3  UNL     1     -26.833  14.766 -16.754  1.00  0.00     0.146 C 
BRANCH   4   5
HETATM    5  C4  UNL     1     -26.502  13.685 -15.828  1.00  0.00     0.262 C 
HETATM    6  O1  UNL     1     -25.448  13.563 -15.178  1.00  0.00    -0.265 OA
BRANCH   5   7
HETATM    7  O2  UNL     1     -27.433  12.641 -15.607  1.00  0.00    -0.322 OA
BRANCH   7   8
HETATM    8  C5  UNL     1     -28.082  12.566 -14.357  1.00  0.00     0.174 C 
HETATM    9  C6  UNL     1     -29.565  12.711 -14.614  1.00  0.00     0.034 C 
ENDBRANCH   7   8
ENDBRANCH   5   7
ENDBRANCH   4   5
ENDBRANCH   2   4
ENDBRANCH   1   2
BRANCH   1  10
HETATM   10  N1  UNL     1     -28.654  14.346 -18.638  1.00  0.00    -0.328 N 
HETATM   11  C8  UNL     1     -28.983  12.973 -18.901  1.00  0.00     0.363 C 
HETATM   12  O3  UNL     1     -29.825  12.355 -18.185  1.00  0.00    -0.238 OA
ATOM     13  H1  UNL     1     -27.972  14.804 -19.241  1.00  0.00     0.165 HD
BRANCH  11  14
HETATM   14  O4  UNL     1     -28.405  12.274 -19.930  1.00  0.00    -0.270 OA
BRANCH  14  15
HETATM   15  C9  UNL     1     -27.038  12.010 -20.080  1.00  0.00     0.298 C 
BRANCH  15  16
HETATM   16  O5  UNL     1     -26.812  10.796 -20.765  1.00  0.00    -0.368 OA
ATOM     17  H5  UNL     1     -26.001  10.817 -21.260  1.00  0.00     0.212 HD
ENDBRANCH  15  16
BRANCH  15  18
HETATM   18  C10 UNL     1     -26.466  13.099 -20.978  1.00  0.00     0.197 C 
BRANCH  18  19
HETATM   19  O6  UNL     1     -27.353  13.462 -21.988  1.00  0.00    -0.388 OA
ATOM     20  H6  UNL     1     -27.363  14.401 -22.134  1.00  0.00     0.210 HD
ENDBRANCH  18  19
BRANCH  18  21
HETATM   21  C11 UNL     1     -25.155  12.639 -21.605  1.00  0.00     0.200 C 
BRANCH  21  22
HETATM   22  O7  UNL     1     -25.401  11.925 -22.772  1.00  0.00    -0.398 OA
ATOM     23  H7  UNL     1     -25.099  12.414 -23.529  1.00  0.00     0.209 HD
ENDBRANCH  21  22
ENDBRANCH  18  21
ENDBRANCH  15  18
ENDBRANCH  14  15
ENDBRANCH  11  14
ENDBRANCH   1  10
BRANCH   1  24
HETATM   24  C12 UNL     1     -29.977  16.319 -18.028  1.00  0.00     0.108 C 
HETATM   25  C13 UNL     1     -29.346  16.894 -19.278  1.00  0.00     0.023 C 
BRANCH  24  26
HETATM   26  C14 UNL     1     -31.419  16.027 -18.300  1.00  0.00     0.265 C 
HETATM   27  O8  UNL     1     -31.722  15.271 -19.251  1.00  0.00    -0.265 OA
BRANCH  26  28
HETATM   28  O9  UNL     1     -32.435  16.548 -17.553  1.00  0.00    -0.321 OA
BRANCH  28  29
HETATM   29  C15 UNL     1     -33.276  15.891 -16.648  1.00  0.00     0.182 C 
BRANCH  29  30
HETATM   30  C16 UNL     1     -32.496  14.911 -15.842  1.00  0.00     0.002 C 
HETATM   31  C17 UNL     1     -33.357  13.777 -15.317  1.00  0.00     0.011 C 
HETATM   32  C18 UNL     1     -31.942  15.651 -14.641  1.00  0.00     0.011 C 
ENDBRANCH  29  30
ENDBRANCH  28  29
ENDBRANCH  26  28
ENDBRANCH  24  26
ENDBRANCH   1  24
TORSDOF 18
ENDMDL
MODEL 3
REMARK VINA RESULT: -6.213448111      1.764      4.168
REMARK  18 active torsions:
REMARK  status: ('A' for Active; 'I' for Inactive)
REMARK    1  A    between atoms: C2_2  and  C3_3 
REMARK    2  A    between atoms: C2_2  and  C7_9 
REMARK    3  A    between atoms: C3_3  and  C4_4 
REMARK    4  A    between atoms: C4_4  and  O2_6 
REMARK    5  A    between atoms: O2_6  and  C5_7 
REMARK    6  A    between atoms: C7_9  and  N1_10 
REMARK    7  A    between atoms: C7_9  and  C12_24 
REMARK       I    between atoms: N1_10  and  C8_12 
REMARK    8  A    between atoms: C8_12  and  O4_14 
REMARK    9  A    between atoms: O4_14  and  C9_15 
REMARK   10  A    between atoms: C9_15  and  O5_16 
REMARK   11  A    between atoms: C9_15  and  C10_18 
REMARK   12  A    between atoms: C10_18  and  O6_19 
REMARK   13  A    between atoms: C10_18  and  C11_21 
REMARK   14  A    between atoms: C11_21  and  O7_22 
REMARK   15  A    between atoms: C12_24  and  C14_26 
REMARK   16  A    between atoms: C14_26  and  O9_28 
REMARK   17  A    between atoms: O9_28  and  C15_29 
REMARK   18  A    between atoms: C15_29  and  C16_30 
ROOT
HETATM    1  C7  UNL     1     -29.309  15.181 -17.863  1.00  0.00     0.129 C 
ENDROOT
BRANCH   1   2
HETATM    2  C2  UNL     1     -28.260  15.456 -16.785  1.00  0.00    -0.057 C 
HETATM    3  C1  UNL     1     -28.585  16.333 -15.902  1.00  0.00     0.017 C 
BRANCH   2   4
HETATM    4  C3  UNL     1     -27.006  14.707 -16.851  1.00  0.00     0.146 C 
BRANCH   4   5
HETATM    5  C4  UNL     1     -26.788  13.568 -15.961  1.00  0.00     0.262 C 
HETATM    6  O1  UNL     1     -25.705  13.216 -15.460  1.00  0.00    -0.265 OA
BRANCH   5   7
HETATM    7  O2  UNL     1     -27.880  12.744 -15.596  1.00  0.00    -0.322 OA
BRANCH   7   8
HETATM    8  C5  UNL     1     -28.260  12.683 -14.238  1.00  0.00     0.174 C 
HETATM    9  C6  UNL     1     -29.696  13.149 -14.154  1.00  0.00     0.034 C 
ENDBRANCH   7   8
ENDBRANCH   5   7
ENDBRANCH   4   5
ENDBRANCH   2   4
ENDBRANCH   1   2
BRANCH   1  10
HETATM   10  N1  UNL     1     -28.686  14.371 -18.860  1.00  0.00    -0.328 N 
HETATM   11  C8  UNL     1     -28.979  12.978 -19.043  1.00  0.00     0.363 C 
HETATM   12  O3  UNL     1     -29.827  12.388 -18.310  1.00  0.00    -0.238 OA
ATOM     13  H1  UNL     1     -27.997  14.805 -19.475  1.00  0.00     0.165 HD
BRANCH  11  14
HETATM   14  O4  UNL     1     -28.361  12.228 -20.011  1.00  0.00    -0.270 OA
BRANCH  14  15
HETATM   15  C9  UNL     1     -26.995  11.922 -20.067  1.00  0.00     0.298 C 
BRANCH  15  16
HETATM   16  O5  UNL     1     -26.756  10.725 -20.778  1.00  0.00    -0.368 OA
ATOM     17  H5  UNL     1     -26.099  10.843 -21.453  1.00  0.00     0.212 HD
ENDBRANCH  15  16
BRANCH  15  18
HETATM   18  C10 UNL     1     -26.322  13.021 -20.878  1.00  0.00     0.197 C 
BRANCH  18  19
HETATM   19  O6  UNL     1     -27.174  13.553 -21.843  1.00  0.00    -0.388 OA
ATOM     20  H6  UNL     1     -28.088  13.393 -21.638  1.00  0.00     0.210 HD
ENDBRANCH  18  19
BRANCH  18  21
HETATM   21  C11 UNL     1     -25.066  12.488 -21.560  1.00  0.00     0.200 C 
BRANCH  21  22
HETATM   22  O7  UNL     1     -25.388  11.910 -22.782  1.00  0.00    -0.398 OA
ATOM     23  H7  UNL     1     -25.140  12.486 -23.496  1.00  0.00     0.209 HD
ENDBRANCH  21  22
ENDBRANCH  18  21
ENDBRANCH  15  18
ENDBRANCH  14  15
ENDBRANCH  11  14
ENDBRANCH   1  10
BRANCH   1  24
HETATM   24  C12 UNL     1     -29.881  16.460 -18.388  1.00  0.00     0.108 C 
HETATM   25  C13 UNL     1     -29.098  16.941 -19.590  1.00  0.00     0.023 C 
BRANCH  24  26
HETATM   26  C14 UNL     1     -31.321  16.315 -18.769  1.00  0.00     0.265 C 
HETATM   27  O8  UNL     1     -31.736  15.208 -19.183  1.00  0.00    -0.265 OA
BRANCH  26  28
HETATM   28  O9  UNL     1     -32.217  17.341 -18.686  1.00  0.00    -0.321 OA
BRANCH  28  29
HETATM   29  C15 UNL     1     -32.783  17.911 -17.541  1.00  0.00     0.182 C 
BRANCH  29  30
HETATM   30  C16 UNL     1     -32.018  19.123 -17.138  1.00  0.00     0.002 C 
HETATM   31  C17 UNL     1     -31.318  18.949 -15.802  1.00  0.00     0.011 C 
HETATM   32  C18 UNL     1     -33.011  20.257 -16.983  1.00  0.00     0.011 C 
ENDBRANCH  29  30
ENDBRANCH  28  29
ENDBRANCH  26  28
ENDBRANCH  24  26
ENDBRANCH   1  24
TORSDOF 18
ENDMDL
MODEL 4
REMARK VINA RESULT: -6.202633833      1.776      3.267
REMARK  18 active torsions:
REMARK  status: ('A' for Active; 'I' for Inactive)
REMARK    1  A    between atoms: C2_2  and  C3_3 
REMARK    2  A    between atoms: C2_2  and  C7_9 
REMARK    3  A    between atoms: C3_3  and  C4_4 
REMARK    4  A    between atoms: C4_4  and  O2_6 
REMARK    5  A    between atoms: O2_6  and  C5_7 
REMARK    6  A    between atoms: C7_9  and  N1_10 
REMARK    7  A    between atoms: C7_9  and  C12_24 
REMARK       I    between atoms: N1_10  and  C8_12 
REMARK    8  A    between atoms: C8_12  and  O4_14 
REMARK    9  A    between atoms: O4_14  and  C9_15 
REMARK   10  A    between atoms: C9_15  and  O5_16 
REMARK   11  A    between atoms: C9_15  and  C10_18 
REMARK   12  A    between atoms: C10_18  and  O6_19 
REMARK   13  A    between atoms: C10_18  and  C11_21 
REMARK   14  A    between atoms: C11_21  and  O7_22 
REMARK   15  A    between atoms: C12_24  and  C14_26 
REMARK   16  A    between atoms: C14_26  and  O9_28 
REMARK   17  A    between atoms: O9_28  and  C15_29 
REMARK   18  A    between atoms: C15_29  and  C16_30 
ROOT
HETATM    1  C7  UNL     1     -28.464  14.218 -17.260  1.00  0.00     0.129 C 
ENDROOT
BRANCH   1   2
HETATM    2  C2  UNL     1     -29.904  13.805 -16.954  1.00  0.00    -0.057 C 
HETATM    3  C1  UNL     1     -30.052  12.631 -16.451  1.00  0.00     0.017 C 
BRANCH   2   4
HETATM    4  C3  UNL     1     -30.964  14.769 -17.249  1.00  0.00     0.146 C 
BRANCH   4   5
HETATM    5  C4  UNL     1     -31.543  14.829 -18.590  1.00  0.00     0.262 C 
HETATM    6  O1  UNL     1     -32.013  13.877 -19.238  1.00  0.00    -0.265 OA
BRANCH   5   7
HETATM    7  O2  UNL     1     -31.604  16.069 -19.272  1.00  0.00    -0.322 OA
BRANCH   7   8
HETATM    8  C5  UNL     1     -30.958  17.187 -18.705  1.00  0.00     0.174 C 
HETATM    9  C6  UNL     1     -32.035  18.175 -18.316  1.00  0.00     0.034 C 
ENDBRANCH   7   8
ENDBRANCH   5   7
ENDBRANCH   4   5
ENDBRANCH   2   4
ENDBRANCH   1   2
BRANCH   1  10
HETATM   10  N1  UNL     1     -28.074  13.534 -18.451  1.00  0.00    -0.328 N 
HETATM   11  C8  UNL     1     -27.990  14.171 -19.735  1.00  0.00     0.363 C 
HETATM   12  O3  UNL     1     -28.264  15.399 -19.874  1.00  0.00    -0.238 OA
ATOM     13  H1  UNL     1     -27.842  12.543 -18.386  1.00  0.00     0.165 HD
BRANCH  11  14
HETATM   14  O4  UNL     1     -27.613  13.483 -20.861  1.00  0.00    -0.270 OA
BRANCH  14  15
HETATM   15  C9  UNL     1     -26.492  13.756 -21.654  1.00  0.00     0.298 C 
BRANCH  15  16
HETATM   16  O5  UNL     1     -25.815  14.916 -21.221  1.00  0.00    -0.368 OA
ATOM     17  H5  UNL     1     -25.447  15.402 -21.950  1.00  0.00     0.212 HD
ENDBRANCH  15  16
BRANCH  15  18
HETATM   18  C10 UNL     1     -25.510  12.610 -21.453  1.00  0.00     0.197 C 
BRANCH  18  19
HETATM   19  O6  UNL     1     -25.292  11.896 -22.628  1.00  0.00    -0.388 OA
ATOM     20  H6  UNL     1     -24.657  11.199 -22.510  1.00  0.00     0.210 HD
ENDBRANCH  18  19
BRANCH  18  21
HETATM   21  C11 UNL     1     -26.017  11.656 -20.376  1.00  0.00     0.200 C 
BRANCH  21  22
HETATM   22  O7  UNL     1     -26.789  10.650 -20.946  1.00  0.00    -0.398 OA
ATOM     23  H7  UNL     1     -26.996   9.986 -20.299  1.00  0.00     0.209 HD
ENDBRANCH  21  22
ENDBRANCH  18  21
ENDBRANCH  15  18
ENDBRANCH  14  15
ENDBRANCH  11  14
ENDBRANCH   1  10
BRANCH   1  24
HETATM   24  C12 UNL     1     -27.574  13.954 -16.087  1.00  0.00     0.108 C 
HETATM   25  C13 UNL     1     -26.521  12.925 -16.438  1.00  0.00     0.023 C 
BRANCH  24  26
HETATM   26  C14 UNL     1     -26.899  15.198 -15.603  1.00  0.00     0.265 C 
HETATM   27  O8  UNL     1     -27.583  16.229 -15.410  1.00  0.00    -0.265 OA
BRANCH  26  28
HETATM   28  O9  UNL     1     -25.558  15.268 -15.358  1.00  0.00    -0.321 OA
BRANCH  28  29
HETATM   29  C15 UNL     1     -24.880  15.030 -14.157  1.00  0.00     0.182 C 
BRANCH  29  30
HETATM   30  C16 UNL     1     -23.522  14.486 -14.434  1.00  0.00     0.002 C 
HETATM   31  C17 UNL     1     -23.462  12.977 -14.286  1.00  0.00     0.011 C 
HETATM   32  C18 UNL     1     -22.578  15.079 -13.407  1.00  0.00     0.011 C 
ENDBRANCH  29  30
ENDBRANCH  28  29
ENDBRANCH  26  28
ENDBRANCH  24  26
ENDBRANCH   1  24
TORSDOF 18
ENDMDL
MODEL 5
REMARK VINA RESULT: -6.181316351      2.090      3.882
REMARK  18 active torsions:
REMARK  status: ('A' for Active; 'I' for Inactive)
REMARK    1  A    between atoms: C2_2  and  C3_3 
REMARK    2  A    between atoms: C2_2  and  C7_9 
REMARK    3  A    between atoms: C3_3  and  C4_4 
REMARK    4  A    between atoms: C4_4  and  O2_6 
REMARK    5  A    between atoms: O2_6  and  C5_7 
REMARK    6  A    between atoms: C7_9  and  N1_10 
REMARK    7  A    between atoms: C7_9  and  C12_24 
REMARK       I    between atoms: N1_10  and  C8_12 
REMARK    8  A    between atoms: C8_12  and  O4_14 
REMARK    9  A    between atoms: O4_14  and  C9_15 
REMARK   10  A    between atoms: C9_15  and  O5_16 
REMARK   11  A    between atoms: C9_15  and  C10_18 
REMARK   12  A    between atoms: C10_18  and  O6_19 
REMARK   13  A    between atoms: C10_18  and  C11_21 
REMARK   14  A    between atoms: C11_21  and  O7_22 
REMARK   15  A    between atoms: C12_24  and  C14_26 
REMARK   16  A    between atoms: C14_26  and  O9_28 
REMARK   17  A    between atoms: O9_28  and  C15_29 
REMARK   18  A    between atoms: C15_29  and  C16_30 
ROOT
HETATM    1  C7  UNL     1     -29.384  15.003 -18.063  1.00  0.00     0.129 C 
ENDROOT
BRANCH   1   2
HETATM    2  C2  UNL     1     -29.202  14.762 -16.564  1.00  0.00    -0.057 C 
HETATM    3  C1  UNL     1     -29.262  15.810 -15.820  1.00  0.00     0.017 C 
BRANCH   2   4
HETATM    4  C3  UNL     1     -28.985  13.387 -16.119  1.00  0.00     0.146 C 
BRANCH   4   5
HETATM    5  C4  UNL     1     -29.903  12.330 -16.540  1.00  0.00     0.262 C 
HETATM    6  O1  UNL     1     -29.926  11.766 -17.649  1.00  0.00    -0.265 OA
BRANCH   5   7
HETATM    7  O2  UNL     1     -30.888  11.856 -15.638  1.00  0.00    -0.322 OA
BRANCH   7   8
HETATM    8  C5  UNL     1     -30.475  11.120 -14.508  1.00  0.00     0.174 C 
HETATM    9  C6  UNL     1     -31.462  11.410 -13.401  1.00  0.00     0.034 C 
ENDBRANCH   7   8
ENDBRANCH   5   7
ENDBRANCH   4   5
ENDBRANCH   2   4
ENDBRANCH   1   2
BRANCH   1  10
HETATM   10  N1  UNL     1     -28.087  14.953 -18.658  1.00  0.00    -0.328 N 
HETATM   11  C8  UNL     1     -27.740  14.049 -19.719  1.00  0.00     0.363 C 
HETATM   12  O3  UNL     1     -28.591  13.237 -20.189  1.00  0.00    -0.238 OA
ATOM     13  H1  UNL     1     -27.371  15.590 -18.313  1.00  0.00     0.165 HD
BRANCH  11  14
HETATM   14  O4  UNL     1     -26.484  14.025 -20.268  1.00  0.00    -0.270 OA
BRANCH  14  15
HETATM   15  C9  UNL     1     -26.171  13.698 -21.594  1.00  0.00     0.298 C 
BRANCH  15  16
HETATM   16  O5  UNL     1     -25.431  14.723 -22.224  1.00  0.00    -0.368 OA
ATOM     17  H5  UNL     1     -25.842  15.572 -22.113  1.00  0.00     0.212 HD
ENDBRANCH  15  16
BRANCH  15  18
HETATM   18  C10 UNL     1     -25.244  12.491 -21.552  1.00  0.00     0.197 C 
BRANCH  18  19
HETATM   19  O6  UNL     1     -25.235  11.799 -22.761  1.00  0.00    -0.388 OA
ATOM     20  H6  UNL     1     -25.218  10.857 -22.632  1.00  0.00     0.210 HD
ENDBRANCH  18  19
BRANCH  18  21
HETATM   21  C11 UNL     1     -25.658  11.539 -20.435  1.00  0.00     0.200 C 
BRANCH  21  22
HETATM   22  O7  UNL     1     -26.814  10.853 -20.787  1.00  0.00    -0.398 OA
ATOM     23  H7  UNL     1     -26.596  10.005 -21.156  1.00  0.00     0.209 HD
ENDBRANCH  21  22
ENDBRANCH  18  21
ENDBRANCH  15  18
ENDBRANCH  14  15
ENDBRANCH  11  14
ENDBRANCH   1  10
BRANCH   1  24
HETATM   24  C12 UNL     1     -30.118  16.283 -18.311  1.00  0.00     0.108 C 
HETATM   25  C13 UNL     1     -29.420  17.100 -19.376  1.00  0.00     0.023 C 
BRANCH  24  26
HETATM   26  C14 UNL     1     -31.535  16.045 -18.727  1.00  0.00     0.265 C 
HETATM   27  O8  UNL     1     -32.098  16.872 -19.481  1.00  0.00    -0.265 OA
BRANCH  26  28
HETATM   28  O9  UNL     1     -32.255  14.959 -18.322  1.00  0.00    -0.321 OA
BRANCH  28  29
HETATM   29  C15 UNL     1     -33.357  14.918 -17.460  1.00  0.00     0.182 C 
BRANCH  29  30
HETATM   30  C16 UNL     1     -32.905  14.687 -16.061  1.00  0.00     0.002 C 
HETATM   31  C17 UNL     1     -33.828  13.752 -15.301  1.00  0.00     0.011 C 
HETATM   32  C18 UNL     1     -32.933  16.025 -15.348  1.00  0.00     0.011 C 
ENDBRANCH  29  30
ENDBRANCH  28  29
ENDBRANCH  26  28
ENDBRANCH  24  26
ENDBRANCH   1  24
TORSDOF 18
ENDMDL
