MODEL 1
REMARK VINA RESULT: -6.406807800      0.000      0.000
REMARK  3 active torsions:
REMARK  status: ('A' for Active; 'I' for Inactive)
REMARK    1  A    between atoms: N6_19  and  C10_20 
REMARK    2  A    between atoms: C10_20  and  C11_21 
REMARK    3  A    between atoms: C11_21  and  O1_22 
ROOT
HETATM    1  C1  UNL     1      -0.450 -11.742  13.203  1.00  0.00     0.143 C 
HETATM    2  N1  UNL     1      -1.614 -11.706  12.367  1.00  0.00    -0.415 N 
HETATM    3  C2  UNL     1      -2.777 -11.136  12.959  1.00  0.00     0.136 C 
HETATM    4  C3  UNL     1      -4.013 -12.034  12.813  1.00  0.00     0.141 C 
HETATM    5  N2  UNL     1      -4.105 -12.855  13.984  1.00  0.00    -0.363 N 
ATOM      6  H2  UNL     1      -3.334 -13.502  14.148  1.00  0.00     0.162 HD
HETATM    7  C4  UNL     1      -5.054 -12.866  14.851  1.00  0.00     0.184 C 
HETATM    8  N3  UNL     1      -4.846 -13.822  15.928  1.00  0.00    -0.064 NA
HETATM    9  N4  UNL     1      -6.214 -12.056  14.821  1.00  0.00    -0.363 N 
ATOM     10  H4  UNL     1      -7.110 -12.544  14.808  1.00  0.00     0.162 HD
HETATM   11  C5  UNL     1      -6.265 -10.622  14.808  1.00  0.00     0.150 C 
HETATM   12  C6  UNL     1      -7.340 -10.045  13.949  1.00  0.00     0.251 C 
HETATM   13  N5  UNL     1      -8.333 -11.014  13.540  1.00  0.00    -0.074 N 
ATOM     14  H51 UNL     1      -8.458 -11.729  14.257  1.00  0.00     0.277 HD
ATOM     15  H52 UNL     1      -7.980 -11.597  12.781  1.00  0.00     0.277 HD
HETATM   16  C7  UNL     1      -9.600 -10.416  13.184  1.00  0.00     0.234 C 
HETATM   17  C8  UNL     1      -9.493  -9.068  12.554  1.00  0.00     0.057 C 
HETATM   18  C9  UNL     1      -9.992  -9.120  11.124  1.00  0.00     0.274 C 
HETATM   19  N6  UNL     1     -10.687  -7.899  10.763  1.00  0.00     0.092 N 
HETATM   20  C12 UNL     1     -10.208  -7.461   9.492  1.00  0.00     0.298 C 
HETATM   21  C13 UNL     1     -10.617  -8.300   8.333  1.00  0.00     0.198 C 
HETATM   22  O2  UNL     1      -9.480  -8.658   7.595  1.00  0.00    -0.388 OA
HETATM   23  C14 UNL     1      -8.836  -7.522   7.139  1.00  0.00     0.195 C 
HETATM   24  C15 UNL     1      -9.104  -7.292   5.669  1.00  0.00     0.258 C 
HETATM   25  N7  UNL     1      -7.957  -6.683   5.059  1.00  0.00    -0.073 N 
ATOM     26  H71 UNL     1      -7.184  -6.586   5.717  1.00  0.00     0.277 HD
ATOM     27  H72 UNL     1      -8.114  -5.694   4.861  1.00  0.00     0.277 HD
HETATM   28  C16 UNL     1      -7.567  -7.412   3.873  1.00  0.00     0.234 C 
HETATM   29  C17 UNL     1      -6.095  -7.772   3.940  1.00  0.00     0.047 C 
HETATM   30  C18 UNL     1      -5.899  -8.793   5.051  1.00  0.00     0.121 C 
HETATM   31  N8  UNL     1      -4.937  -9.822   4.536  1.00  0.00    -0.390 N 
ATOM     32  H8  UNL     1      -5.087 -10.287   3.642  1.00  0.00     0.159 HD
HETATM   33  C19 UNL     1      -3.803 -10.123   5.348  1.00  0.00     0.027 A 
HETATM   34  C20 UNL     1      -3.797 -11.106   6.313  1.00  0.00     0.029 A 
HETATM   35  C21 UNL     1      -2.662 -11.408   7.135  1.00  0.00     0.011 A 
HETATM   36  C22 UNL     1      -1.471 -10.732   7.025  1.00  0.00    -0.040 A 
HETATM   37  C23 UNL     1      -1.456  -9.747   6.071  1.00  0.00     0.011 A 
HETATM   38  C24 UNL     1      -2.602  -9.456   5.255  1.00  0.00     0.029 A 
HETATM   39  C25 UNL     1      -0.273 -11.018   7.856  1.00  0.00     0.161 C 
HETATM   40  N9  UNL     1       0.140  -9.978   8.789  1.00  0.00    -0.357 N 
ATOM     41  H9  UNL     1       1.127  -9.719   8.784  1.00  0.00     0.162 HD
HETATM   42  C26 UNL     1      -0.685  -9.306   9.687  1.00  0.00     0.219 C 
HETATM   43  O3  UNL     1      -0.678  -8.019   9.701  1.00  0.00    -0.274 OA
HETATM   44  C27 UNL     1      -1.619  -9.906  10.678  1.00  0.00     0.122 C 
HETATM   45  C28 UNL     1      -1.332 -11.328  11.018  1.00  0.00     0.125 C 
ENDROOT
BRANCH  19  46
HETATM   46  C10 UNL     1     -12.122  -8.069  10.818  1.00  0.00     0.298 C 
BRANCH  46  47
HETATM   47  C11 UNL     1     -12.809  -6.793  11.275  1.00  0.00     0.194 C 
BRANCH  47  48
HETATM   48  O1  UNL     1     -13.335  -6.087  10.196  1.00  0.00    -0.399 OA
ATOM     49  H1  UNL     1     -13.909  -5.388  10.487  1.00  0.00     0.209 HD
ENDBRANCH  47  48
ENDBRANCH  46  47
ENDBRANCH  19  46
TORSDOF 3
ENDMDL
MODEL 2
REMARK VINA RESULT: -6.199617321      3.167      8.142
REMARK  3 active torsions:
REMARK  status: ('A' for Active; 'I' for Inactive)
REMARK    1  A    between atoms: N6_19  and  C10_20 
REMARK    2  A    between atoms: C10_20  and  C11_21 
REMARK    3  A    between atoms: C11_21  and  O1_22 
ROOT
HETATM    1  C1  UNL     1      -3.459 -14.620   8.303  1.00  0.00     0.143 C 
HETATM    2  N1  UNL     1      -4.103 -13.382   8.631  1.00  0.00    -0.415 N 
HETATM    3  C2  UNL     1      -4.667 -12.675   7.532  1.00  0.00     0.136 C 
HETATM    4  C3  UNL     1      -4.232 -11.203   7.493  1.00  0.00     0.141 C 
HETATM    5  N2  UNL     1      -3.070 -11.105   6.659  1.00  0.00    -0.363 N 
ATOM      6  H2  UNL     1      -2.242 -11.612   6.972  1.00  0.00     0.162 HD
HETATM    7  C4  UNL     1      -2.958 -10.449   5.560  1.00  0.00     0.184 C 
HETATM    8  N3  UNL     1      -1.638 -10.553   4.953  1.00  0.00    -0.064 NA
HETATM    9  N4  UNL     1      -3.975  -9.682   4.944  1.00  0.00    -0.363 N 
ATOM     10  H4  UNL     1      -3.768  -8.695   4.786  1.00  0.00     0.162 HD
HETATM   11  C5  UNL     1      -5.265 -10.143   4.518  1.00  0.00     0.150 C 
HETATM   12  C6  UNL     1      -6.377  -9.172   4.738  1.00  0.00     0.251 C 
HETATM   13  N5  UNL     1      -5.921  -7.833   5.040  1.00  0.00    -0.074 N 
ATOM     14  H51 UNL     1      -5.039  -7.635   4.568  1.00  0.00     0.277 HD
ATOM     15  H52 UNL     1      -5.612  -7.764   6.010  1.00  0.00     0.277 HD
HETATM   16  C7  UNL     1      -6.903  -6.815   4.740  1.00  0.00     0.234 C 
HETATM   17  C8  UNL     1      -8.319  -7.242   4.943  1.00  0.00     0.057 C 
HETATM   18  C9  UNL     1      -8.952  -6.434   6.057  1.00  0.00     0.274 C 
HETATM   19  N6  UNL     1     -10.347  -6.154   5.778  1.00  0.00     0.092 N 
HETATM   20  C12 UNL     1     -11.112  -6.441   6.948  1.00  0.00     0.298 C 
HETATM   21  C13 UNL     1     -10.920  -5.498   8.084  1.00  0.00     0.198 C 
HETATM   22  O2  UNL     1     -10.608  -6.223   9.242  1.00  0.00    -0.388 OA
HETATM   23  C14 UNL     1     -11.634  -7.101   9.540  1.00  0.00     0.195 C 
HETATM   24  C15 UNL     1     -12.476  -6.592  10.687  1.00  0.00     0.258 C 
HETATM   25  N7  UNL     1     -12.971  -7.700  11.452  1.00  0.00    -0.073 N 
ATOM     26  H71 UNL     1     -12.610  -8.590  11.108  1.00  0.00     0.277 HD
ATOM     27  H72 UNL     1     -13.964  -7.863  11.283  1.00  0.00     0.277 HD
HETATM   28  C16 UNL     1     -12.689  -7.513  12.858  1.00  0.00     0.234 C 
HETATM   29  C17 UNL     1     -11.979  -8.731  13.416  1.00  0.00     0.047 C 
HETATM   30  C18 UNL     1     -10.593  -8.808  12.795  1.00  0.00     0.121 C 
HETATM   31  N8  UNL     1      -9.642  -9.191  13.891  1.00  0.00    -0.390 N 
ATOM     32  H8  UNL     1      -9.614  -8.677  14.771  1.00  0.00     0.159 HD
HETATM   33  C19 UNL     1      -8.779 -10.301  13.652  1.00  0.00     0.027 A 
HETATM   34  C20 UNL     1      -7.530 -10.186  13.083  1.00  0.00     0.029 A 
HETATM   35  C21 UNL     1      -6.662 -11.299  12.836  1.00  0.00     0.011 A 
HETATM   36  C22 UNL     1      -7.011 -12.591  13.151  1.00  0.00    -0.040 A 
HETATM   37  C23 UNL     1      -8.252 -12.728  13.717  1.00  0.00     0.011 A 
HETATM   38  C24 UNL     1      -9.110 -11.601  13.959  1.00  0.00     0.029 A 
HETATM   39  C25 UNL     1      -6.137 -13.769  12.913  1.00  0.00     0.161 C 
HETATM   40  N9  UNL     1      -6.595 -14.734  11.922  1.00  0.00    -0.357 N 
ATOM     41  H9  UNL     1      -6.583 -15.717  12.195  1.00  0.00     0.162 HD
HETATM   42  C26 UNL     1      -7.047 -14.440  10.638  1.00  0.00     0.219 C 
HETATM   43  O3  UNL     1      -8.181 -14.907  10.250  1.00  0.00    -0.274 OA
HETATM   44  C27 UNL     1      -6.359 -13.617   9.605  1.00  0.00     0.122 C 
HETATM   45  C28 UNL     1      -4.894 -13.452   9.819  1.00  0.00     0.125 C 
ENDROOT
BRANCH  19  46
HETATM   46  C10 UNL     1     -10.530  -4.809   5.278  1.00  0.00     0.298 C 
BRANCH  46  47
HETATM   47  C11 UNL     1     -10.134  -4.708   3.814  1.00  0.00     0.194 C 
BRANCH  47  48
HETATM   48  O1  UNL     1     -10.771  -5.684   3.051  1.00  0.00    -0.399 OA
ATOM     49  H1  UNL     1     -10.217  -6.447   2.934  1.00  0.00     0.209 HD
ENDBRANCH  47  48
ENDBRANCH  46  47
ENDBRANCH  19  46
TORSDOF 3
ENDMDL
MODEL 3
REMARK VINA RESULT: -6.060452555      2.498      7.145
REMARK  3 active torsions:
REMARK  status: ('A' for Active; 'I' for Inactive)
REMARK    1  A    between atoms: N6_19  and  C10_20 
REMARK    2  A    between atoms: C10_20  and  C11_21 
REMARK    3  A    between atoms: C11_21  and  O1_22 
ROOT
HETATM    1  C1  UNL     1     -10.256 -10.833  15.595  1.00  0.00     0.143 C 
HETATM    2  N1  UNL     1      -9.810 -11.010  14.244  1.00  0.00    -0.415 N 
HETATM    3  C2  UNL     1     -10.217  -9.999  13.327  1.00  0.00     0.136 C 
HETATM    4  C3  UNL     1     -10.859 -10.578  12.059  1.00  0.00     0.141 C 
HETATM    5  N2  UNL     1     -12.276 -10.634  12.265  1.00  0.00    -0.363 N 
ATOM      6  H2  UNL     1     -12.602 -11.239  13.019  1.00  0.00     0.162 HD
HETATM    7  C4  UNL     1     -13.181 -10.006  11.603  1.00  0.00     0.184 C 
HETATM    8  N3  UNL     1     -14.534 -10.282  12.064  1.00  0.00    -0.064 NA
HETATM    9  N4  UNL     1     -12.955  -9.120  10.523  1.00  0.00    -0.363 N 
ATOM     10  H4  UNL     1     -13.404  -9.357   9.639  1.00  0.00     0.162 HD
HETATM   11  C5  UNL     1     -12.161  -7.925  10.540  1.00  0.00     0.150 C 
HETATM   12  C6  UNL     1     -11.378  -7.680   9.294  1.00  0.00     0.251 C 
HETATM   13  N5  UNL     1     -11.796  -8.503   8.180  1.00  0.00    -0.074 N 
ATOM     14  H51 UNL     1     -12.795  -8.701   8.230  1.00  0.00     0.277 HD
ATOM     15  H52 UNL     1     -11.432  -9.452   8.273  1.00  0.00     0.277 HD
HETATM   16  C7  UNL     1     -11.446  -7.943   6.894  1.00  0.00     0.234 C 
HETATM   17  C8  UNL     1     -10.170  -7.170   6.881  1.00  0.00     0.057 C 
HETATM   18  C9  UNL     1      -9.153  -7.859   5.994  1.00  0.00     0.274 C 
HETATM   19  N6  UNL     1      -8.334  -6.895   5.285  1.00  0.00     0.092 N 
HETATM   20  C12 UNL     1      -6.966  -7.285   5.402  1.00  0.00     0.298 C 
HETATM   21  C13 UNL     1      -6.583  -8.505   4.640  1.00  0.00     0.198 C 
HETATM   22  O2  UNL     1      -5.946  -9.410   5.500  1.00  0.00    -0.388 OA
HETATM   23  C14 UNL     1      -4.814  -8.829   6.042  1.00  0.00     0.195 C 
HETATM   24  C15 UNL     1      -3.560  -9.349   5.377  1.00  0.00     0.258 C 
HETATM   25  N7  UNL     1      -2.488  -9.385   6.330  1.00  0.00    -0.073 N 
ATOM     26  H71 UNL     1      -2.800  -9.115   7.262  1.00  0.00     0.277 HD
ATOM     27  H72 UNL     1      -1.815  -8.635   6.171  1.00  0.00     0.277 HD
HETATM   28  C16 UNL     1      -1.854 -10.685   6.331  1.00  0.00     0.234 C 
HETATM   29  C17 UNL     1      -1.795 -11.238   7.741  1.00  0.00     0.047 C 
HETATM   30  C18 UNL     1      -3.214 -11.548   8.196  1.00  0.00     0.121 C 
HETATM   31  N8  UNL     1      -3.165 -12.860   8.922  1.00  0.00    -0.390 N 
ATOM     32  H8  UNL     1      -2.734 -13.683   8.501  1.00  0.00     0.159 HD
HETATM   33  C19 UNL     1      -3.744 -12.912  10.224  1.00  0.00     0.027 A 
HETATM   34  C20 UNL     1      -5.065 -13.228  10.457  1.00  0.00     0.029 A 
HETATM   35  C21 UNL     1      -5.653 -13.276  11.764  1.00  0.00     0.011 A 
HETATM   36  C22 UNL     1      -4.937 -13.005  12.905  1.00  0.00    -0.040 A 
HETATM   37  C23 UNL     1      -3.621 -12.685  12.695  1.00  0.00     0.011 A 
HETATM   38  C24 UNL     1      -3.046 -12.642  11.379  1.00  0.00     0.029 A 
HETATM   39  C25 UNL     1      -5.511 -13.046  14.275  1.00  0.00     0.161 C 
HETATM   40  N9  UNL     1      -5.600 -11.778  14.987  1.00  0.00    -0.357 N 
ATOM     41  H9  UNL     1      -5.243 -11.759  15.942  1.00  0.00     0.162 HD
HETATM   42  C26 UNL     1      -6.125 -10.590  14.485  1.00  0.00     0.219 C 
HETATM   43  O3  UNL     1      -5.423  -9.514  14.558  1.00  0.00    -0.274 OA
HETATM   44  C27 UNL     1      -7.454 -10.389  13.844  1.00  0.00     0.122 C 
HETATM   45  C28 UNL     1      -8.454 -11.451  14.148  1.00  0.00     0.125 C 
ENDROOT
BRANCH  19  46
HETATM   46  C10 UNL     1      -8.776  -6.725   3.918  1.00  0.00     0.298 C 
BRANCH  46  47
HETATM   47  C11 UNL     1      -9.548  -5.428   3.748  1.00  0.00     0.194 C 
BRANCH  47  48
HETATM   48  O1  UNL     1     -10.717  -5.627   3.017  1.00  0.00    -0.399 OA
ATOM     49  H1  UNL     1     -10.769  -5.032   2.279  1.00  0.00     0.209 HD
ENDBRANCH  47  48
ENDBRANCH  46  47
ENDBRANCH  19  46
TORSDOF 3
ENDMDL
MODEL 4
REMARK VINA RESULT: -6.006785290      4.651      8.068
REMARK  3 active torsions:
REMARK  status: ('A' for Active; 'I' for Inactive)
REMARK    1  A    between atoms: N6_19  and  C10_20 
REMARK    2  A    between atoms: C10_20  and  C11_21 
REMARK    3  A    between atoms: C11_21  and  O1_22 
ROOT
HETATM    1  C1  UNL     1      -9.054  -3.533   5.007  1.00  0.00     0.143 C 
HETATM    2  N1  UNL     1      -8.767  -4.571   5.953  1.00  0.00    -0.415 N 
HETATM    3  C2  UNL     1      -9.848  -4.944   6.801  1.00  0.00     0.136 C 
HETATM    4  C3  UNL     1      -9.455  -4.957   8.285  1.00  0.00     0.141 C 
HETATM    5  N2  UNL     1      -9.769  -3.672   8.839  1.00  0.00    -0.363 N 
ATOM      6  H2  UNL     1      -9.270  -2.874   8.446  1.00  0.00     0.162 HD
HETATM    7  C4  UNL     1     -10.610  -3.417   9.776  1.00  0.00     0.184 C 
HETATM    8  N3  UNL     1     -10.695  -2.003  10.110  1.00  0.00    -0.064 NA
HETATM    9  N4  UNL     1     -11.406  -4.367  10.458  1.00  0.00    -0.363 N 
ATOM     10  H4  UNL     1     -11.294  -4.412  11.471  1.00  0.00     0.162 HD
HETATM   11  C5  UNL     1     -12.355  -5.274   9.877  1.00  0.00     0.150 C 
HETATM   12  C6  UNL     1     -12.386  -6.627  10.505  1.00  0.00     0.251 C 
HETATM   13  N5  UNL     1     -11.700  -6.689  11.776  1.00  0.00    -0.074 N 
ATOM     14  H51 UNL     1     -11.769  -5.799  12.269  1.00  0.00     0.277 HD
ATOM     15  H52 UNL     1     -10.689  -6.729  11.641  1.00  0.00     0.277 HD
HETATM   16  C7  UNL     1     -12.149  -7.777  12.616  1.00  0.00     0.234 C 
HETATM   17  C8  UNL     1     -12.564  -9.003  11.871  1.00  0.00     0.057 C 
HETATM   18  C9  UNL     1     -11.634 -10.152  12.202  1.00  0.00     0.274 C 
HETATM   19  N6  UNL     1     -12.352 -11.411  12.257  1.00  0.00     0.092 N 
HETATM   20  C12 UNL     1     -11.620 -12.386  11.515  1.00  0.00     0.298 C 
HETATM   21  C13 UNL     1     -10.342 -12.832  12.135  1.00  0.00     0.198 C 
HETATM   22  O2  UNL     1      -9.304 -12.701  11.202  1.00  0.00    -0.388 OA
HETATM   23  C14 UNL     1      -9.570 -13.474  10.087  1.00  0.00     0.195 C 
HETATM   24  C15 UNL     1      -8.742 -14.738  10.085  1.00  0.00     0.258 C 
HETATM   25  N7  UNL     1      -8.429 -15.109   8.734  1.00  0.00    -0.073 N 
ATOM     26  H71 UNL     1      -8.772 -14.421   8.063  1.00  0.00     0.277 HD
ATOM     27  H72 UNL     1      -8.978 -15.911   8.425  1.00  0.00     0.277 HD
HETATM   28  C16 UNL     1      -7.009 -15.341   8.588  1.00  0.00     0.234 C 
HETATM   29  C17 UNL     1      -6.461 -14.524   7.435  1.00  0.00     0.047 C 
HETATM   30  C18 UNL     1      -6.530 -13.051   7.812  1.00  0.00     0.121 C 
HETATM   31  N8  UNL     1      -5.251 -12.420   7.349  1.00  0.00    -0.390 N 
ATOM     32  H8  UNL     1      -4.344 -12.813   7.600  1.00  0.00     0.159 HD
HETATM   33  C19 UNL     1      -5.352 -11.246   6.544  1.00  0.00     0.027 A 
HETATM   34  C20 UNL     1      -5.390  -9.970   7.060  1.00  0.00     0.029 A 
HETATM   35  C21 UNL     1      -5.498  -8.789   6.256  1.00  0.00     0.011 A 
HETATM   36  C22 UNL     1      -5.574  -8.835   4.884  1.00  0.00    -0.040 A 
HETATM   37  C23 UNL     1      -5.541 -10.097   4.350  1.00  0.00     0.011 A 
HETATM   38  C24 UNL     1      -5.432 -11.271   5.170  1.00  0.00     0.029 A 
HETATM   39  C25 UNL     1      -5.684  -7.633   4.018  1.00  0.00     0.161 C 
HETATM   40  N9  UNL     1      -6.932  -7.466   3.284  1.00  0.00    -0.357 N 
ATOM     41  H9  UNL     1      -6.859  -7.260   2.288  1.00  0.00     0.162 HD
HETATM   42  C26 UNL     1      -8.216  -7.562   3.816  1.00  0.00     0.219 C 
HETATM   43  O3  UNL     1      -9.072  -8.338   3.251  1.00  0.00    -0.274 OA
HETATM   44  C27 UNL     1      -8.754  -6.853   5.009  1.00  0.00     0.122 C 
HETATM   45  C28 UNL     1      -7.988  -5.637   5.405  1.00  0.00     0.125 C 
ENDROOT
BRANCH  19  46
HETATM   46  C10 UNL     1     -12.630 -11.805  13.621  1.00  0.00     0.298 C 
BRANCH  46  47
HETATM   47  C11 UNL     1     -14.119 -11.750  13.916  1.00  0.00     0.194 C 
BRANCH  47  48
HETATM   48  O1  UNL     1     -14.843 -11.352  12.794  1.00  0.00    -0.399 OA
ATOM     49  H1  UNL     1     -15.574 -11.936  12.630  1.00  0.00     0.209 HD
ENDBRANCH  47  48
ENDBRANCH  46  47
ENDBRANCH  19  46
TORSDOF 3
ENDMDL
MODEL 5
REMARK VINA RESULT: -5.984839212      3.050      8.623
REMARK  3 active torsions:
REMARK  status: ('A' for Active; 'I' for Inactive)
REMARK    1  A    between atoms: N6_19  and  C10_20 
REMARK    2  A    between atoms: C10_20  and  C11_21 
REMARK    3  A    between atoms: C11_21  and  O1_22 
ROOT
HETATM    1  C1  UNL     1     -10.588 -14.743  13.360  1.00  0.00     0.143 C 
HETATM    2  N1  UNL     1      -9.874 -13.713  12.665  1.00  0.00    -0.415 N 
HETATM    3  C2  UNL     1      -8.746 -14.149  11.914  1.00  0.00     0.136 C 
HETATM    4  C3  UNL     1      -7.482 -13.333  12.222  1.00  0.00     0.141 C 
HETATM    5  N2  UNL     1      -6.759 -14.008  13.259  1.00  0.00    -0.363 N 
ATOM      6  H2  UNL     1      -7.233 -14.100  14.158  1.00  0.00     0.162 HD
HETATM    7  C4  UNL     1      -5.579 -14.511  13.180  1.00  0.00     0.184 C 
HETATM    8  N3  UNL     1      -5.128 -15.131  14.418  1.00  0.00    -0.064 NA
HETATM    9  N4  UNL     1      -4.746 -14.498  12.037  1.00  0.00    -0.363 N 
ATOM     10  H4  UNL     1      -3.835 -14.053  12.142  1.00  0.00     0.162 HD
HETATM   11  C5  UNL     1      -5.047 -15.045  10.744  1.00  0.00     0.150 C 
HETATM   12  C6  UNL     1      -4.550 -14.234   9.595  1.00  0.00     0.251 C 
HETATM   13  N5  UNL     1      -3.587 -13.224   9.976  1.00  0.00    -0.074 N 
ATOM     14  H51 UNL     1      -3.032 -13.534  10.774  1.00  0.00     0.277 HD
ATOM     15  H52 UNL     1      -4.052 -12.419  10.397  1.00  0.00     0.277 HD
HETATM   16  C7  UNL     1      -2.732 -12.810   8.886  1.00  0.00     0.234 C 
HETATM   17  C8  UNL     1      -3.387 -12.823   7.545  1.00  0.00     0.057 C 
HETATM   18  C9  UNL     1      -3.473 -11.415   6.994  1.00  0.00     0.274 C 
HETATM   19  N6  UNL     1      -3.279 -11.399   5.556  1.00  0.00     0.092 N 
HETATM   20  C12 UNL     1      -4.294 -10.586   4.968  1.00  0.00     0.298 C 
HETATM   21  C13 UNL     1      -4.170  -9.125   5.225  1.00  0.00     0.198 C 
HETATM   22  O2  UNL     1      -5.381  -8.639   5.736  1.00  0.00    -0.388 OA
HETATM   23  C14 UNL     1      -6.400  -8.863   4.829  1.00  0.00     0.195 C 
HETATM   24  C15 UNL     1      -6.774  -7.594   4.098  1.00  0.00     0.258 C 
HETATM   25  N7  UNL     1      -8.176  -7.607   3.792  1.00  0.00    -0.073 N 
ATOM     26  H71 UNL     1      -8.640  -8.430   4.177  1.00  0.00     0.277 HD
ATOM     27  H72 UNL     1      -8.346  -7.786   2.803  1.00  0.00     0.277 HD
HETATM   28  C16 UNL     1      -8.803  -6.380   4.232  1.00  0.00     0.234 C 
HETATM   29  C17 UNL     1     -10.007  -6.689   5.101  1.00  0.00     0.047 C 
HETATM   30  C18 UNL     1      -9.517  -7.309   6.401  1.00  0.00     0.121 C 
HETATM   31  N8  UNL     1     -10.328  -6.705   7.508  1.00  0.00    -0.390 N 
ATOM     32  H8  UNL     1     -10.423  -5.694   7.605  1.00  0.00     0.159 HD
HETATM   33  C19 UNL     1     -10.962  -7.600   8.421  1.00  0.00     0.027 A 
HETATM   34  C20 UNL     1     -10.366  -8.057   9.576  1.00  0.00     0.029 A 
HETATM   35  C21 UNL     1     -10.997  -8.960  10.493  1.00  0.00     0.011 A 
HETATM   36  C22 UNL     1     -12.264  -9.452  10.290  1.00  0.00    -0.040 A 
HETATM   37  C23 UNL     1     -12.874  -9.011   9.144  1.00  0.00     0.011 A 
HETATM   38  C24 UNL     1     -12.229  -8.104   8.235  1.00  0.00     0.029 A 
HETATM   39  C25 UNL     1     -12.951 -10.387  11.218  1.00  0.00     0.161 C 
HETATM   40  N9  UNL     1     -13.213 -11.730  10.719  1.00  0.00    -0.357 N 
ATOM     41  H9  UNL     1     -14.158 -12.093  10.843  1.00  0.00     0.162 HD
HETATM   42  C26 UNL     1     -12.294 -12.566  10.089  1.00  0.00     0.219 C 
HETATM   43  O3  UNL     1     -12.601 -13.093   8.956  1.00  0.00    -0.274 OA
HETATM   44  C27 UNL     1     -10.939 -12.947  10.574  1.00  0.00     0.122 C 
HETATM   45  C28 UNL     1     -10.728 -12.755  12.036  1.00  0.00     0.125 C 
ENDROOT
BRANCH  19  46
HETATM   46  C10 UNL     1      -1.935 -10.996   5.206  1.00  0.00     0.298 C 
BRANCH  46  47
HETATM   47  C11 UNL     1      -1.203 -12.105   4.469  1.00  0.00     0.194 C 
BRANCH  47  48
HETATM   48  O1  UNL     1      -1.901 -12.502   3.331  1.00  0.00    -0.399 OA
ATOM     49  H1  UNL     1      -1.717 -11.930   2.596  1.00  0.00     0.209 HD
ENDBRANCH  47  48
ENDBRANCH  46  47
ENDBRANCH  19  46
TORSDOF 3
ENDMDL
