MODEL 1
REMARK VINA RESULT: -7.510377658      0.000      0.000
REMARK  9 active torsions:
REMARK  status: ('A' for Active; 'I' for Inactive)
REMARK    1  A    between atoms: O1_2  and  N1_3 
REMARK    2  A    between atoms: C2_5  and  N2_6 
REMARK    3  A    between atoms: C2_5  and  C4_10 
REMARK       I    between atoms: C4_10  and  N4_12 
REMARK    4  A    between atoms: N5_17  and  O3_19 
REMARK    5  A    between atoms: C9_21  and  C10_22 
REMARK    6  A    between atoms: C10_22  and  O4_23 
REMARK    7  A    between atoms: C11_25  and  N6_26 
REMARK       I    between atoms: N6_26  and  C12_28 
REMARK    8  A    between atoms: C12_28  and  C13_30 
REMARK    9  A    between atoms: C13_30  and  N7_31 
REMARK       I    between atoms: N7_31  and  C14_33 
ROOT
HETATM    1  N2  UNL     1      -7.385  13.260 -16.768  1.00  0.00    -0.273 N 
ATOM      2  H2  UNL     1      -7.080  13.187 -15.798  1.00  0.00     0.180 HD
HETATM    3  C3  UNL     1      -7.584  12.084 -17.518  1.00  0.00     0.183 C 
HETATM    4  N3  UNL     1      -7.735  11.125 -18.143  1.00  0.00    -0.172 NA
ENDROOT
BRANCH   1   5
HETATM    5  C2  UNL     1      -7.598  14.534 -17.329  1.00  0.00     0.203 C 
HETATM    6  N1  UNL     1      -8.463  14.628 -18.282  1.00  0.00    -0.246 N 
ATOM      7  H1  UNL     1      -8.964  13.800 -18.605  1.00  0.00     0.196 HD
BRANCH   6   8
HETATM    8  O1  UNL     1      -8.702  15.839 -18.853  1.00  0.00    -0.284 OA
HETATM    9  C1  UNL     1      -9.956  16.488 -18.738  1.00  0.00     0.237 C 
ENDBRANCH   6   8
BRANCH   5  10
HETATM   10  C4  UNL     1      -6.854  15.672 -16.826  1.00  0.00     0.292 C 
HETATM   11  O2  UNL     1      -5.655  15.787 -17.180  1.00  0.00    -0.264 OA
HETATM   12  N4  UNL     1      -7.469  16.589 -15.984  1.00  0.00    -0.325 N 
HETATM   13  C5  UNL     1      -7.622  16.559 -14.745  1.00  0.00     0.019 C 
ATOM     14  H4  UNL     1      -7.854  17.411 -16.448  1.00  0.00     0.169 HD
HETATM   15  C6  UNL     1      -7.182  15.513 -13.787  1.00  0.00     0.109 C 
HETATM   16  C11 UNL     1      -8.294  17.583 -13.915  1.00  0.00     0.142 C 
HETATM   17  C7  UNL     1      -7.281  16.135 -12.451  1.00  0.00     0.024 C 
HETATM   18  N5  UNL     1      -7.272  15.559 -11.326  1.00  0.00    -0.275 N 
HETATM   19  C9  UNL     1      -7.393  17.581 -12.697  1.00  0.00     0.085 C 
ATOM     20  H5  UNL     1      -7.350  16.155 -10.501  1.00  0.00     0.193 HD
BRANCH  18  21
HETATM   21  O3  UNL     1      -7.169  14.221 -11.113  1.00  0.00    -0.285 OA
HETATM   22  C8  UNL     1      -8.070  13.447 -10.374  1.00  0.00     0.237 C 
ENDBRANCH  18  21
BRANCH  19  23
HETATM   23  C10 UNL     1      -7.996  18.332 -11.539  1.00  0.00     0.177 C 
BRANCH  23  24
HETATM   24  O4  UNL     1      -6.980  18.775 -10.716  1.00  0.00    -0.400 OA
ATOM     25  H4  UNL     1      -7.361  19.237  -9.979  1.00  0.00     0.209 HD
ENDBRANCH  23  24
ENDBRANCH  19  23
BRANCH  16  26
HETATM   26  N6  UNL     1      -8.352  18.860 -14.558  1.00  0.00    -0.349 N 
HETATM   27  C12 UNL     1      -9.483  19.670 -14.454  1.00  0.00     0.235 C 
HETATM   28  O5  UNL     1     -10.492  19.325 -13.799  1.00  0.00    -0.272 OA
ATOM     29  H6  UNL     1      -7.552  19.184 -15.103  1.00  0.00     0.163 HD
BRANCH  27  30
HETATM   30  C13 UNL     1      -9.505  20.983 -15.135  1.00  0.00     0.225 C 
BRANCH  30  31
HETATM   31  N7  UNL     1      -8.170  21.478 -15.375  1.00  0.00    -0.356 N 
HETATM   32  C14 UNL     1      -7.937  22.867 -15.335  1.00  0.00     0.182 C 
HETATM   33  N8  UNL     1      -6.764  23.333 -15.074  1.00  0.00    -0.374 N 
HETATM   34  N9  UNL     1      -9.000  23.761 -15.583  1.00  0.00    -0.064 NA
ATOM     35  H82 UNL     1      -5.995  22.687 -14.895  1.00  0.00     0.158 HD
ATOM     36  H81 UNL     1      -6.595  24.339 -15.046  1.00  0.00     0.158 HD
ATOM     37  H7  UNL     1      -7.405  20.832 -15.570  1.00  0.00     0.162 HD
ENDBRANCH  30  31
ENDBRANCH  27  30
ENDBRANCH  16  26
ENDBRANCH   5  10
ENDBRANCH   1   5
TORSDOF 9
ENDMDL
MODEL 2
REMARK VINA RESULT: -7.377546207      1.452      1.603
REMARK  9 active torsions:
REMARK  status: ('A' for Active; 'I' for Inactive)
REMARK    1  A    between atoms: O1_2  and  N1_3 
REMARK    2  A    between atoms: C2_5  and  N2_6 
REMARK    3  A    between atoms: C2_5  and  C4_10 
REMARK       I    between atoms: C4_10  and  N4_12 
REMARK    4  A    between atoms: N5_17  and  O3_19 
REMARK    5  A    between atoms: C9_21  and  C10_22 
REMARK    6  A    between atoms: C10_22  and  O4_23 
REMARK    7  A    between atoms: C11_25  and  N6_26 
REMARK       I    between atoms: N6_26  and  C12_28 
REMARK    8  A    between atoms: C12_28  and  C13_30 
REMARK    9  A    between atoms: C13_30  and  N7_31 
REMARK       I    between atoms: N7_31  and  C14_33 
ROOT
HETATM    1  N2  UNL     1      -7.051  12.824 -18.279  1.00  0.00    -0.273 N 
ATOM      2  H2  UNL     1      -6.206  12.539 -18.774  1.00  0.00     0.180 HD
HETATM    3  C3  UNL     1      -7.973  11.843 -17.867  1.00  0.00     0.183 C 
HETATM    4  N3  UNL     1      -8.741  11.045 -17.540  1.00  0.00    -0.172 NA
ENDROOT
BRANCH   1   5
HETATM    5  C2  UNL     1      -7.268  14.191 -18.021  1.00  0.00     0.203 C 
HETATM    6  N1  UNL     1      -8.238  14.769 -18.647  1.00  0.00    -0.246 N 
ATOM      7  H1  UNL     1      -8.814  14.239 -19.301  1.00  0.00     0.196 HD
BRANCH   6   8
HETATM    8  O1  UNL     1      -8.485  16.088 -18.430  1.00  0.00    -0.284 OA
HETATM    9  C1  UNL     1      -9.803  16.595 -18.320  1.00  0.00     0.237 C 
ENDBRANCH   6   8
BRANCH   5  10
HETATM   10  C4  UNL     1      -6.413  14.888 -17.080  1.00  0.00     0.292 C 
HETATM   11  O2  UNL     1      -5.214  14.526 -17.003  1.00  0.00    -0.264 OA
HETATM   12  N4  UNL     1      -6.927  15.919 -16.304  1.00  0.00    -0.325 N 
HETATM   13  C5  UNL     1      -7.533  15.872 -15.213  1.00  0.00     0.019 C 
ATOM     14  H4  UNL     1      -6.789  16.856 -16.682  1.00  0.00     0.169 HD
HETATM   15  C6  UNL     1      -7.890  14.676 -14.407  1.00  0.00     0.109 C 
HETATM   16  C11 UNL     1      -8.053  17.023 -14.443  1.00  0.00     0.142 C 
HETATM   17  C7  UNL     1      -8.254  15.193 -13.073  1.00  0.00     0.024 C 
HETATM   18  N5  UNL     1      -8.874  14.591 -12.151  1.00  0.00    -0.275 N 
HETATM   19  C9  UNL     1      -7.740  16.572 -13.031  1.00  0.00     0.085 C 
ATOM     20  H5  UNL     1      -9.036  15.109 -11.288  1.00  0.00     0.193 HD
BRANCH  18  21
HETATM   21  O3  UNL     1      -9.344  13.316 -12.203  1.00  0.00    -0.285 OA
HETATM   22  C8  UNL     1     -10.654  12.949 -12.529  1.00  0.00     0.237 C 
ENDBRANCH  18  21
BRANCH  19  23
HETATM   23  C10 UNL     1      -8.421  17.424 -11.994  1.00  0.00     0.177 C 
BRANCH  23  24
HETATM   24  O4  UNL     1      -9.712  17.687 -12.408  1.00  0.00    -0.400 OA
ATOM     25  H4  UNL     1      -9.946  18.569 -12.145  1.00  0.00     0.209 HD
ENDBRANCH  23  24
ENDBRANCH  19  23
BRANCH  16  26
HETATM   26  N6  UNL     1      -7.406  18.252 -14.788  1.00  0.00    -0.349 N 
HETATM   27  C12 UNL     1      -8.131  19.436 -14.929  1.00  0.00     0.235 C 
HETATM   28  O5  UNL     1      -9.371  19.482 -14.762  1.00  0.00    -0.272 OA
ATOM     29  H6  UNL     1      -6.396  18.263 -14.932  1.00  0.00     0.163 HD
BRANCH  27  30
HETATM   30  C13 UNL     1      -7.425  20.685 -15.287  1.00  0.00     0.225 C 
BRANCH  30  31
HETATM   31  N7  UNL     1      -8.337  21.801 -15.379  1.00  0.00    -0.356 N 
HETATM   32  C14 UNL     1      -7.846  23.106 -15.180  1.00  0.00     0.182 C 
HETATM   33  N8  UNL     1      -8.450  24.124 -15.688  1.00  0.00    -0.374 N 
HETATM   34  N9  UNL     1      -6.676  23.302 -14.416  1.00  0.00    -0.064 NA
ATOM     35  H82 UNL     1      -9.296  23.982 -16.241  1.00  0.00     0.158 HD
ATOM     36  H81 UNL     1      -8.094  25.069 -15.544  1.00  0.00     0.158 HD
ATOM     37  H7  UNL     1      -9.325  21.647 -15.585  1.00  0.00     0.162 HD
ENDBRANCH  30  31
ENDBRANCH  27  30
ENDBRANCH  16  26
ENDBRANCH   5  10
ENDBRANCH   1   5
TORSDOF 9
ENDMDL
MODEL 3
REMARK VINA RESULT: -7.304097034      1.154      1.302
REMARK  9 active torsions:
REMARK  status: ('A' for Active; 'I' for Inactive)
REMARK    1  A    between atoms: O1_2  and  N1_3 
REMARK    2  A    between atoms: C2_5  and  N2_6 
REMARK    3  A    between atoms: C2_5  and  C4_10 
REMARK       I    between atoms: C4_10  and  N4_12 
REMARK    4  A    between atoms: N5_17  and  O3_19 
REMARK    5  A    between atoms: C9_21  and  C10_22 
REMARK    6  A    between atoms: C10_22  and  O4_23 
REMARK    7  A    between atoms: C11_25  and  N6_26 
REMARK       I    between atoms: N6_26  and  C12_28 
REMARK    8  A    between atoms: C12_28  and  C13_30 
REMARK    9  A    between atoms: C13_30  and  N7_31 
REMARK       I    between atoms: N7_31  and  C14_33 
ROOT
HETATM    1  N2  UNL     1      -6.568  12.880 -16.734  1.00  0.00    -0.273 N 
ATOM      2  H2  UNL     1      -5.831  12.500 -16.140  1.00  0.00     0.180 HD
HETATM    3  C3  UNL     1      -7.342  12.001 -17.518  1.00  0.00     0.183 C 
HETATM    4  N3  UNL     1      -7.971  11.289 -18.173  1.00  0.00    -0.172 NA
ENDROOT
BRANCH   1   5
HETATM    5  C2  UNL     1      -6.789  14.270 -16.754  1.00  0.00     0.203 C 
HETATM    6  N1  UNL     1      -7.703  14.717 -17.548  1.00  0.00    -0.246 N 
ATOM      7  H1  UNL     1      -8.234  14.073 -18.134  1.00  0.00     0.196 HD
BRANCH   6   8
HETATM    8  O1  UNL     1      -7.951  16.053 -17.600  1.00  0.00    -0.284 OA
HETATM    9  C1  UNL     1      -9.270  16.569 -17.629  1.00  0.00     0.237 C 
ENDBRANCH   6   8
BRANCH   5  10
HETATM   10  C4  UNL     1      -5.999  15.134 -15.898  1.00  0.00     0.292 C 
HETATM   11  O2  UNL     1      -4.779  14.870 -15.770  1.00  0.00    -0.264 OA
HETATM   12  N4  UNL     1      -6.596  16.209 -15.253  1.00  0.00    -0.325 N 
HETATM   13  C5  UNL     1      -7.213  16.248 -14.168  1.00  0.00     0.019 C 
ATOM     14  H4  UNL     1      -6.519  17.102 -15.740  1.00  0.00     0.169 HD
HETATM   15  C6  UNL     1      -7.496  15.134 -13.227  1.00  0.00     0.109 C 
HETATM   16  C11 UNL     1      -7.824  17.443 -13.544  1.00  0.00     0.142 C 
HETATM   17  C7  UNL     1      -7.915  15.778 -11.966  1.00  0.00     0.024 C 
HETATM   18  N5  UNL     1      -8.504  15.247 -10.983  1.00  0.00    -0.275 N 
HETATM   19  C9  UNL     1      -7.500  17.185 -12.086  1.00  0.00     0.085 C 
ATOM     20  H5  UNL     1      -8.715  15.851 -10.189  1.00  0.00     0.193 HD
BRANCH  18  21
HETATM   21  O3  UNL     1      -8.882  13.945 -10.885  1.00  0.00    -0.285 OA
HETATM   22  C8  UNL     1      -8.194  12.952 -10.179  1.00  0.00     0.237 C 
ENDBRANCH  18  21
BRANCH  19  23
HETATM   23  C10 UNL     1      -8.255  18.104 -11.163  1.00  0.00     0.177 C 
BRANCH  23  24
HETATM   24  O4  UNL     1      -7.644  19.341 -11.166  1.00  0.00    -0.400 OA
ATOM     25  H4  UNL     1      -8.225  19.970 -11.578  1.00  0.00     0.209 HD
ENDBRANCH  23  24
ENDBRANCH  19  23
BRANCH  16  26
HETATM   26  N6  UNL     1      -7.260  18.665 -14.029  1.00  0.00    -0.349 N 
HETATM   27  C12 UNL     1      -7.962  19.484 -14.914  1.00  0.00     0.235 C 
HETATM   28  O5  UNL     1      -9.110  19.193 -15.322  1.00  0.00    -0.272 OA
ATOM     29  H6  UNL     1      -6.327  18.943 -13.722  1.00  0.00     0.163 HD
BRANCH  27  30
HETATM   30  C13 UNL     1      -7.345  20.738 -15.393  1.00  0.00     0.225 C 
BRANCH  30  31
HETATM   31  N7  UNL     1      -8.295  21.826 -15.404  1.00  0.00    -0.356 N 
HETATM   32  C14 UNL     1      -7.839  23.137 -15.161  1.00  0.00     0.182 C 
HETATM   33  N8  UNL     1      -8.493  24.156 -15.603  1.00  0.00    -0.374 N 
HETATM   34  N9  UNL     1      -6.651  23.338 -14.428  1.00  0.00    -0.064 NA
ATOM     35  H82 UNL     1      -9.352  24.011 -16.133  1.00  0.00     0.158 HD
ATOM     36  H81 UNL     1      -8.163  25.105 -15.427  1.00  0.00     0.158 HD
ATOM     37  H7  UNL     1      -9.283  21.649 -15.585  1.00  0.00     0.162 HD
ENDBRANCH  30  31
ENDBRANCH  27  30
ENDBRANCH  16  26
ENDBRANCH   5  10
ENDBRANCH   1   5
TORSDOF 9
ENDMDL
MODEL 4
REMARK VINA RESULT: -7.238178608      1.263      2.366
REMARK  9 active torsions:
REMARK  status: ('A' for Active; 'I' for Inactive)
REMARK    1  A    between atoms: O1_2  and  N1_3 
REMARK    2  A    between atoms: C2_5  and  N2_6 
REMARK    3  A    between atoms: C2_5  and  C4_10 
REMARK       I    between atoms: C4_10  and  N4_12 
REMARK    4  A    between atoms: N5_17  and  O3_19 
REMARK    5  A    between atoms: C9_21  and  C10_22 
REMARK    6  A    between atoms: C10_22  and  O4_23 
REMARK    7  A    between atoms: C11_25  and  N6_26 
REMARK       I    between atoms: N6_26  and  C12_28 
REMARK    8  A    between atoms: C12_28  and  C13_30 
REMARK    9  A    between atoms: C13_30  and  N7_31 
REMARK       I    between atoms: N7_31  and  C14_33 
ROOT
HETATM    1  N2  UNL     1     -10.044  15.648 -18.284  1.00  0.00    -0.273 N 
ATOM      2  H2  UNL     1     -10.690  14.969 -18.688  1.00  0.00     0.180 HD
HETATM    3  C3  UNL     1     -10.267  17.022 -18.499  1.00  0.00     0.183 C 
HETATM    4  N3  UNL     1     -10.435  18.150 -18.683  1.00  0.00    -0.172 NA
ENDROOT
BRANCH   1   5
HETATM    5  C2  UNL     1      -8.951  15.190 -17.525  1.00  0.00     0.203 C 
HETATM    6  N1  UNL     1      -8.864  13.920 -17.311  1.00  0.00    -0.246 N 
ATOM      7  H1  UNL     1      -9.570  13.287 -17.686  1.00  0.00     0.196 HD
BRANCH   6   8
HETATM    8  O1  UNL     1      -7.824  13.433 -16.583  1.00  0.00    -0.284 OA
HETATM    9  C1  UNL     1      -6.879  12.534 -17.135  1.00  0.00     0.237 C 
ENDBRANCH   6   8
BRANCH   5  10
HETATM   10  C4  UNL     1      -7.981  16.142 -17.018  1.00  0.00     0.292 C 
HETATM   11  O2  UNL     1      -6.835  16.135 -17.531  1.00  0.00    -0.264 OA
HETATM   12  N4  UNL     1      -8.333  17.020 -16.002  1.00  0.00    -0.325 N 
HETATM   13  C5  UNL     1      -8.326  16.854 -14.764  1.00  0.00     0.019 C 
ATOM     14  H4  UNL     1      -8.644  17.940 -16.314  1.00  0.00     0.169 HD
HETATM   15  C6  UNL     1      -7.932  15.644 -13.998  1.00  0.00     0.109 C 
HETATM   16  C11 UNL     1      -8.718  17.847 -13.739  1.00  0.00     0.142 C 
HETATM   17  C7  UNL     1      -7.759  16.098 -12.604  1.00  0.00     0.024 C 
HETATM   18  N5  UNL     1      -7.693  15.388 -11.560  1.00  0.00    -0.275 N 
HETATM   19  C9  UNL     1      -7.678  17.566 -12.675  1.00  0.00     0.085 C 
ATOM     20  H5  UNL     1      -7.570  15.879 -10.675  1.00  0.00     0.193 HD
BRANCH  18  21
HETATM   21  O3  UNL     1      -7.771  14.032 -11.509  1.00  0.00    -0.285 OA
HETATM   22  C8  UNL     1      -8.136  13.284 -10.385  1.00  0.00     0.237 C 
ENDBRANCH  18  21
BRANCH  19  23
HETATM   23  C10 UNL     1      -8.002  18.239 -11.367  1.00  0.00     0.177 C 
BRANCH  23  24
HETATM   24  O4  UNL     1      -7.256  19.395 -11.263  1.00  0.00    -0.400 OA
ATOM     25  H4  UNL     1      -6.459  19.294 -11.769  1.00  0.00     0.209 HD
ENDBRANCH  23  24
ENDBRANCH  19  23
BRANCH  16  26
HETATM   26  N6  UNL     1      -8.662  19.191 -14.227  1.00  0.00    -0.349 N 
HETATM   27  C12 UNL     1      -9.823  19.947 -14.394  1.00  0.00     0.235 C 
HETATM   28  O5  UNL     1     -10.959  19.493 -14.128  1.00  0.00    -0.272 OA
ATOM     29  H6  UNL     1      -7.758  19.604 -14.456  1.00  0.00     0.163 HD
BRANCH  27  30
HETATM   30  C13 UNL     1      -9.724  21.332 -14.902  1.00  0.00     0.225 C 
BRANCH  30  31
HETATM   31  N7  UNL     1      -8.360  21.684 -15.220  1.00  0.00    -0.356 N 
HETATM   32  C14 UNL     1      -8.020  23.042 -15.375  1.00  0.00     0.182 C 
HETATM   33  N8  UNL     1      -6.810  23.446 -15.192  1.00  0.00    -0.374 N 
HETATM   34  N9  UNL     1      -9.016  23.974 -15.734  1.00  0.00    -0.064 NA
ATOM     35  H82 UNL     1      -6.090  22.772 -14.933  1.00  0.00     0.158 HD
ATOM     36  H81 UNL     1      -6.564  24.430 -15.305  1.00  0.00     0.158 HD
ATOM     37  H7  UNL     1      -7.651  20.959 -15.332  1.00  0.00     0.162 HD
ENDBRANCH  30  31
ENDBRANCH  27  30
ENDBRANCH  16  26
ENDBRANCH   5  10
ENDBRANCH   1   5
TORSDOF 9
ENDMDL
MODEL 5
REMARK VINA RESULT: -6.936641590      1.466      2.427
REMARK  9 active torsions:
REMARK  status: ('A' for Active; 'I' for Inactive)
REMARK    1  A    between atoms: O1_2  and  N1_3 
REMARK    2  A    between atoms: C2_5  and  N2_6 
REMARK    3  A    between atoms: C2_5  and  C4_10 
REMARK       I    between atoms: C4_10  and  N4_12 
REMARK    4  A    between atoms: N5_17  and  O3_19 
REMARK    5  A    between atoms: C9_21  and  C10_22 
REMARK    6  A    between atoms: C10_22  and  O4_23 
REMARK    7  A    between atoms: C11_25  and  N6_26 
REMARK       I    between atoms: N6_26  and  C12_28 
REMARK    8  A    between atoms: C12_28  and  C13_30 
REMARK    9  A    between atoms: C13_30  and  N7_31 
REMARK       I    between atoms: N7_31  and  C14_33 
ROOT
HETATM    1  N2  UNL     1      -9.996  15.708 -17.499  1.00  0.00    -0.273 N 
ATOM      2  H2  UNL     1     -10.751  15.917 -16.845  1.00  0.00     0.180 HD
HETATM    3  C3  UNL     1     -10.002  16.309 -18.773  1.00  0.00     0.183 C 
HETATM    4  N3  UNL     1     -10.010  16.786 -19.824  1.00  0.00    -0.172 NA
ENDROOT
BRANCH   1   5
HETATM    5  C2  UNL     1      -8.970  14.826 -17.108  1.00  0.00     0.203 C 
HETATM    6  N1  UNL     1      -9.180  13.562 -17.263  1.00  0.00    -0.246 N 
ATOM      7  H1  UNL     1     -10.062  13.233 -17.655  1.00  0.00     0.196 HD
BRANCH   6   8
HETATM    8  O1  UNL     1      -8.218  12.673 -16.899  1.00  0.00    -0.284 OA
HETATM    9  C1  UNL     1      -7.898  11.547 -17.697  1.00  0.00     0.237 C 
ENDBRANCH   6   8
BRANCH   5  10
HETATM   10  C4  UNL     1      -7.740  15.357 -16.556  1.00  0.00     0.292 C 
HETATM   11  O2  UNL     1      -6.658  14.880 -16.976  1.00  0.00    -0.264 OA
HETATM   12  N4  UNL     1      -7.783  16.360 -15.596  1.00  0.00    -0.325 N 
HETATM   13  C5  UNL     1      -7.916  16.276 -14.357  1.00  0.00     0.019 C 
ATOM     14  H4  UNL     1      -7.693  17.309 -15.958  1.00  0.00     0.169 HD
HETATM   15  C6  UNL     1      -8.071  15.053 -13.528  1.00  0.00     0.109 C 
HETATM   16  C11 UNL     1      -7.953  17.400 -13.395  1.00  0.00     0.142 C 
HETATM   17  C7  UNL     1      -7.820  15.485 -12.138  1.00  0.00     0.024 C 
HETATM   18  N5  UNL     1      -8.098  14.865 -11.072  1.00  0.00    -0.275 N 
HETATM   19  C9  UNL     1      -7.171  16.801 -12.245  1.00  0.00     0.085 C 
ATOM     20  H5  UNL     1      -7.848  15.320 -10.194  1.00  0.00     0.193 HD
BRANCH  18  21
HETATM   21  O3  UNL     1      -8.700  13.649 -10.987  1.00  0.00    -0.285 OA
HETATM   22  C8  UNL     1      -9.831  13.357 -10.217  1.00  0.00     0.237 C 
ENDBRANCH  18  21
BRANCH  19  23
HETATM   23  C10 UNL     1      -7.286  17.620 -10.987  1.00  0.00     0.177 C 
BRANCH  23  24
HETATM   24  O4  UNL     1      -6.684  18.845 -11.195  1.00  0.00    -0.400 OA
ATOM     25  H4  UNL     1      -6.883  19.140 -12.076  1.00  0.00     0.209 HD
ENDBRANCH  23  24
ENDBRANCH  19  23
BRANCH  16  26
HETATM   26  N6  UNL     1      -7.350  18.588 -13.916  1.00  0.00    -0.349 N 
HETATM   27  C12 UNL     1      -8.060  19.453 -14.749  1.00  0.00     0.235 C 
HETATM   28  O5  UNL     1      -9.248  19.235 -15.079  1.00  0.00    -0.272 OA
ATOM     29  H6  UNL     1      -6.383  18.807 -13.674  1.00  0.00     0.163 HD
BRANCH  27  30
HETATM   30  C13 UNL     1      -7.402  20.670 -15.269  1.00  0.00     0.225 C 
BRANCH  30  31
HETATM   31  N7  UNL     1      -8.323  21.780 -15.345  1.00  0.00    -0.356 N 
HETATM   32  C14 UNL     1      -7.838  23.089 -15.158  1.00  0.00     0.182 C 
HETATM   33  N8  UNL     1      -8.459  24.102 -15.657  1.00  0.00    -0.374 N 
HETATM   34  N9  UNL     1      -6.656  23.295 -14.416  1.00  0.00    -0.064 NA
ATOM     35  H82 UNL     1      -9.313  23.953 -16.194  1.00  0.00     0.158 HD
ATOM     36  H81 UNL     1      -8.107  25.050 -15.521  1.00  0.00     0.158 HD
ATOM     37  H7  UNL     1      -9.313  21.618 -15.533  1.00  0.00     0.162 HD
ENDBRANCH  30  31
ENDBRANCH  27  30
ENDBRANCH  16  26
ENDBRANCH   5  10
ENDBRANCH   1   5
TORSDOF 9
ENDMDL
