MODEL 1
REMARK VINA RESULT: -6.676026382      0.000      0.000
REMARK  9 active torsions:
REMARK  status: ('A' for Active; 'I' for Inactive)
REMARK    1  A    between atoms: N1_1  and  C1_5 
REMARK    2  A    between atoms: C1_5  and  C2_6 
REMARK    3  A    between atoms: C2_6  and  C3_7 
REMARK       I    between atoms: C3_7  and  N2_9 
REMARK    4  A    between atoms: N2_9  and  S1_11 
REMARK    5  A    between atoms: S1_11  and  C4_14 
REMARK    6  A    between atoms: C4_14  and  C5_15 
REMARK    7  A    between atoms: C5_15  and  C6_16 
REMARK    8  A    between atoms: C6_16  and  N3_17 
REMARK       I    between atoms: N3_17  and  C7_18 
REMARK       I    between atoms: C7_18  and  N4_20 
REMARK    9  A    between atoms: C9_27  and  C10_28 
ROOT
HETATM    1  C6  UNL     1      -7.314  18.735 -11.508  1.00  0.00     0.162 C 
ENDROOT
BRANCH   1   2
HETATM    2  C5  UNL     1      -8.184  19.370 -12.544  1.00  0.00     0.076 C 
BRANCH   2   3
HETATM    3  C4  UNL     1      -7.662  20.656 -13.068  1.00  0.00     0.169 C 
BRANCH   3   4
HETATM    4  S1  UNL     1      -7.663  20.846 -14.809  1.00  0.00     0.233 S 
HETATM    5  O2  UNL     1      -6.967  19.792 -15.557  1.00  0.00    -0.206 OA
HETATM    6  O3  UNL     1      -7.003  22.172 -15.155  1.00  0.00    -0.206 OA
BRANCH   4   7
HETATM    7  N2  UNL     1      -9.344  20.960 -15.278  1.00  0.00    -0.254 N 
HETATM    8  C3  UNL     1     -10.060  19.793 -15.584  1.00  0.00     0.232 C 
HETATM    9  O1  UNL     1      -9.508  18.680 -15.523  1.00  0.00    -0.273 OA
ATOM     10  H2  UNL     1      -9.802  21.870 -15.328  1.00  0.00     0.181 HD
BRANCH   8  11
HETATM   11  C2  UNL     1     -11.484  19.872 -15.988  1.00  0.00     0.131 C 
BRANCH  11  12
HETATM   12  C1  UNL     1     -11.746  19.038 -17.194  1.00  0.00     0.238 C 
BRANCH  12  13
HETATM   13  N1  UNL     1     -10.808  19.155 -18.259  1.00  0.00    -0.079 N 
ATOM     14  H13 UNL     1     -10.617  18.235 -18.654  1.00  0.00     0.274 HD
ATOM     15  H12 UNL     1     -11.249  19.610 -19.059  1.00  0.00     0.274 HD
ATOM     16  H11 UNL     1      -9.930  19.625 -18.038  1.00  0.00     0.274 HD
ENDBRANCH  12  13
ENDBRANCH  11  12
ENDBRANCH   8  11
ENDBRANCH   4   7
ENDBRANCH   3   4
ENDBRANCH   2   3
ENDBRANCH   1   2
BRANCH   1  17
HETATM   17  N3  UNL     1      -7.047  17.383 -11.728  1.00  0.00    -0.369 NA
HETATM   18  C7  UNL     1      -6.785  16.070 -11.941  1.00  0.00     0.399 C 
HETATM   19  O4  UNL     1      -6.009  15.357 -11.192  1.00  0.00    -0.230 OA
HETATM   20  N4  UNL     1      -7.306  15.262 -12.994  1.00  0.00    -0.275 N 
HETATM   21  C8  UNL     1      -7.500  15.587 -14.215  1.00  0.00     0.170 A 
ATOM     22  H4  UNL     1      -7.555  14.306 -12.742  1.00  0.00     0.173 HD
HETATM   23  N5  UNL     1      -7.308  16.711 -14.910  1.00  0.00    -0.278 N 
HETATM   24  S2  UNL     1      -8.109  14.544 -15.462  1.00  0.00    -0.028 SA
HETATM   25  N6  UNL     1      -7.585  16.733 -16.150  1.00  0.00    -0.287 N 
ATOM     26  H5  UNL     1      -6.943  17.545 -14.450  1.00  0.00     0.189 HD
HETATM   27  C9  UNL     1      -8.057  15.658 -16.756  1.00  0.00     0.158 A 
ATOM     28  H6  UNL     1      -7.441  17.590 -16.684  1.00  0.00     0.188 HD
BRANCH  27  29
HETATM   29  C10 UNL     1      -8.438  15.441 -18.145  1.00  0.00     0.289 C 
HETATM   30  N7  UNL     1      -9.256  16.338 -18.819  1.00  0.00    -0.055 NA
HETATM   31  O5  UNL     1      -7.997  14.409 -18.720  1.00  0.00    -0.269 OA
ENDBRANCH  27  29
ENDBRANCH   1  17
TORSDOF 9
ENDMDL
MODEL 2
REMARK VINA RESULT: -6.564205228      2.106      5.298
REMARK  9 active torsions:
REMARK  status: ('A' for Active; 'I' for Inactive)
REMARK    1  A    between atoms: N1_1  and  C1_5 
REMARK    2  A    between atoms: C1_5  and  C2_6 
REMARK    3  A    between atoms: C2_6  and  C3_7 
REMARK       I    between atoms: C3_7  and  N2_9 
REMARK    4  A    between atoms: N2_9  and  S1_11 
REMARK    5  A    between atoms: S1_11  and  C4_14 
REMARK    6  A    between atoms: C4_14  and  C5_15 
REMARK    7  A    between atoms: C5_15  and  C6_16 
REMARK    8  A    between atoms: C6_16  and  N3_17 
REMARK       I    between atoms: N3_17  and  C7_18 
REMARK       I    between atoms: C7_18  and  N4_20 
REMARK    9  A    between atoms: C9_27  and  C10_28 
ROOT
HETATM    1  C6  UNL     1      -6.327  15.194 -15.148  1.00  0.00     0.162 C 
ENDROOT
BRANCH   1   2
HETATM    2  C5  UNL     1      -6.735  14.897 -16.555  1.00  0.00     0.076 C 
BRANCH   2   3
HETATM    3  C4  UNL     1      -7.663  15.896 -17.140  1.00  0.00     0.169 C 
BRANCH   3   4
HETATM    4  S1  UNL     1      -9.276  15.331 -17.523  1.00  0.00     0.233 S 
HETATM    5  O2  UNL     1      -9.453  13.874 -17.502  1.00  0.00    -0.206 OA
HETATM    6  O3  UNL     1      -9.647  15.822 -18.914  1.00  0.00    -0.206 OA
BRANCH   4   7
HETATM    7  N2  UNL     1     -10.345  16.122 -16.387  1.00  0.00    -0.254 N 
HETATM    8  C3  UNL     1     -10.375  17.524 -16.324  1.00  0.00     0.232 C 
HETATM    9  O1  UNL     1      -9.649  18.205 -17.070  1.00  0.00    -0.273 OA
ATOM     10  H2  UNL     1     -10.943  15.568 -15.775  1.00  0.00     0.181 HD
BRANCH   8  11
HETATM   11  C2  UNL     1     -11.271  18.210 -15.364  1.00  0.00     0.131 C 
BRANCH  11  12
HETATM   12  C1  UNL     1     -11.143  19.690 -15.476  1.00  0.00     0.238 C 
BRANCH  12  13
HETATM   13  N1  UNL     1     -11.541  20.266 -16.717  1.00  0.00    -0.079 N 
ATOM     14  H13 UNL     1     -10.740  20.312 -17.348  1.00  0.00     0.274 HD
ATOM     15  H12 UNL     1     -12.138  19.613 -17.225  1.00  0.00     0.274 HD
ATOM     16  H11 UNL     1     -11.993  21.179 -16.667  1.00  0.00     0.274 HD
ENDBRANCH  12  13
ENDBRANCH  11  12
ENDBRANCH   8  11
ENDBRANCH   4   7
ENDBRANCH   3   4
ENDBRANCH   2   3
ENDBRANCH   1   2
BRANCH   1  17
HETATM   17  N3  UNL     1      -7.322  15.788 -14.371  1.00  0.00    -0.369 NA
HETATM   18  C7  UNL     1      -8.292  16.362 -13.618  1.00  0.00     0.399 C 
HETATM   19  O4  UNL     1      -9.357  15.749 -13.220  1.00  0.00    -0.230 OA
HETATM   20  N4  UNL     1      -8.307  17.706 -13.138  1.00  0.00    -0.275 N 
HETATM   21  C8  UNL     1      -7.927  18.764 -13.746  1.00  0.00     0.170 A 
ATOM     22  H4  UNL     1      -8.666  17.839 -12.193  1.00  0.00     0.173 HD
HETATM   23  N5  UNL     1      -7.411  18.996 -14.957  1.00  0.00    -0.278 N 
HETATM   24  S2  UNL     1      -8.002  20.381 -13.119  1.00  0.00    -0.028 SA
HETATM   25  N6  UNL     1      -7.140  20.189 -15.301  1.00  0.00    -0.287 N 
ATOM     26  H5  UNL     1      -7.238  18.223 -15.599  1.00  0.00     0.189 HD
HETATM   27  C9  UNL     1      -7.363  21.197 -14.477  1.00  0.00     0.158 A 
ATOM     28  H6  UNL     1      -6.744  20.369 -16.224  1.00  0.00     0.188 HD
BRANCH  27  29
HETATM   29  C10 UNL     1      -7.140  22.627 -14.644  1.00  0.00     0.289 C 
HETATM   30  N7  UNL     1      -6.307  23.334 -13.787  1.00  0.00    -0.055 NA
HETATM   31  O5  UNL     1      -7.728  23.205 -15.597  1.00  0.00    -0.269 OA
ENDBRANCH  27  29
ENDBRANCH   1  17
TORSDOF 9
ENDMDL
MODEL 3
REMARK VINA RESULT: -6.445208583      2.825      6.195
REMARK  9 active torsions:
REMARK  status: ('A' for Active; 'I' for Inactive)
REMARK    1  A    between atoms: N1_1  and  C1_5 
REMARK    2  A    between atoms: C1_5  and  C2_6 
REMARK    3  A    between atoms: C2_6  and  C3_7 
REMARK       I    between atoms: C3_7  and  N2_9 
REMARK    4  A    between atoms: N2_9  and  S1_11 
REMARK    5  A    between atoms: S1_11  and  C4_14 
REMARK    6  A    between atoms: C4_14  and  C5_15 
REMARK    7  A    between atoms: C5_15  and  C6_16 
REMARK    8  A    between atoms: C6_16  and  N3_17 
REMARK       I    between atoms: N3_17  and  C7_18 
REMARK       I    between atoms: C7_18  and  N4_20 
REMARK    9  A    between atoms: C9_27  and  C10_28 
ROOT
HETATM    1  C6  UNL     1      -5.995  15.272 -15.408  1.00  0.00     0.162 C 
ENDROOT
BRANCH   1   2
HETATM    2  C5  UNL     1      -5.971  15.861 -16.782  1.00  0.00     0.076 C 
BRANCH   2   3
HETATM    3  C4  UNL     1      -6.907  15.215 -17.734  1.00  0.00     0.169 C 
BRANCH   3   4
HETATM    4  S1  UNL     1      -8.577  15.738 -17.662  1.00  0.00     0.233 S 
HETATM    5  O2  UNL     1      -9.277  15.785 -18.951  1.00  0.00    -0.206 OA
HETATM    6  O3  UNL     1      -8.625  17.133 -17.058  1.00  0.00    -0.206 OA
BRANCH   4   7
HETATM    7  N2  UNL     1      -9.371  14.655 -16.541  1.00  0.00    -0.254 N 
HETATM    8  C3  UNL     1      -9.356  13.273 -16.783  1.00  0.00     0.232 C 
HETATM    9  O1  UNL     1      -8.782  12.814 -17.786  1.00  0.00    -0.273 OA
ATOM     10  H2  UNL     1      -9.842  15.026 -15.716  1.00  0.00     0.181 HD
BRANCH   8  11
HETATM   11  C2  UNL     1     -10.028  12.342 -15.846  1.00  0.00     0.131 C 
BRANCH  11  12
HETATM   12  C1  UNL     1     -10.639  11.196 -16.575  1.00  0.00     0.238 C 
BRANCH  12  13
HETATM   13  N1  UNL     1      -9.754  10.145 -16.953  1.00  0.00    -0.079 N 
ATOM     14  H13 UNL     1      -9.496   9.599 -16.131  1.00  0.00     0.274 HD
ATOM     15  H12 UNL     1     -10.263   9.442 -17.489  1.00  0.00     0.274 HD
ATOM     16  H11 UNL     1      -8.914  10.423 -17.460  1.00  0.00     0.274 HD
ENDBRANCH  12  13
ENDBRANCH  11  12
ENDBRANCH   8  11
ENDBRANCH   4   7
ENDBRANCH   3   4
ENDBRANCH   2   3
ENDBRANCH   1   2
BRANCH   1  17
HETATM   17  N3  UNL     1      -6.996  15.781 -14.579  1.00  0.00    -0.369 NA
HETATM   18  C7  UNL     1      -7.969  16.274 -13.775  1.00  0.00     0.399 C 
HETATM   19  O4  UNL     1      -8.984  15.586 -13.364  1.00  0.00    -0.230 OA
HETATM   20  N4  UNL     1      -8.045  17.598 -13.250  1.00  0.00    -0.275 N 
HETATM   21  C8  UNL     1      -7.747  18.695 -13.833  1.00  0.00     0.170 A 
ATOM     22  H4  UNL     1      -8.378  17.679 -12.289  1.00  0.00     0.173 HD
HETATM   23  N5  UNL     1      -7.288  18.996 -15.051  1.00  0.00    -0.278 N 
HETATM   24  S2  UNL     1      -7.893  20.284 -13.149  1.00  0.00    -0.028 SA
HETATM   25  N6  UNL     1      -7.097  20.213 -15.363  1.00  0.00    -0.287 N 
ATOM     26  H5  UNL     1      -7.093  18.256 -15.725  1.00  0.00     0.189 HD
HETATM   27  C9  UNL     1      -7.349  21.179 -14.498  1.00  0.00     0.158 A 
ATOM     28  H6  UNL     1      -6.746  20.446 -16.291  1.00  0.00     0.188 HD
BRANCH  27  29
HETATM   29  C10 UNL     1      -7.215  22.625 -14.623  1.00  0.00     0.289 C 
HETATM   30  N7  UNL     1      -6.305  23.335 -13.852  1.00  0.00    -0.055 NA
HETATM   31  O5  UNL     1      -7.951  23.212 -15.460  1.00  0.00    -0.269 OA
ENDBRANCH  27  29
ENDBRANCH   1  17
TORSDOF 9
ENDMDL
MODEL 4
REMARK VINA RESULT: -6.386813768      3.566      7.200
REMARK  9 active torsions:
REMARK  status: ('A' for Active; 'I' for Inactive)
REMARK    1  A    between atoms: N1_1  and  C1_5 
REMARK    2  A    between atoms: C1_5  and  C2_6 
REMARK    3  A    between atoms: C2_6  and  C3_7 
REMARK       I    between atoms: C3_7  and  N2_9 
REMARK    4  A    between atoms: N2_9  and  S1_11 
REMARK    5  A    between atoms: S1_11  and  C4_14 
REMARK    6  A    between atoms: C4_14  and  C5_15 
REMARK    7  A    between atoms: C5_15  and  C6_16 
REMARK    8  A    between atoms: C6_16  and  N3_17 
REMARK       I    between atoms: N3_17  and  C7_18 
REMARK       I    between atoms: C7_18  and  N4_20 
REMARK    9  A    between atoms: C9_27  and  C10_28 
ROOT
HETATM    1  C6  UNL     1      -5.712  15.276 -15.270  1.00  0.00     0.162 C 
ENDROOT
BRANCH   1   2
HETATM    2  C5  UNL     1      -5.972  14.491 -16.515  1.00  0.00     0.076 C 
BRANCH   2   3
HETATM    3  C4  UNL     1      -7.033  13.463 -16.372  1.00  0.00     0.169 C 
BRANCH   3   4
HETATM    4  S1  UNL     1      -8.410  13.610 -17.444  1.00  0.00     0.233 S 
HETATM    5  O2  UNL     1      -8.116  13.444 -18.872  1.00  0.00    -0.206 OA
HETATM    6  O3  UNL     1      -9.029  14.988 -17.256  1.00  0.00    -0.206 OA
BRANCH   4   7
HETATM    7  N2  UNL     1      -9.578  12.433 -16.889  1.00  0.00    -0.254 N 
HETATM    8  C3  UNL     1      -9.369  11.071 -17.154  1.00  0.00     0.232 C 
HETATM    9  O1  UNL     1      -8.360  10.697 -17.777  1.00  0.00    -0.273 OA
ATOM     10  H2  UNL     1     -10.406  12.735 -16.376  1.00  0.00     0.181 HD
BRANCH   8  11
HETATM   11  C2  UNL     1     -10.351  10.060 -16.695  1.00  0.00     0.131 C 
BRANCH  11  12
HETATM   12  C1  UNL     1     -10.146   8.759 -17.391  1.00  0.00     0.238 C 
BRANCH  12  13
HETATM   13  N1  UNL     1     -11.235   7.842 -17.346  1.00  0.00    -0.079 N 
ATOM     14  H13 UNL     1     -10.963   6.961 -17.784  1.00  0.00     0.274 HD
ATOM     15  H12 UNL     1     -11.386   7.532 -16.386  1.00  0.00     0.274 HD
ATOM     16  H11 UNL     1     -12.116   8.167 -17.745  1.00  0.00     0.274 HD
ENDBRANCH  12  13
ENDBRANCH  11  12
ENDBRANCH   8  11
ENDBRANCH   4   7
ENDBRANCH   3   4
ENDBRANCH   2   3
ENDBRANCH   1   2
BRANCH   1  17
HETATM   17  N3  UNL     1      -6.860  15.765 -14.645  1.00  0.00    -0.369 NA
HETATM   18  C7  UNL     1      -7.976  16.237 -14.040  1.00  0.00     0.399 C 
HETATM   19  O4  UNL     1      -9.044  15.536 -13.842  1.00  0.00    -0.230 OA
HETATM   20  N4  UNL     1      -8.167  17.553 -13.523  1.00  0.00    -0.275 N 
HETATM   21  C8  UNL     1      -7.774  18.661 -14.023  1.00  0.00     0.170 A 
ATOM     22  H4  UNL     1      -8.682  17.618 -12.644  1.00  0.00     0.173 HD
HETATM   23  N5  UNL     1      -7.091  18.984 -15.125  1.00  0.00    -0.278 N 
HETATM   24  S2  UNL     1      -8.067  20.239 -13.361  1.00  0.00    -0.028 SA
HETATM   25  N6  UNL     1      -6.856  20.206 -15.378  1.00  0.00    -0.287 N 
ATOM     26  H5  UNL     1      -6.760  18.255 -15.757  1.00  0.00     0.189 HD
HETATM   27  C9  UNL     1      -7.282  21.158 -14.567  1.00  0.00     0.158 A 
ATOM     28  H6  UNL     1      -6.333  20.456 -16.218  1.00  0.00     0.188 HD
BRANCH  27  29
HETATM   29  C10 UNL     1      -7.141  22.606 -14.645  1.00  0.00     0.289 C 
HETATM   30  N7  UNL     1      -6.291  23.297 -13.792  1.00  0.00    -0.055 NA
HETATM   31  O5  UNL     1      -7.817  23.214 -15.519  1.00  0.00    -0.269 OA
ENDBRANCH  27  29
ENDBRANCH   1  17
TORSDOF 9
ENDMDL
MODEL 5
REMARK VINA RESULT: -6.339277722      1.044      1.065
REMARK  9 active torsions:
REMARK  status: ('A' for Active; 'I' for Inactive)
REMARK    1  A    between atoms: N1_1  and  C1_5 
REMARK    2  A    between atoms: C1_5  and  C2_6 
REMARK    3  A    between atoms: C2_6  and  C3_7 
REMARK       I    between atoms: C3_7  and  N2_9 
REMARK    4  A    between atoms: N2_9  and  S1_11 
REMARK    5  A    between atoms: S1_11  and  C4_14 
REMARK    6  A    between atoms: C4_14  and  C5_15 
REMARK    7  A    between atoms: C5_15  and  C6_16 
REMARK    8  A    between atoms: C6_16  and  N3_17 
REMARK       I    between atoms: N3_17  and  C7_18 
REMARK       I    between atoms: C7_18  and  N4_20 
REMARK    9  A    between atoms: C9_27  and  C10_28 
ROOT
HETATM    1  C6  UNL     1      -7.541  18.863 -11.428  1.00  0.00     0.162 C 
ENDROOT
BRANCH   1   2
HETATM    2  C5  UNL     1      -8.320  19.418 -12.577  1.00  0.00     0.076 C 
BRANCH   2   3
HETATM    3  C4  UNL     1      -7.715  20.625 -13.191  1.00  0.00     0.169 C 
BRANCH   3   4
HETATM    4  S1  UNL     1      -7.787  20.731 -14.937  1.00  0.00     0.233 S 
HETATM    5  O2  UNL     1      -6.973  19.747 -15.660  1.00  0.00    -0.206 OA
HETATM    6  O3  UNL     1      -7.323  22.116 -15.361  1.00  0.00    -0.206 OA
BRANCH   4   7
HETATM    7  N2  UNL     1      -9.479  20.596 -15.358  1.00  0.00    -0.254 N 
HETATM    8  C3  UNL     1      -9.991  19.362 -15.788  1.00  0.00     0.232 C 
HETATM    9  O1  UNL     1      -9.250  18.366 -15.871  1.00  0.00    -0.273 OA
ATOM     10  H2  UNL     1     -10.091  21.409 -15.290  1.00  0.00     0.181 HD
BRANCH   8  11
HETATM   11  C2  UNL     1     -11.421  19.231 -16.153  1.00  0.00     0.131 C 
BRANCH  11  12
HETATM   12  C1  UNL     1     -12.126  18.296 -15.232  1.00  0.00     0.238 C 
BRANCH  12  13
HETATM   13  N1  UNL     1     -11.913  16.906 -15.460  1.00  0.00    -0.079 N 
ATOM     14  H13 UNL     1     -11.635  16.452 -14.591  1.00  0.00     0.274 HD
ATOM     15  H12 UNL     1     -12.807  16.444 -15.632  1.00  0.00     0.274 HD
ATOM     16  H11 UNL     1     -11.254  16.666 -16.201  1.00  0.00     0.274 HD
ENDBRANCH  12  13
ENDBRANCH  11  12
ENDBRANCH   8  11
ENDBRANCH   4   7
ENDBRANCH   3   4
ENDBRANCH   2   3
ENDBRANCH   1   2
BRANCH   1  17
HETATM   17  N3  UNL     1      -7.205  17.514 -11.556  1.00  0.00    -0.369 NA
HETATM   18  C7  UNL     1      -6.877  16.205 -11.678  1.00  0.00     0.399 C 
HETATM   19  O4  UNL     1      -6.223  15.537 -10.785  1.00  0.00    -0.230 OA
HETATM   20  N4  UNL     1      -7.189  15.352 -12.778  1.00  0.00    -0.275 N 
HETATM   21  C8  UNL     1      -7.178  15.638 -14.024  1.00  0.00     0.170 A 
ATOM     22  H4  UNL     1      -7.453  14.396 -12.542  1.00  0.00     0.173 HD
HETATM   23  N5  UNL     1      -6.899  16.748 -14.712  1.00  0.00    -0.278 N 
HETATM   24  S2  UNL     1      -7.537  14.543 -15.322  1.00  0.00    -0.028 SA
HETATM   25  N6  UNL     1      -6.959  16.727 -15.981  1.00  0.00    -0.287 N 
ATOM     26  H5  UNL     1      -6.639  17.605 -14.223  1.00  0.00     0.189 HD
HETATM   27  C9  UNL     1      -7.292  15.622 -16.623  1.00  0.00     0.158 A 
ATOM     28  H6  UNL     1      -6.748  17.574 -16.510  1.00  0.00     0.188 HD
BRANCH  27  29
HETATM   29  C10 UNL     1      -7.423  15.355 -18.050  1.00  0.00     0.289 C 
HETATM   30  N7  UNL     1      -8.630  15.537 -18.711  1.00  0.00    -0.055 NA
HETATM   31  O5  UNL     1      -6.400  14.955 -18.668  1.00  0.00    -0.269 OA
ENDBRANCH  27  29
ENDBRANCH   1  17
TORSDOF 9
ENDMDL
