MODEL 1
REMARK VINA RESULT: -5.420911942      0.000      0.000
REMARK  4 active torsions:
REMARK  status: ('A' for Active; 'I' for Inactive)
REMARK    1  A    between atoms: N1_2  and  C2_4 
REMARK    2  A    between atoms: C3_7  and  N3_8 
REMARK    3  A    between atoms: N3_8  and  N4_10 
REMARK    4  A    between atoms: C5_15  and  N6_16 
ROOT
HETATM    1  C2  UNL     1     -22.356  53.088 -61.260  1.00  0.00     0.706 A 
HETATM    2  N2  UNL     1     -21.294  52.272 -61.222  1.00  0.00    -0.020 N 
ATOM      3  H2  UNL     1     -21.180  51.599 -61.979  1.00  0.00     0.203 HD
HETATM    4  C3  UNL     1     -20.372  52.285 -60.247  1.00  0.00     0.727 A 
HETATM    5  N5  UNL     1     -20.540  53.179 -59.254  1.00  0.00    -0.020 N 
ATOM      6  H5  UNL     1     -19.857  53.214 -58.497  1.00  0.00     0.203 HD
HETATM    7  C5  UNL     1     -21.573  54.017 -59.236  1.00  0.00     0.705 A 
HETATM    8  N7  UNL     1     -22.472  53.969 -60.233  1.00  0.00    -0.022 N 
ATOM      9  H7  UNL     1     -23.264  54.611 -60.218  1.00  0.00     0.203 HD
ENDROOT
BRANCH   4  10
HETATM   10  N3  UNL     1     -19.256  51.406 -60.232  1.00  0.00    -0.134 N 
HETATM   11  C4  UNL     1     -19.180  50.314 -61.147  1.00  0.00     0.197 C 
BRANCH  10  12
HETATM   12  N4  UNL     1     -18.249  51.636 -59.314  1.00  0.00    -0.329 N 
ATOM     13  H42 UNL     1     -17.327  51.954 -59.614  1.00  0.00     0.177 HD
ATOM     14  H41 UNL     1     -18.447  51.482 -58.326  1.00  0.00     0.177 HD
ENDBRANCH  10  12
ENDBRANCH   4  10
BRANCH   1  15
HETATM   15  N1  UNL     1     -23.247  53.108 -62.161  1.00  0.00    -0.229 N 
HETATM   16  C1  UNL     1     -23.583  52.046 -63.053  1.00  0.00     0.165 C 
ATOM     17  H1  UNL     1     -23.779  53.973 -62.259  1.00  0.00     0.177 HD
ENDBRANCH   1  15
BRANCH   7  18
HETATM   18  N6  UNL     1     -21.665  54.846 -58.250  1.00  0.00    -0.234 N 
ATOM     19  H62 UNL     1     -20.869  55.381 -57.901  1.00  0.00     0.174 HD
ATOM     20  H61 UNL     1     -22.576  54.965 -57.807  1.00  0.00     0.174 HD
ENDBRANCH   7  18
TORSDOF 4
ENDMDL
MODEL 2
REMARK VINA RESULT: -5.407376072      1.297      1.339
REMARK  4 active torsions:
REMARK  status: ('A' for Active; 'I' for Inactive)
REMARK    1  A    between atoms: N1_2  and  C2_4 
REMARK    2  A    between atoms: C3_7  and  N3_8 
REMARK    3  A    between atoms: N3_8  and  N4_10 
REMARK    4  A    between atoms: C5_15  and  N6_16 
ROOT
HETATM    1  C2  UNL     1     -22.636  52.201 -60.884  1.00  0.00     0.706 A 
HETATM    2  N2  UNL     1     -21.592  51.598 -60.299  1.00  0.00    -0.020 N 
ATOM      3  H2  UNL     1     -21.409  50.622 -60.534  1.00  0.00     0.203 HD
HETATM    4  C3  UNL     1     -20.772  52.198 -59.424  1.00  0.00     0.727 A 
HETATM    5  N5  UNL     1     -21.029  53.485 -59.124  1.00  0.00    -0.020 N 
ATOM      6  H5  UNL     1     -20.425  53.971 -58.461  1.00  0.00     0.203 HD
HETATM    7  C5  UNL     1     -22.050  54.139 -59.672  1.00  0.00     0.705 A 
HETATM    8  N7  UNL     1     -22.845  53.498 -60.544  1.00  0.00    -0.022 N 
ATOM      9  H7  UNL     1     -23.629  54.001 -60.963  1.00  0.00     0.203 HD
ENDROOT
BRANCH   4  10
HETATM   10  N3  UNL     1     -19.672  51.533 -58.819  1.00  0.00    -0.134 N 
HETATM   11  C4  UNL     1     -19.880  50.379 -58.005  1.00  0.00     0.197 C 
BRANCH  10  12
HETATM   12  N4  UNL     1     -18.401  52.029 -59.038  1.00  0.00    -0.329 N 
ATOM     13  H42 UNL     1     -18.257  52.998 -59.322  1.00  0.00     0.177 HD
ATOM     14  H41 UNL     1     -17.606  51.403 -58.909  1.00  0.00     0.177 HD
ENDBRANCH  10  12
ENDBRANCH   4  10
BRANCH   1  15
HETATM   15  N1  UNL     1     -23.433  51.670 -61.715  1.00  0.00    -0.229 N 
HETATM   16  C1  UNL     1     -23.370  51.764 -63.137  1.00  0.00     0.165 C 
ATOM     17  H1  UNL     1     -24.197  51.118 -61.326  1.00  0.00     0.177 HD
ENDBRANCH   1  15
BRANCH   7  18
HETATM   18  N6  UNL     1     -22.232  55.373 -59.335  1.00  0.00    -0.234 N 
ATOM     19  H62 UNL     1     -22.747  55.647 -58.498  1.00  0.00     0.174 HD
ATOM     20  H61 UNL     1     -21.839  56.097 -59.936  1.00  0.00     0.174 HD
ENDBRANCH   7  18
TORSDOF 4
ENDMDL
MODEL 3
REMARK VINA RESULT: -5.392847850      2.187      3.508
REMARK  4 active torsions:
REMARK  status: ('A' for Active; 'I' for Inactive)
REMARK    1  A    between atoms: N1_2  and  C2_4 
REMARK    2  A    between atoms: C3_7  and  N3_8 
REMARK    3  A    between atoms: N3_8  and  N4_10 
REMARK    4  A    between atoms: C5_15  and  N6_16 
ROOT
HETATM    1  C2  UNL     1     -22.016  51.663 -60.496  1.00  0.00     0.706 A 
HETATM    2  N2  UNL     1     -21.126  51.579 -59.497  1.00  0.00    -0.020 N 
ATOM      3  H2  UNL     1     -21.140  52.305 -58.781  1.00  0.00     0.203 HD
HETATM    4  C3  UNL     1     -20.219  50.597 -59.382  1.00  0.00     0.727 A 
HETATM    5  N5  UNL     1     -20.214  49.648 -60.336  1.00  0.00    -0.020 N 
ATOM      6  H5  UNL     1     -19.536  48.889 -60.278  1.00  0.00     0.203 HD
HETATM    7  C5  UNL     1     -21.072  49.676 -61.352  1.00  0.00     0.705 A 
HETATM    8  N7  UNL     1     -21.964  50.678 -61.429  1.00  0.00    -0.022 N 
ATOM      9  H7  UNL     1     -22.621  50.699 -62.209  1.00  0.00     0.203 HD
ENDROOT
BRANCH   4  10
HETATM   10  N3  UNL     1     -19.287  50.534 -58.310  1.00  0.00    -0.134 N 
HETATM   11  C4  UNL     1     -19.360  49.483 -57.347  1.00  0.00     0.197 C 
BRANCH  10  12
HETATM   12  N4  UNL     1     -18.312  51.509 -58.227  1.00  0.00    -0.329 N 
ATOM     13  H42 UNL     1     -17.857  51.869 -59.065  1.00  0.00     0.177 HD
ATOM     14  H41 UNL     1     -18.056  51.864 -57.305  1.00  0.00     0.177 HD
ENDBRANCH  10  12
ENDBRANCH   4  10
BRANCH   1  15
HETATM   15  N1  UNL     1     -22.888  52.572 -60.641  1.00  0.00    -0.229 N 
HETATM   16  C1  UNL     1     -22.677  53.980 -60.549  1.00  0.00     0.165 C 
ATOM     17  H1  UNL     1     -23.839  52.264 -60.844  1.00  0.00     0.177 HD
ENDBRANCH   1  15
BRANCH   7  18
HETATM   18  N6  UNL     1     -21.006  48.730 -62.229  1.00  0.00    -0.234 N 
ATOM     19  H62 UNL     1     -20.338  48.736 -63.000  1.00  0.00     0.174 HD
ATOM     20  H61 UNL     1     -21.653  47.947 -62.139  1.00  0.00     0.174 HD
ENDBRANCH   7  18
TORSDOF 4
ENDMDL
MODEL 4
REMARK VINA RESULT: -5.341404491      1.706      3.499
REMARK  4 active torsions:
REMARK  status: ('A' for Active; 'I' for Inactive)
REMARK    1  A    between atoms: N1_2  and  C2_4 
REMARK    2  A    between atoms: C3_7  and  N3_8 
REMARK    3  A    between atoms: N3_8  and  N4_10 
REMARK    4  A    between atoms: C5_15  and  N6_16 
ROOT
HETATM    1  C2  UNL     1     -22.688  53.384 -60.623  1.00  0.00     0.706 A 
HETATM    2  N2  UNL     1     -21.894  52.364 -60.272  1.00  0.00    -0.020 N 
ATOM      3  H2  UNL     1     -21.325  52.466 -59.431  1.00  0.00     0.203 HD
HETATM    4  C3  UNL     1     -21.801  51.214 -60.958  1.00  0.00     0.727 A 
HETATM    5  N5  UNL     1     -22.557  51.097 -62.066  1.00  0.00    -0.020 N 
ATOM      6  H5  UNL     1     -22.509  50.236 -62.611  1.00  0.00     0.203 HD
HETATM    7  C5  UNL     1     -23.366  52.074 -62.466  1.00  0.00     0.705 A 
HETATM    8  N7  UNL     1     -23.428  53.208 -61.747  1.00  0.00    -0.022 N 
ATOM      9  H7  UNL     1     -24.047  53.958 -62.056  1.00  0.00     0.203 HD
ENDROOT
BRANCH   4  10
HETATM   10  N3  UNL     1     -20.949  50.148 -60.562  1.00  0.00    -0.134 N 
HETATM   11  C4  UNL     1     -20.034  50.315 -59.479  1.00  0.00     0.197 C 
BRANCH  10  12
HETATM   12  N4  UNL     1     -21.030  48.951 -61.247  1.00  0.00    -0.329 N 
ATOM     13  H42 UNL     1     -21.882  48.390 -61.225  1.00  0.00     0.177 HD
ATOM     14  H41 UNL     1     -20.218  48.638 -61.777  1.00  0.00     0.177 HD
ENDBRANCH  10  12
ENDBRANCH   4  10
BRANCH   1  15
HETATM   15  N1  UNL     1     -22.805  54.483 -60.003  1.00  0.00    -0.229 N 
HETATM   16  C1  UNL     1     -21.954  54.974 -58.967  1.00  0.00     0.165 C 
ATOM     17  H1  UNL     1     -23.588  55.078 -60.272  1.00  0.00     0.177 HD
ENDBRANCH   1  15
BRANCH   7  18
HETATM   18  N6  UNL     1     -24.060  51.887 -63.539  1.00  0.00    -0.234 N 
ATOM     19  H62 UNL     1     -24.317  50.959 -63.876  1.00  0.00     0.174 HD
ATOM     20  H61 UNL     1     -24.361  52.707 -64.064  1.00  0.00     0.174 HD
ENDBRANCH   7  18
TORSDOF 4
ENDMDL
MODEL 5
REMARK VINA RESULT: -5.327365001      2.126      4.951
REMARK  4 active torsions:
REMARK  status: ('A' for Active; 'I' for Inactive)
REMARK    1  A    between atoms: N1_2  and  C2_4 
REMARK    2  A    between atoms: C3_7  and  N3_8 
REMARK    3  A    between atoms: N3_8  and  N4_10 
REMARK    4  A    between atoms: C5_15  and  N6_16 
ROOT
HETATM    1  C2  UNL     1     -20.442  50.615 -59.134  1.00  0.00     0.706 A 
HETATM    2  N2  UNL     1     -21.306  51.554 -59.543  1.00  0.00    -0.020 N 
ATOM      3  H2  UNL     1     -21.587  52.271 -58.873  1.00  0.00     0.203 HD
HETATM    4  C3  UNL     1     -21.825  51.609 -60.779  1.00  0.00     0.727 A 
HETATM    5  N5  UNL     1     -21.446  50.655 -61.648  1.00  0.00    -0.020 N 
ATOM      6  H5  UNL     1     -21.823  50.667 -62.596  1.00  0.00     0.203 HD
HETATM    7  C5  UNL     1     -20.590  49.696 -61.303  1.00  0.00     0.705 A 
HETATM    8  N7  UNL     1     -20.094  49.680 -60.055  1.00  0.00    -0.022 N 
ATOM      9  H7  UNL     1     -19.439  48.944 -59.791  1.00  0.00     0.203 HD
ENDROOT
BRANCH   4  10
HETATM   10  N3  UNL     1     -22.741  52.617 -61.184  1.00  0.00    -0.134 N 
HETATM   11  C4  UNL     1     -23.328  52.584 -62.485  1.00  0.00     0.197 C 
BRANCH  10  12
HETATM   12  N4  UNL     1     -23.049  53.626 -60.291  1.00  0.00    -0.329 N 
ATOM     13  H42 UNL     1     -24.008  53.956 -60.182  1.00  0.00     0.177 HD
ATOM     14  H41 UNL     1     -22.294  54.034 -59.739  1.00  0.00     0.177 HD
ENDBRANCH  10  12
ENDBRANCH   4  10
BRANCH   1  15
HETATM   15  N1  UNL     1     -19.929  50.529 -57.978  1.00  0.00    -0.229 N 
HETATM   16  C1  UNL     1     -19.394  49.355 -57.368  1.00  0.00     0.165 C 
ATOM     17  H1  UNL     1     -19.895  51.386 -57.428  1.00  0.00     0.177 HD
ENDBRANCH   1  15
BRANCH   7  18
HETATM   18  N6  UNL     1     -20.273  48.816 -62.194  1.00  0.00    -0.234 N 
ATOM     19  H62 UNL     1     -19.937  49.066 -63.124  1.00  0.00     0.174 HD
ATOM     20  H61 UNL     1     -20.365  47.831 -61.948  1.00  0.00     0.174 HD
ENDBRANCH   7  18
TORSDOF 4
ENDMDL
