MODEL 1
REMARK VINA RESULT: -6.672266084      0.000      0.000
REMARK  4 active torsions:
REMARK  status: ('A' for Active; 'I' for Inactive)
REMARK    1  A    between atoms: N1_1  and  N2_4 
REMARK    2  A    between atoms: C1_6  and  C2_8 
REMARK    3  A    between atoms: C3_15  and  C4_16 
REMARK       I    between atoms: C4_16  and  N7_18 
REMARK    4  A    between atoms: N7_18  and  N8_20 
ROOT
HETATM    1  C2  UNL     1     -21.554  52.973 -60.879  1.00  0.00     0.125 A 
HETATM    2  N4  UNL     1     -21.611  53.894 -59.865  1.00  0.00    -0.281 N 
ATOM      3  H4  UNL     1     -21.863  54.878 -59.966  1.00  0.00     0.188 HD
HETATM    4  N5  UNL     1     -21.292  53.303 -58.759  1.00  0.00    -0.242 N 
ATOM      5  H5  UNL     1     -21.254  53.759 -57.847  1.00  0.00     0.208 HD
HETATM    6  N6  UNL     1     -21.024  52.039 -58.971  1.00  0.00    -0.279 N 
ATOM      7  H6  UNL     1     -20.747  51.355 -58.267  1.00  0.00     0.189 HD
HETATM    8  C3  UNL     1     -21.184  51.800 -60.322  1.00  0.00     0.150 A 
ENDROOT
BRANCH   1   9
HETATM    9  C1  UNL     1     -21.859  53.318 -62.262  1.00  0.00     0.161 C 
HETATM   10  N2  UNL     1     -22.965  53.142 -62.798  1.00  0.00    -0.292 N 
ATOM     11  H2  UNL     1     -23.702  52.728 -62.228  1.00  0.00     0.187 HD
HETATM   12  N3  UNL     1     -20.826  53.905 -63.082  1.00  0.00    -0.079 NA
BRANCH  10  13
HETATM   13  N1  UNL     1     -23.278  53.462 -64.108  1.00  0.00    -0.344 N 
ATOM     14  H12 UNL     1     -24.158  53.955 -64.255  1.00  0.00     0.176 HD
ATOM     15  H11 UNL     1     -22.701  53.244 -64.921  1.00  0.00     0.176 HD
ENDBRANCH  10  13
ENDBRANCH   1   9
BRANCH   8  16
HETATM   16  C4  UNL     1     -20.969  50.494 -60.924  1.00  0.00     0.290 C 
HETATM   17  O1  UNL     1     -21.787  49.579 -61.011  1.00  0.00    -0.264 OA
HETATM   18  N7  UNL     1     -19.669  50.216 -61.488  1.00  0.00    -0.271 N 
ATOM     19  H7  UNL     1     -18.930  50.918 -61.462  1.00  0.00     0.189 HD
BRANCH  18  20
HETATM   20  N8  UNL     1     -19.445  48.980 -62.065  1.00  0.00    -0.342 N 
ATOM     21  H82 UNL     1     -19.909  48.740 -62.941  1.00  0.00     0.176 HD
ATOM     22  H81 UNL     1     -18.815  48.327 -61.599  1.00  0.00     0.176 HD
ENDBRANCH  18  20
ENDBRANCH   8  16
TORSDOF 4
ENDMDL
MODEL 2
REMARK VINA RESULT: -6.659198826      2.275      3.365
REMARK  4 active torsions:
REMARK  status: ('A' for Active; 'I' for Inactive)
REMARK    1  A    between atoms: N1_1  and  N2_4 
REMARK    2  A    between atoms: C1_6  and  C2_8 
REMARK    3  A    between atoms: C3_15  and  C4_16 
REMARK       I    between atoms: C4_16  and  N7_18 
REMARK    4  A    between atoms: N7_18  and  N8_20 
ROOT
HETATM    1  C2  UNL     1     -22.033  52.053 -60.760  1.00  0.00     0.125 A 
HETATM    2  N4  UNL     1     -23.228  52.721 -60.703  1.00  0.00    -0.281 N 
ATOM      3  H4  UNL     1     -24.105  52.414 -61.126  1.00  0.00     0.188 HD
HETATM    4  N5  UNL     1     -23.055  53.808 -60.022  1.00  0.00    -0.242 N 
ATOM      5  H5  UNL     1     -23.785  54.493 -59.826  1.00  0.00     0.208 HD
HETATM    6  N6  UNL     1     -21.814  53.908 -59.618  1.00  0.00    -0.279 N 
ATOM      7  H6  UNL     1     -21.419  54.668 -59.065  1.00  0.00     0.189 HD
HETATM    8  C3  UNL     1     -21.135  52.796 -60.078  1.00  0.00     0.150 A 
ENDROOT
BRANCH   1   9
HETATM    9  C1  UNL     1     -21.885  50.782 -61.460  1.00  0.00     0.161 C 
HETATM   10  N2  UNL     1     -21.254  49.810 -61.014  1.00  0.00    -0.292 N 
ATOM     11  H2  UNL     1     -20.815  49.914 -60.100  1.00  0.00     0.187 HD
HETATM   12  N3  UNL     1     -22.500  50.619 -62.755  1.00  0.00    -0.079 NA
BRANCH  10  13
HETATM   13  N1  UNL     1     -21.101  48.594 -61.659  1.00  0.00    -0.344 N 
ATOM     14  H12 UNL     1     -20.807  48.634 -62.635  1.00  0.00     0.176 HD
ATOM     15  H11 UNL     1     -21.258  47.680 -61.236  1.00  0.00     0.176 HD
ENDBRANCH  10  13
ENDBRANCH   1   9
BRANCH   8  16
HETATM   16  C4  UNL     1     -19.722  52.568 -59.817  1.00  0.00     0.290 C 
HETATM   17  O1  UNL     1     -18.773  53.117 -60.375  1.00  0.00    -0.264 OA
HETATM   18  N7  UNL     1     -19.369  51.604 -58.803  1.00  0.00    -0.271 N 
ATOM     19  H7  UNL     1     -20.093  51.102 -58.288  1.00  0.00     0.189 HD
BRANCH  18  20
HETATM   20  N8  UNL     1     -18.032  51.374 -58.540  1.00  0.00    -0.342 N 
ATOM     21  H82 UNL     1     -17.725  50.441 -58.264  1.00  0.00     0.176 HD
ATOM     22  H81 UNL     1     -17.374  52.148 -58.628  1.00  0.00     0.176 HD
ENDBRANCH  18  20
ENDBRANCH   8  16
TORSDOF 4
ENDMDL
MODEL 3
REMARK VINA RESULT: -6.564144166      1.516      3.879
REMARK  4 active torsions:
REMARK  status: ('A' for Active; 'I' for Inactive)
REMARK    1  A    between atoms: N1_1  and  N2_4 
REMARK    2  A    between atoms: C1_6  and  C2_8 
REMARK    3  A    between atoms: C3_15  and  C4_16 
REMARK       I    between atoms: C4_16  and  N7_18 
REMARK    4  A    between atoms: N7_18  and  N8_20 
ROOT
HETATM    1  C2  UNL     1     -21.328  51.691 -60.494  1.00  0.00     0.125 A 
HETATM    2  N4  UNL     1     -21.212  52.630 -59.502  1.00  0.00    -0.281 N 
ATOM      3  H4  UNL     1     -20.501  52.641 -58.770  1.00  0.00     0.188 HD
HETATM    4  N5  UNL     1     -22.157  53.502 -59.653  1.00  0.00    -0.242 N 
ATOM      5  H5  UNL     1     -22.303  54.311 -59.049  1.00  0.00     0.208 HD
HETATM    6  N6  UNL     1     -22.901  53.202 -60.688  1.00  0.00    -0.279 N 
ATOM      7  H6  UNL     1     -23.709  53.727 -61.022  1.00  0.00     0.189 HD
HETATM    8  C3  UNL     1     -22.392  52.045 -61.245  1.00  0.00     0.150 A 
ENDROOT
BRANCH   1   9
HETATM    9  C1  UNL     1     -20.411  50.563 -60.609  1.00  0.00     0.161 C 
HETATM   10  N2  UNL     1     -19.936  50.157 -61.681  1.00  0.00    -0.292 N 
ATOM     11  H2  UNL     1     -20.211  50.648 -62.532  1.00  0.00     0.187 HD
HETATM   12  N3  UNL     1     -20.015  49.858 -59.414  1.00  0.00    -0.079 NA
BRANCH  10  13
HETATM   13  N1  UNL     1     -19.064  49.090 -61.815  1.00  0.00    -0.344 N 
ATOM     14  H12 UNL     1     -19.183  48.511 -62.646  1.00  0.00     0.176 HD
ATOM     15  H11 UNL     1     -18.326  48.847 -61.154  1.00  0.00     0.176 HD
ENDBRANCH  10  13
ENDBRANCH   1   9
BRANCH   8  16
HETATM   16  C4  UNL     1     -22.972  51.413 -62.421  1.00  0.00     0.290 C 
HETATM   17  O1  UNL     1     -22.578  50.388 -62.975  1.00  0.00    -0.264 OA
HETATM   18  N7  UNL     1     -24.131  52.032 -63.018  1.00  0.00    -0.271 N 
ATOM     19  H7  UNL     1     -24.526  52.885 -62.624  1.00  0.00     0.189 HD
BRANCH  18  20
HETATM   20  N8  UNL     1     -24.696  51.447 -64.136  1.00  0.00    -0.342 N 
ATOM     21  H82 UNL     1     -24.507  50.466 -64.341  1.00  0.00     0.176 HD
ATOM     22  H81 UNL     1     -25.295  52.013 -64.737  1.00  0.00     0.176 HD
ENDBRANCH  18  20
ENDBRANCH   8  16
TORSDOF 4
ENDMDL
MODEL 4
REMARK VINA RESULT: -6.563629462      2.379      4.101
REMARK  4 active torsions:
REMARK  status: ('A' for Active; 'I' for Inactive)
REMARK    1  A    between atoms: N1_1  and  N2_4 
REMARK    2  A    between atoms: C1_6  and  C2_8 
REMARK    3  A    between atoms: C3_15  and  C4_16 
REMARK       I    between atoms: C4_16  and  N7_18 
REMARK    4  A    between atoms: N7_18  and  N8_20 
ROOT
HETATM    1  C2  UNL     1     -21.175  53.593 -59.306  1.00  0.00     0.125 A 
HETATM    2  N4  UNL     1     -21.481  54.627 -58.459  1.00  0.00    -0.281 N 
ATOM      3  H4  UNL     1     -21.097  54.765 -57.524  1.00  0.00     0.188 HD
HETATM    4  N5  UNL     1     -22.339  55.396 -59.048  1.00  0.00    -0.242 N 
ATOM      5  H5  UNL     1     -22.737  56.242 -58.639  1.00  0.00     0.208 HD
HETATM    6  N6  UNL     1     -22.627  54.940 -60.241  1.00  0.00    -0.279 N 
ATOM      7  H6  UNL     1     -23.274  55.361 -60.907  1.00  0.00     0.189 HD
HETATM    8  C3  UNL     1     -21.895  53.784 -60.433  1.00  0.00     0.150 A 
ENDROOT
BRANCH   1   9
HETATM    9  C1  UNL     1     -20.232  52.542 -58.943  1.00  0.00     0.161 C 
HETATM   10  N2  UNL     1     -19.055  52.496 -59.333  1.00  0.00    -0.292 N 
ATOM     11  H2  UNL     1     -18.734  53.245 -59.947  1.00  0.00     0.187 HD
HETATM   12  N3  UNL     1     -20.671  51.476 -58.076  1.00  0.00    -0.079 NA
BRANCH  10  13
HETATM   13  N1  UNL     1     -18.141  51.510 -59.001  1.00  0.00    -0.344 N 
ATOM     14  H12 UNL     1     -18.000  51.342 -58.006  1.00  0.00     0.176 HD
ATOM     15  H11 UNL     1     -17.611  50.951 -59.669  1.00  0.00     0.176 HD
ENDBRANCH  10  13
ENDBRANCH   1   9
BRANCH   8  16
HETATM   16  C4  UNL     1     -21.962  53.000 -61.656  1.00  0.00     0.290 C 
HETATM   17  O1  UNL     1     -21.052  52.813 -62.462  1.00  0.00    -0.264 OA
HETATM   18  N7  UNL     1     -23.216  52.361 -61.981  1.00  0.00    -0.271 N 
ATOM     19  H7  UNL     1     -24.024  52.461 -61.367  1.00  0.00     0.189 HD
BRANCH  18  20
HETATM   20  N8  UNL     1     -23.300  51.611 -63.139  1.00  0.00    -0.342 N 
ATOM     21  H82 UNL     1     -23.275  50.593 -63.083  1.00  0.00     0.176 HD
ATOM     22  H81 UNL     1     -23.386  52.096 -64.032  1.00  0.00     0.176 HD
ENDBRANCH  18  20
ENDBRANCH   8  16
TORSDOF 4
ENDMDL
MODEL 5
REMARK VINA RESULT: -6.541073096      1.869      2.828
REMARK  4 active torsions:
REMARK  status: ('A' for Active; 'I' for Inactive)
REMARK    1  A    between atoms: N1_1  and  N2_4 
REMARK    2  A    between atoms: C1_6  and  C2_8 
REMARK    3  A    between atoms: C3_15  and  C4_16 
REMARK       I    between atoms: C4_16  and  N7_18 
REMARK    4  A    between atoms: N7_18  and  N8_20 
ROOT
HETATM    1  C2  UNL     1     -19.945  52.330 -59.474  1.00  0.00     0.125 A 
HETATM    2  N4  UNL     1     -18.796  52.573 -58.767  1.00  0.00    -0.281 N 
ATOM      3  H4  UNL     1     -18.521  53.469 -58.365  1.00  0.00     0.188 HD
HETATM    4  N5  UNL     1     -18.120  51.471 -58.698  1.00  0.00    -0.242 N 
ATOM      5  H5  UNL     1     -17.221  51.370 -58.226  1.00  0.00     0.208 HD
HETATM    6  N6  UNL     1     -18.748  50.503 -59.317  1.00  0.00    -0.279 N 
ATOM      7  H6  UNL     1     -18.430  49.539 -59.408  1.00  0.00     0.189 HD
HETATM    8  C3  UNL     1     -19.922  51.027 -59.825  1.00  0.00     0.150 A 
ENDROOT
BRANCH   1   9
HETATM    9  C1  UNL     1     -20.932  53.371 -59.735  1.00  0.00     0.161 C 
HETATM   10  N2  UNL     1     -21.563  53.972 -58.851  1.00  0.00    -0.292 N 
ATOM     11  H2  UNL     1     -21.372  53.716 -57.882  1.00  0.00     0.187 HD
HETATM   12  N3  UNL     1     -21.213  53.745 -61.101  1.00  0.00    -0.079 NA
BRANCH  10  13
HETATM   13  N1  UNL     1     -22.503  54.964 -59.073  1.00  0.00    -0.344 N 
ATOM     14  H12 UNL     1     -23.331  54.943 -58.477  1.00  0.00     0.176 HD
ATOM     15  H11 UNL     1     -22.429  55.698 -59.777  1.00  0.00     0.176 HD
ENDBRANCH  10  13
ENDBRANCH   1   9
BRANCH   8  16
HETATM   16  C4  UNL     1     -20.880  50.233 -60.579  1.00  0.00     0.290 C 
HETATM   17  O1  UNL     1     -22.090  50.434 -60.675  1.00  0.00    -0.264 OA
HETATM   18  N7  UNL     1     -20.386  49.085 -61.301  1.00  0.00    -0.271 N 
ATOM     19  H7  UNL     1     -19.395  48.844 -61.279  1.00  0.00     0.189 HD
BRANCH  18  20
HETATM   20  N8  UNL     1     -21.281  48.318 -62.024  1.00  0.00    -0.342 N 
ATOM     21  H82 UNL     1     -21.171  48.233 -63.034  1.00  0.00     0.176 HD
ATOM     22  H81 UNL     1     -22.038  47.850 -61.528  1.00  0.00     0.176 HD
ENDBRANCH  18  20
ENDBRANCH   8  16
TORSDOF 4
ENDMDL
