MODEL 1
REMARK VINA RESULT: -10.838279831      0.000      0.000
REMARK  16 active torsions:
REMARK  status: ('A' for Active; 'I' for Inactive)
REMARK    1  A    between atoms: C3_3  and  N1_4 
REMARK    2  A    between atoms: N1_4  and  C4_6 
REMARK    3  A    between atoms: C4_6  and  C5_7 
REMARK    4  A    between atoms: C5_7  and  N2_8 
REMARK    5  A    between atoms: C7_10  and  C8_11 
REMARK    6  A    between atoms: C11_15  and  O2_16 
REMARK    7  A    between atoms: C13_23  and  C14_24 
REMARK    8  A    between atoms: C14_24  and  N5_25 
REMARK    9  A    between atoms: C17_32  and  N8_33 
REMARK   10  A    between atoms: C19_35  and  C20_36 
REMARK   11  A    between atoms: C20_36  and  N9_37 
REMARK   12  A    between atoms: C20_36  and  C21_41 
REMARK   13  A    between atoms: C21_41  and  C22_42 
REMARK   14  A    between atoms: C24_53  and  N14_54 
REMARK   15  A    between atoms: N15_57  and  N16_58 
REMARK   16  A    between atoms: N17_64  and  O6_66 
ROOT
HETATM    1  N2  UNL     1     -17.910  22.282  38.785  1.00  0.00    -0.342 N 
HETATM    2  C6  UNL     1     -17.699  22.095  37.451  1.00  0.00     0.124 A 
HETATM    3  C7  UNL     1     -18.777  22.555  36.737  1.00  0.00     0.076 A 
HETATM    4  N4  UNL     1     -19.651  23.027  37.650  1.00  0.00    -0.341 N 
ATOM      5  H4  UNL     1     -20.560  23.441  37.444  1.00  0.00     0.167 HD
HETATM    6  C13 UNL     1     -19.114  22.857  38.897  1.00  0.00     0.102 A 
ENDROOT
BRANCH   6   7
HETATM    7  C14 UNL     1     -19.749  23.263  40.175  1.00  0.00     0.208 C 
BRANCH   7   8
HETATM    8  N5  UNL     1     -19.314  24.616  40.437  1.00  0.00    -0.319 N 
HETATM    9  C15 UNL     1     -18.184  24.990  41.043  1.00  0.00     0.186 A 
HETATM   10  N6  UNL     1     -18.116  26.341  41.107  1.00  0.00    -0.335 N 
HETATM   11  C16 UNL     1     -19.224  26.846  40.529  1.00  0.00     0.167 A 
ATOM     12  H6  UNL     1     -17.357  26.882  41.521  1.00  0.00     0.168 HD
HETATM   13  N7  UNL     1     -19.919  27.944  40.181  1.00  0.00    -0.171 N 
HETATM   14  C23 UNL     1     -19.971  25.742  40.110  1.00  0.00     0.169 A 
HETATM   15  C17 UNL     1     -21.063  27.596  39.568  1.00  0.00     0.705 A 
ATOM     16  H7  UNL     1     -19.621  28.903  40.359  1.00  0.00     0.186 HD
HETATM   17  N12 UNL     1     -21.084  26.268  39.531  1.00  0.00    -0.171 N 
ATOM     18  H12 UNL     1     -21.836  25.715  39.121  1.00  0.00     0.186 HD
BRANCH  15  19
HETATM   19  N8  UNL     1     -22.047  28.514  39.064  1.00  0.00    -0.080 N 
HETATM   20  C18 UNL     1     -22.800  28.384  37.968  1.00  0.00     0.161 A 
HETATM   21  C19 UNL     1     -23.596  29.488  37.871  1.00  0.00     0.072 A 
HETATM   22  N10 UNL     1     -23.309  30.275  38.922  1.00  0.00    -0.284 N 
HETATM   23  N11 UNL     1     -22.373  29.665  39.626  1.00  0.00    -0.001 NA
ATOM     24  H10 UNL     1     -23.735  31.176  39.137  1.00  0.00     0.184 HD
BRANCH  21  25
HETATM   25  C20 UNL     1     -24.595  29.766  36.803  1.00  0.00     0.245 C 
BRANCH  25  26
HETATM   26  N9  UNL     1     -24.488  31.118  36.292  1.00  0.00    -0.069 N 
ATOM     27  H93 UNL     1     -24.238  31.773  37.032  1.00  0.00     0.275 HD
ATOM     28  H92 UNL     1     -23.665  31.223  35.699  1.00  0.00     0.275 HD
ATOM     29  H91 UNL     1     -25.333  31.414  35.806  1.00  0.00     0.275 HD
ENDBRANCH  25  26
BRANCH  25  30
HETATM   30  C21 UNL     1     -25.966  29.571  37.402  1.00  0.00     0.152 C 
BRANCH  30  31
HETATM   31  C22 UNL     1     -26.487  30.913  37.823  1.00  0.00     0.174 C 
HETATM   32  O3  UNL     1     -27.402  31.432  37.145  1.00  0.00    -0.648 OA
HETATM   33  O4  UNL     1     -26.004  31.586  38.914  1.00  0.00    -0.648 OA
ENDBRANCH  30  31
ENDBRANCH  25  30
ENDBRANCH  21  25
ENDBRANCH  15  19
ENDBRANCH   7   8
ENDBRANCH   6   7
BRANCH   1  34
HETATM   34  C5  UNL     1     -16.949  21.872  39.792  1.00  0.00     0.149 C 
BRANCH  34  35
HETATM   35  C4  UNL     1     -15.749  21.254  39.113  1.00  0.00     0.141 C 
BRANCH  35  36
HETATM   36  N1  UNL     1     -15.065  22.132  38.206  1.00  0.00    -0.374 N 
ATOM     37  H1  UNL     1     -15.449  22.205  37.264  1.00  0.00     0.161 HD
BRANCH  36  38
HETATM   38  C3  UNL     1     -13.918  22.902  38.482  1.00  0.00     0.125 C 
HETATM   39  C2  UNL     1     -14.005  24.265  38.292  1.00  0.00     0.017 C 
HETATM   40  C1  UNL     1     -15.355  24.776  38.021  1.00  0.00     0.055 C 
HETATM   41  C26 UNL     1     -12.964  25.180  38.336  1.00  0.00     0.134 C 
HETATM   42  C25 UNL     1     -11.708  25.051  38.887  1.00  0.00     0.310 C 
HETATM   43  N17 UNL     1     -13.206  26.305  37.783  1.00  0.00    -0.263 N 
HETATM   44  N15 UNL     1     -11.225  23.945  39.509  1.00  0.00    -0.052 N 
HETATM   45  O5  UNL     1     -10.929  26.037  38.819  1.00  0.00    -0.263 OA
HETATM   46  C24 UNL     1     -11.745  22.700  39.570  1.00  0.00     0.701 C 
HETATM   47  N13 UNL     1     -12.825  22.214  38.890  1.00  0.00    -0.175 N 
ATOM     48  H13 UNL     1     -12.806  21.220  38.664  1.00  0.00     0.186 HD
ATOM     49  H17 UNL     1     -14.127  26.433  37.363  1.00  0.00     0.194 HD
BRANCH  44  50
HETATM   50  N16 UNL     1     -10.014  24.112  40.185  1.00  0.00    -0.321 N 
ATOM     51 2H16 UNL     1      -9.615  23.265  40.591  1.00  0.00     0.178 HD
ATOM     52 1H16 UNL     1      -9.658  25.068  40.201  1.00  0.00     0.178 HD
ENDBRANCH  44  50
BRANCH  46  53
HETATM   53  N14 UNL     1     -11.164  21.873  40.348  1.00  0.00    -0.233 N 
ATOM     54 2H14 UNL     1     -11.757  21.189  40.816  1.00  0.00     0.174 HD
ATOM     55 1H14 UNL     1     -10.152  21.979  40.430  1.00  0.00     0.174 HD
ENDBRANCH  46  53
BRANCH  43  56
HETATM   56  O6  UNL     1     -12.336  27.343  37.709  1.00  0.00    -0.289 OA
ATOM     57  H6  UNL     1     -11.813  27.564  36.948  1.00  0.00     0.244 HD
ENDBRANCH  43  56
ENDBRANCH  36  38
ENDBRANCH  35  36
ENDBRANCH  34  35
ENDBRANCH   1  34
BRANCH   3  58
HETATM   58  C8  UNL     1     -18.949  22.541  35.291  1.00  0.00     0.064 A 
HETATM   59  C9  UNL     1     -18.153  21.756  34.518  1.00  0.00     0.089 A 
HETATM   60  C10 UNL     1     -18.252  21.684  33.137  1.00  0.00     0.208 A 
HETATM   61  O1  UNL     1     -17.490  20.942  32.475  1.00  0.00    -0.285 OA
HETATM   62  C11 UNL     1     -19.216  22.458  32.547  1.00  0.00     0.131 A 
HETATM   63  C12 UNL     1     -20.026  23.257  33.348  1.00  0.00     0.129 A 
HETATM   64  N3  UNL     1     -19.891  23.295  34.698  1.00  0.00    -0.361 N 
ATOM     65  H3  UNL     1     -20.500  23.892  35.259  1.00  0.00     0.165 HD
BRANCH  62  66
HETATM   66  O2  UNL     1     -19.379  22.441  31.169  1.00  0.00    -0.356 OA
ATOM     67  H2  UNL     1     -18.710  22.811  30.604  1.00  0.00     0.218 HD
ENDBRANCH  62  66
ENDBRANCH   3  58
TORSDOF 16
ENDMDL
MODEL 2
REMARK VINA RESULT: -10.777134457      1.224      2.276
REMARK  16 active torsions:
REMARK  status: ('A' for Active; 'I' for Inactive)
REMARK    1  A    between atoms: C3_3  and  N1_4 
REMARK    2  A    between atoms: N1_4  and  C4_6 
REMARK    3  A    between atoms: C4_6  and  C5_7 
REMARK    4  A    between atoms: C5_7  and  N2_8 
REMARK    5  A    between atoms: C7_10  and  C8_11 
REMARK    6  A    between atoms: C11_15  and  O2_16 
REMARK    7  A    between atoms: C13_23  and  C14_24 
REMARK    8  A    between atoms: C14_24  and  N5_25 
REMARK    9  A    between atoms: C17_32  and  N8_33 
REMARK   10  A    between atoms: C19_35  and  C20_36 
REMARK   11  A    between atoms: C20_36  and  N9_37 
REMARK   12  A    between atoms: C20_36  and  C21_41 
REMARK   13  A    between atoms: C21_41  and  C22_42 
REMARK   14  A    between atoms: C24_53  and  N14_54 
REMARK   15  A    between atoms: N15_57  and  N16_58 
REMARK   16  A    between atoms: N17_64  and  O6_66 
ROOT
HETATM    1  N2  UNL     1     -17.758  22.239  37.496  1.00  0.00    -0.342 N 
HETATM    2  C6  UNL     1     -18.325  21.820  36.329  1.00  0.00     0.124 A 
HETATM    3  C7  UNL     1     -19.047  22.843  35.766  1.00  0.00     0.076 A 
HETATM    4  N4  UNL     1     -18.917  23.892  36.603  1.00  0.00    -0.341 N 
ATOM      5  H4  UNL     1     -19.335  24.813  36.472  1.00  0.00     0.167 HD
HETATM    6  C13 UNL     1     -18.128  23.516  37.656  1.00  0.00     0.102 A 
ENDROOT
BRANCH   6   7
HETATM    7  C14 UNL     1     -17.723  24.385  38.789  1.00  0.00     0.208 C 
BRANCH   7   8
HETATM    8  N5  UNL     1     -18.880  24.506  39.646  1.00  0.00    -0.319 N 
HETATM    9  C15 UNL     1     -19.172  23.752  40.708  1.00  0.00     0.186 A 
HETATM   10  N6  UNL     1     -20.336  24.162  41.265  1.00  0.00    -0.335 N 
HETATM   11  C16 UNL     1     -20.802  25.203  40.546  1.00  0.00     0.167 A 
ATOM     12  H6  UNL     1     -20.783  23.753  42.086  1.00  0.00     0.168 HD
HETATM   13  N7  UNL     1     -21.769  26.125  40.386  1.00  0.00    -0.171 N 
HETATM   14  C23 UNL     1     -19.870  25.408  39.526  1.00  0.00     0.169 A 
HETATM   15  C17 UNL     1     -21.499  26.900  39.321  1.00  0.00     0.705 A 
ATOM     16  H7  UNL     1     -22.588  26.221  40.985  1.00  0.00     0.186 HD
HETATM   17  N12 UNL     1     -20.354  26.460  38.812  1.00  0.00    -0.171 N 
ATOM     18  H12 UNL     1     -19.898  26.858  37.992  1.00  0.00     0.186 HD
BRANCH  15  19
HETATM   19  N8  UNL     1     -22.319  27.986  38.857  1.00  0.00    -0.080 N 
HETATM   20  C18 UNL     1     -23.140  27.997  37.804  1.00  0.00     0.161 A 
HETATM   21  C19 UNL     1     -23.719  29.230  37.734  1.00  0.00     0.072 A 
HETATM   22  N10 UNL     1     -23.232  29.953  38.758  1.00  0.00    -0.284 N 
HETATM   23  N11 UNL     1     -22.391  29.180  39.420  1.00  0.00    -0.001 NA
ATOM     24  H10 UNL     1     -23.468  30.919  38.982  1.00  0.00     0.184 HD
BRANCH  21  25
HETATM   25  C20 UNL     1     -24.704  29.689  36.716  1.00  0.00     0.245 C 
BRANCH  25  26
HETATM   26  N9  UNL     1     -24.479  31.063  36.317  1.00  0.00    -0.069 N 
ATOM     27  H93 UNL     1     -24.853  31.713  37.007  1.00  0.00     0.275 HD
ATOM     28  H92 UNL     1     -23.491  31.308  36.381  1.00  0.00     0.275 HD
ATOM     29  H91 UNL     1     -24.847  31.258  35.387  1.00  0.00     0.275 HD
ENDBRANCH  25  26
BRANCH  25  30
HETATM   30  C21 UNL     1     -26.078  29.570  37.330  1.00  0.00     0.152 C 
BRANCH  30  31
HETATM   31  C22 UNL     1     -26.529  30.942  37.733  1.00  0.00     0.174 C 
HETATM   32  O3  UNL     1     -26.054  31.438  38.779  1.00  0.00    -0.648 OA
HETATM   33  O4  UNL     1     -27.435  31.667  37.004  1.00  0.00    -0.648 OA
ENDBRANCH  30  31
ENDBRANCH  25  30
ENDBRANCH  21  25
ENDBRANCH  15  19
ENDBRANCH   7   8
ENDBRANCH   6   7
BRANCH   1  34
HETATM   34  C5  UNL     1     -16.950  21.366  38.328  1.00  0.00     0.149 C 
BRANCH  34  35
HETATM   35  C4  UNL     1     -15.552  21.294  37.763  1.00  0.00     0.141 C 
BRANCH  35  36
HETATM   36  N1  UNL     1     -14.516  21.623  38.701  1.00  0.00    -0.374 N 
ATOM     37  H1  UNL     1     -14.326  20.937  39.431  1.00  0.00     0.161 HD
BRANCH  36  38
HETATM   38  C3  UNL     1     -13.735  22.795  38.718  1.00  0.00     0.125 C 
HETATM   39  C2  UNL     1     -12.409  22.673  39.074  1.00  0.00     0.017 C 
HETATM   40  C1  UNL     1     -11.916  21.294  39.193  1.00  0.00     0.055 C 
HETATM   41  C26 UNL     1     -11.513  23.703  39.321  1.00  0.00     0.134 C 
HETATM   42  C25 UNL     1     -11.588  25.031  38.964  1.00  0.00     0.310 C 
HETATM   43  N17 UNL     1     -10.469  23.369  39.975  1.00  0.00    -0.263 N 
HETATM   44  N15 UNL     1     -12.609  25.613  38.284  1.00  0.00    -0.052 N 
HETATM   45  O5  UNL     1     -10.633  25.784  39.289  1.00  0.00    -0.263 OA
HETATM   46  C24 UNL     1     -13.826  25.116  37.973  1.00  0.00     0.701 C 
HETATM   47  N13 UNL     1     -14.380  23.943  38.400  1.00  0.00    -0.175 N 
ATOM     48  H13 UNL     1     -15.396  23.930  38.490  1.00  0.00     0.186 HD
ATOM     49  H17 UNL     1     -10.383  22.392  40.256  1.00  0.00     0.194 HD
BRANCH  44  50
HETATM   50  N16 UNL     1     -12.373  26.916  37.838  1.00  0.00    -0.321 N 
ATOM     51 2H16 UNL     1     -12.905  27.204  37.016  1.00  0.00     0.178 HD
ATOM     52 1H16 UNL     1     -11.690  27.441  38.385  1.00  0.00     0.178 HD
ENDBRANCH  44  50
BRANCH  46  53
HETATM   53  N14 UNL     1     -14.550  25.818  37.193  1.00  0.00    -0.233 N 
ATOM     54 2H14 UNL     1     -15.557  25.791  37.352  1.00  0.00     0.174 HD
ATOM     55 1H14 UNL     1     -14.048  26.344  36.476  1.00  0.00     0.174 HD
ENDBRANCH  46  53
BRANCH  43  56
HETATM   56  O6  UNL     1      -9.465  24.211  40.326  1.00  0.00    -0.289 OA
ATOM     57  H6  UNL     1      -9.431  24.716  41.130  1.00  0.00     0.244 HD
ENDBRANCH  43  56
ENDBRANCH  36  38
ENDBRANCH  35  36
ENDBRANCH  34  35
ENDBRANCH   1  34
BRANCH   3  58
HETATM   58  C8  UNL     1     -19.803  22.808  34.521  1.00  0.00     0.064 A 
HETATM   59  C9  UNL     1     -19.185  22.468  33.359  1.00  0.00     0.089 A 
HETATM   60  C10 UNL     1     -19.832  22.410  32.134  1.00  0.00     0.208 A 
HETATM   61  O1  UNL     1     -19.211  22.090  31.094  1.00  0.00    -0.285 OA
HETATM   62  C11 UNL     1     -21.167  22.717  32.126  1.00  0.00     0.131 A 
HETATM   63  C12 UNL     1     -21.788  23.064  33.322  1.00  0.00     0.129 A 
HETATM   64  N3  UNL     1     -21.113  23.108  34.498  1.00  0.00    -0.361 N 
ATOM     65  H3  UNL     1     -21.597  23.366  35.359  1.00  0.00     0.165 HD
BRANCH  62  66
HETATM   66  O2  UNL     1     -21.885  22.682  30.939  1.00  0.00    -0.356 OA
ATOM     67  H2  UNL     1     -21.977  21.867  30.460  1.00  0.00     0.218 HD
ENDBRANCH  62  66
ENDBRANCH   3  58
TORSDOF 16
ENDMDL
MODEL 3
REMARK VINA RESULT: -10.719178990      2.521      3.307
REMARK  16 active torsions:
REMARK  status: ('A' for Active; 'I' for Inactive)
REMARK    1  A    between atoms: C3_3  and  N1_4 
REMARK    2  A    between atoms: N1_4  and  C4_6 
REMARK    3  A    between atoms: C4_6  and  C5_7 
REMARK    4  A    between atoms: C5_7  and  N2_8 
REMARK    5  A    between atoms: C7_10  and  C8_11 
REMARK    6  A    between atoms: C11_15  and  O2_16 
REMARK    7  A    between atoms: C13_23  and  C14_24 
REMARK    8  A    between atoms: C14_24  and  N5_25 
REMARK    9  A    between atoms: C17_32  and  N8_33 
REMARK   10  A    between atoms: C19_35  and  C20_36 
REMARK   11  A    between atoms: C20_36  and  N9_37 
REMARK   12  A    between atoms: C20_36  and  C21_41 
REMARK   13  A    between atoms: C21_41  and  C22_42 
REMARK   14  A    between atoms: C24_53  and  N14_54 
REMARK   15  A    between atoms: N15_57  and  N16_58 
REMARK   16  A    between atoms: N17_64  and  O6_66 
ROOT
HETATM    1  N2  UNL     1     -18.071  21.815  38.453  1.00  0.00    -0.342 N 
HETATM    2  C6  UNL     1     -19.089  20.935  38.232  1.00  0.00     0.124 A 
HETATM    3  C7  UNL     1     -20.159  21.589  37.672  1.00  0.00     0.076 A 
HETATM    4  N4  UNL     1     -19.784  22.878  37.553  1.00  0.00    -0.341 N 
ATOM      5  H4  UNL     1     -20.355  23.631  37.170  1.00  0.00     0.167 HD
HETATM    6  C13 UNL     1     -18.508  23.008  38.032  1.00  0.00     0.102 A 
ENDROOT
BRANCH   6   7
HETATM    7  C14 UNL     1     -17.718  24.265  38.062  1.00  0.00     0.208 C 
BRANCH   7   8
HETATM    8  N5  UNL     1     -18.153  24.993  39.232  1.00  0.00    -0.319 N 
HETATM    9  C15 UNL     1     -17.690  24.858  40.477  1.00  0.00     0.186 A 
HETATM   10  N6  UNL     1     -18.334  25.710  41.309  1.00  0.00    -0.335 N 
HETATM   11  C16 UNL     1     -19.229  26.409  40.583  1.00  0.00     0.167 A 
ATOM     12  H6  UNL     1     -18.170  25.806  42.311  1.00  0.00     0.168 HD
HETATM   13  N7  UNL     1     -20.187  27.354  40.573  1.00  0.00    -0.171 N 
HETATM   14  C23 UNL     1     -19.103  25.944  39.272  1.00  0.00     0.169 A 
HETATM   15  C17 UNL     1     -20.671  27.512  39.329  1.00  0.00     0.705 A 
ATOM     16  H7  UNL     1     -20.500  27.876  41.391  1.00  0.00     0.186 HD
HETATM   17  N12 UNL     1     -20.011  26.658  38.555  1.00  0.00    -0.171 N 
ATOM     18  H12 UNL     1     -20.166  26.551  37.553  1.00  0.00     0.186 HD
BRANCH  15  19
HETATM   19  N8  UNL     1     -21.704  28.437  38.952  1.00  0.00    -0.080 N 
HETATM   20  C18 UNL     1     -22.539  28.350  37.913  1.00  0.00     0.161 A 
HETATM   21  C19 UNL     1     -23.356  29.443  37.936  1.00  0.00     0.072 A 
HETATM   22  N10 UNL     1     -22.996  30.181  39.001  1.00  0.00    -0.284 N 
HETATM   23  N11 UNL     1     -22.000  29.553  39.597  1.00  0.00    -0.001 NA
ATOM     24  H10 UNL     1     -23.416  31.063  39.294  1.00  0.00     0.184 HD
BRANCH  21  25
HETATM   25  C20 UNL     1     -24.440  29.758  36.966  1.00  0.00     0.245 C 
BRANCH  25  26
HETATM   26  N9  UNL     1     -24.361  31.120  36.480  1.00  0.00    -0.069 N 
ATOM     27  H93 UNL     1     -24.131  31.145  35.487  1.00  0.00     0.275 HD
ATOM     28  H92 UNL     1     -25.284  31.553  36.443  1.00  0.00     0.275 HD
ATOM     29  H91 UNL     1     -23.711  31.686  37.024  1.00  0.00     0.275 HD
ENDBRANCH  25  26
BRANCH  25  30
HETATM   30  C21 UNL     1     -25.756  29.561  37.677  1.00  0.00     0.152 C 
BRANCH  30  31
HETATM   31  C22 UNL     1     -26.308  30.912  38.020  1.00  0.00     0.174 C 
HETATM   32  O3  UNL     1     -25.847  31.504  39.022  1.00  0.00    -0.648 OA
HETATM   33  O4  UNL     1     -27.291  31.519  37.283  1.00  0.00    -0.648 OA
ENDBRANCH  30  31
ENDBRANCH  25  30
ENDBRANCH  21  25
ENDBRANCH  15  19
ENDBRANCH   7   8
ENDBRANCH   6   7
BRANCH   1  34
HETATM   34  C5  UNL     1     -16.814  21.417  39.058  1.00  0.00     0.149 C 
BRANCH  34  35
HETATM   35  C4  UNL     1     -15.740  21.379  37.996  1.00  0.00     0.141 C 
BRANCH  35  36
HETATM   36  N1  UNL     1     -14.404  21.533  38.499  1.00  0.00    -0.374 N 
ATOM     37  H1  UNL     1     -13.940  20.689  38.831  1.00  0.00     0.161 HD
BRANCH  36  38
HETATM   38  C3  UNL     1     -13.668  22.732  38.582  1.00  0.00     0.125 C 
HETATM   39  C2  UNL     1     -12.348  22.644  38.969  1.00  0.00     0.017 C 
HETATM   40  C1  UNL     1     -11.808  21.280  39.049  1.00  0.00     0.055 C 
HETATM   41  C26 UNL     1     -11.498  23.695  39.279  1.00  0.00     0.134 C 
HETATM   42  C25 UNL     1     -11.613  25.033  38.971  1.00  0.00     0.310 C 
HETATM   43  N17 UNL     1     -10.459  23.374  39.948  1.00  0.00    -0.263 N 
HETATM   44  N15 UNL     1     -12.636  25.603  38.286  1.00  0.00    -0.052 N 
HETATM   45  O5  UNL     1     -10.695  25.806  39.350  1.00  0.00    -0.263 OA
HETATM   46  C24 UNL     1     -13.826  25.075  37.924  1.00  0.00     0.701 C 
HETATM   47  N13 UNL     1     -14.347  23.867  38.290  1.00  0.00    -0.175 N 
ATOM     48  H13 UNL     1     -15.364  23.814  38.353  1.00  0.00     0.186 HD
ATOM     49  H17 UNL     1     -10.344  22.390  40.194  1.00  0.00     0.194 HD
BRANCH  44  50
HETATM   50  N16 UNL     1     -12.438  26.931  37.897  1.00  0.00    -0.321 N 
ATOM     51 2H16 UNL     1     -12.534  27.626  38.637  1.00  0.00     0.178 HD
ATOM     52 1H16 UNL     1     -12.219  27.061  36.909  1.00  0.00     0.178 HD
ENDBRANCH  44  50
BRANCH  46  53
HETATM   53  N14 UNL     1     -14.555  25.781  37.152  1.00  0.00    -0.233 N 
ATOM     54 2H14 UNL     1     -14.863  25.343  36.284  1.00  0.00     0.174 HD
ATOM     55 1H14 UNL     1     -14.761  26.726  37.478  1.00  0.00     0.174 HD
ENDBRANCH  46  53
BRANCH  43  56
HETATM   56  O6  UNL     1      -9.497  24.237  40.358  1.00  0.00    -0.289 OA
ATOM     57  H6  UNL     1      -9.331  24.482  41.260  1.00  0.00     0.244 HD
ENDBRANCH  43  56
ENDBRANCH  36  38
ENDBRANCH  35  36
ENDBRANCH  34  35
ENDBRANCH   1  34
BRANCH   3  58
HETATM   58  C8  UNL     1     -21.439  21.013  37.283  1.00  0.00     0.064 A 
HETATM   59  C9  UNL     1     -22.592  21.691  37.525  1.00  0.00     0.089 A 
HETATM   60  C10 UNL     1     -23.848  21.213  37.186  1.00  0.00     0.208 A 
HETATM   61  O1  UNL     1     -24.879  21.882  37.434  1.00  0.00    -0.285 OA
HETATM   62  C11 UNL     1     -23.899  19.989  36.572  1.00  0.00     0.131 A 
HETATM   63  C12 UNL     1     -22.712  19.306  36.329  1.00  0.00     0.129 A 
HETATM   64  N3  UNL     1     -21.503  19.813  36.680  1.00  0.00    -0.361 N 
ATOM     65  H3  UNL     1     -20.650  19.287  36.488  1.00  0.00     0.165 HD
BRANCH  62  66
HETATM   66  O2  UNL     1     -25.120  19.444  36.201  1.00  0.00    -0.356 OA
ATOM     67  H2  UNL     1     -25.613  18.912  36.815  1.00  0.00     0.218 HD
ENDBRANCH  62  66
ENDBRANCH   3  58
TORSDOF 16
ENDMDL
MODEL 4
REMARK VINA RESULT: -10.649750638      1.039      2.099
REMARK  16 active torsions:
REMARK  status: ('A' for Active; 'I' for Inactive)
REMARK    1  A    between atoms: C3_3  and  N1_4 
REMARK    2  A    between atoms: N1_4  and  C4_6 
REMARK    3  A    between atoms: C4_6  and  C5_7 
REMARK    4  A    between atoms: C5_7  and  N2_8 
REMARK    5  A    between atoms: C7_10  and  C8_11 
REMARK    6  A    between atoms: C11_15  and  O2_16 
REMARK    7  A    between atoms: C13_23  and  C14_24 
REMARK    8  A    between atoms: C14_24  and  N5_25 
REMARK    9  A    between atoms: C17_32  and  N8_33 
REMARK   10  A    between atoms: C19_35  and  C20_36 
REMARK   11  A    between atoms: C20_36  and  N9_37 
REMARK   12  A    between atoms: C20_36  and  C21_41 
REMARK   13  A    between atoms: C21_41  and  C22_42 
REMARK   14  A    between atoms: C24_53  and  N14_54 
REMARK   15  A    between atoms: N15_57  and  N16_58 
REMARK   16  A    between atoms: N17_64  and  O6_66 
ROOT
HETATM    1  N2  UNL     1     -18.348  22.587  38.384  1.00  0.00    -0.342 N 
HETATM    2  C6  UNL     1     -18.471  22.502  37.028  1.00  0.00     0.124 A 
HETATM    3  C7  UNL     1     -19.712  22.945  36.642  1.00  0.00     0.076 A 
HETATM    4  N4  UNL     1     -20.347  23.302  37.776  1.00  0.00    -0.341 N 
ATOM      5  H4  UNL     1     -21.294  23.675  37.836  1.00  0.00     0.167 HD
HETATM    6  C13 UNL     1     -19.509  23.081  38.835  1.00  0.00     0.102 A 
ENDROOT
BRANCH   6   7
HETATM    7  C14 UNL     1     -19.819  23.363  40.259  1.00  0.00     0.208 C 
BRANCH   7   8
HETATM    8  N5  UNL     1     -19.378  24.715  40.514  1.00  0.00    -0.319 N 
HETATM    9  C15 UNL     1     -18.248  25.089  41.119  1.00  0.00     0.186 A 
HETATM   10  N6  UNL     1     -18.173  26.439  41.176  1.00  0.00    -0.335 N 
HETATM   11  C16 UNL     1     -19.278  26.946  40.593  1.00  0.00     0.167 A 
ATOM     12  H6  UNL     1     -17.413  26.979  41.588  1.00  0.00     0.168 HD
HETATM   13  N7  UNL     1     -19.968  28.045  40.238  1.00  0.00    -0.171 N 
HETATM   14  C23 UNL     1     -20.030  25.843  40.180  1.00  0.00     0.169 A 
HETATM   15  C17 UNL     1     -21.112  27.698  39.625  1.00  0.00     0.705 A 
ATOM     16  H7  UNL     1     -19.666  29.004  40.411  1.00  0.00     0.186 HD
HETATM   17  N12 UNL     1     -21.139  26.371  39.595  1.00  0.00    -0.171 N 
ATOM     18  H12 UNL     1     -21.893  25.818  39.187  1.00  0.00     0.186 HD
BRANCH  15  19
HETATM   19  N8  UNL     1     -22.092  28.618  39.114  1.00  0.00    -0.080 N 
HETATM   20  C18 UNL     1     -22.873  28.466  38.041  1.00  0.00     0.161 A 
HETATM   21  C19 UNL     1     -23.651  29.581  37.926  1.00  0.00     0.072 A 
HETATM   22  N10 UNL     1     -23.324  30.397  38.943  1.00  0.00    -0.284 N 
HETATM   23  N11 UNL     1     -22.382  29.793  39.645  1.00  0.00    -0.001 NA
ATOM     24  H10 UNL     1     -23.728  31.314  39.137  1.00  0.00     0.184 HD
BRANCH  21  25
HETATM   25  C20 UNL     1     -24.671  29.843  36.874  1.00  0.00     0.245 C 
BRANCH  25  26
HETATM   26  N9  UNL     1     -24.573  31.186  36.339  1.00  0.00    -0.069 N 
ATOM     27  H93 UNL     1     -25.053  31.857  36.938  1.00  0.00     0.275 HD
ATOM     28  H92 UNL     1     -23.623  31.546  36.420  1.00  0.00     0.275 HD
ATOM     29  H91 UNL     1     -24.908  31.242  35.378  1.00  0.00     0.275 HD
ENDBRANCH  25  26
BRANCH  25  30
HETATM   30  C21 UNL     1     -26.030  29.659  37.504  1.00  0.00     0.152 C 
BRANCH  30  31
HETATM   31  C22 UNL     1     -26.566  31.013  37.863  1.00  0.00     0.174 C 
HETATM   32  O3  UNL     1     -26.059  31.610  38.840  1.00  0.00    -0.648 OA
HETATM   33  O4  UNL     1     -27.580  31.617  37.168  1.00  0.00    -0.648 OA
ENDBRANCH  30  31
ENDBRANCH  25  30
ENDBRANCH  21  25
ENDBRANCH  15  19
ENDBRANCH   7   8
ENDBRANCH   6   7
BRANCH   1  34
HETATM   34  C5  UNL     1     -17.150  22.168  39.087  1.00  0.00     0.149 C 
BRANCH  34  35
HETATM   35  C4  UNL     1     -16.107  21.742  38.081  1.00  0.00     0.141 C 
BRANCH  35  36
HETATM   36  N1  UNL     1     -14.757  21.799  38.568  1.00  0.00    -0.374 N 
ATOM     37  H1  UNL     1     -14.362  20.928  38.921  1.00  0.00     0.161 HD
BRANCH  36  38
HETATM   38  C3  UNL     1     -13.923  22.933  38.611  1.00  0.00     0.125 C 
HETATM   39  C2  UNL     1     -12.611  22.746  38.989  1.00  0.00     0.017 C 
HETATM   40  C1  UNL     1     -12.185  21.345  39.103  1.00  0.00     0.055 C 
HETATM   41  C26 UNL     1     -11.673  23.731  39.261  1.00  0.00     0.134 C 
HETATM   42  C25 UNL     1     -11.679  25.065  38.917  1.00  0.00     0.310 C 
HETATM   43  N17 UNL     1     -10.657  23.343  39.931  1.00  0.00    -0.263 N 
HETATM   44  N15 UNL     1     -12.659  25.699  38.224  1.00  0.00    -0.052 N 
HETATM   45  O5  UNL     1     -10.697  25.769  39.265  1.00  0.00    -0.263 OA
HETATM   46  C24 UNL     1     -13.893  25.263  37.887  1.00  0.00     0.701 C 
HETATM   47  N13 UNL     1     -14.509  24.113  38.293  1.00  0.00    -0.175 N 
ATOM     48  H13 UNL     1     -15.525  24.147  38.365  1.00  0.00     0.186 HD
ATOM     49  H17 UNL     1     -10.622  22.360  40.203  1.00  0.00     0.194 HD
BRANCH  44  50
HETATM   50  N16 UNL     1     -12.355  26.994  37.796  1.00  0.00    -0.321 N 
ATOM     51 2H16 UNL     1     -12.990  27.390  37.102  1.00  0.00     0.178 HD
ATOM     52 1H16 UNL     1     -11.527  27.406  38.225  1.00  0.00     0.178 HD
ENDBRANCH  44  50
BRANCH  46  53
HETATM   53  N14 UNL     1     -14.569  26.005  37.102  1.00  0.00    -0.233 N 
ATOM     54 2H14 UNL     1     -15.481  25.653  36.809  1.00  0.00     0.174 HD
ATOM     55 1H14 UNL     1     -14.129  26.887  36.837  1.00  0.00     0.174 HD
ENDBRANCH  46  53
BRANCH  43  56
HETATM   56  O6  UNL     1      -9.622  24.133  40.308  1.00  0.00    -0.289 OA
ATOM     57  H6  UNL     1      -9.326  24.906  39.842  1.00  0.00     0.244 HD
ENDBRANCH  43  56
ENDBRANCH  36  38
ENDBRANCH  35  36
ENDBRANCH  34  35
ENDBRANCH   1  34
BRANCH   3  58
HETATM   58  C8  UNL     1     -20.240  23.017  35.286  1.00  0.00     0.064 A 
HETATM   59  C9  UNL     1     -19.394  23.171  34.233  1.00  0.00     0.089 A 
HETATM   60  C10 UNL     1     -19.816  23.247  32.915  1.00  0.00     0.208 A 
HETATM   61  O1  UNL     1     -18.990  23.391  31.984  1.00  0.00    -0.285 OA
HETATM   62  C11 UNL     1     -21.164  23.158  32.692  1.00  0.00     0.131 A 
HETATM   63  C12 UNL     1     -22.020  22.999  33.778  1.00  0.00     0.129 A 
HETATM   64  N3  UNL     1     -21.561  22.931  35.053  1.00  0.00    -0.361 N 
ATOM     65  H3  UNL     1     -22.214  22.814  35.828  1.00  0.00     0.165 HD
BRANCH  62  66
HETATM   66  O2  UNL     1     -21.665  23.225  31.399  1.00  0.00    -0.356 OA
ATOM     67  H2  UNL     1     -21.714  22.442  30.864  1.00  0.00     0.218 HD
ENDBRANCH  62  66
ENDBRANCH   3  58
TORSDOF 16
ENDMDL
MODEL 5
REMARK VINA RESULT: -10.624088239      2.020      6.069
REMARK  16 active torsions:
REMARK  status: ('A' for Active; 'I' for Inactive)
REMARK    1  A    between atoms: C3_3  and  N1_4 
REMARK    2  A    between atoms: N1_4  and  C4_6 
REMARK    3  A    between atoms: C4_6  and  C5_7 
REMARK    4  A    between atoms: C5_7  and  N2_8 
REMARK    5  A    between atoms: C7_10  and  C8_11 
REMARK    6  A    between atoms: C11_15  and  O2_16 
REMARK    7  A    between atoms: C13_23  and  C14_24 
REMARK    8  A    between atoms: C14_24  and  N5_25 
REMARK    9  A    between atoms: C17_32  and  N8_33 
REMARK   10  A    between atoms: C19_35  and  C20_36 
REMARK   11  A    between atoms: C20_36  and  N9_37 
REMARK   12  A    between atoms: C20_36  and  C21_41 
REMARK   13  A    between atoms: C21_41  and  C22_42 
REMARK   14  A    between atoms: C24_53  and  N14_54 
REMARK   15  A    between atoms: N15_57  and  N16_58 
REMARK   16  A    between atoms: N17_64  and  O6_66 
ROOT
HETATM    1  N2  UNL     1     -17.140  22.209  37.838  1.00  0.00    -0.342 N 
HETATM    2  C6  UNL     1     -15.799  22.362  37.643  1.00  0.00     0.124 A 
HETATM    3  C7  UNL     1     -15.356  23.487  38.292  1.00  0.00     0.076 A 
HETATM    4  N4  UNL     1     -16.442  24.022  38.887  1.00  0.00    -0.341 N 
ATOM      5  H4  UNL     1     -16.452  24.870  39.453  1.00  0.00     0.167 HD
HETATM    6  C13 UNL     1     -17.526  23.236  38.606  1.00  0.00     0.102 A 
ENDROOT
BRANCH   6   7
HETATM    7  C14 UNL     1     -18.910  23.465  39.090  1.00  0.00     0.208 C 
BRANCH   7   8
HETATM    8  N5  UNL     1     -18.864  24.649  39.917  1.00  0.00    -0.319 N 
HETATM    9  C15 UNL     1     -18.057  24.868  40.958  1.00  0.00     0.186 A 
HETATM   10  N6  UNL     1     -18.299  26.090  41.486  1.00  0.00    -0.335 N 
HETATM   11  C16 UNL     1     -19.281  26.671  40.769  1.00  0.00     0.167 A 
ATOM     12  H6  UNL     1     -17.820  26.501  42.288  1.00  0.00     0.168 HD
HETATM   13  N7  UNL     1     -20.068  27.749  40.591  1.00  0.00    -0.171 N 
HETATM   14  C23 UNL     1     -19.628  25.747  39.780  1.00  0.00     0.169 A 
HETATM   15  C17 UNL     1     -20.891  27.555  39.547  1.00  0.00     0.705 A 
ATOM     16  H7  UNL     1     -20.043  28.590  41.167  1.00  0.00     0.186 HD
HETATM   17  N12 UNL     1     -20.618  26.348  39.067  1.00  0.00    -0.171 N 
ATOM     18  H12 UNL     1     -21.089  25.926  38.267  1.00  0.00     0.186 HD
BRANCH  15  19
HETATM   19  N8  UNL     1     -21.866  28.500  39.074  1.00  0.00    -0.080 N 
HETATM   20  C18 UNL     1     -22.687  28.371  38.028  1.00  0.00     0.161 A 
HETATM   21  C19 UNL     1     -23.444  29.504  37.944  1.00  0.00     0.072 A 
HETATM   22  N10 UNL     1     -23.063  30.307  38.953  1.00  0.00    -0.284 N 
HETATM   23  N11 UNL     1     -22.112  29.679  39.619  1.00  0.00    -0.001 NA
ATOM     24  H10 UNL     1     -23.439  31.231  39.165  1.00  0.00     0.184 HD
BRANCH  21  25
HETATM   25  C20 UNL     1     -24.493  29.794  36.929  1.00  0.00     0.245 C 
BRANCH  25  26
HETATM   26  N9  UNL     1     -24.394  31.143  36.410  1.00  0.00    -0.069 N 
ATOM     27  H93 UNL     1     -25.094  31.752  36.832  1.00  0.00     0.275 HD
ATOM     28  H92 UNL     1     -23.551  31.607  36.748  1.00  0.00     0.275 HD
ATOM     29  H91 UNL     1     -24.446  31.169  35.393  1.00  0.00     0.275 HD
ENDBRANCH  25  26
BRANCH  25  30
HETATM   30  C21 UNL     1     -25.833  29.617  37.598  1.00  0.00     0.152 C 
BRANCH  30  31
HETATM   31  C22 UNL     1     -26.392  30.978  37.890  1.00  0.00     0.174 C 
HETATM   32  O3  UNL     1     -25.973  31.586  38.901  1.00  0.00    -0.648 OA
HETATM   33  O4  UNL     1     -27.337  31.576  37.098  1.00  0.00    -0.648 OA
ENDBRANCH  30  31
ENDBRANCH  25  30
ENDBRANCH  21  25
ENDBRANCH  15  19
ENDBRANCH   7   8
ENDBRANCH   6   7
BRANCH   1  34
HETATM   34  C5  UNL     1     -17.894  21.116  37.253  1.00  0.00     0.149 C 
BRANCH  34  35
HETATM   35  C4  UNL     1     -17.570  21.020  35.781  1.00  0.00     0.141 C 
BRANCH  35  36
HETATM   36  N1  UNL     1     -17.695  22.258  35.065  1.00  0.00    -0.374 N 
ATOM     37  H1  UNL     1     -16.950  22.483  34.407  1.00  0.00     0.161 HD
BRANCH  36  38
HETATM   38  C3  UNL     1     -18.742  23.194  35.177  1.00  0.00     0.125 C 
HETATM   39  C2  UNL     1     -18.398  24.512  35.392  1.00  0.00     0.017 C 
HETATM   40  C1  UNL     1     -16.965  24.814  35.270  1.00  0.00     0.055 C 
HETATM   41  C26 UNL     1     -19.255  25.558  35.701  1.00  0.00     0.134 C 
HETATM   42  C25 UNL     1     -20.621  25.645  35.543  1.00  0.00     0.310 C 
HETATM   43  N17 UNL     1     -18.694  26.588  36.205  1.00  0.00    -0.263 N 
HETATM   44  N15 UNL     1     -21.425  24.671  35.046  1.00  0.00    -0.052 N 
HETATM   45  O5  UNL     1     -21.186  26.716  35.884  1.00  0.00    -0.263 OA
HETATM   46  C24 UNL     1     -21.141  23.377  34.779  1.00  0.00     0.701 C 
HETATM   47  N13 UNL     1     -19.998  22.695  35.084  1.00  0.00    -0.175 N 
ATOM     48  H13 UNL     1     -20.102  21.697  35.262  1.00  0.00     0.186 HD
ATOM     49  H17 UNL     1     -17.683  26.556  36.336  1.00  0.00     0.194 HD
BRANCH  44  50
HETATM   50  N16 UNL     1     -22.740  25.055  34.770  1.00  0.00    -0.321 N 
ATOM     51 2H16 UNL     1     -23.466  24.440  35.140  1.00  0.00     0.178 HD
ATOM     52 1H16 UNL     1     -22.832  25.912  34.225  1.00  0.00     0.178 HD
ENDBRANCH  44  50
BRANCH  46  53
HETATM   53  N14 UNL     1     -22.041  22.706  34.174  1.00  0.00    -0.233 N 
ATOM     54 2H14 UNL     1     -21.720  21.981  33.534  1.00  0.00     0.174 HD
ATOM     55 1H14 UNL     1     -23.005  22.963  34.390  1.00  0.00     0.174 HD
ENDBRANCH  46  53
BRANCH  43  56
HETATM   56  O6  UNL     1     -19.337  27.722  36.580  1.00  0.00    -0.289 OA
ATOM     57  H6  UNL     1     -18.953  28.425  37.089  1.00  0.00     0.244 HD
ENDBRANCH  43  56
ENDBRANCH  36  38
ENDBRANCH  35  36
ENDBRANCH  34  35
ENDBRANCH   1  34
BRANCH   3  58
HETATM   58  C8  UNL     1     -13.995  24.003  38.334  1.00  0.00     0.064 A 
HETATM   59  C9  UNL     1     -13.744  25.293  37.985  1.00  0.00     0.089 A 
HETATM   60  C10 UNL     1     -12.480  25.860  37.999  1.00  0.00     0.208 A 
HETATM   61  O1  UNL     1     -12.308  27.056  37.666  1.00  0.00    -0.285 OA
HETATM   62  C11 UNL     1     -11.445  25.053  38.391  1.00  0.00     0.131 A 
HETATM   63  C12 UNL     1     -11.714  23.735  38.747  1.00  0.00     0.129 A 
HETATM   64  N3  UNL     1     -12.970  23.222  38.717  1.00  0.00    -0.361 N 
ATOM     65  H3  UNL     1     -13.135  22.251  38.984  1.00  0.00     0.165 HD
BRANCH  62  66
HETATM   66  O2  UNL     1     -10.149  25.548  38.432  1.00  0.00    -0.356 OA
ATOM     67  H2  UNL     1      -9.503  25.149  39.003  1.00  0.00     0.218 HD
ENDBRANCH  62  66
ENDBRANCH   3  58
TORSDOF 16
ENDMDL
