MODEL 1
REMARK VINA RESULT: -9.793831991      0.000      0.000
REMARK  19 active torsions:
REMARK  status: ('A' for Active; 'I' for Inactive)
REMARK    1  A    between atoms: C4_6  and  O3_7 
REMARK    2  A    between atoms: C5_9  and  C6_10 
REMARK    3  A    between atoms: C7_11  and  O4_12 
REMARK    4  A    between atoms: C9_15  and  O5_16 
REMARK    5  A    between atoms: C12_21  and  O7_22 
REMARK    6  A    between atoms: C14_27  and  C15_28 
REMARK    7  A    between atoms: N1_29  and  O10_31 
REMARK    8  A    between atoms: O10_31  and  C16_32 
REMARK    9  A    between atoms: C16_32  and  C17_33 
REMARK   10  A    between atoms: C17_33  and  N2_34 
REMARK   11  A    between atoms: N2_34  and  C18_37 
REMARK   12  A    between atoms: C18_37  and  C19_38 
REMARK   13  A    between atoms: C21_40  and  O11_41 
REMARK   14  A    between atoms: C22_43  and  O12_44 
REMARK   15  A    between atoms: C23_46  and  N3_47 
REMARK   16  A    between atoms: C25_52  and  O16_53 
REMARK   17  A    between atoms: C25_52  and  C26_55 
REMARK   18  A    between atoms: C26_55  and  O17_56 
REMARK   19  A    between atoms: C27_58  and  O18_59 
ROOT
HETATM    1  O1  UNL     1     -20.501  26.587  40.062  1.00  0.00    -0.289 OA
HETATM    2  C1  UNL     1     -20.173  25.842  39.179  1.00  0.00     0.224 C 
HETATM    3  C2  UNL     1     -21.045  25.908  37.947  1.00  0.00     0.338 C 
HETATM    4  O2  UNL     1     -21.082  27.190  37.450  1.00  0.00    -0.351 OA
HETATM    5  C3  UNL     1     -19.820  27.553  37.054  1.00  0.00     0.209 C 
HETATM    6  C4  UNL     1     -19.171  26.597  36.089  1.00  0.00     0.209 C 
HETATM    7  C5  UNL     1     -19.513  25.167  36.343  1.00  0.00     0.230 C 
HETATM    8  O8  UNL     1     -20.694  24.959  37.019  1.00  0.00    -0.311 OA
HETATM    9  O9  UNL     1     -18.424  24.588  37.068  1.00  0.00    -0.337 OA
HETATM   10  C13 UNL     1     -18.909  23.991  38.191  1.00  0.00     0.207 C 
HETATM   11  C14 UNL     1     -17.998  22.975  38.846  1.00  0.00     0.198 C 
HETATM   12  O15 UNL     1     -18.410  22.869  40.148  1.00  0.00    -0.337 OA
HETATM   13  C25 UNL     1     -19.057  24.024  40.512  1.00  0.00     0.226 C 
HETATM   14  C27 UNL     1     -19.019  24.982  39.361  1.00  0.00     0.210 C 
ENDROOT
BRANCH  11  15
HETATM   15  C15 UNL     1     -17.996  21.662  38.214  1.00  0.00     0.121 C 
HETATM   16  N1  UNL     1     -17.324  20.679  38.653  1.00  0.00    -0.279 N 
ATOM     17  H1  UNL     1     -17.376  19.791  38.155  1.00  0.00     0.193 HD
BRANCH  16  18
HETATM   18  O10 UNL     1     -16.548  20.758  39.744  1.00  0.00    -0.279 OA
BRANCH  18  19
HETATM   19  C16 UNL     1     -15.408  19.988  40.011  1.00  0.00     0.228 C 
BRANCH  19  20
HETATM   20  C17 UNL     1     -14.751  19.469  38.757  1.00  0.00     0.261 C 
BRANCH  20  21
HETATM   21  N2  UNL     1     -13.934  20.450  38.115  1.00  0.00    -0.069 N 
ATOM     22  H22 UNL     1     -13.221  20.013  37.532  1.00  0.00     0.277 HD
ATOM     23  H21 UNL     1     -14.453  20.947  37.391  1.00  0.00     0.277 HD
BRANCH  21  24
HETATM   24  C18 UNL     1     -13.346  21.369  39.063  1.00  0.00     0.271 C 
BRANCH  24  25
HETATM   25  C19 UNL     1     -13.466  22.771  38.656  1.00  0.00    -0.028 A 
HETATM   26  C20 UNL     1     -14.600  23.361  38.141  1.00  0.00     0.048 A 
HETATM   27  C21 UNL     1     -14.635  24.683  37.781  1.00  0.00     0.101 A 
HETATM   28  C22 UNL     1     -13.500  25.505  37.923  1.00  0.00     0.132 A 
HETATM   29  C23 UNL     1     -12.368  24.944  38.429  1.00  0.00     0.139 A 
HETATM   30  C24 UNL     1     -12.374  23.593  38.784  1.00  0.00     0.048 A 
BRANCH  27  31
HETATM   31  O11 UNL     1     -15.771  25.272  37.266  1.00  0.00    -0.358 OA
ATOM     32  H11 UNL     1     -15.957  26.196  37.382  1.00  0.00     0.217 HD
ENDBRANCH  27  31
BRANCH  28  33
HETATM   33  O12 UNL     1     -13.596  26.828  37.540  1.00  0.00    -0.356 OA
ATOM     34  H12 UNL     1     -12.837  27.239  37.145  1.00  0.00     0.218 HD
ENDBRANCH  28  33
BRANCH  29  35
HETATM   35  N3  UNL     1     -11.169  25.677  38.609  1.00  0.00    -0.113 N 
HETATM   36  O13 UNL     1     -11.260  26.830  39.139  1.00  0.00    -0.532 OA
HETATM   37  O14 UNL     1      -9.940  25.221  38.250  1.00  0.00    -0.532 OA
ENDBRANCH  29  35
ENDBRANCH  24  25
ENDBRANCH  21  24
ENDBRANCH  20  21
ENDBRANCH  19  20
ENDBRANCH  18  19
ENDBRANCH  16  18
ENDBRANCH  11  15
BRANCH  14  38
HETATM   38  O18 UNL     1     -17.816  25.693  39.487  1.00  0.00    -0.374 OA
ATOM     39  H18 UNL     1     -17.895  26.466  40.034  1.00  0.00     0.211 HD
ENDBRANCH  14  38
BRANCH  13  40
HETATM   40  O16 UNL     1     -18.342  24.592  41.607  1.00  0.00    -0.361 OA
ATOM     41  H16 UNL     1     -18.813  24.372  42.402  1.00  0.00     0.213 HD
ENDBRANCH  13  40
BRANCH  13  42
HETATM   42  C26 UNL     1     -20.477  23.739  40.989  1.00  0.00     0.236 C 
BRANCH  42  43
HETATM   43  O17 UNL     1     -20.794  24.402  42.167  1.00  0.00    -0.395 OA
ATOM     44  H17 UNL     1     -21.191  25.251  42.017  1.00  0.00     0.209 HD
ENDBRANCH  42  43
ENDBRANCH  13  42
BRANCH   7  45
HETATM   45  C6  UNL     1     -19.579  24.460  35.050  1.00  0.00     0.077 C 
HETATM   46  C7  UNL     1     -20.668  24.619  34.219  1.00  0.00     0.083 C 
HETATM   47  C8  UNL     1     -20.966  23.991  32.991  1.00  0.00     0.074 C 
HETATM   48  C9  UNL     1     -20.494  22.789  32.508  1.00  0.00     0.072 C 
HETATM   49  C10 UNL     1     -19.438  22.061  33.055  1.00  0.00     0.094 C 
HETATM   50  C11 UNL     1     -18.481  22.499  33.946  1.00  0.00     0.208 C 
HETATM   51  O6  UNL     1     -17.474  21.781  34.106  1.00  0.00    -0.285 OA
HETATM   52  C12 UNL     1     -18.478  23.666  34.720  1.00  0.00     0.130 C 
BRANCH  46  53
HETATM   53  O4  UNL     1     -21.596  25.523  34.655  1.00  0.00    -0.360 OA
ATOM     54  H4  UNL     1     -22.332  25.653  34.069  1.00  0.00     0.217 HD
ENDBRANCH  46  53
BRANCH  48  55
HETATM   55  O5  UNL     1     -21.112  22.253  31.386  1.00  0.00    -0.360 OA
ATOM     56  H5  UNL     1     -20.725  21.481  30.992  1.00  0.00     0.217 HD
ENDBRANCH  48  55
BRANCH  52  57
HETATM   57  O7  UNL     1     -17.290  24.125  35.236  1.00  0.00    -0.356 OA
ATOM     58  H7  UNL     1     -16.622  23.454  35.310  1.00  0.00     0.218 HD
ENDBRANCH  52  57
ENDBRANCH   7  45
BRANCH   6  59
HETATM   59  O3  UNL     1     -17.775  26.820  36.242  1.00  0.00    -0.388 OA
ATOM     60  H3  UNL     1     -17.497  27.185  35.411  1.00  0.00     0.210 HD
ENDBRANCH   6  59
TORSDOF 19
ENDMDL
MODEL 2
REMARK VINA RESULT: -9.467331207      1.211      1.950
REMARK  19 active torsions:
REMARK  status: ('A' for Active; 'I' for Inactive)
REMARK    1  A    between atoms: C4_6  and  O3_7 
REMARK    2  A    between atoms: C5_9  and  C6_10 
REMARK    3  A    between atoms: C7_11  and  O4_12 
REMARK    4  A    between atoms: C9_15  and  O5_16 
REMARK    5  A    between atoms: C12_21  and  O7_22 
REMARK    6  A    between atoms: C14_27  and  C15_28 
REMARK    7  A    between atoms: N1_29  and  O10_31 
REMARK    8  A    between atoms: O10_31  and  C16_32 
REMARK    9  A    between atoms: C16_32  and  C17_33 
REMARK   10  A    between atoms: C17_33  and  N2_34 
REMARK   11  A    between atoms: N2_34  and  C18_37 
REMARK   12  A    between atoms: C18_37  and  C19_38 
REMARK   13  A    between atoms: C21_40  and  O11_41 
REMARK   14  A    between atoms: C22_43  and  O12_44 
REMARK   15  A    between atoms: C23_46  and  N3_47 
REMARK   16  A    between atoms: C25_52  and  O16_53 
REMARK   17  A    between atoms: C25_52  and  C26_55 
REMARK   18  A    between atoms: C26_55  and  O17_56 
REMARK   19  A    between atoms: C27_58  and  O18_59 
ROOT
HETATM    1  O1  UNL     1     -19.357  26.953  39.441  1.00  0.00    -0.289 OA
HETATM    2  C1  UNL     1     -19.294  26.021  38.687  1.00  0.00     0.224 C 
HETATM    3  C2  UNL     1     -19.947  26.253  37.345  1.00  0.00     0.338 C 
HETATM    4  O2  UNL     1     -19.401  27.355  36.727  1.00  0.00    -0.351 OA
HETATM    5  C3  UNL     1     -18.073  27.117  36.478  1.00  0.00     0.209 C 
HETATM    6  C4  UNL     1     -17.801  25.851  35.710  1.00  0.00     0.209 C 
HETATM    7  C5  UNL     1     -18.729  24.734  36.048  1.00  0.00     0.230 C 
HETATM    8  O8  UNL     1     -19.944  25.119  36.570  1.00  0.00    -0.311 OA
HETATM    9  O9  UNL     1     -18.050  23.876  36.971  1.00  0.00    -0.337 OA
HETATM   10  C13 UNL     1     -18.837  23.695  38.067  1.00  0.00     0.207 C 
HETATM   11  C14 UNL     1     -18.494  22.504  38.936  1.00  0.00     0.198 C 
HETATM   12  O15 UNL     1     -19.026  22.763  40.173  1.00  0.00    -0.337 OA
HETATM   13  C25 UNL     1     -19.161  24.120  40.330  1.00  0.00     0.226 C 
HETATM   14  C27 UNL     1     -18.625  24.805  39.110  1.00  0.00     0.210 C 
ENDROOT
BRANCH  11  15
HETATM   15  C15 UNL     1     -18.985  21.225  38.440  1.00  0.00     0.121 C 
HETATM   16  N1  UNL     1     -18.257  20.397  37.813  1.00  0.00    -0.279 N 
ATOM     17  H1  UNL     1     -18.675  19.522  37.498  1.00  0.00     0.193 HD
BRANCH  16  18
HETATM   18  O10 UNL     1     -16.963  20.622  37.545  1.00  0.00    -0.279 OA
BRANCH  18  19
HETATM   19  C16 UNL     1     -15.878  19.844  37.971  1.00  0.00     0.228 C 
BRANCH  19  20
HETATM   20  C17 UNL     1     -15.508  20.101  39.410  1.00  0.00     0.261 C 
BRANCH  20  21
HETATM   21  N2  UNL     1     -14.771  21.313  39.581  1.00  0.00    -0.069 N 
ATOM     22  H22 UNL     1     -15.313  22.122  39.280  1.00  0.00     0.277 HD
ATOM     23  H21 UNL     1     -14.667  21.547  40.569  1.00  0.00     0.277 HD
BRANCH  21  24
HETATM   24  C18 UNL     1     -13.488  21.265  38.917  1.00  0.00     0.271 C 
BRANCH  24  25
HETATM   25  C19 UNL     1     -12.742  22.523  39.013  1.00  0.00    -0.028 A 
HETATM   26  C20 UNL     1     -11.526  22.686  39.642  1.00  0.00     0.048 A 
HETATM   27  C21 UNL     1     -10.888  23.898  39.692  1.00  0.00     0.101 A 
HETATM   28  C22 UNL     1     -11.454  25.042  39.095  1.00  0.00     0.132 A 
HETATM   29  C23 UNL     1     -12.654  24.905  38.468  1.00  0.00     0.139 A 
HETATM   30  C24 UNL     1     -13.272  23.652  38.440  1.00  0.00     0.048 A 
BRANCH  27  31
HETATM   31  O11 UNL     1      -9.672  24.060  40.321  1.00  0.00    -0.358 OA
ATOM     32  H11 UNL     1      -8.868  24.204  39.835  1.00  0.00     0.217 HD
ENDBRANCH  27  31
BRANCH  28  33
HETATM   33  O12 UNL     1     -10.765  26.236  39.181  1.00  0.00    -0.356 OA
ATOM     34  H12 UNL     1     -10.320  26.556  38.405  1.00  0.00     0.218 HD
ENDBRANCH  28  33
BRANCH  29  35
HETATM   35  N3  UNL     1     -13.315  25.990  37.841  1.00  0.00    -0.113 N 
HETATM   36  O13 UNL     1     -14.585  26.023  37.911  1.00  0.00    -0.532 OA
HETATM   37  O14 UNL     1     -12.674  26.987  37.177  1.00  0.00    -0.532 OA
ENDBRANCH  29  35
ENDBRANCH  24  25
ENDBRANCH  21  24
ENDBRANCH  20  21
ENDBRANCH  19  20
ENDBRANCH  18  19
ENDBRANCH  16  18
ENDBRANCH  11  15
BRANCH  14  38
HETATM   38  O18 UNL     1     -17.251  24.981  39.334  1.00  0.00    -0.374 OA
ATOM     39  H18 UNL     1     -16.708  24.509  38.713  1.00  0.00     0.211 HD
ENDBRANCH  14  38
BRANCH  13  40
HETATM   40  O16 UNL     1     -18.372  24.504  41.455  1.00  0.00    -0.361 OA
ATOM     41  H16 UNL     1     -18.174  25.428  41.364  1.00  0.00     0.213 HD
ENDBRANCH  13  40
BRANCH  13  42
HETATM   42  C26 UNL     1     -20.605  24.505  40.630  1.00  0.00     0.236 C 
BRANCH  42  43
HETATM   43  O17 UNL     1     -20.739  25.227  41.807  1.00  0.00    -0.395 OA
ATOM     44  H17 UNL     1     -21.179  24.737  42.493  1.00  0.00     0.209 HD
ENDBRANCH  42  43
ENDBRANCH  13  42
BRANCH   7  45
HETATM   45  C6  UNL     1     -18.970  23.934  34.832  1.00  0.00     0.077 C 
HETATM   46  C7  UNL     1     -19.690  24.460  33.780  1.00  0.00     0.083 C 
HETATM   47  C8  UNL     1     -20.096  23.854  32.572  1.00  0.00     0.074 C 
HETATM   48  C9  UNL     1     -20.253  22.512  32.298  1.00  0.00     0.072 C 
HETATM   49  C10 UNL     1     -19.817  21.467  33.113  1.00  0.00     0.094 C 
HETATM   50  C11 UNL     1     -18.908  21.526  34.149  1.00  0.00     0.208 C 
HETATM   51  O6  UNL     1     -18.453  20.447  34.576  1.00  0.00    -0.285 OA
HETATM   52  C12 UNL     1     -18.408  22.656  34.809  1.00  0.00     0.130 C 
BRANCH  46  53
HETATM   53  O4  UNL     1     -20.065  25.765  33.935  1.00  0.00    -0.360 OA
ATOM     54  H4  UNL     1     -19.621  26.378  33.362  1.00  0.00     0.217 HD
ENDBRANCH  46  53
BRANCH  48  55
HETATM   55  O5  UNL     1     -20.896  22.161  31.119  1.00  0.00    -0.360 OA
ATOM     56  H5  UNL     1     -20.784  21.274  30.799  1.00  0.00     0.217 HD
ENDBRANCH  48  55
BRANCH  52  57
HETATM   57  O7  UNL     1     -17.240  22.552  35.525  1.00  0.00    -0.356 OA
ATOM     58  H7  UNL     1     -16.556  22.074  35.072  1.00  0.00     0.218 HD
ENDBRANCH  52  57
ENDBRANCH   7  45
BRANCH   6  59
HETATM   59  O3  UNL     1     -16.459  25.513  36.034  1.00  0.00    -0.388 OA
ATOM     60  H3  UNL     1     -16.487  24.586  36.240  1.00  0.00     0.210 HD
ENDBRANCH   6  59
TORSDOF 19
ENDMDL
MODEL 3
REMARK VINA RESULT: -9.253359488      0.668      1.702
REMARK  19 active torsions:
REMARK  status: ('A' for Active; 'I' for Inactive)
REMARK    1  A    between atoms: C4_6  and  O3_7 
REMARK    2  A    between atoms: C5_9  and  C6_10 
REMARK    3  A    between atoms: C7_11  and  O4_12 
REMARK    4  A    between atoms: C9_15  and  O5_16 
REMARK    5  A    between atoms: C12_21  and  O7_22 
REMARK    6  A    between atoms: C14_27  and  C15_28 
REMARK    7  A    between atoms: N1_29  and  O10_31 
REMARK    8  A    between atoms: O10_31  and  C16_32 
REMARK    9  A    between atoms: C16_32  and  C17_33 
REMARK   10  A    between atoms: C17_33  and  N2_34 
REMARK   11  A    between atoms: N2_34  and  C18_37 
REMARK   12  A    between atoms: C18_37  and  C19_38 
REMARK   13  A    between atoms: C21_40  and  O11_41 
REMARK   14  A    between atoms: C22_43  and  O12_44 
REMARK   15  A    between atoms: C23_46  and  N3_47 
REMARK   16  A    between atoms: C25_52  and  O16_53 
REMARK   17  A    between atoms: C25_52  and  C26_55 
REMARK   18  A    between atoms: C26_55  and  O17_56 
REMARK   19  A    between atoms: C27_58  and  O18_59 
ROOT
HETATM    1  O1  UNL     1     -20.100  27.072  40.201  1.00  0.00    -0.289 OA
HETATM    2  C1  UNL     1     -19.939  26.236  39.354  1.00  0.00     0.224 C 
HETATM    3  C2  UNL     1     -20.896  26.330  38.190  1.00  0.00     0.338 C 
HETATM    4  O2  UNL     1     -20.820  27.572  37.602  1.00  0.00    -0.351 OA
HETATM    5  C3  UNL     1     -19.561  27.746  37.086  1.00  0.00     0.209 C 
HETATM    6  C4  UNL     1     -19.114  26.655  36.150  1.00  0.00     0.209 C 
HETATM    7  C5  UNL     1     -19.604  25.300  36.535  1.00  0.00     0.230 C 
HETATM    8  O8  UNL     1     -20.740  25.286  37.312  1.00  0.00    -0.311 OA
HETATM    9  O9  UNL     1     -18.536  24.636  37.219  1.00  0.00    -0.337 OA
HETATM   10  C13 UNL     1     -18.994  24.180  38.417  1.00  0.00     0.207 C 
HETATM   11  C14 UNL     1     -18.160  23.102  39.076  1.00  0.00     0.198 C 
HETATM   12  O15 UNL     1     -18.472  23.135  40.410  1.00  0.00    -0.337 OA
HETATM   13  C25 UNL     1     -18.942  24.383  40.733  1.00  0.00     0.226 C 
HETATM   14  C27 UNL     1     -18.885  25.252  39.514  1.00  0.00     0.210 C 
ENDROOT
BRANCH  11  15
HETATM   15  C15 UNL     1     -18.368  21.761  38.546  1.00  0.00     0.121 C 
HETATM   16  N1  UNL     1     -17.576  20.795  38.767  1.00  0.00    -0.279 N 
ATOM     17  H1  UNL     1     -17.792  19.885  38.361  1.00  0.00     0.193 HD
BRANCH  16  18
HETATM   18  O10 UNL     1     -16.467  20.918  39.509  1.00  0.00    -0.279 OA
BRANCH  18  19
HETATM   19  C16 UNL     1     -15.783  19.884  40.162  1.00  0.00     0.228 C 
BRANCH  19  20
HETATM   20  C17 UNL     1     -14.518  19.482  39.446  1.00  0.00     0.261 C 
BRANCH  20  21
HETATM   21  N2  UNL     1     -14.104  20.445  38.475  1.00  0.00    -0.069 N 
ATOM     22  H22 UNL     1     -13.784  19.993  37.619  1.00  0.00     0.277 HD
ATOM     23  H21 UNL     1     -14.902  20.958  38.099  1.00  0.00     0.277 HD
BRANCH  21  24
HETATM   24  C18 UNL     1     -13.101  21.346  38.999  1.00  0.00     0.271 C 
BRANCH  24  25
HETATM   25  C19 UNL     1     -13.320  22.740  38.607  1.00  0.00    -0.028 A 
HETATM   26  C20 UNL     1     -14.493  23.255  38.097  1.00  0.00     0.048 A 
HETATM   27  C21 UNL     1     -14.621  24.575  37.751  1.00  0.00     0.101 A 
HETATM   28  C22 UNL     1     -13.546  25.474  37.905  1.00  0.00     0.132 A 
HETATM   29  C23 UNL     1     -12.378  24.988  38.406  1.00  0.00     0.139 A 
HETATM   30  C24 UNL     1     -12.289  23.636  38.746  1.00  0.00     0.048 A 
BRANCH  27  31
HETATM   31  O11 UNL     1     -15.794  25.088  37.242  1.00  0.00    -0.358 OA
ATOM     32  H11 UNL     1     -16.309  25.734  37.712  1.00  0.00     0.217 HD
ENDBRANCH  27  31
BRANCH  28  33
HETATM   33  O12 UNL     1     -13.735  26.791  37.536  1.00  0.00    -0.356 OA
ATOM     34  H12 UNL     1     -13.821  27.443  38.221  1.00  0.00     0.218 HD
ENDBRANCH  28  33
BRANCH  29  35
HETATM   35  N3  UNL     1     -11.233  25.801  38.595  1.00  0.00    -0.113 N 
HETATM   36  O13 UNL     1     -10.121  25.358  38.166  1.00  0.00    -0.532 OA
HETATM   37  O14 UNL     1     -11.258  27.016  39.202  1.00  0.00    -0.532 OA
ENDBRANCH  29  35
ENDBRANCH  24  25
ENDBRANCH  21  24
ENDBRANCH  20  21
ENDBRANCH  19  20
ENDBRANCH  18  19
ENDBRANCH  16  18
ENDBRANCH  11  15
BRANCH  14  38
HETATM   38  O18 UNL     1     -17.600  25.813  39.495  1.00  0.00    -0.374 OA
ATOM     39  H18 UNL     1     -17.339  26.177  40.334  1.00  0.00     0.211 HD
ENDBRANCH  14  38
BRANCH  13  40
HETATM   40  O16 UNL     1     -18.075  24.927  41.726  1.00  0.00    -0.361 OA
ATOM     41  H16 UNL     1     -18.166  25.872  41.698  1.00  0.00     0.213 HD
ENDBRANCH  13  40
BRANCH  13  42
HETATM   42  C26 UNL     1     -20.341  24.311  41.335  1.00  0.00     0.236 C 
BRANCH  42  43
HETATM   43  O17 UNL     1     -20.554  23.154  42.071  1.00  0.00    -0.395 OA
ATOM     44  H17 UNL     1     -19.980  23.085  42.825  1.00  0.00     0.209 HD
ENDBRANCH  42  43
ENDBRANCH  13  42
BRANCH   7  45
HETATM   45  C6  UNL     1     -19.862  24.523  35.308  1.00  0.00     0.077 C 
HETATM   46  C7  UNL     1     -18.865  23.758  34.739  1.00  0.00     0.083 C 
HETATM   47  C8  UNL     1     -18.873  23.008  33.545  1.00  0.00     0.074 C 
HETATM   48  C9  UNL     1     -19.688  23.162  32.443  1.00  0.00     0.072 C 
HETATM   49  C10 UNL     1     -20.830  23.960  32.392  1.00  0.00     0.094 C 
HETATM   50  C11 UNL     1     -21.539  24.490  33.449  1.00  0.00     0.208 C 
HETATM   51  O6  UNL     1     -22.674  24.948  33.207  1.00  0.00    -0.285 OA
HETATM   52  C12 UNL     1     -21.159  24.590  34.793  1.00  0.00     0.130 C 
BRANCH  46  53
HETATM   53  O4  UNL     1     -17.695  23.725  35.444  1.00  0.00    -0.360 OA
ATOM     54  H4  UNL     1     -16.925  23.512  34.929  1.00  0.00     0.217 HD
ENDBRANCH  46  53
BRANCH  48  55
HETATM   55  O5  UNL     1     -19.353  22.469  31.287  1.00  0.00    -0.360 OA
ATOM     56  H5  UNL     1     -19.194  21.536  31.359  1.00  0.00     0.217 HD
ENDBRANCH  48  55
BRANCH  52  57
HETATM   57  O7  UNL     1     -22.126  24.775  35.752  1.00  0.00    -0.356 OA
ATOM     58  H7  UNL     1     -22.956  24.365  35.540  1.00  0.00     0.218 HD
ENDBRANCH  52  57
ENDBRANCH   7  45
BRANCH   6  59
HETATM   59  O3  UNL     1     -17.695  26.710  36.181  1.00  0.00    -0.388 OA
ATOM     60  H3  UNL     1     -17.413  25.845  35.911  1.00  0.00     0.210 HD
ENDBRANCH   6  59
TORSDOF 19
ENDMDL
MODEL 4
REMARK VINA RESULT: -9.178585645      1.962      5.348
REMARK  19 active torsions:
REMARK  status: ('A' for Active; 'I' for Inactive)
REMARK    1  A    between atoms: C4_6  and  O3_7 
REMARK    2  A    between atoms: C5_9  and  C6_10 
REMARK    3  A    between atoms: C7_11  and  O4_12 
REMARK    4  A    between atoms: C9_15  and  O5_16 
REMARK    5  A    between atoms: C12_21  and  O7_22 
REMARK    6  A    between atoms: C14_27  and  C15_28 
REMARK    7  A    between atoms: N1_29  and  O10_31 
REMARK    8  A    between atoms: O10_31  and  C16_32 
REMARK    9  A    between atoms: C16_32  and  C17_33 
REMARK   10  A    between atoms: C17_33  and  N2_34 
REMARK   11  A    between atoms: N2_34  and  C18_37 
REMARK   12  A    between atoms: C18_37  and  C19_38 
REMARK   13  A    between atoms: C21_40  and  O11_41 
REMARK   14  A    between atoms: C22_43  and  O12_44 
REMARK   15  A    between atoms: C23_46  and  N3_47 
REMARK   16  A    between atoms: C25_52  and  O16_53 
REMARK   17  A    between atoms: C25_52  and  C26_55 
REMARK   18  A    between atoms: C26_55  and  O17_56 
REMARK   19  A    between atoms: C27_58  and  O18_59 
ROOT
HETATM    1  O1  UNL     1     -21.927  24.076  32.979  1.00  0.00    -0.289 OA
HETATM    2  C1  UNL     1     -21.317  24.046  34.013  1.00  0.00     0.224 C 
HETATM    3  C2  UNL     1     -22.004  24.734  35.168  1.00  0.00     0.338 C 
HETATM    4  O2  UNL     1     -23.252  24.195  35.378  1.00  0.00    -0.351 OA
HETATM    5  C3  UNL     1     -23.116  22.877  35.736  1.00  0.00     0.209 C 
HETATM    6  C4  UNL     1     -22.199  22.640  36.906  1.00  0.00     0.209 C 
HETATM    7  C5  UNL     1     -21.035  23.571  36.951  1.00  0.00     0.230 C 
HETATM    8  O8  UNL     1     -21.213  24.766  36.290  1.00  0.00    -0.311 OA
HETATM    9  O9  UNL     1     -19.908  22.875  36.408  1.00  0.00    -0.337 OA
HETATM   10  C13 UNL     1     -19.355  23.632  35.421  1.00  0.00     0.207 C 
HETATM   11  C14 UNL     1     -17.935  23.277  35.034  1.00  0.00     0.198 C 
HETATM   12  O15 UNL     1     -17.746  23.770  33.769  1.00  0.00    -0.337 OA
HETATM   13  C25 UNL     1     -18.962  23.885  33.143  1.00  0.00     0.226 C 
HETATM   14  C27 UNL     1     -20.030  23.377  34.063  1.00  0.00     0.210 C 
ENDROOT
BRANCH  11  15
HETATM   15  C15 UNL     1     -16.911  23.796  35.931  1.00  0.00     0.121 C 
HETATM   16  N1  UNL     1     -16.427  23.127  36.894  1.00  0.00    -0.279 N 
ATOM     17  H1  UNL     1     -15.711  23.561  37.477  1.00  0.00     0.193 HD
BRANCH  16  18
HETATM   18  O10 UNL     1     -16.815  21.876  37.180  1.00  0.00    -0.279 OA
BRANCH  18  19
HETATM   19  C16 UNL     1     -15.985  20.754  37.294  1.00  0.00     0.228 C 
BRANCH  19  20
HETATM   20  C17 UNL     1     -15.681  20.400  38.729  1.00  0.00     0.261 C 
BRANCH  20  21
HETATM   21  N2  UNL     1     -14.882  21.388  39.383  1.00  0.00    -0.069 N 
ATOM     22  H22 UNL     1     -15.186  22.330  39.140  1.00  0.00     0.277 HD
ATOM     23  H21 UNL     1     -15.069  21.411  40.385  1.00  0.00     0.277 HD
BRANCH  21  24
HETATM   24  C18 UNL     1     -13.472  21.207  39.117  1.00  0.00     0.271 C 
BRANCH  24  25
HETATM   25  C19 UNL     1     -12.718  22.463  39.134  1.00  0.00    -0.028 A 
HETATM   26  C20 UNL     1     -11.521  22.668  39.786  1.00  0.00     0.048 A 
HETATM   27  C21 UNL     1     -10.873  23.876  39.758  1.00  0.00     0.101 A 
HETATM   28  C22 UNL     1     -11.408  24.971  39.051  1.00  0.00     0.132 A 
HETATM   29  C23 UNL     1     -12.589  24.791  38.399  1.00  0.00     0.139 A 
HETATM   30  C24 UNL     1     -13.218  23.545  38.453  1.00  0.00     0.048 A 
BRANCH  27  31
HETATM   31  O11 UNL     1      -9.676  24.080  40.410  1.00  0.00    -0.358 OA
ATOM     32  H11 UNL     1      -9.195  24.897  40.339  1.00  0.00     0.217 HD
ENDBRANCH  27  31
BRANCH  28  33
HETATM   33  O12 UNL     1     -10.710  26.162  39.061  1.00  0.00    -0.356 OA
ATOM     34  H12 UNL     1     -11.044  26.885  38.544  1.00  0.00     0.218 HD
ENDBRANCH  28  33
BRANCH  29  35
HETATM   35  N3  UNL     1     -13.218  25.826  37.664  1.00  0.00    -0.113 N 
HETATM   36  O13 UNL     1     -14.461  25.701  37.422  1.00  0.00    -0.532 OA
HETATM   37  O14 UNL     1     -12.575  26.932  37.208  1.00  0.00    -0.532 OA
ENDBRANCH  29  35
ENDBRANCH  24  25
ENDBRANCH  21  24
ENDBRANCH  20  21
ENDBRANCH  19  20
ENDBRANCH  18  19
ENDBRANCH  16  18
ENDBRANCH  11  15
BRANCH  14  38
HETATM   38  O18 UNL     1     -20.116  21.996  33.834  1.00  0.00    -0.374 OA
ATOM     39  H18 UNL     1     -20.398  21.508  34.598  1.00  0.00     0.211 HD
ENDBRANCH  14  38
BRANCH  13  40
HETATM   40  O16 UNL     1     -18.928  23.061  31.980  1.00  0.00    -0.361 OA
ATOM     41  H16 UNL     1     -18.498  22.248  32.217  1.00  0.00     0.213 HD
ENDBRANCH  13  40
BRANCH  13  42
HETATM   42  C26 UNL     1     -19.217  25.316  32.684  1.00  0.00     0.236 C 
BRANCH  42  43
HETATM   43  O17 UNL     1     -18.215  26.195  33.071  1.00  0.00    -0.395 OA
ATOM     44  H17 UNL     1     -18.206  26.356  34.007  1.00  0.00     0.209 HD
ENDBRANCH  42  43
ENDBRANCH  13  42
BRANCH   7  45
HETATM   45  C6  UNL     1     -20.711  23.856  38.362  1.00  0.00     0.077 C 
HETATM   46  C7  UNL     1     -21.453  24.769  39.081  1.00  0.00     0.083 C 
HETATM   47  C8  UNL     1     -21.275  25.240  40.398  1.00  0.00     0.074 C 
HETATM   48  C9  UNL     1     -20.123  25.248  41.156  1.00  0.00     0.072 C 
HETATM   49  C10 UNL     1     -18.945  24.574  40.836  1.00  0.00     0.094 C 
HETATM   50  C11 UNL     1     -18.775  23.556  39.922  1.00  0.00     0.208 C 
HETATM   51  O6  UNL     1     -17.711  22.908  39.974  1.00  0.00    -0.285 OA
HETATM   52  C12 UNL     1     -19.650  23.133  38.913  1.00  0.00     0.130 C 
BRANCH  46  53
HETATM   53  O4  UNL     1     -22.522  25.294  38.411  1.00  0.00    -0.360 OA
ATOM     54  H4  UNL     1     -22.583  26.242  38.436  1.00  0.00     0.217 HD
ENDBRANCH  46  53
BRANCH  48  55
HETATM   55  O5  UNL     1     -20.126  25.984  42.333  1.00  0.00    -0.360 OA
ATOM     56  H5  UNL     1     -20.818  26.623  42.456  1.00  0.00     0.217 HD
ENDBRANCH  48  55
BRANCH  52  57
HETATM   57  O7  UNL     1     -19.494  21.880  38.372  1.00  0.00    -0.356 OA
ATOM     58  H7  UNL     1     -20.315  21.434  38.200  1.00  0.00     0.218 HD
ENDBRANCH  52  57
ENDBRANCH   7  45
BRANCH   6  59
HETATM   59  O3  UNL     1     -21.769  21.294  36.762  1.00  0.00    -0.388 OA
ATOM     60  H3  UNL     1     -22.415  20.893  36.193  1.00  0.00     0.210 HD
ENDBRANCH   6  59
TORSDOF 19
ENDMDL
MODEL 5
REMARK VINA RESULT: -9.068600351      1.188      1.365
REMARK  19 active torsions:
REMARK  status: ('A' for Active; 'I' for Inactive)
REMARK    1  A    between atoms: C4_6  and  O3_7 
REMARK    2  A    between atoms: C5_9  and  C6_10 
REMARK    3  A    between atoms: C7_11  and  O4_12 
REMARK    4  A    between atoms: C9_15  and  O5_16 
REMARK    5  A    between atoms: C12_21  and  O7_22 
REMARK    6  A    between atoms: C14_27  and  C15_28 
REMARK    7  A    between atoms: N1_29  and  O10_31 
REMARK    8  A    between atoms: O10_31  and  C16_32 
REMARK    9  A    between atoms: C16_32  and  C17_33 
REMARK   10  A    between atoms: C17_33  and  N2_34 
REMARK   11  A    between atoms: N2_34  and  C18_37 
REMARK   12  A    between atoms: C18_37  and  C19_38 
REMARK   13  A    between atoms: C21_40  and  O11_41 
REMARK   14  A    between atoms: C22_43  and  O12_44 
REMARK   15  A    between atoms: C23_46  and  N3_47 
REMARK   16  A    between atoms: C25_52  and  O16_53 
REMARK   17  A    between atoms: C25_52  and  C26_55 
REMARK   18  A    between atoms: C26_55  and  O17_56 
REMARK   19  A    between atoms: C27_58  and  O18_59 
ROOT
HETATM    1  O1  UNL     1     -20.099  27.138  40.009  1.00  0.00    -0.289 OA
HETATM    2  C1  UNL     1     -20.143  26.255  39.196  1.00  0.00     0.224 C 
HETATM    3  C2  UNL     1     -21.216  26.421  38.146  1.00  0.00     0.338 C 
HETATM    4  O2  UNL     1     -21.064  27.619  37.487  1.00  0.00    -0.351 OA
HETATM    5  C3  UNL     1     -19.865  27.614  36.820  1.00  0.00     0.209 C 
HETATM    6  C4  UNL     1     -19.668  26.439  35.900  1.00  0.00     0.209 C 
HETATM    7  C5  UNL     1     -20.266  25.172  36.412  1.00  0.00     0.230 C 
HETATM    8  O8  UNL     1     -21.293  25.331  37.315  1.00  0.00    -0.311 OA
HETATM    9  O9  UNL     1     -19.210  24.408  37.003  1.00  0.00    -0.337 OA
HETATM   10  C13 UNL     1     -19.570  24.061  38.269  1.00  0.00     0.207 C 
HETATM   11  C14 UNL     1     -18.797  22.914  38.885  1.00  0.00     0.198 C 
HETATM   12  O15 UNL     1     -18.939  23.039  40.243  1.00  0.00    -0.337 OA
HETATM   13  C25 UNL     1     -19.215  24.348  40.550  1.00  0.00     0.226 C 
HETATM   14  C27 UNL     1     -19.203  25.154  39.286  1.00  0.00     0.210 C 
ENDROOT
BRANCH  11  15
HETATM   15  C15 UNL     1     -19.227  21.590  38.458  1.00  0.00     0.121 C 
HETATM   16  N1  UNL     1     -18.591  20.892  37.610  1.00  0.00    -0.279 N 
ATOM     17  H1  UNL     1     -18.956  19.972  37.363  1.00  0.00     0.193 HD
BRANCH  16  18
HETATM   18  O10 UNL     1     -17.460  21.310  37.026  1.00  0.00    -0.279 OA
BRANCH  18  19
HETATM   19  C16 UNL     1     -16.426  20.499  36.538  1.00  0.00     0.228 C 
BRANCH  19  20
HETATM   20  C17 UNL     1     -15.496  20.026  37.627  1.00  0.00     0.261 C 
BRANCH  20  21
HETATM   21  N2  UNL     1     -15.368  20.971  38.692  1.00  0.00    -0.069 N 
ATOM     22  H22 UNL     1     -16.071  21.706  38.620  1.00  0.00     0.277 HD
ATOM     23  H21 UNL     1     -15.651  20.564  39.584  1.00  0.00     0.277 HD
BRANCH  21  24
HETATM   24  C18 UNL     1     -14.035  21.524  38.767  1.00  0.00     0.271 C 
BRANCH  24  25
HETATM   25  C19 UNL     1     -13.975  22.937  38.383  1.00  0.00    -0.028 A 
HETATM   26  C20 UNL     1     -15.018  23.667  37.852  1.00  0.00     0.048 A 
HETATM   27  C21 UNL     1     -14.885  24.988  37.515  1.00  0.00     0.101 A 
HETATM   28  C22 UNL     1     -13.663  25.666  37.700  1.00  0.00     0.132 A 
HETATM   29  C23 UNL     1     -12.620  24.965  38.223  1.00  0.00     0.139 A 
HETATM   30  C24 UNL     1     -12.797  23.619  38.553  1.00  0.00     0.048 A 
BRANCH  27  31
HETATM   31  O11 UNL     1     -15.927  25.717  36.985  1.00  0.00    -0.358 OA
ATOM     32  H11 UNL     1     -15.909  26.051  36.095  1.00  0.00     0.217 HD
ENDBRANCH  27  31
BRANCH  28  33
HETATM   33  O12 UNL     1     -13.590  26.997  37.339  1.00  0.00    -0.356 OA
ATOM     34  H12 UNL     1     -12.737  27.414  37.325  1.00  0.00     0.218 HD
ENDBRANCH  28  33
BRANCH  29  35
HETATM   35  N3  UNL     1     -11.347  25.546  38.444  1.00  0.00    -0.113 N 
HETATM   36  O13 UNL     1     -10.349  25.010  37.864  1.00  0.00    -0.532 OA
HETATM   37  O14 UNL     1     -11.135  26.632  39.232  1.00  0.00    -0.532 OA
ENDBRANCH  29  35
ENDBRANCH  24  25
ENDBRANCH  21  24
ENDBRANCH  20  21
ENDBRANCH  19  20
ENDBRANCH  18  19
ENDBRANCH  16  18
ENDBRANCH  11  15
BRANCH  14  38
HETATM   38  O18 UNL     1     -17.871  25.548  39.089  1.00  0.00    -0.374 OA
ATOM     39  H18 UNL     1     -17.446  25.838  39.888  1.00  0.00     0.211 HD
ENDBRANCH  14  38
BRANCH  13  40
HETATM   40  O16 UNL     1     -18.175  24.819  41.404  1.00  0.00    -0.361 OA
ATOM     41  H16 UNL     1     -17.347  24.597  40.996  1.00  0.00     0.213 HD
ENDBRANCH  13  40
BRANCH  13  42
HETATM   42  C26 UNL     1     -20.529  24.476  41.312  1.00  0.00     0.236 C 
BRANCH  42  43
HETATM   43  O17 UNL     1     -20.478  25.429  42.320  1.00  0.00    -0.395 OA
ATOM     44  H17 UNL     1     -19.976  25.143  43.074  1.00  0.00     0.209 HD
ENDBRANCH  42  43
ENDBRANCH  13  42
BRANCH   7  45
HETATM   45  C6  UNL     1     -20.762  24.386  35.267  1.00  0.00     0.077 C 
HETATM   46  C7  UNL     1     -21.902  24.771  34.593  1.00  0.00     0.083 C 
HETATM   47  C8  UNL     1     -22.583  24.135  33.535  1.00  0.00     0.074 C 
HETATM   48  C9  UNL     1     -22.554  22.804  33.175  1.00  0.00     0.072 C 
HETATM   49  C10 UNL     1     -21.654  21.858  33.663  1.00  0.00     0.094 C 
HETATM   50  C11 UNL     1     -20.465  22.085  34.325  1.00  0.00     0.208 C 
HETATM   51  O6  UNL     1     -19.680  21.123  34.440  1.00  0.00    -0.285 OA
HETATM   52  C12 UNL     1     -20.000  23.272  34.902  1.00  0.00     0.130 C 
BRANCH  46  53
HETATM   53  O4  UNL     1     -22.451  25.948  35.020  1.00  0.00    -0.360 OA
ATOM     54  H4  UNL     1     -22.318  26.685  34.436  1.00  0.00     0.217 HD
ENDBRANCH  46  53
BRANCH  48  55
HETATM   55  O5  UNL     1     -23.494  22.361  32.254  1.00  0.00    -0.360 OA
ATOM     56  H5  UNL     1     -23.428  22.683  31.363  1.00  0.00     0.217 HD
ENDBRANCH  48  55
BRANCH  52  57
HETATM   57  O7  UNL     1     -18.658  23.413  35.159  1.00  0.00    -0.356 OA
ATOM     58  H7  UNL     1     -18.144  22.647  34.934  1.00  0.00     0.218 HD
ENDBRANCH  52  57
ENDBRANCH   7  45
BRANCH   6  59
HETATM   59  O3  UNL     1     -18.259  26.318  35.764  1.00  0.00    -0.388 OA
ATOM     60  H3  UNL     1     -18.127  26.034  34.868  1.00  0.00     0.210 HD
ENDBRANCH   6  59
TORSDOF 19
ENDMDL
