MODEL 1
REMARK VINA RESULT: -9.042364539      0.000      0.000
REMARK  23 active torsions:
REMARK  status: ('A' for Active; 'I' for Inactive)
REMARK    1  A    between atoms: C2_2  and  O1_3 
REMARK    2  A    between atoms: O1_3  and  C3_4 
REMARK    3  A    between atoms: C3_4  and  C4_6 
REMARK    4  A    between atoms: C5_8  and  O4_9 
REMARK    5  A    between atoms: O4_9  and  C6_10 
REMARK    6  A    between atoms: C7_11  and  C8_12 
REMARK    7  A    between atoms: N1_13  and  O5_15 
REMARK    8  A    between atoms: O5_15  and  C9_16 
REMARK    9  A    between atoms: C9_16  and  C10_17 
REMARK   10  A    between atoms: C10_17  and  O6_18 
REMARK   11  A    between atoms: C10_17  and  C11_20 
REMARK   12  A    between atoms: C11_20  and  O7_21 
REMARK   13  A    between atoms: C11_20  and  C12_23 
REMARK   14  A    between atoms: C12_23  and  O8_24 
REMARK   15  A    between atoms: C15_28  and  O9_29 
REMARK   16  A    between atoms: C16_31  and  O10_32 
REMARK   17  A    between atoms: C19_37  and  O12_38 
REMARK   18  A    between atoms: O12_38  and  C20_39 
REMARK   19  A    between atoms: C22_41  and  O13_42 
REMARK   20  A    between atoms: C23_44  and  O14_45 
REMARK   21  A    between atoms: C26_49  and  O15_50 
REMARK   22  A    between atoms: C29_54  and  O16_55 
REMARK   23  A    between atoms: C29_54  and  O17_57 
ROOT
HETATM    1  C4  UNL     1     -19.292  23.897  39.569  1.00  0.00     0.260 C 
HETATM    2  O3  UNL     1     -20.352  24.446  38.839  1.00  0.00    -0.342 OA
HETATM    3  C5  UNL     1     -21.368  23.529  38.587  1.00  0.00     0.274 C 
HETATM    4  C17 UNL     1     -20.817  22.628  37.521  1.00  0.00     0.142 C 
HETATM    5  C18 UNL     1     -19.615  21.965  38.088  1.00  0.00     0.163 C 
HETATM    6  O11 UNL     1     -19.527  20.762  37.947  1.00  0.00    -0.295 OA
HETATM    7  C19 UNL     1     -18.605  22.818  38.788  1.00  0.00     0.238 C 
ENDROOT
BRANCH   3   8
HETATM    8  O4  UNL     1     -22.451  24.325  38.080  1.00  0.00    -0.316 OA
BRANCH   8   9
HETATM    9  C6  UNL     1     -22.429  25.698  37.973  1.00  0.00     0.119 A 
HETATM   10  C7  UNL     1     -22.343  26.303  36.740  1.00  0.00     0.018 A 
HETATM   11  C13 UNL     1     -22.327  27.676  36.593  1.00  0.00     0.018 A 
HETATM   12  C14 UNL     1     -22.396  28.503  37.704  1.00  0.00     0.040 A 
HETATM   13  C15 UNL     1     -22.477  27.941  38.924  1.00  0.00     0.101 A 
HETATM   14  C16 UNL     1     -22.494  26.540  39.081  1.00  0.00     0.133 A 
BRANCH  10  15
HETATM   15  C8  UNL     1     -22.204  25.481  35.551  1.00  0.00     0.128 C 
HETATM   16  N1  UNL     1     -21.165  24.915  35.190  1.00  0.00    -0.277 N 
ATOM     17  H1  UNL     1     -21.344  24.406  34.324  1.00  0.00     0.193 HD
BRANCH  16  18
HETATM   18  O5  UNL     1     -19.917  24.744  35.535  1.00  0.00    -0.278 OA
BRANCH  18  19
HETATM   19  C9  UNL     1     -18.919  25.757  35.332  1.00  0.00     0.235 C 
BRANCH  19  20
HETATM   20  C10 UNL     1     -17.842  25.240  34.389  1.00  0.00     0.175 C 
BRANCH  20  21
HETATM   21  O6  UNL     1     -16.663  25.975  34.534  1.00  0.00    -0.391 OA
ATOM     22  H6  UNL     1     -15.978  25.625  33.978  1.00  0.00     0.210 HD
ENDBRANCH  20  21
BRANCH  20  23
HETATM   23  C11 UNL     1     -18.339  25.378  32.984  1.00  0.00     0.172 C 
BRANCH  23  24
HETATM   24  O7  UNL     1     -19.341  26.337  32.889  1.00  0.00    -0.391 OA
ATOM     25  H7  UNL     1     -19.739  26.512  33.735  1.00  0.00     0.210 HD
ENDBRANCH  23  24
BRANCH  23  26
HETATM   26  C12 UNL     1     -18.857  24.079  32.418  1.00  0.00     0.198 C 
BRANCH  26  27
HETATM   27  O8  UNL     1     -20.245  24.015  32.442  1.00  0.00    -0.398 OA
ATOM     28  H8  UNL     1     -20.560  23.218  32.851  1.00  0.00     0.209 HD
ENDBRANCH  26  27
ENDBRANCH  23  26
ENDBRANCH  20  23
ENDBRANCH  19  20
ENDBRANCH  18  19
ENDBRANCH  16  18
ENDBRANCH  10  15
BRANCH  13  29
HETATM   29  O9  UNL     1     -22.546  28.740  40.065  1.00  0.00    -0.358 OA
ATOM     30  H9  UNL     1     -21.757  28.963  40.543  1.00  0.00     0.217 HD
ENDBRANCH  13  29
BRANCH  14  31
HETATM   31  O10 UNL     1     -22.568  26.044  40.347  1.00  0.00    -0.356 OA
ATOM     32  H10 UNL     1     -23.187  26.390  40.980  1.00  0.00     0.218 HD
ENDBRANCH  14  31
ENDBRANCH   8   9
ENDBRANCH   3   8
BRANCH   1  33
HETATM   33  C3  UNL     1     -18.514  25.016  40.049  1.00  0.00     0.291 C 
HETATM   34  O2  UNL     1     -17.312  25.007  40.442  1.00  0.00    -0.262 OA
BRANCH  33  35
HETATM   35  O1  UNL     1     -19.130  26.292  40.100  1.00  0.00    -0.320 OA
BRANCH  35  36
HETATM   36  C2  UNL     1     -19.262  27.002  41.331  1.00  0.00     0.174 C 
HETATM   37  C1  UNL     1     -19.308  28.469  40.984  1.00  0.00     0.034 C 
ENDBRANCH  35  36
ENDBRANCH  33  35
ENDBRANCH   1  33
BRANCH   7  38
HETATM   38  O12 UNL     1     -17.483  23.165  38.040  1.00  0.00    -0.319 OA
BRANCH  38  39
HETATM   39  C20 UNL     1     -16.249  22.554  38.334  1.00  0.00     0.157 C 
HETATM   40  C21 UNL     1     -15.120  23.238  38.264  1.00  0.00     0.064 A 
HETATM   41  C22 UNL     1     -15.095  24.574  37.886  1.00  0.00     0.115 A 
HETATM   42  C27 UNL     1     -13.920  22.585  38.623  1.00  0.00     0.018 A 
HETATM   43  C23 UNL     1     -13.951  25.291  37.847  1.00  0.00     0.108 A 
HETATM   44  C24 UNL     1     -12.766  24.682  38.191  1.00  0.00     0.008 A 
HETATM   45  C25 UNL     1     -11.527  25.496  38.137  1.00  0.00     0.054 C 
HETATM   46  C26 UNL     1     -12.750  23.359  38.570  1.00  0.00     0.085 A 
HETATM   47  C28 UNL     1     -13.867  21.344  39.032  1.00  0.00     0.080 C 
HETATM   48  C29 UNL     1     -15.079  20.527  39.150  1.00  0.00     0.267 C 
HETATM   49  N2  UNL     1     -16.260  21.164  38.697  1.00  0.00    -0.312 N 
ATOM     50  H2  UNL     1     -17.127  20.631  38.629  1.00  0.00     0.167 HD
BRANCH  41  51
HETATM   51  O13 UNL     1     -16.298  25.122  37.549  1.00  0.00    -0.357 OA
ATOM     52  H13 UNL     1     -16.267  25.862  36.954  1.00  0.00     0.217 HD
ENDBRANCH  41  51
BRANCH  43  53
HETATM   53  O14 UNL     1     -13.943  26.647  37.463  1.00  0.00    -0.357 OA
ATOM     54  H14 UNL     1     -13.165  27.185  37.554  1.00  0.00     0.217 HD
ENDBRANCH  43  53
BRANCH  46  55
HETATM   55  O15 UNL     1     -11.536  22.787  38.907  1.00  0.00    -0.359 OA
ATOM     56  H15 UNL     1     -10.741  23.266  38.704  1.00  0.00     0.217 HD
ENDBRANCH  46  55
BRANCH  48  57
HETATM   57  O16 UNL     1     -15.203  20.016  40.454  1.00  0.00    -0.345 OA
ATOM     58  H16 UNL     1     -15.997  19.500  40.535  1.00  0.00     0.215 HD
ENDBRANCH  48  57
BRANCH  48  59
HETATM   59  O17 UNL     1     -14.877  19.421  38.274  1.00  0.00    -0.345 OA
ATOM     60  H17 UNL     1     -14.475  18.746  38.809  1.00  0.00     0.215 HD
ENDBRANCH  48  59
ENDBRANCH  38  39
ENDBRANCH   7  38
TORSDOF 23
ENDMDL
MODEL 2
REMARK VINA RESULT: -8.887065260      2.412      4.581
REMARK  23 active torsions:
REMARK  status: ('A' for Active; 'I' for Inactive)
REMARK    1  A    between atoms: C2_2  and  O1_3 
REMARK    2  A    between atoms: O1_3  and  C3_4 
REMARK    3  A    between atoms: C3_4  and  C4_6 
REMARK    4  A    between atoms: C5_8  and  O4_9 
REMARK    5  A    between atoms: O4_9  and  C6_10 
REMARK    6  A    between atoms: C7_11  and  C8_12 
REMARK    7  A    between atoms: N1_13  and  O5_15 
REMARK    8  A    between atoms: O5_15  and  C9_16 
REMARK    9  A    between atoms: C9_16  and  C10_17 
REMARK   10  A    between atoms: C10_17  and  O6_18 
REMARK   11  A    between atoms: C10_17  and  C11_20 
REMARK   12  A    between atoms: C11_20  and  O7_21 
REMARK   13  A    between atoms: C11_20  and  C12_23 
REMARK   14  A    between atoms: C12_23  and  O8_24 
REMARK   15  A    between atoms: C15_28  and  O9_29 
REMARK   16  A    between atoms: C16_31  and  O10_32 
REMARK   17  A    between atoms: C19_37  and  O12_38 
REMARK   18  A    between atoms: O12_38  and  C20_39 
REMARK   19  A    between atoms: C22_41  and  O13_42 
REMARK   20  A    between atoms: C23_44  and  O14_45 
REMARK   21  A    between atoms: C26_49  and  O15_50 
REMARK   22  A    between atoms: C29_54  and  O16_55 
REMARK   23  A    between atoms: C29_54  and  O17_57 
ROOT
HETATM    1  C4  UNL     1     -18.958  24.605  37.580  1.00  0.00     0.260 C 
HETATM    2  O3  UNL     1     -19.572  25.826  37.276  1.00  0.00    -0.342 OA
HETATM    3  C5  UNL     1     -20.168  25.833  36.017  1.00  0.00     0.274 C 
HETATM    4  C17 UNL     1     -19.024  25.921  35.051  1.00  0.00     0.142 C 
HETATM    5  C18 UNL     1     -18.190  24.709  35.249  1.00  0.00     0.163 C 
HETATM    6  O11 UNL     1     -17.862  24.092  34.256  1.00  0.00    -0.295 OA
HETATM    7  C19 UNL     1     -17.817  24.332  36.648  1.00  0.00     0.238 C 
ENDROOT
BRANCH   3   8
HETATM    8  O4  UNL     1     -20.952  27.037  36.000  1.00  0.00    -0.316 OA
BRANCH   8   9
HETATM    9  C6  UNL     1     -21.639  27.538  37.083  1.00  0.00     0.119 A 
HETATM   10  C7  UNL     1     -23.007  27.408  37.166  1.00  0.00     0.018 A 
HETATM   11  C13 UNL     1     -23.730  27.889  38.240  1.00  0.00     0.018 A 
HETATM   12  C14 UNL     1     -23.087  28.531  39.287  1.00  0.00     0.040 A 
HETATM   13  C15 UNL     1     -21.751  28.677  39.234  1.00  0.00     0.101 A 
HETATM   14  C16 UNL     1     -21.007  28.189  38.140  1.00  0.00     0.133 A 
BRANCH  10  15
HETATM   15  C8  UNL     1     -23.733  26.800  36.064  1.00  0.00     0.128 C 
HETATM   16  N1  UNL     1     -24.499  27.395  35.297  1.00  0.00    -0.277 N 
ATOM     17  H1  UNL     1     -24.874  26.732  34.618  1.00  0.00     0.193 HD
BRANCH  16  18
HETATM   18  O5  UNL     1     -24.994  28.580  35.055  1.00  0.00    -0.278 OA
BRANCH  18  19
HETATM   19  C9  UNL     1     -26.024  29.161  35.870  1.00  0.00     0.235 C 
BRANCH  19  20
HETATM   20  C10 UNL     1     -25.630  30.575  36.272  1.00  0.00     0.175 C 
BRANCH  20  21
HETATM   21  O6  UNL     1     -24.246  30.745  36.193  1.00  0.00    -0.391 OA
ATOM     22  H6  UNL     1     -23.994  31.603  36.513  1.00  0.00     0.210 HD
ENDBRANCH  20  21
BRANCH  20  23
HETATM   23  C11 UNL     1     -26.075  30.805  37.682  1.00  0.00     0.172 C 
BRANCH  23  24
HETATM   24  O7  UNL     1     -27.272  31.513  37.731  1.00  0.00    -0.391 OA
ATOM     25  H7  UNL     1     -27.122  32.452  37.734  1.00  0.00     0.210 HD
ENDBRANCH  23  24
BRANCH  23  26
HETATM   26  C12 UNL     1     -25.046  31.538  38.507  1.00  0.00     0.198 C 
BRANCH  26  27
HETATM   27  O8  UNL     1     -25.629  32.321  39.496  1.00  0.00    -0.398 OA
ATOM     28  H8  UNL     1     -25.476  33.248  39.356  1.00  0.00     0.209 HD
ENDBRANCH  26  27
ENDBRANCH  23  26
ENDBRANCH  20  23
ENDBRANCH  19  20
ENDBRANCH  18  19
ENDBRANCH  16  18
ENDBRANCH  10  15
BRANCH  13  29
HETATM   29  O9  UNL     1     -21.070  29.320  40.269  1.00  0.00    -0.358 OA
ATOM     30  H9  UNL     1     -20.489  28.830  40.837  1.00  0.00     0.217 HD
ENDBRANCH  13  29
BRANCH  14  31
HETATM   31  O10 UNL     1     -19.659  28.380  38.152  1.00  0.00    -0.356 OA
ATOM     32  H10 UNL     1     -19.191  28.562  38.959  1.00  0.00     0.218 HD
ENDBRANCH  14  31
ENDBRANCH   8   9
ENDBRANCH   3   8
BRANCH   1  33
HETATM   33  C3  UNL     1     -18.710  24.625  39.003  1.00  0.00     0.291 C 
HETATM   34  O2  UNL     1     -18.278  23.680  39.723  1.00  0.00    -0.262 OA
BRANCH  33  35
HETATM   35  O1  UNL     1     -18.966  25.825  39.714  1.00  0.00    -0.320 OA
BRANCH  35  36
HETATM   36  C2  UNL     1     -19.819  25.840  40.857  1.00  0.00     0.174 C 
HETATM   37  C1  UNL     1     -21.148  25.277  40.417  1.00  0.00     0.034 C 
ENDBRANCH  35  36
ENDBRANCH  33  35
ENDBRANCH   1  33
BRANCH   7  38
HETATM   38  O12 UNL     1     -16.538  24.705  37.054  1.00  0.00    -0.319 OA
BRANCH  38  39
HETATM   39  C20 UNL     1     -15.682  23.731  37.602  1.00  0.00     0.157 C 
HETATM   40  C21 UNL     1     -14.432  24.025  37.915  1.00  0.00     0.064 A 
HETATM   41  C22 UNL     1     -13.904  25.293  37.708  1.00  0.00     0.115 A 
HETATM   42  C27 UNL     1     -13.638  23.021  38.511  1.00  0.00     0.018 A 
HETATM   43  C23 UNL     1     -12.639  25.613  38.060  1.00  0.00     0.108 A 
HETATM   44  C24 UNL     1     -11.842  24.655  38.642  1.00  0.00     0.008 A 
HETATM   45  C25 UNL     1     -10.458  25.038  39.015  1.00  0.00     0.054 C 
HETATM   46  C26 UNL     1     -12.330  23.387  38.863  1.00  0.00     0.085 A 
HETATM   47  C28 UNL     1     -14.076  21.818  38.780  1.00  0.00     0.080 C 
HETATM   48  C29 UNL     1     -15.456  21.422  38.474  1.00  0.00     0.267 C 
HETATM   49  N2  UNL     1     -16.209  22.408  37.793  1.00  0.00    -0.312 N 
ATOM     50  H2  UNL     1     -17.136  22.178  37.434  1.00  0.00     0.167 HD
BRANCH  41  51
HETATM   51  O13 UNL     1     -14.738  26.199  37.121  1.00  0.00    -0.357 OA
ATOM     52  H13 UNL     1     -14.367  26.705  36.407  1.00  0.00     0.217 HD
ENDBRANCH  41  51
BRANCH  43  53
HETATM   53  O14 UNL     1     -12.118  26.905  37.845  1.00  0.00    -0.357 OA
ATOM     54  H14 UNL     1     -11.402  27.245  38.367  1.00  0.00     0.217 HD
ENDBRANCH  43  53
BRANCH  46  55
HETATM   55  O15 UNL     1     -11.493  22.455  39.450  1.00  0.00    -0.359 OA
ATOM     56  H15 UNL     1     -11.771  22.047  40.262  1.00  0.00     0.217 HD
ENDBRANCH  46  55
BRANCH  48  57
HETATM   57  O16 UNL     1     -16.100  20.950  39.632  1.00  0.00    -0.345 OA
ATOM     58  H16 UNL     1     -16.359  21.676  40.188  1.00  0.00     0.215 HD
ENDBRANCH  48  57
BRANCH  48  59
HETATM   59  O17 UNL     1     -15.344  20.327  37.570  1.00  0.00    -0.345 OA
ATOM     60  H17 UNL     1     -15.343  20.715  36.703  1.00  0.00     0.215 HD
ENDBRANCH  48  59
ENDBRANCH  38  39
ENDBRANCH   7  38
TORSDOF 23
ENDMDL
MODEL 3
REMARK VINA RESULT: -8.671378833      1.653      3.193
REMARK  23 active torsions:
REMARK  status: ('A' for Active; 'I' for Inactive)
REMARK    1  A    between atoms: C2_2  and  O1_3 
REMARK    2  A    between atoms: O1_3  and  C3_4 
REMARK    3  A    between atoms: C3_4  and  C4_6 
REMARK    4  A    between atoms: C5_8  and  O4_9 
REMARK    5  A    between atoms: O4_9  and  C6_10 
REMARK    6  A    between atoms: C7_11  and  C8_12 
REMARK    7  A    between atoms: N1_13  and  O5_15 
REMARK    8  A    between atoms: O5_15  and  C9_16 
REMARK    9  A    between atoms: C9_16  and  C10_17 
REMARK   10  A    between atoms: C10_17  and  O6_18 
REMARK   11  A    between atoms: C10_17  and  C11_20 
REMARK   12  A    between atoms: C11_20  and  O7_21 
REMARK   13  A    between atoms: C11_20  and  C12_23 
REMARK   14  A    between atoms: C12_23  and  O8_24 
REMARK   15  A    between atoms: C15_28  and  O9_29 
REMARK   16  A    between atoms: C16_31  and  O10_32 
REMARK   17  A    between atoms: C19_37  and  O12_38 
REMARK   18  A    between atoms: O12_38  and  C20_39 
REMARK   19  A    between atoms: C22_41  and  O13_42 
REMARK   20  A    between atoms: C23_44  and  O14_45 
REMARK   21  A    between atoms: C26_49  and  O15_50 
REMARK   22  A    between atoms: C29_54  and  O16_55 
REMARK   23  A    between atoms: C29_54  and  O17_57 
ROOT
HETATM    1  C4  UNL     1     -18.685  24.461  37.445  1.00  0.00     0.260 C 
HETATM    2  O3  UNL     1     -19.256  25.710  37.179  1.00  0.00    -0.342 OA
HETATM    3  C5  UNL     1     -19.727  25.821  35.873  1.00  0.00     0.274 C 
HETATM    4  C17 UNL     1     -18.494  25.966  35.032  1.00  0.00     0.142 C 
HETATM    5  C18 UNL     1     -17.692  24.730  35.215  1.00  0.00     0.163 C 
HETATM    6  O11 UNL     1     -17.273  24.186  34.213  1.00  0.00    -0.295 OA
HETATM    7  C19 UNL     1     -17.460  24.242  36.610  1.00  0.00     0.238 C 
ENDROOT
BRANCH   3   8
HETATM    8  O4  UNL     1     -20.496  27.035  35.873  1.00  0.00    -0.316 OA
BRANCH   8   9
HETATM    9  C6  UNL     1     -21.377  27.402  36.866  1.00  0.00     0.119 A 
HETATM   10  C7  UNL     1     -22.680  26.957  36.847  1.00  0.00     0.018 A 
HETATM   11  C13 UNL     1     -23.589  27.297  37.829  1.00  0.00     0.018 A 
HETATM   12  C14 UNL     1     -23.211  28.112  38.884  1.00  0.00     0.040 A 
HETATM   13  C15 UNL     1     -21.945  28.567  38.930  1.00  0.00     0.101 A 
HETATM   14  C16 UNL     1     -21.012  28.224  37.930  1.00  0.00     0.133 A 
BRANCH  10  15
HETATM   15  C8  UNL     1     -23.141  26.153  35.729  1.00  0.00     0.128 C 
HETATM   16  N1  UNL     1     -23.032  24.924  35.639  1.00  0.00    -0.277 N 
ATOM     17  H1  UNL     1     -23.437  24.616  34.754  1.00  0.00     0.193 HD
BRANCH  16  18
HETATM   18  O5  UNL     1     -22.578  23.884  36.286  1.00  0.00    -0.278 OA
BRANCH  18  19
HETATM   19  C9  UNL     1     -22.129  22.698  35.612  1.00  0.00     0.235 C 
BRANCH  19  20
HETATM   20  C10 UNL     1     -20.791  22.251  36.186  1.00  0.00     0.175 C 
BRANCH  20  21
HETATM   21  O6  UNL     1     -20.081  21.492  35.253  1.00  0.00    -0.391 OA
ATOM     22  H6  UNL     1     -19.357  21.040  35.668  1.00  0.00     0.210 HD
ENDBRANCH  20  21
BRANCH  20  23
HETATM   23  C11 UNL     1     -21.054  21.418  37.401  1.00  0.00     0.172 C 
BRANCH  23  24
HETATM   24  O7  UNL     1     -21.176  22.204  38.542  1.00  0.00    -0.391 OA
ATOM     25  H7  UNL     1     -21.445  21.688  39.294  1.00  0.00     0.210 HD
ENDBRANCH  23  24
BRANCH  23  26
HETATM   26  C12 UNL     1     -19.985  20.381  37.641  1.00  0.00     0.198 C 
BRANCH  26  27
HETATM   27  O8  UNL     1     -18.765  20.955  37.976  1.00  0.00    -0.398 OA
ATOM     28  H8  UNL     1     -18.843  21.560  38.705  1.00  0.00     0.209 HD
ENDBRANCH  26  27
ENDBRANCH  23  26
ENDBRANCH  20  23
ENDBRANCH  19  20
ENDBRANCH  18  19
ENDBRANCH  16  18
ENDBRANCH  10  15
BRANCH  13  29
HETATM   29  O9  UNL     1     -21.530  29.391  39.975  1.00  0.00    -0.358 OA
ATOM     30  H9  UNL     1     -20.668  29.789  39.959  1.00  0.00     0.217 HD
ENDBRANCH  13  29
BRANCH  14  31
HETATM   31  O10 UNL     1     -19.752  28.728  38.039  1.00  0.00    -0.356 OA
ATOM     32  H10 UNL     1     -19.599  29.640  38.258  1.00  0.00     0.218 HD
ENDBRANCH  14  31
ENDBRANCH   8   9
ENDBRANCH   3   8
BRANCH   1  33
HETATM   33  C3  UNL     1     -18.576  24.368  38.883  1.00  0.00     0.291 C 
HETATM   34  O2  UNL     1     -18.330  23.338  39.573  1.00  0.00    -0.262 OA
BRANCH  33  35
HETATM   35  O1  UNL     1     -18.757  25.548  39.649  1.00  0.00    -0.320 OA
BRANCH  35  36
HETATM   36  C2  UNL     1     -19.617  25.567  40.787  1.00  0.00     0.174 C 
HETATM   37  C1  UNL     1     -21.015  25.309  40.281  1.00  0.00     0.034 C 
ENDBRANCH  35  36
ENDBRANCH  33  35
ENDBRANCH   1  33
BRANCH   7  38
HETATM   38  O12 UNL     1     -16.223  24.564  37.165  1.00  0.00    -0.319 OA
BRANCH  38  39
HETATM   39  C20 UNL     1     -15.423  23.535  37.698  1.00  0.00     0.157 C 
HETATM   40  C21 UNL     1     -14.178  23.770  38.074  1.00  0.00     0.064 A 
HETATM   41  C22 UNL     1     -13.600  25.027  37.949  1.00  0.00     0.115 A 
HETATM   42  C27 UNL     1     -13.444  22.711  38.651  1.00  0.00     0.018 A 
HETATM   43  C23 UNL     1     -12.341  25.285  38.365  1.00  0.00     0.108 A 
HETATM   44  C24 UNL     1     -11.600  24.273  38.931  1.00  0.00     0.008 A 
HETATM   45  C25 UNL     1     -10.221  24.589  39.376  1.00  0.00     0.054 C 
HETATM   46  C26 UNL     1     -12.139  23.014  39.071  1.00  0.00     0.085 A 
HETATM   47  C28 UNL     1     -13.932  21.513  38.844  1.00  0.00     0.080 C 
HETATM   48  C29 UNL     1     -15.310  21.182  38.466  1.00  0.00     0.267 C 
HETATM   49  N2  UNL     1     -16.002  22.225  37.804  1.00  0.00    -0.312 N 
ATOM     50  H2  UNL     1     -16.920  22.044  37.399  1.00  0.00     0.167 HD
BRANCH  41  51
HETATM   51  O13 UNL     1     -14.379  25.988  37.374  1.00  0.00    -0.357 OA
ATOM     52  H13 UNL     1     -13.922  26.756  37.051  1.00  0.00     0.217 HD
ENDBRANCH  41  51
BRANCH  43  53
HETATM   53  O14 UNL     1     -11.769  26.566  38.233  1.00  0.00    -0.357 OA
ATOM     54  H14 UNL     1     -12.298  27.354  38.273  1.00  0.00     0.217 HD
ENDBRANCH  43  53
BRANCH  46  55
HETATM   55  O15 UNL     1     -11.358  22.026  39.645  1.00  0.00    -0.359 OA
ATOM     56  H15 UNL     1     -11.115  21.278  39.112  1.00  0.00     0.217 HD
ENDBRANCH  46  55
BRANCH  48  57
HETATM   57  O16 UNL     1     -16.017  20.679  39.574  1.00  0.00    -0.345 OA
ATOM     58  H16 UNL     1     -16.238  21.381  40.174  1.00  0.00     0.215 HD
ENDBRANCH  48  57
BRANCH  48  59
HETATM   59  O17 UNL     1     -15.199  20.127  37.515  1.00  0.00    -0.345 OA
ATOM     60  H17 UNL     1     -15.143  19.329  38.028  1.00  0.00     0.215 HD
ENDBRANCH  48  59
ENDBRANCH  38  39
ENDBRANCH   7  38
TORSDOF 23
ENDMDL
MODEL 4
REMARK VINA RESULT: -8.545825167      1.701      2.632
REMARK  23 active torsions:
REMARK  status: ('A' for Active; 'I' for Inactive)
REMARK    1  A    between atoms: C2_2  and  O1_3 
REMARK    2  A    between atoms: O1_3  and  C3_4 
REMARK    3  A    between atoms: C3_4  and  C4_6 
REMARK    4  A    between atoms: C5_8  and  O4_9 
REMARK    5  A    between atoms: O4_9  and  C6_10 
REMARK    6  A    between atoms: C7_11  and  C8_12 
REMARK    7  A    between atoms: N1_13  and  O5_15 
REMARK    8  A    between atoms: O5_15  and  C9_16 
REMARK    9  A    between atoms: C9_16  and  C10_17 
REMARK   10  A    between atoms: C10_17  and  O6_18 
REMARK   11  A    between atoms: C10_17  and  C11_20 
REMARK   12  A    between atoms: C11_20  and  O7_21 
REMARK   13  A    between atoms: C11_20  and  C12_23 
REMARK   14  A    between atoms: C12_23  and  O8_24 
REMARK   15  A    between atoms: C15_28  and  O9_29 
REMARK   16  A    between atoms: C16_31  and  O10_32 
REMARK   17  A    between atoms: C19_37  and  O12_38 
REMARK   18  A    between atoms: O12_38  and  C20_39 
REMARK   19  A    between atoms: C22_41  and  O13_42 
REMARK   20  A    between atoms: C23_44  and  O14_45 
REMARK   21  A    between atoms: C26_49  and  O15_50 
REMARK   22  A    between atoms: C29_54  and  O16_55 
REMARK   23  A    between atoms: C29_54  and  O17_57 
ROOT
HETATM    1  C4  UNL     1     -18.695  24.568  37.623  1.00  0.00     0.260 C 
HETATM    2  O3  UNL     1     -19.258  25.798  37.266  1.00  0.00    -0.342 OA
HETATM    3  C5  UNL     1     -19.757  25.808  35.967  1.00  0.00     0.274 C 
HETATM    4  C17 UNL     1     -18.543  25.866  35.089  1.00  0.00     0.142 C 
HETATM    5  C18 UNL     1     -17.751  24.638  35.357  1.00  0.00     0.163 C 
HETATM    6  O11 UNL     1     -17.362  24.008  34.394  1.00  0.00    -0.295 OA
HETATM    7  C19 UNL     1     -17.492  24.265  36.782  1.00  0.00     0.238 C 
ENDROOT
BRANCH   3   8
HETATM    8  O4  UNL     1     -20.512  27.028  35.883  1.00  0.00    -0.316 OA
BRANCH   8   9
HETATM    9  C6  UNL     1     -21.404  27.462  36.839  1.00  0.00     0.119 A 
HETATM   10  C7  UNL     1     -22.752  27.220  36.701  1.00  0.00     0.018 A 
HETATM   11  C13 UNL     1     -23.675  27.632  37.642  1.00  0.00     0.018 A 
HETATM   12  C14 UNL     1     -23.265  28.316  38.775  1.00  0.00     0.040 A 
HETATM   13  C15 UNL     1     -21.954  28.571  38.938  1.00  0.00     0.101 A 
HETATM   14  C16 UNL     1     -21.006  28.154  37.981  1.00  0.00     0.133 A 
BRANCH  10  15
HETATM   15  C8  UNL     1     -23.239  26.564  35.500  1.00  0.00     0.128 C 
HETATM   16  N1  UNL     1     -23.143  25.354  35.257  1.00  0.00    -0.277 N 
ATOM     17  H1  UNL     1     -23.565  25.161  34.348  1.00  0.00     0.193 HD
BRANCH  16  18
HETATM   18  O5  UNL     1     -22.687  24.239  35.763  1.00  0.00    -0.278 OA
BRANCH  18  19
HETATM   19  C9  UNL     1     -22.315  23.121  34.942  1.00  0.00     0.235 C 
BRANCH  19  20
HETATM   20  C10 UNL     1     -21.322  23.568  33.878  1.00  0.00     0.175 C 
BRANCH  20  21
HETATM   21  O6  UNL     1     -21.989  24.092  32.768  1.00  0.00    -0.391 OA
ATOM     22  H6  UNL     1     -22.299  23.395  32.202  1.00  0.00     0.210 HD
ENDBRANCH  20  21
BRANCH  20  23
HETATM   23  C11 UNL     1     -20.518  22.379  33.454  1.00  0.00     0.172 C 
BRANCH  23  24
HETATM   24  O7  UNL     1     -19.628  21.985  34.448  1.00  0.00    -0.391 OA
ATOM     25  H7  UNL     1     -19.070  21.273  34.154  1.00  0.00     0.210 HD
ENDBRANCH  23  24
BRANCH  23  26
HETATM   26  C12 UNL     1     -19.745  22.621  32.181  1.00  0.00     0.198 C 
BRANCH  26  27
HETATM   27  O8  UNL     1     -19.224  23.908  32.122  1.00  0.00    -0.398 OA
ATOM     28  H8  UNL     1     -18.549  23.990  31.458  1.00  0.00     0.209 HD
ENDBRANCH  26  27
ENDBRANCH  23  26
ENDBRANCH  20  23
ENDBRANCH  19  20
ENDBRANCH  18  19
ENDBRANCH  16  18
ENDBRANCH  10  15
BRANCH  13  29
HETATM   29  O9  UNL     1     -21.504  29.259  40.065  1.00  0.00    -0.358 OA
ATOM     30  H9  UNL     1     -21.230  28.783  40.840  1.00  0.00     0.217 HD
ENDBRANCH  13  29
BRANCH  14  31
HETATM   31  O10 UNL     1     -19.698  28.455  38.209  1.00  0.00    -0.356 OA
ATOM     32  H10 UNL     1     -19.230  28.101  38.956  1.00  0.00     0.218 HD
ENDBRANCH  14  31
ENDBRANCH   8   9
ENDBRANCH   3   8
BRANCH   1  33
HETATM   33  C3  UNL     1     -18.554  24.593  39.060  1.00  0.00     0.291 C 
HETATM   34  O2  UNL     1     -18.146  23.661  39.812  1.00  0.00    -0.262 OA
BRANCH  33  35
HETATM   35  O1  UNL     1     -18.901  25.783  39.750  1.00  0.00    -0.320 OA
BRANCH  35  36
HETATM   36  C2  UNL     1     -19.790  25.760  40.866  1.00  0.00     0.174 C 
HETATM   37  C1  UNL     1     -21.128  25.294  40.346  1.00  0.00     0.034 C 
ENDBRANCH  35  36
ENDBRANCH  33  35
ENDBRANCH   1  33
BRANCH   7  38
HETATM   38  O12 UNL     1     -16.240  24.615  37.281  1.00  0.00    -0.319 OA
BRANCH  38  39
HETATM   39  C20 UNL     1     -15.409  23.609  37.812  1.00  0.00     0.157 C 
HETATM   40  C21 UNL     1     -14.152  23.866  38.130  1.00  0.00     0.064 A 
HETATM   41  C22 UNL     1     -13.592  25.123  37.944  1.00  0.00     0.115 A 
HETATM   42  C27 UNL     1     -13.385  22.832  38.709  1.00  0.00     0.018 A 
HETATM   43  C23 UNL     1     -12.320  25.405  38.302  1.00  0.00     0.108 A 
HETATM   44  C24 UNL     1     -11.547  24.417  38.868  1.00  0.00     0.008 A 
HETATM   45  C25 UNL     1     -10.155  24.758  39.247  1.00  0.00     0.054 C 
HETATM   46  C26 UNL     1     -12.068  23.159  39.067  1.00  0.00     0.085 A 
HETATM   47  C28 UNL     1     -13.854  21.636  38.957  1.00  0.00     0.080 C 
HETATM   48  C29 UNL     1     -15.242  21.281  38.644  1.00  0.00     0.267 C 
HETATM   49  N2  UNL     1     -15.970  22.298  37.980  1.00  0.00    -0.312 N 
ATOM     50  H2  UNL     1     -16.902  22.097  37.617  1.00  0.00     0.167 HD
BRANCH  41  51
HETATM   51  O13 UNL     1     -14.402  26.060  37.373  1.00  0.00    -0.357 OA
ATOM     52  H13 UNL     1     -15.334  25.953  37.525  1.00  0.00     0.217 HD
ENDBRANCH  41  51
BRANCH  43  53
HETATM   53  O14 UNL     1     -11.766  26.687  38.109  1.00  0.00    -0.357 OA
ATOM     54  H14 UNL     1     -12.313  27.444  37.936  1.00  0.00     0.217 HD
ENDBRANCH  43  53
BRANCH  46  55
HETATM   55  O15 UNL     1     -11.255  22.195  39.638  1.00  0.00    -0.359 OA
ATOM     56  H15 UNL     1     -10.674  22.456  40.343  1.00  0.00     0.217 HD
ENDBRANCH  46  55
BRANCH  48  57
HETATM   57  O16 UNL     1     -15.899  20.806  39.794  1.00  0.00    -0.345 OA
ATOM     58  H16 UNL     1     -16.024  21.509  40.420  1.00  0.00     0.215 HD
ENDBRANCH  48  57
BRANCH  48  59
HETATM   59  O17 UNL     1     -15.158  20.199  37.721  1.00  0.00    -0.345 OA
ATOM     60  H17 UNL     1     -16.034  20.101  37.368  1.00  0.00     0.215 HD
ENDBRANCH  48  59
ENDBRANCH  38  39
ENDBRANCH   7  38
TORSDOF 23
ENDMDL
MODEL 5
REMARK VINA RESULT: -8.543693142      2.630      4.684
REMARK  23 active torsions:
REMARK  status: ('A' for Active; 'I' for Inactive)
REMARK    1  A    between atoms: C2_2  and  O1_3 
REMARK    2  A    between atoms: O1_3  and  C3_4 
REMARK    3  A    between atoms: C3_4  and  C4_6 
REMARK    4  A    between atoms: C5_8  and  O4_9 
REMARK    5  A    between atoms: O4_9  and  C6_10 
REMARK    6  A    between atoms: C7_11  and  C8_12 
REMARK    7  A    between atoms: N1_13  and  O5_15 
REMARK    8  A    between atoms: O5_15  and  C9_16 
REMARK    9  A    between atoms: C9_16  and  C10_17 
REMARK   10  A    between atoms: C10_17  and  O6_18 
REMARK   11  A    between atoms: C10_17  and  C11_20 
REMARK   12  A    between atoms: C11_20  and  O7_21 
REMARK   13  A    between atoms: C11_20  and  C12_23 
REMARK   14  A    between atoms: C12_23  and  O8_24 
REMARK   15  A    between atoms: C15_28  and  O9_29 
REMARK   16  A    between atoms: C16_31  and  O10_32 
REMARK   17  A    between atoms: C19_37  and  O12_38 
REMARK   18  A    between atoms: O12_38  and  C20_39 
REMARK   19  A    between atoms: C22_41  and  O13_42 
REMARK   20  A    between atoms: C23_44  and  O14_45 
REMARK   21  A    between atoms: C26_49  and  O15_50 
REMARK   22  A    between atoms: C29_54  and  O16_55 
REMARK   23  A    between atoms: C29_54  and  O17_57 
ROOT
HETATM    1  C4  UNL     1     -18.815  24.541  37.609  1.00  0.00     0.260 C 
HETATM    2  O3  UNL     1     -19.390  25.773  37.279  1.00  0.00    -0.342 OA
HETATM    3  C5  UNL     1     -19.934  25.790  35.998  1.00  0.00     0.274 C 
HETATM    4  C17 UNL     1     -18.750  25.853  35.079  1.00  0.00     0.142 C 
HETATM    5  C18 UNL     1     -17.951  24.623  35.312  1.00  0.00     0.163 C 
HETATM    6  O11 UNL     1     -17.595  23.999  34.333  1.00  0.00    -0.295 OA
HETATM    7  C19 UNL     1     -17.643  24.242  36.725  1.00  0.00     0.238 C 
ENDROOT
BRANCH   3   8
HETATM    8  O4  UNL     1     -20.691  27.011  35.948  1.00  0.00    -0.316 OA
BRANCH   8   9
HETATM    9  C6  UNL     1     -21.479  27.485  36.973  1.00  0.00     0.119 A 
HETATM   10  C7  UNL     1     -22.843  27.306  36.949  1.00  0.00     0.018 A 
HETATM   11  C13 UNL     1     -23.664  27.759  37.962  1.00  0.00     0.018 A 
HETATM   12  C14 UNL     1     -23.129  28.422  39.056  1.00  0.00     0.040 A 
HETATM   13  C15 UNL     1     -21.799  28.616  39.107  1.00  0.00     0.101 A 
HETATM   14  C16 UNL     1     -20.955  28.156  38.075  1.00  0.00     0.133 A 
BRANCH  10  15
HETATM   15  C8  UNL     1     -23.458  26.673  35.795  1.00  0.00     0.128 C 
HETATM   16  N1  UNL     1     -24.447  27.102  35.186  1.00  0.00    -0.277 N 
ATOM     17  H1  UNL     1     -24.669  26.466  34.419  1.00  0.00     0.193 HD
BRANCH  16  18
HETATM   18  O5  UNL     1     -25.304  28.088  35.186  1.00  0.00    -0.278 OA
BRANCH  18  19
HETATM   19  C9  UNL     1     -26.688  27.899  35.518  1.00  0.00     0.235 C 
BRANCH  19  20
HETATM   20  C10 UNL     1     -26.979  28.500  36.886  1.00  0.00     0.175 C 
BRANCH  20  21
HETATM   21  O6  UNL     1     -28.348  28.463  37.163  1.00  0.00    -0.391 OA
ATOM     22  H6  UNL     1     -28.512  28.666  38.076  1.00  0.00     0.210 HD
ENDBRANCH  20  21
BRANCH  20  23
HETATM   23  C11 UNL     1     -26.516  29.923  36.884  1.00  0.00     0.172 C 
BRANCH  23  24
HETATM   24  O7  UNL     1     -26.161  30.348  38.160  1.00  0.00    -0.391 OA
ATOM     25  H7  UNL     1     -25.223  30.292  38.298  1.00  0.00     0.210 HD
ENDBRANCH  23  24
BRANCH  23  26
HETATM   26  C12 UNL     1     -27.549  30.873  36.328  1.00  0.00     0.198 C 
BRANCH  26  27
HETATM   27  O8  UNL     1     -28.278  31.498  37.332  1.00  0.00    -0.398 OA
ATOM     28  H8  UNL     1     -28.061  32.420  37.411  1.00  0.00     0.209 HD
ENDBRANCH  26  27
ENDBRANCH  23  26
ENDBRANCH  20  23
ENDBRANCH  19  20
ENDBRANCH  18  19
ENDBRANCH  16  18
ENDBRANCH  10  15
BRANCH  13  29
HETATM   29  O9  UNL     1     -21.225  29.281  40.191  1.00  0.00    -0.358 OA
ATOM     30  H9  UNL     1     -20.532  29.915  40.052  1.00  0.00     0.217 HD
ENDBRANCH  13  29
BRANCH  14  31
HETATM   31  O10 UNL     1     -19.620  28.396  38.193  1.00  0.00    -0.356 OA
ATOM     32  H10 UNL     1     -19.265  29.275  38.120  1.00  0.00     0.218 HD
ENDBRANCH  14  31
ENDBRANCH   8   9
ENDBRANCH   3   8
BRANCH   1  33
HETATM   33  C3  UNL     1     -18.624  24.557  39.041  1.00  0.00     0.291 C 
HETATM   34  O2  UNL     1     -18.217  23.613  39.776  1.00  0.00    -0.262 OA
BRANCH  33  35
HETATM   35  O1  UNL     1     -18.914  25.755  39.745  1.00  0.00    -0.320 OA
BRANCH  35  36
HETATM   36  C2  UNL     1     -19.800  25.761  40.862  1.00  0.00     0.174 C 
HETATM   37  C1  UNL     1     -21.130  25.248  40.367  1.00  0.00     0.034 C 
ENDBRANCH  35  36
ENDBRANCH  33  35
ENDBRANCH   1  33
BRANCH   7  38
HETATM   38  O12 UNL     1     -16.373  24.589  37.182  1.00  0.00    -0.319 OA
BRANCH  38  39
HETATM   39  C20 UNL     1     -15.537  23.585  37.709  1.00  0.00     0.157 C 
HETATM   40  C21 UNL     1     -14.284  23.849  38.036  1.00  0.00     0.064 A 
HETATM   41  C22 UNL     1     -13.733  25.112  37.863  1.00  0.00     0.115 A 
HETATM   42  C27 UNL     1     -13.512  22.816  38.610  1.00  0.00     0.018 A 
HETATM   43  C23 UNL     1     -12.465  25.401  38.230  1.00  0.00     0.108 A 
HETATM   44  C24 UNL     1     -11.687  24.415  38.791  1.00  0.00     0.008 A 
HETATM   45  C25 UNL     1     -10.299  24.763  39.181  1.00  0.00     0.054 C 
HETATM   46  C26 UNL     1     -12.199  23.150  38.977  1.00  0.00     0.085 A 
HETATM   47  C28 UNL     1     -13.972  21.615  38.846  1.00  0.00     0.080 C 
HETATM   48  C29 UNL     1     -15.357  21.252  38.523  1.00  0.00     0.267 C 
HETATM   49  N2  UNL     1     -16.089  22.268  37.864  1.00  0.00    -0.312 N 
ATOM     50  H2  UNL     1     -17.018  22.063  37.494  1.00  0.00     0.167 HD
BRANCH  41  51
HETATM   51  O13 UNL     1     -14.548  26.048  37.296  1.00  0.00    -0.357 OA
ATOM     52  H13 UNL     1     -15.261  25.712  36.766  1.00  0.00     0.217 HD
ENDBRANCH  41  51
BRANCH  43  53
HETATM   53  O14 UNL     1     -11.920  26.688  38.050  1.00  0.00    -0.357 OA
ATOM     54  H14 UNL     1     -11.154  26.833  37.507  1.00  0.00     0.217 HD
ENDBRANCH  43  53
BRANCH  46  55
HETATM   55  O15 UNL     1     -11.381  22.189  39.544  1.00  0.00    -0.359 OA
ATOM     56  H15 UNL     1     -11.785  21.402  39.892  1.00  0.00     0.217 HD
ENDBRANCH  46  55
BRANCH  48  57
HETATM   57  O16 UNL     1     -16.016  20.762  39.666  1.00  0.00    -0.345 OA
ATOM     58  H16 UNL     1     -16.026  19.812  39.661  1.00  0.00     0.215 HD
ENDBRANCH  48  57
BRANCH  48  59
HETATM   59  O17 UNL     1     -15.259  20.178  37.592  1.00  0.00    -0.345 OA
ATOM     60  H17 UNL     1     -14.416  19.775  37.759  1.00  0.00     0.215 HD
ENDBRANCH  48  59
ENDBRANCH  38  39
ENDBRANCH   7  38
TORSDOF 23
ENDMDL
