MODEL 1
REMARK VINA RESULT: -9.573098843      0.000      0.000
REMARK  19 active torsions:
REMARK  status: ('A' for Active; 'I' for Inactive)
REMARK    1  A    between atoms: C2_3  and  C3_4 
REMARK    2  A    between atoms: C5_8  and  O1_9 
REMARK    3  A    between atoms: C6_11  and  C7_12 
REMARK    4  A    between atoms: C7_12  and  O2_13 
REMARK    5  A    between atoms: C7_12  and  O3_15 
REMARK    6  A    between atoms: C11_22  and  N4_23 
REMARK    7  A    between atoms: N4_23  and  C12_25 
REMARK    8  A    between atoms: C12_25  and  C13_30 
REMARK    9  A    between atoms: N5_26  and  O4_28 
REMARK   10  A    between atoms: C13_30  and  C14_31 
REMARK   11  A    between atoms: C13_30  and  N7_40 
REMARK   12  A    between atoms: C16_35  and  C17_36 
REMARK   13  A    between atoms: C19_42  and  C20_43 
REMARK   14  A    between atoms: C20_43  and  N8_44 
REMARK   15  A    between atoms: N8_44  and  C21_46 
REMARK   16  A    between atoms: C21_46  and  O7_48 
REMARK   17  A    between atoms: C21_46  and  C23_50 
REMARK   18  A    between atoms: C23_50  and  O8_51 
REMARK   19  A    between atoms: C25_59  and  O10_60 
ROOT
HETATM    1  C12 UNL     1     -19.909  25.073  39.862  1.00  0.00     0.129 C 
HETATM    2  N5  UNL     1     -19.443  25.013  41.046  1.00  0.00    -0.255 N 
ATOM      3  H5  UNL     1     -19.299  24.094  41.462  1.00  0.00     0.195 HD
ENDROOT
BRANCH   1   4
HETATM    4  N4  UNL     1     -20.205  23.821  39.187  1.00  0.00    -0.361 N 
ATOM      5  H4  UNL     1     -21.155  23.649  38.857  1.00  0.00     0.162 HD
BRANCH   4   6
HETATM    6  C11 UNL     1     -19.208  22.824  38.973  1.00  0.00     0.204 C 
HETATM    7  C10 UNL     1     -18.377  23.140  37.743  1.00  0.00     0.174 C 
HETATM    8  C9  UNL     1     -16.924  23.211  37.928  1.00  0.00     0.066 A 
HETATM    9  N11 UNL     1     -18.520  21.740  37.285  1.00  0.00    -0.305 N 
HETATM   10  N1  UNL     1     -15.930  23.828  38.613  1.00  0.00    -0.337 N 
HETATM   11  C8  UNL     1     -16.348  22.300  37.072  1.00  0.00     0.085 A 
HETATM   12  C1  UNL     1     -16.203  24.856  39.587  1.00  0.00     0.158 C 
HETATM   13  C2  UNL     1     -14.782  23.320  38.197  1.00  0.00     0.120 A 
HETATM   14  N3  UNL     1     -15.043  22.399  37.266  1.00  0.00    -0.340 N 
ATOM     15  H3  UNL     1     -14.337  21.850  36.775  1.00  0.00     0.167 HD
HETATM   16  C25 UNL     1     -17.454  21.612  36.316  1.00  0.00     0.276 C 
HETATM   17  C24 UNL     1     -19.615  21.625  38.178  1.00  0.00     0.248 C 
HETATM   18  O9  UNL     1     -20.584  20.839  38.301  1.00  0.00    -0.271 OA
BRANCH  13  19
HETATM   19  C3  UNL     1     -13.413  23.670  38.621  1.00  0.00     0.039 A 
HETATM   20  C4  UNL     1     -12.532  22.802  39.200  1.00  0.00     0.106 A 
HETATM   21  N2  UNL     1     -11.365  23.464  39.459  1.00  0.00    -0.345 N 
HETATM   22  C5  UNL     1     -11.514  24.720  39.053  1.00  0.00     0.152 A 
ATOM     23  H2  UNL     1     -10.530  23.065  39.888  1.00  0.00     0.167 HD
HETATM   24  C6  UNL     1     -12.799  24.894  38.515  1.00  0.00     0.062 A 
BRANCH  22  25
HETATM   25  O1  UNL     1     -10.566  25.735  39.128  1.00  0.00    -0.346 OA
ATOM     26  H1  UNL     1     -10.729  26.650  39.327  1.00  0.00     0.219 HD
ENDBRANCH  22  25
BRANCH  24  27
HETATM   27  C7  UNL     1     -13.343  26.174  38.012  1.00  0.00     0.293 C 
BRANCH  27  28
HETATM   28  O2  UNL     1     -12.992  26.429  36.716  1.00  0.00    -0.367 OA
ATOM     29  H2  UNL     1     -13.109  27.340  36.474  1.00  0.00     0.213 HD
ENDBRANCH  27  28
BRANCH  27  30
HETATM   30  O3  UNL     1     -12.916  27.217  38.865  1.00  0.00    -0.367 OA
ATOM     31  H3  UNL     1     -12.491  27.886  38.342  1.00  0.00     0.213 HD
ENDBRANCH  27  30
ENDBRANCH  24  27
ENDBRANCH  13  19
BRANCH  16  32
HETATM   32  O10 UNL     1     -17.748  22.416  35.239  1.00  0.00    -0.371 OA
ATOM     33  H10 UNL     1     -17.181  22.134  34.531  1.00  0.00     0.212 HD
ENDBRANCH  16  32
ENDBRANCH   4   6
ENDBRANCH   1   4
BRANCH   1  34
HETATM   34  C13 UNL     1     -20.195  26.292  39.081  1.00  0.00     0.231 C 
BRANCH  34  35
HETATM   35  C14 UNL     1     -19.940  26.055  37.613  1.00  0.00     0.084 A 
HETATM   36  N6  UNL     1     -20.819  25.597  36.739  1.00  0.00    -0.360 N 
HETATM   37  C15 UNL     1     -20.481  25.438  35.499  1.00  0.00     0.114 A 
ATOM     38  H6  UNL     1     -21.766  25.368  37.042  1.00  0.00     0.165 HD
HETATM   39  C16 UNL     1     -19.190  25.762  35.149  1.00  0.00     0.098 A 
HETATM   40  S1  UNL     1     -18.550  26.278  36.649  1.00  0.00    -0.066 SA
BRANCH  39  41
HETATM   41  C17 UNL     1     -18.563  25.674  33.825  1.00  0.00     0.218 C 
HETATM   42  O5  UNL     1     -19.058  26.281  32.873  1.00  0.00    -0.643 OA
HETATM   43  O6  UNL     1     -17.435  24.910  33.688  1.00  0.00    -0.643 OA
ENDBRANCH  39  41
ENDBRANCH  34  35
BRANCH  34  44
HETATM   44  N7  UNL     1     -21.502  26.854  39.262  1.00  0.00    -0.266 N 
HETATM   45  C18 UNL     1     -21.989  28.081  39.017  1.00  0.00     0.137 A 
HETATM   46  C19 UNL     1     -23.317  28.142  39.374  1.00  0.00     0.058 A 
HETATM   47  N9  UNL     1     -23.615  26.918  39.840  1.00  0.00    -0.285 N 
HETATM   48  N10 UNL     1     -22.525  26.148  39.772  1.00  0.00    -0.019 NA
ATOM     49  H9  UNL     1     -24.527  26.623  40.190  1.00  0.00     0.184 HD
BRANCH  46  50
HETATM   50  C20 UNL     1     -24.214  29.351  39.256  1.00  0.00     0.176 C 
BRANCH  50  51
HETATM   51  N8  UNL     1     -24.561  29.586  37.899  1.00  0.00    -0.385 N 
ATOM     52  H8  UNL     1     -24.324  28.918  37.166  1.00  0.00     0.156 HD
BRANCH  51  53
HETATM   53  C21 UNL     1     -25.251  30.789  37.606  1.00  0.00     0.145 C 
HETATM   54  C22 UNL     1     -25.268  31.747  38.808  1.00  0.00     0.072 C 
BRANCH  53  55
HETATM   55  O7  UNL     1     -24.459  31.484  36.645  1.00  0.00    -0.369 OA
ATOM     56  H7  UNL     1     -24.924  32.288  36.445  1.00  0.00     0.212 HD
ENDBRANCH  53  55
BRANCH  53  57
HETATM   57  C23 UNL     1     -26.644  30.678  37.102  1.00  0.00     0.224 C 
BRANCH  57  58
HETATM   58  O8  UNL     1     -27.572  31.519  37.642  1.00  0.00    -0.396 OA
ATOM     59  H8  UNL     1     -27.939  32.186  37.073  1.00  0.00     0.209 HD
ENDBRANCH  57  58
ENDBRANCH  53  57
ENDBRANCH  51  53
ENDBRANCH  50  51
ENDBRANCH  46  50
ENDBRANCH  34  44
ENDBRANCH   1  34
BRANCH   2  60
HETATM   60  O4  UNL     1     -19.131  26.097  41.772  1.00  0.00    -0.288 OA
ATOM     61  H4  UNL     1     -19.041  26.085  42.718  1.00  0.00     0.244 HD
ENDBRANCH   2  60
TORSDOF 19
ENDMDL
MODEL 2
REMARK VINA RESULT: -9.326716977      1.572      2.072
REMARK  19 active torsions:
REMARK  status: ('A' for Active; 'I' for Inactive)
REMARK    1  A    between atoms: C2_3  and  C3_4 
REMARK    2  A    between atoms: C5_8  and  O1_9 
REMARK    3  A    between atoms: C6_11  and  C7_12 
REMARK    4  A    between atoms: C7_12  and  O2_13 
REMARK    5  A    between atoms: C7_12  and  O3_15 
REMARK    6  A    between atoms: C11_22  and  N4_23 
REMARK    7  A    between atoms: N4_23  and  C12_25 
REMARK    8  A    between atoms: C12_25  and  C13_30 
REMARK    9  A    between atoms: N5_26  and  O4_28 
REMARK   10  A    between atoms: C13_30  and  C14_31 
REMARK   11  A    between atoms: C13_30  and  N7_40 
REMARK   12  A    between atoms: C16_35  and  C17_36 
REMARK   13  A    between atoms: C19_42  and  C20_43 
REMARK   14  A    between atoms: C20_43  and  N8_44 
REMARK   15  A    between atoms: N8_44  and  C21_46 
REMARK   16  A    between atoms: C21_46  and  O7_48 
REMARK   17  A    between atoms: C21_46  and  C23_50 
REMARK   18  A    between atoms: C23_50  and  O8_51 
REMARK   19  A    between atoms: C25_59  and  O10_60 
ROOT
HETATM    1  C12 UNL     1     -20.241  24.862  39.799  1.00  0.00     0.129 C 
HETATM    2  N5  UNL     1     -19.796  24.692  40.980  1.00  0.00    -0.255 N 
ATOM      3  H5  UNL     1     -19.768  23.743  41.353  1.00  0.00     0.195 HD
ENDROOT
BRANCH   1   4
HETATM    4  N4  UNL     1     -20.679  23.688  39.064  1.00  0.00    -0.361 N 
ATOM      5  H4  UNL     1     -21.633  23.657  38.703  1.00  0.00     0.162 HD
BRANCH   4   6
HETATM    6  C11 UNL     1     -19.817  22.576  38.833  1.00  0.00     0.204 C 
HETATM    7  C10 UNL     1     -18.934  22.813  37.620  1.00  0.00     0.174 C 
HETATM    8  C9  UNL     1     -17.487  22.691  37.823  1.00  0.00     0.066 A 
HETATM    9  N11 UNL     1     -19.251  21.456  37.123  1.00  0.00    -0.305 N 
HETATM   10  N1  UNL     1     -16.431  23.156  38.535  1.00  0.00    -0.337 N 
HETATM   11  C8  UNL     1     -17.022  21.735  36.948  1.00  0.00     0.085 A 
HETATM   12  C1  UNL     1     -16.582  24.185  39.534  1.00  0.00     0.158 C 
HETATM   13  C2  UNL     1     -15.352  22.514  38.118  1.00  0.00     0.120 A 
HETATM   14  N3  UNL     1     -15.717  21.659  37.159  1.00  0.00    -0.340 N 
ATOM     15  H3  UNL     1     -15.082  21.037  36.660  1.00  0.00     0.167 HD
HETATM   16  C25 UNL     1     -18.197  21.216  36.162  1.00  0.00     0.276 C 
HETATM   17  C24 UNL     1     -20.364  21.461  38.001  1.00  0.00     0.248 C 
HETATM   18  O9  UNL     1     -21.428  20.804  38.092  1.00  0.00    -0.271 OA
BRANCH  13  19
HETATM   19  C3  UNL     1     -13.957  22.673  38.565  1.00  0.00     0.039 A 
HETATM   20  C4  UNL     1     -13.221  23.815  38.427  1.00  0.00     0.106 A 
HETATM   21  N2  UNL     1     -11.976  23.605  38.952  1.00  0.00    -0.345 N 
HETATM   22  C5  UNL     1     -11.935  22.357  39.406  1.00  0.00     0.152 A 
ATOM     23  H2  UNL     1     -11.216  24.284  38.987  1.00  0.00     0.167 HD
HETATM   24  C6  UNL     1     -13.170  21.729  39.181  1.00  0.00     0.062 A 
BRANCH  22  25
HETATM   25  O1  UNL     1     -10.853  21.732  40.020  1.00  0.00    -0.346 OA
ATOM     26  H1  UNL     1     -10.313  21.042  39.651  1.00  0.00     0.219 HD
ENDBRANCH  22  25
BRANCH  24  27
HETATM   27  C7  UNL     1     -13.478  20.320  39.504  1.00  0.00     0.293 C 
BRANCH  27  28
HETATM   28  O2  UNL     1     -12.646  19.799  40.455  1.00  0.00    -0.367 OA
ATOM     29  H2  UNL     1     -13.105  19.269  41.097  1.00  0.00     0.213 HD
ENDBRANCH  27  28
BRANCH  27  30
HETATM   30  O3  UNL     1     -13.426  19.558  38.315  1.00  0.00    -0.367 OA
ATOM     31  H3  UNL     1     -13.095  18.691  38.521  1.00  0.00     0.213 HD
ENDBRANCH  27  30
ENDBRANCH  24  27
ENDBRANCH  13  19
BRANCH  16  32
HETATM   32  O10 UNL     1     -18.369  22.079  35.104  1.00  0.00    -0.371 OA
ATOM     33  H10 UNL     1     -17.931  21.683  34.360  1.00  0.00     0.212 HD
ENDBRANCH  16  32
ENDBRANCH   4   6
ENDBRANCH   1   4
BRANCH   1  34
HETATM   34  C13 UNL     1     -20.371  26.142  39.075  1.00  0.00     0.231 C 
BRANCH  34  35
HETATM   35  C14 UNL     1     -20.097  25.951  37.603  1.00  0.00     0.084 A 
HETATM   36  N6  UNL     1     -20.990  25.622  36.687  1.00  0.00    -0.360 N 
HETATM   37  C15 UNL     1     -20.634  25.489  35.449  1.00  0.00     0.114 A 
ATOM     38  H6  UNL     1     -21.963  25.471  36.955  1.00  0.00     0.165 HD
HETATM   39  C16 UNL     1     -19.308  25.703  35.147  1.00  0.00     0.098 A 
HETATM   40  S1  UNL     1     -18.665  26.084  36.686  1.00  0.00    -0.066 SA
BRANCH  39  41
HETATM   41  C17 UNL     1     -18.654  25.618  33.835  1.00  0.00     0.218 C 
HETATM   42  O5  UNL     1     -19.059  26.317  32.904  1.00  0.00    -0.643 OA
HETATM   43  O6  UNL     1     -17.604  24.753  33.687  1.00  0.00    -0.643 OA
ENDBRANCH  39  41
ENDBRANCH  34  35
BRANCH  34  44
HETATM   44  N7  UNL     1     -21.615  26.832  39.252  1.00  0.00    -0.266 N 
HETATM   45  C18 UNL     1     -21.975  28.104  39.010  1.00  0.00     0.137 A 
HETATM   46  C19 UNL     1     -23.291  28.297  39.360  1.00  0.00     0.058 A 
HETATM   47  N9  UNL     1     -23.715  27.108  39.818  1.00  0.00    -0.285 N 
HETATM   48  N10 UNL     1     -22.707  26.231  39.752  1.00  0.00    -0.019 NA
ATOM     49  H9  UNL     1     -24.654  26.905  40.161  1.00  0.00     0.184 HD
BRANCH  46  50
HETATM   50  C20 UNL     1     -24.061  29.592  39.243  1.00  0.00     0.176 C 
BRANCH  50  51
HETATM   51  N8  UNL     1     -24.882  29.583  38.084  1.00  0.00    -0.385 N 
ATOM     52  H8  UNL     1     -25.080  28.719  37.580  1.00  0.00     0.156 HD
BRANCH  51  53
HETATM   53  C21 UNL     1     -25.415  30.825  37.659  1.00  0.00     0.145 C 
HETATM   54  C22 UNL     1     -25.504  31.836  38.813  1.00  0.00     0.072 C 
BRANCH  53  55
HETATM   55  O7  UNL     1     -24.442  31.404  36.791  1.00  0.00    -0.369 OA
ATOM     56  H7  UNL     1     -24.704  31.179  35.906  1.00  0.00     0.212 HD
ENDBRANCH  53  55
BRANCH  53  57
HETATM   57  C23 UNL     1     -26.732  30.810  36.973  1.00  0.00     0.224 C 
BRANCH  57  58
HETATM   58  O8  UNL     1     -27.732  31.558  37.525  1.00  0.00    -0.396 OA
ATOM     59  H8  UNL     1     -27.974  32.359  37.075  1.00  0.00     0.209 HD
ENDBRANCH  57  58
ENDBRANCH  53  57
ENDBRANCH  51  53
ENDBRANCH  50  51
ENDBRANCH  46  50
ENDBRANCH  34  44
ENDBRANCH   1  34
BRANCH   2  60
HETATM   60  O4  UNL     1     -19.364  25.695  41.758  1.00  0.00    -0.288 OA
ATOM     61  H4  UNL     1     -19.653  26.594  41.662  1.00  0.00     0.244 HD
ENDBRANCH   2  60
TORSDOF 19
ENDMDL
MODEL 3
REMARK VINA RESULT: -9.272567834      1.093      1.324
REMARK  19 active torsions:
REMARK  status: ('A' for Active; 'I' for Inactive)
REMARK    1  A    between atoms: C2_3  and  C3_4 
REMARK    2  A    between atoms: C5_8  and  O1_9 
REMARK    3  A    between atoms: C6_11  and  C7_12 
REMARK    4  A    between atoms: C7_12  and  O2_13 
REMARK    5  A    between atoms: C7_12  and  O3_15 
REMARK    6  A    between atoms: C11_22  and  N4_23 
REMARK    7  A    between atoms: N4_23  and  C12_25 
REMARK    8  A    between atoms: C12_25  and  C13_30 
REMARK    9  A    between atoms: N5_26  and  O4_28 
REMARK   10  A    between atoms: C13_30  and  C14_31 
REMARK   11  A    between atoms: C13_30  and  N7_40 
REMARK   12  A    between atoms: C16_35  and  C17_36 
REMARK   13  A    between atoms: C19_42  and  C20_43 
REMARK   14  A    between atoms: C20_43  and  N8_44 
REMARK   15  A    between atoms: N8_44  and  C21_46 
REMARK   16  A    between atoms: C21_46  and  O7_48 
REMARK   17  A    between atoms: C21_46  and  C23_50 
REMARK   18  A    between atoms: C23_50  and  O8_51 
REMARK   19  A    between atoms: C25_59  and  O10_60 
ROOT
HETATM    1  C12 UNL     1     -20.430  23.993  39.627  1.00  0.00     0.129 C 
HETATM    2  N5  UNL     1     -20.485  23.631  40.846  1.00  0.00    -0.255 N 
ATOM      3  H5  UNL     1     -20.539  22.633  41.052  1.00  0.00     0.195 HD
ENDROOT
BRANCH   1   4
HETATM    4  N4  UNL     1     -20.450  22.955  38.610  1.00  0.00    -0.361 N 
ATOM      5  H4  UNL     1     -21.182  22.972  37.900  1.00  0.00     0.162 HD
BRANCH   4   6
HETATM    6  C11 UNL     1     -19.478  21.913  38.576  1.00  0.00     0.204 C 
HETATM    7  C10 UNL     1     -18.506  22.112  37.426  1.00  0.00     0.174 C 
HETATM    8  C9  UNL     1     -17.079  22.149  37.767  1.00  0.00     0.066 A 
HETATM    9  N11 UNL     1     -18.656  20.688  37.052  1.00  0.00    -0.305 N 
HETATM   10  N1  UNL     1     -16.141  22.779  38.514  1.00  0.00    -0.337 N 
HETATM   11  C8  UNL     1     -16.452  21.159  37.043  1.00  0.00     0.085 A 
HETATM   12  C1  UNL     1     -16.475  23.883  39.380  1.00  0.00     0.158 C 
HETATM   13  C2  UNL     1     -14.976  22.205  38.263  1.00  0.00     0.120 A 
HETATM   14  N3  UNL     1     -15.172  21.229  37.374  1.00  0.00    -0.340 N 
ATOM     15  H3  UNL     1     -14.441  20.623  37.002  1.00  0.00     0.167 HD
HETATM   16  C25 UNL     1     -17.497  20.456  36.218  1.00  0.00     0.276 C 
HETATM   17  C24 UNL     1     -19.844  20.675  37.823  1.00  0.00     0.248 C 
HETATM   18  O9  UNL     1     -20.853  19.931  37.891  1.00  0.00    -0.271 OA
BRANCH  13  19
HETATM   19  C3  UNL     1     -13.649  22.539  38.812  1.00  0.00     0.039 A 
HETATM   20  C4  UNL     1     -12.881  21.693  39.559  1.00  0.00     0.106 A 
HETATM   21  N2  UNL     1     -11.719  22.330  39.895  1.00  0.00    -0.345 N 
HETATM   22  C5  UNL     1     -11.762  23.550  39.370  1.00  0.00     0.152 A 
ATOM     23  H2  UNL     1     -10.958  21.940  40.449  1.00  0.00     0.167 HD
HETATM   24  C6  UNL     1     -12.969  23.725  38.675  1.00  0.00     0.062 A 
BRANCH  22  25
HETATM   25  O1  UNL     1     -10.780  24.532  39.469  1.00  0.00    -0.346 OA
ATOM     26  H1  UNL     1     -10.640  25.256  38.871  1.00  0.00     0.219 HD
ENDBRANCH  22  25
BRANCH  24  27
HETATM   27  C7  UNL     1     -13.391  24.974  38.007  1.00  0.00     0.293 C 
BRANCH  27  28
HETATM   28  O2  UNL     1     -12.364  25.609  37.367  1.00  0.00    -0.367 OA
ATOM     29  H2  UNL     1     -12.546  26.525  37.194  1.00  0.00     0.213 HD
ENDBRANCH  27  28
BRANCH  27  30
HETATM   30  O3  UNL     1     -13.989  25.824  38.966  1.00  0.00    -0.367 OA
ATOM     31  H3  UNL     1     -14.678  26.324  38.545  1.00  0.00     0.213 HD
ENDBRANCH  27  30
ENDBRANCH  24  27
ENDBRANCH  13  19
BRANCH  16  32
HETATM   32  O10 UNL     1     -17.639  21.190  35.063  1.00  0.00    -0.371 OA
ATOM     33  H10 UNL     1     -17.871  22.071  35.331  1.00  0.00     0.212 HD
ENDBRANCH  16  32
ENDBRANCH   4   6
ENDBRANCH   1   4
BRANCH   1  34
HETATM   34  C13 UNL     1     -20.354  25.375  39.114  1.00  0.00     0.231 C 
BRANCH  34  35
HETATM   35  C14 UNL     1     -20.024  25.378  37.641  1.00  0.00     0.084 A 
HETATM   36  N6  UNL     1     -20.868  25.109  36.659  1.00  0.00    -0.360 N 
HETATM   37  C15 UNL     1     -20.467  25.147  35.429  1.00  0.00     0.114 A 
ATOM     38  H6  UNL     1     -21.837  24.871  36.872  1.00  0.00     0.165 HD
HETATM   39  C16 UNL     1     -19.149  25.473  35.203  1.00  0.00     0.098 A 
HETATM   40  S1  UNL     1     -18.577  25.703  36.799  1.00  0.00    -0.066 SA
BRANCH  39  41
HETATM   41  C17 UNL     1     -18.452  25.583  33.916  1.00  0.00     0.218 C 
HETATM   42  O5  UNL     1     -17.393  24.977  33.741  1.00  0.00    -0.643 OA
HETATM   43  O6  UNL     1     -19.008  26.365  32.940  1.00  0.00    -0.643 OA
ENDBRANCH  39  41
ENDBRANCH  34  35
BRANCH  34  44
HETATM   44  N7  UNL     1     -21.506  26.192  39.355  1.00  0.00    -0.266 N 
HETATM   45  C18 UNL     1     -21.772  27.474  39.056  1.00  0.00     0.137 A 
HETATM   46  C19 UNL     1     -23.024  27.817  39.512  1.00  0.00     0.058 A 
HETATM   47  N9  UNL     1     -23.505  26.706  40.095  1.00  0.00    -0.285 N 
HETATM   48  N10 UNL     1     -22.593  25.733  39.999  1.00  0.00    -0.019 NA
ATOM     49  H9  UNL     1     -24.419  26.618  40.539  1.00  0.00     0.184 HD
BRANCH  46  50
HETATM   50  C20 UNL     1     -23.682  29.170  39.374  1.00  0.00     0.176 C 
BRANCH  50  51
HETATM   51  N8  UNL     1     -24.177  29.352  38.055  1.00  0.00    -0.385 N 
ATOM     52  H8  UNL     1     -23.929  28.713  37.301  1.00  0.00     0.156 HD
BRANCH  51  53
HETATM   53  C21 UNL     1     -25.031  30.462  37.833  1.00  0.00     0.145 C 
HETATM   54  C22 UNL     1     -24.922  30.988  36.393  1.00  0.00     0.072 C 
BRANCH  53  55
HETATM   55  O7  UNL     1     -26.365  29.962  37.899  1.00  0.00    -0.369 OA
ATOM     56  H7  UNL     1     -26.621  29.761  37.006  1.00  0.00     0.212 HD
ENDBRANCH  53  55
BRANCH  53  57
HETATM   57  C23 UNL     1     -24.900  31.625  38.747  1.00  0.00     0.224 C 
BRANCH  57  58
HETATM   58  O8  UNL     1     -26.000  31.973  39.475  1.00  0.00    -0.396 OA
ATOM     59  H8  UNL     1     -26.428  32.792  39.252  1.00  0.00     0.209 HD
ENDBRANCH  57  58
ENDBRANCH  53  57
ENDBRANCH  51  53
ENDBRANCH  50  51
ENDBRANCH  46  50
ENDBRANCH  34  44
ENDBRANCH   1  34
BRANCH   2  60
HETATM   60  O4  UNL     1     -20.475  24.492  41.874  1.00  0.00    -0.288 OA
ATOM     61  H4  UNL     1     -21.184  24.567  42.501  1.00  0.00     0.244 HD
ENDBRANCH   2  60
TORSDOF 19
ENDMDL
MODEL 4
REMARK VINA RESULT: -9.195449279      2.168      9.416
REMARK  19 active torsions:
REMARK  status: ('A' for Active; 'I' for Inactive)
REMARK    1  A    between atoms: C2_3  and  C3_4 
REMARK    2  A    between atoms: C5_8  and  O1_9 
REMARK    3  A    between atoms: C6_11  and  C7_12 
REMARK    4  A    between atoms: C7_12  and  O2_13 
REMARK    5  A    between atoms: C7_12  and  O3_15 
REMARK    6  A    between atoms: C11_22  and  N4_23 
REMARK    7  A    between atoms: N4_23  and  C12_25 
REMARK    8  A    between atoms: C12_25  and  C13_30 
REMARK    9  A    between atoms: N5_26  and  O4_28 
REMARK   10  A    between atoms: C13_30  and  C14_31 
REMARK   11  A    between atoms: C13_30  and  N7_40 
REMARK   12  A    between atoms: C16_35  and  C17_36 
REMARK   13  A    between atoms: C19_42  and  C20_43 
REMARK   14  A    between atoms: C20_43  and  N8_44 
REMARK   15  A    between atoms: N8_44  and  C21_46 
REMARK   16  A    between atoms: C21_46  and  O7_48 
REMARK   17  A    between atoms: C21_46  and  C23_50 
REMARK   18  A    between atoms: C23_50  and  O8_51 
REMARK   19  A    between atoms: C25_59  and  O10_60 
ROOT
HETATM    1  C12 UNL     1     -16.782  24.708  37.286  1.00  0.00     0.129 C 
HETATM    2  N5  UNL     1     -17.039  25.684  36.510  1.00  0.00    -0.255 N 
ATOM      3  H5  UNL     1     -17.719  26.379  36.818  1.00  0.00     0.195 HD
ENDROOT
BRANCH   1   4
HETATM    4  N4  UNL     1     -17.480  24.653  38.560  1.00  0.00    -0.361 N 
ATOM      5  H4  UNL     1     -16.948  24.781  39.421  1.00  0.00     0.162 HD
BRANCH   4   6
HETATM    6  C11 UNL     1     -18.885  24.425  38.642  1.00  0.00     0.204 C 
HETATM    7  C10 UNL     1     -19.530  25.357  39.652  1.00  0.00     0.174 C 
HETATM    8  C9  UNL     1     -20.644  26.181  39.172  1.00  0.00     0.066 A 
HETATM    9  N11 UNL     1     -20.272  24.216  40.233  1.00  0.00    -0.305 N 
HETATM   10  N1  UNL     1     -21.012  27.110  38.256  1.00  0.00    -0.337 N 
HETATM   11  C8  UNL     1     -21.738  25.905  39.961  1.00  0.00     0.085 A 
HETATM   12  C1  UNL     1     -20.082  27.628  37.283  1.00  0.00     0.158 C 
HETATM   13  C2  UNL     1     -22.285  27.400  38.468  1.00  0.00     0.120 A 
HETATM   14  N3  UNL     1     -22.716  26.669  39.499  1.00  0.00    -0.340 N 
ATOM     15  H3  UNL     1     -23.663  26.695  39.878  1.00  0.00     0.167 HD
HETATM   16  C25 UNL     1     -21.329  24.868  40.974  1.00  0.00     0.276 C 
HETATM   17  C24 UNL     1     -19.339  23.363  39.591  1.00  0.00     0.248 C 
HETATM   18  O9  UNL     1     -18.989  22.166  39.726  1.00  0.00    -0.271 OA
BRANCH  13  19
HETATM   19  C3  UNL     1     -23.142  28.363  37.752  1.00  0.00     0.039 A 
HETATM   20  C4  UNL     1     -23.840  28.084  36.612  1.00  0.00     0.106 A 
HETATM   21  N2  UNL     1     -24.522  29.204  36.226  1.00  0.00    -0.345 N 
HETATM   22  C5  UNL     1     -24.254  30.163  37.107  1.00  0.00     0.152 A 
ATOM     23  H2  UNL     1     -25.127  29.289  35.410  1.00  0.00     0.167 HD
HETATM   24  C6  UNL     1     -23.382  29.672  38.091  1.00  0.00     0.062 A 
BRANCH  22  25
HETATM   25  O1  UNL     1     -24.745  31.465  37.091  1.00  0.00    -0.346 OA
ATOM     26  H1  UNL     1     -24.958  32.000  37.847  1.00  0.00     0.219 HD
ENDBRANCH  22  25
BRANCH  24  27
HETATM   27  C7  UNL     1     -22.821  30.469  39.203  1.00  0.00     0.293 C 
BRANCH  27  28
HETATM   28  O2  UNL     1     -22.022  29.736  40.033  1.00  0.00    -0.367 OA
ATOM     29  H2  UNL     1     -21.189  30.157  40.211  1.00  0.00     0.213 HD
ENDBRANCH  27  28
BRANCH  27  30
HETATM   30  O3  UNL     1     -23.885  31.062  39.920  1.00  0.00    -0.367 OA
ATOM     31  H3  UNL     1     -23.524  31.635  40.586  1.00  0.00     0.213 HD
ENDBRANCH  27  30
ENDBRANCH  24  27
ENDBRANCH  13  19
BRANCH  16  32
HETATM   32  O10 UNL     1     -20.764  25.554  42.024  1.00  0.00    -0.371 OA
ATOM     33  H10 UNL     1     -21.245  25.297  42.802  1.00  0.00     0.212 HD
ENDBRANCH  16  32
ENDBRANCH   4   6
ENDBRANCH   1   4
BRANCH   1  34
HETATM   34  C13 UNL     1     -15.842  23.598  37.035  1.00  0.00     0.231 C 
BRANCH  34  35
HETATM   35  C14 UNL     1     -14.504  23.880  37.674  1.00  0.00     0.084 A 
HETATM   36  N6  UNL     1     -13.696  22.979  38.205  1.00  0.00    -0.360 N 
HETATM   37  C15 UNL     1     -12.567  23.344  38.723  1.00  0.00     0.114 A 
ATOM     38  H6  UNL     1     -13.962  21.995  38.206  1.00  0.00     0.165 HD
HETATM   39  C16 UNL     1     -12.262  24.686  38.693  1.00  0.00     0.098 A 
HETATM   40  S1  UNL     1     -13.640  25.331  37.912  1.00  0.00    -0.066 SA
BRANCH  39  41
HETATM   41  C17 UNL     1     -11.059  25.351  39.208  1.00  0.00     0.218 C 
HETATM   42  O5  UNL     1     -10.995  26.582  39.208  1.00  0.00    -0.643 OA
HETATM   43  O6  UNL     1     -10.035  24.573  39.677  1.00  0.00    -0.643 OA
ENDBRANCH  39  41
ENDBRANCH  34  35
BRANCH  34  44
HETATM   44  N7  UNL     1     -16.301  22.296  37.421  1.00  0.00    -0.266 N 
HETATM   45  C18 UNL     1     -16.994  21.358  36.755  1.00  0.00     0.137 A 
HETATM   46  C19 UNL     1     -17.209  20.266  37.564  1.00  0.00     0.058 A 
HETATM   47  N9  UNL     1     -16.626  20.571  38.735  1.00  0.00    -0.285 N 
HETATM   48  N10 UNL     1     -16.082  21.789  38.646  1.00  0.00    -0.019 NA
ATOM     49  H9  UNL     1     -16.602  19.971  39.559  1.00  0.00     0.184 HD
BRANCH  46  50
HETATM   50  C20 UNL     1     -17.954  19.008  37.180  1.00  0.00     0.176 C 
BRANCH  50  51
HETATM   51  N8  UNL     1     -18.961  18.713  38.136  1.00  0.00    -0.385 N 
ATOM     52  H8  UNL     1     -18.778  18.773  39.138  1.00  0.00     0.156 HD
BRANCH  51  53
HETATM   53  C21 UNL     1     -20.233  18.331  37.640  1.00  0.00     0.145 C 
HETATM   54  C22 UNL     1     -20.122  17.561  36.315  1.00  0.00     0.072 C 
BRANCH  53  55
HETATM   55  O7  UNL     1     -20.741  17.353  38.545  1.00  0.00    -0.369 OA
ATOM     56  H7  UNL     1     -21.325  16.799  38.040  1.00  0.00     0.212 HD
ENDBRANCH  53  55
BRANCH  53  57
HETATM   57  C23 UNL     1     -21.248  19.399  37.454  1.00  0.00     0.224 C 
BRANCH  57  58
HETATM   58  O8  UNL     1     -20.971  20.623  37.991  1.00  0.00    -0.396 OA
ATOM     59  H8  UNL     1     -21.128  21.383  37.443  1.00  0.00     0.209 HD
ENDBRANCH  57  58
ENDBRANCH  53  57
ENDBRANCH  51  53
ENDBRANCH  50  51
ENDBRANCH  46  50
ENDBRANCH  34  44
ENDBRANCH   1  34
BRANCH   2  60
HETATM   60  O4  UNL     1     -16.463  25.846  35.310  1.00  0.00    -0.288 OA
ATOM     61  H4  UNL     1     -15.680  26.365  35.170  1.00  0.00     0.244 HD
ENDBRANCH   2  60
TORSDOF 19
ENDMDL
MODEL 5
REMARK VINA RESULT: -9.138905332      1.782      2.383
REMARK  19 active torsions:
REMARK  status: ('A' for Active; 'I' for Inactive)
REMARK    1  A    between atoms: C2_3  and  C3_4 
REMARK    2  A    between atoms: C5_8  and  O1_9 
REMARK    3  A    between atoms: C6_11  and  C7_12 
REMARK    4  A    between atoms: C7_12  and  O2_13 
REMARK    5  A    between atoms: C7_12  and  O3_15 
REMARK    6  A    between atoms: C11_22  and  N4_23 
REMARK    7  A    between atoms: N4_23  and  C12_25 
REMARK    8  A    between atoms: C12_25  and  C13_30 
REMARK    9  A    between atoms: N5_26  and  O4_28 
REMARK   10  A    between atoms: C13_30  and  C14_31 
REMARK   11  A    between atoms: C13_30  and  N7_40 
REMARK   12  A    between atoms: C16_35  and  C17_36 
REMARK   13  A    between atoms: C19_42  and  C20_43 
REMARK   14  A    between atoms: C20_43  and  N8_44 
REMARK   15  A    between atoms: N8_44  and  C21_46 
REMARK   16  A    between atoms: C21_46  and  O7_48 
REMARK   17  A    between atoms: C21_46  and  C23_50 
REMARK   18  A    between atoms: C23_50  and  O8_51 
REMARK   19  A    between atoms: C25_59  and  O10_60 
ROOT
HETATM    1  C12 UNL     1     -20.366  24.981  39.811  1.00  0.00     0.129 C 
HETATM    2  N5  UNL     1     -20.175  24.734  41.046  1.00  0.00    -0.255 N 
ATOM      3  H5  UNL     1     -20.299  23.775  41.371  1.00  0.00     0.195 HD
ENDROOT
BRANCH   1   4
HETATM    4  N4  UNL     1     -20.748  23.874  38.950  1.00  0.00    -0.361 N 
ATOM      5  H4  UNL     1     -21.639  23.918  38.454  1.00  0.00     0.162 HD
BRANCH   4   6
HETATM    6  C11 UNL     1     -19.915  22.730  38.777  1.00  0.00     0.204 C 
HETATM    7  C10 UNL     1     -19.022  22.885  37.560  1.00  0.00     0.174 C 
HETATM    8  C9  UNL     1     -17.579  22.732  37.776  1.00  0.00     0.066 A 
HETATM    9  N11 UNL     1     -19.374  21.514  37.126  1.00  0.00    -0.305 N 
HETATM   10  N1  UNL     1     -16.514  23.201  38.471  1.00  0.00    -0.337 N 
HETATM   11  C8  UNL     1     -17.137  21.723  36.950  1.00  0.00     0.085 A 
HETATM   12  C1  UNL     1     -16.641  24.281  39.419  1.00  0.00     0.158 C 
HETATM   13  C2  UNL     1     -15.452  22.511  38.090  1.00  0.00     0.120 A 
HETATM   14  N3  UNL     1     -15.836  21.622  37.172  1.00  0.00    -0.340 N 
ATOM     15  H3  UNL     1     -15.215  20.959  36.707  1.00  0.00     0.167 HD
HETATM   16  C25 UNL     1     -18.322  21.199  36.183  1.00  0.00     0.276 C 
HETATM   17  C24 UNL     1     -20.489  21.592  37.996  1.00  0.00     0.248 C 
HETATM   18  O9  UNL     1     -21.572  20.969  38.113  1.00  0.00    -0.271 OA
BRANCH  13  19
HETATM   19  C3  UNL     1     -14.054  22.653  38.538  1.00  0.00     0.039 A 
HETATM   20  C4  UNL     1     -13.305  23.787  38.402  1.00  0.00     0.106 A 
HETATM   21  N2  UNL     1     -12.063  23.561  38.926  1.00  0.00    -0.345 N 
HETATM   22  C5  UNL     1     -12.035  22.312  39.377  1.00  0.00     0.152 A 
ATOM     23  H2  UNL     1     -11.295  24.231  38.962  1.00  0.00     0.167 HD
HETATM   24  C6  UNL     1     -13.278  21.699  39.151  1.00  0.00     0.062 A 
BRANCH  22  25
HETATM   25  O1  UNL     1     -10.961  21.673  39.989  1.00  0.00    -0.346 OA
ATOM     26  H1  UNL     1     -10.093  21.547  39.622  1.00  0.00     0.219 HD
ENDBRANCH  22  25
BRANCH  24  27
HETATM   27  C7  UNL     1     -13.602  20.293  39.471  1.00  0.00     0.293 C 
BRANCH  27  28
HETATM   28  O2  UNL     1     -12.805  19.773  40.453  1.00  0.00    -0.367 OA
ATOM     29  H2  UNL     1     -12.714  20.353  41.200  1.00  0.00     0.213 HD
ENDBRANCH  27  28
BRANCH  27  30
HETATM   30  O3  UNL     1     -13.512  19.523  38.289  1.00  0.00    -0.367 OA
ATOM     31  H3  UNL     1     -14.237  18.910  38.267  1.00  0.00     0.213 HD
ENDBRANCH  27  30
ENDBRANCH  24  27
ENDBRANCH  13  19
BRANCH  16  32
HETATM   32  O10 UNL     1     -18.466  22.015  35.085  1.00  0.00    -0.371 OA
ATOM     33  H10 UNL     1     -18.643  21.444  34.347  1.00  0.00     0.212 HD
ENDBRANCH  16  32
ENDBRANCH   4   6
ENDBRANCH   1   4
BRANCH   1  34
HETATM   34  C13 UNL     1     -20.247  26.290  39.139  1.00  0.00     0.231 C 
BRANCH  34  35
HETATM   35  C14 UNL     1     -19.834  26.112  37.698  1.00  0.00     0.084 A 
HETATM   36  N6  UNL     1     -18.611  26.255  37.221  1.00  0.00    -0.360 N 
HETATM   37  C15 UNL     1     -18.379  26.071  35.960  1.00  0.00     0.114 A 
ATOM     38  H6  UNL     1     -17.847  26.511  37.847  1.00  0.00     0.165 HD
HETATM   39  C16 UNL     1     -19.448  25.729  35.164  1.00  0.00     0.098 A 
HETATM   40  S1  UNL     1     -20.723  25.695  36.303  1.00  0.00    -0.066 SA
BRANCH  39  41
HETATM   41  C17 UNL     1     -19.453  25.468  33.720  1.00  0.00     0.218 C 
HETATM   42  O5  UNL     1     -19.131  26.364  32.936  1.00  0.00    -0.643 OA
HETATM   43  O6  UNL     1     -19.819  24.223  33.284  1.00  0.00    -0.643 OA
ENDBRANCH  39  41
ENDBRANCH  34  35
BRANCH  34  44
HETATM   44  N7  UNL     1     -21.403  27.133  39.213  1.00  0.00    -0.266 N 
HETATM   45  C18 UNL     1     -21.558  28.457  39.041  1.00  0.00     0.137 A 
HETATM   46  C19 UNL     1     -22.874  28.808  39.231  1.00  0.00     0.058 A 
HETATM   47  N9  UNL     1     -23.509  27.660  39.522  1.00  0.00    -0.285 N 
HETATM   48  N10 UNL     1     -22.624  26.658  39.510  1.00  0.00    -0.019 NA
ATOM     49  H9  UNL     1     -24.506  27.568  39.720  1.00  0.00     0.184 HD
BRANCH  46  50
HETATM   50  C20 UNL     1     -23.446  30.203  39.131  1.00  0.00     0.176 C 
BRANCH  50  51
HETATM   51  N8  UNL     1     -24.865  30.162  39.121  1.00  0.00    -0.385 N 
ATOM     52  H8  UNL     1     -25.395  29.899  39.952  1.00  0.00     0.156 HD
BRANCH  51  53
HETATM   53  C21 UNL     1     -25.514  30.503  37.908  1.00  0.00     0.145 C 
HETATM   54  C22 UNL     1     -26.243  29.299  37.291  1.00  0.00     0.072 C 
BRANCH  53  55
HETATM   55  O7  UNL     1     -26.578  31.387  38.255  1.00  0.00    -0.369 OA
ATOM     56  H7  UNL     1     -26.729  31.936  37.495  1.00  0.00     0.212 HD
ENDBRANCH  53  55
BRANCH  53  57
HETATM   57  C23 UNL     1     -24.691  31.125  36.839  1.00  0.00     0.224 C 
BRANCH  57  58
HETATM   58  O8  UNL     1     -25.000  30.807  35.549  1.00  0.00    -0.396 OA
ATOM     59  H8  UNL     1     -24.304  30.446  35.012  1.00  0.00     0.209 HD
ENDBRANCH  57  58
ENDBRANCH  53  57
ENDBRANCH  51  53
ENDBRANCH  50  51
ENDBRANCH  46  50
ENDBRANCH  34  44
ENDBRANCH   1  34
BRANCH   2  60
HETATM   60  O4  UNL     1     -19.822  25.668  41.940  1.00  0.00    -0.288 OA
ATOM     61  H4  UNL     1     -20.447  26.163  42.455  1.00  0.00     0.244 HD
ENDBRANCH   2  60
TORSDOF 19
ENDMDL
