MODEL 1
REMARK VINA RESULT: -8.024205321      0.000      0.000
REMARK  10 active torsions:
REMARK  status: ('A' for Active; 'I' for Inactive)
REMARK    1  A    between atoms: C2_2  and  C3_3 
REMARK    2  A    between atoms: C6_6  and  C7_7 
REMARK    3  A    between atoms: C7_7  and  C8_8 
REMARK    4  A    between atoms: C8_8  and  C9_9 
REMARK    5  A    between atoms: C12_14  and  C13_15 
REMARK    6  A    between atoms: C19_22  and  C20_23 
REMARK    7  A    between atoms: C20_23  and  C21_24 
REMARK    8  A    between atoms: C22_26  and  C23_27 
REMARK    9  A    between atoms: C23_27  and  C24_28 
REMARK   10  A    between atoms: C27_31  and  N1_32 
REMARK       I    between atoms: N1_32  and  C28_34 
ROOT
HETATM    1  C9  UNL     1     -17.963  36.058  -1.834  1.00  0.00    -0.003 C 
HETATM    2  C10 UNL     1     -18.041  34.767  -1.871  1.00  0.00     0.016 C 
HETATM    3  S1  UNL     1     -17.180  33.574  -0.810  1.00  0.00    -0.047 SA
HETATM    4  C11 UNL     1     -18.618  32.495  -0.854  1.00  0.00     0.225 C 
HETATM    5  O1  UNL     1     -19.020  31.761   0.050  1.00  0.00    -0.279 OA
HETATM    6  C12 UNL     1     -19.150  32.740  -2.224  1.00  0.00     0.043 C 
HETATM    7  C19 UNL     1     -18.873  33.867  -2.788  1.00  0.00    -0.002 C 
ENDROOT
BRANCH   7   8
HETATM    8  C20 UNL     1     -18.968  34.396  -4.149  1.00  0.00     0.038 C 
BRANCH   8   9
HETATM    9  C21 UNL     1     -18.121  34.953  -4.974  1.00  0.00     0.075 A 
HETATM   10  S2  UNL     1     -16.504  34.696  -5.412  1.00  0.00    -0.067 SA
HETATM   11  C22 UNL     1     -16.280  35.925  -6.557  1.00  0.00     0.078 A 
HETATM   12  N2  UNL     1     -17.473  36.499  -6.564  1.00  0.00    -0.317 N 
HETATM   13  C32 UNL     1     -18.413  36.052  -5.798  1.00  0.00     0.263 A 
ATOM     14  H2  UNL     1     -17.651  37.296  -7.175  1.00  0.00     0.169 HD
HETATM   15  O3  UNL     1     -19.594  36.582  -5.771  1.00  0.00    -0.267 OA
BRANCH  11  16
HETATM   16  C23 UNL     1     -15.187  36.254  -7.278  1.00  0.00     0.048 C 
BRANCH  16  17
HETATM   17  C24 UNL     1     -13.987  36.748  -6.628  1.00  0.00    -0.033 A 
HETATM   18  C25 UNL     1     -12.749  36.486  -7.174  1.00  0.00     0.014 A 
HETATM   19  C26 UNL     1     -11.599  36.941  -6.575  1.00  0.00     0.030 A 
HETATM   20  C27 UNL     1     -11.605  37.688  -5.389  1.00  0.00     0.034 A 
HETATM   21  C30 UNL     1     -12.851  37.935  -4.866  1.00  0.00     0.030 A 
HETATM   22  C31 UNL     1     -14.030  37.477  -5.468  1.00  0.00     0.014 A 
BRANCH  20  23
HETATM   23  N1  UNL     1     -10.389  38.121  -4.828  1.00  0.00    -0.328 N 
HETATM   24  C28 UNL     1     -10.161  39.170  -3.935  1.00  0.00     0.218 C 
HETATM   25  C29 UNL     1      -8.727  39.402  -3.495  1.00  0.00     0.117 C 
HETATM   26  O2  UNL     1     -11.020  39.939  -3.462  1.00  0.00    -0.274 OA
ATOM     27  H1  UNL     1      -9.562  37.596  -5.111  1.00  0.00     0.169 HD
ENDBRANCH  20  23
ENDBRANCH  16  17
ENDBRANCH  11  16
ENDBRANCH   8   9
ENDBRANCH   7   8
BRANCH   6  28
HETATM   28  C13 UNL     1     -20.142  31.711  -2.676  1.00  0.00    -0.021 A 
HETATM   29  C14 UNL     1     -19.943  30.975  -3.828  1.00  0.00     0.014 A 
HETATM   30  C15 UNL     1     -20.856  30.074  -4.302  1.00  0.00     0.024 A 
HETATM   31  C16 UNL     1     -22.028  29.892  -3.600  1.00  0.00     0.034 A 
HETATM   32 CL1  UNL     1     -23.268  28.760  -4.123  1.00  0.00    -0.084 Cl
HETATM   33  C17 UNL     1     -22.269  30.618  -2.430  1.00  0.00     0.024 A 
HETATM   34  C18 UNL     1     -21.319  31.511  -1.995  1.00  0.00     0.014 A 
ENDBRANCH   6  28
BRANCH   1  35
HETATM   35  C8  UNL     1     -17.067  36.671  -0.810  1.00  0.00     0.056 C 
BRANCH  35  36
HETATM   36  C7  UNL     1     -15.922  37.358  -1.417  1.00  0.00    -0.012 C 
BRANCH  36  37
HETATM   37  C6  UNL     1     -14.669  37.005  -1.268  1.00  0.00    -0.040 A 
HETATM   38  C5  UNL     1     -13.628  37.907  -1.402  1.00  0.00     0.012 A 
HETATM   39  C4  UNL     1     -12.314  37.517  -1.241  1.00  0.00     0.012 A 
HETATM   40  C3  UNL     1     -11.988  36.200  -0.939  1.00  0.00    -0.040 A 
HETATM   41  C34 UNL     1     -13.020  35.301  -0.806  1.00  0.00     0.012 A 
HETATM   42  C33 UNL     1     -14.347  35.697  -0.969  1.00  0.00     0.012 A 
BRANCH  40  43
HETATM   43  C2  UNL     1     -10.711  35.828  -0.785  1.00  0.00    -0.020 C 
HETATM   44  C1  UNL     1      -9.625  36.410  -1.593  1.00  0.00     0.037 C 
ENDBRANCH  40  43
ENDBRANCH  36  37
ENDBRANCH  35  36
ENDBRANCH   1  35
TORSDOF 10
ENDMDL
MODEL 2
REMARK VINA RESULT: -7.972710718      4.491      6.528
REMARK  10 active torsions:
REMARK  status: ('A' for Active; 'I' for Inactive)
REMARK    1  A    between atoms: C2_2  and  C3_3 
REMARK    2  A    between atoms: C6_6  and  C7_7 
REMARK    3  A    between atoms: C7_7  and  C8_8 
REMARK    4  A    between atoms: C8_8  and  C9_9 
REMARK    5  A    between atoms: C12_14  and  C13_15 
REMARK    6  A    between atoms: C19_22  and  C20_23 
REMARK    7  A    between atoms: C20_23  and  C21_24 
REMARK    8  A    between atoms: C22_26  and  C23_27 
REMARK    9  A    between atoms: C23_27  and  C24_28 
REMARK   10  A    between atoms: C27_31  and  N1_32 
REMARK       I    between atoms: N1_32  and  C28_34 
ROOT
HETATM    1  C9  UNL     1     -13.717  36.218  -1.427  1.00  0.00    -0.003 C 
HETATM    2  C10 UNL     1     -14.926  36.335  -0.980  1.00  0.00     0.016 C 
HETATM    3  S1  UNL     1     -15.682  35.451   0.412  1.00  0.00    -0.047 SA
HETATM    4  C11 UNL     1     -16.633  36.919   0.829  1.00  0.00     0.225 C 
HETATM    5  O1  UNL     1     -16.963  37.292   1.956  1.00  0.00    -0.279 OA
HETATM    6  C12 UNL     1     -16.886  37.517  -0.512  1.00  0.00     0.043 C 
HETATM    7  C19 UNL     1     -16.061  37.240  -1.463  1.00  0.00    -0.002 C 
ENDROOT
BRANCH   7   8
HETATM    8  C20 UNL     1     -16.067  37.394  -2.919  1.00  0.00     0.038 C 
BRANCH   8   9
HETATM    9  C21 UNL     1     -15.313  36.947  -3.888  1.00  0.00     0.075 A 
HETATM   10  S2  UNL     1     -14.038  37.563  -4.819  1.00  0.00    -0.067 SA
HETATM   11  C22 UNL     1     -13.708  36.244  -5.831  1.00  0.00     0.078 A 
HETATM   12  N2  UNL     1     -14.603  35.362  -5.412  1.00  0.00    -0.317 N 
HETATM   13  C32 UNL     1     -15.415  35.666  -4.455  1.00  0.00     0.263 A 
ATOM     14  H2  UNL     1     -14.649  34.440  -5.845  1.00  0.00     0.169 HD
HETATM   15  O3  UNL     1     -16.306  34.835  -4.013  1.00  0.00    -0.267 OA
BRANCH  11  16
HETATM   16  C23 UNL     1     -12.789  36.107  -6.810  1.00  0.00     0.048 C 
BRANCH  16  17
HETATM   17  C24 UNL     1     -13.180  36.145  -8.208  1.00  0.00    -0.033 A 
HETATM   18  C25 UNL     1     -14.514  36.184  -8.550  1.00  0.00     0.014 A 
HETATM   19  C26 UNL     1     -14.908  36.218  -9.867  1.00  0.00     0.030 A 
HETATM   20  C27 UNL     1     -13.997  36.215 -10.931  1.00  0.00     0.034 A 
HETATM   21  C30 UNL     1     -12.675  36.176 -10.563  1.00  0.00     0.030 A 
HETATM   22  C31 UNL     1     -12.261  36.141  -9.225  1.00  0.00     0.014 A 
BRANCH  20  23
HETATM   23  N1  UNL     1     -14.470  36.248 -12.257  1.00  0.00    -0.328 N 
HETATM   24  C28 UNL     1     -14.192  35.372 -13.308  1.00  0.00     0.218 C 
HETATM   25  C29 UNL     1     -14.855  35.661 -14.641  1.00  0.00     0.117 C 
HETATM   26  O2  UNL     1     -13.449  34.371 -13.260  1.00  0.00    -0.274 OA
ATOM     27  H1  UNL     1     -15.101  37.017 -12.480  1.00  0.00     0.169 HD
ENDBRANCH  20  23
ENDBRANCH  16  17
ENDBRANCH  11  16
ENDBRANCH   8   9
ENDBRANCH   7   8
BRANCH   6  28
HETATM   28  C13 UNL     1     -17.962  38.561  -0.510  1.00  0.00    -0.021 A 
HETATM   29  C14 UNL     1     -19.293  38.225  -0.673  1.00  0.00     0.014 A 
HETATM   30  C15 UNL     1     -20.292  39.157  -0.739  1.00  0.00     0.024 A 
HETATM   31  C16 UNL     1     -19.958  40.490  -0.639  1.00  0.00     0.034 A 
HETATM   32 CL1  UNL     1     -21.165  41.767  -0.712  1.00  0.00    -0.084 Cl
HETATM   33  C17 UNL     1     -18.624  40.872  -0.473  1.00  0.00     0.024 A 
HETATM   34  C18 UNL     1     -17.656  39.897  -0.413  1.00  0.00     0.014 A 
ENDBRANCH   6  28
BRANCH   1  35
HETATM   35  C8  UNL     1     -12.811  35.251  -0.741  1.00  0.00     0.056 C 
BRANCH  35  36
HETATM   36  C7  UNL     1     -11.528  35.859  -0.374  1.00  0.00    -0.012 C 
BRANCH  36  37
HETATM   37  C6  UNL     1     -10.868  36.721  -1.107  1.00  0.00    -0.040 A 
HETATM   38  C5  UNL     1     -10.921  38.083  -0.871  1.00  0.00     0.012 A 
HETATM   39  C4  UNL     1     -10.218  38.976  -1.653  1.00  0.00     0.012 A 
HETATM   40  C3  UNL     1      -9.431  38.539  -2.711  1.00  0.00    -0.040 A 
HETATM   41  C34 UNL     1      -9.377  37.185  -2.950  1.00  0.00     0.012 A 
HETATM   42  C33 UNL     1     -10.087  36.285  -2.157  1.00  0.00     0.012 A 
BRANCH  40  43
HETATM   43  C2  UNL     1      -8.752  39.411  -3.468  1.00  0.00    -0.020 C 
HETATM   44  C1  UNL     1      -9.105  40.841  -3.519  1.00  0.00     0.037 C 
ENDBRANCH  40  43
ENDBRANCH  36  37
ENDBRANCH  35  36
ENDBRANCH   1  35
TORSDOF 10
ENDMDL
MODEL 3
REMARK VINA RESULT: -7.895479946      4.403      6.551
REMARK  10 active torsions:
REMARK  status: ('A' for Active; 'I' for Inactive)
REMARK    1  A    between atoms: C2_2  and  C3_3 
REMARK    2  A    between atoms: C6_6  and  C7_7 
REMARK    3  A    between atoms: C7_7  and  C8_8 
REMARK    4  A    between atoms: C8_8  and  C9_9 
REMARK    5  A    between atoms: C12_14  and  C13_15 
REMARK    6  A    between atoms: C19_22  and  C20_23 
REMARK    7  A    between atoms: C20_23  and  C21_24 
REMARK    8  A    between atoms: C22_26  and  C23_27 
REMARK    9  A    between atoms: C23_27  and  C24_28 
REMARK   10  A    between atoms: C27_31  and  N1_32 
REMARK       I    between atoms: N1_32  and  C28_34 
ROOT
HETATM    1  C9  UNL     1     -13.884  35.896  -1.663  1.00  0.00    -0.003 C 
HETATM    2  C10 UNL     1     -15.069  36.214  -1.252  1.00  0.00     0.016 C 
HETATM    3  S1  UNL     1     -15.816  35.850   0.361  1.00  0.00    -0.047 SA
HETATM    4  C11 UNL     1     -16.681  37.426   0.317  1.00  0.00     0.225 C 
HETATM    5  O1  UNL     1     -16.952  38.148   1.278  1.00  0.00    -0.279 OA
HETATM    6  C12 UNL     1     -16.953  37.592  -1.138  1.00  0.00     0.043 C 
HETATM    7  C19 UNL     1     -16.176  36.987  -1.971  1.00  0.00    -0.002 C 
ENDROOT
BRANCH   7   8
HETATM    8  C20 UNL     1     -16.227  36.682  -3.402  1.00  0.00     0.038 C 
BRANCH   8   9
HETATM    9  C21 UNL     1     -15.347  36.684  -4.368  1.00  0.00     0.075 A 
HETATM   10  S2  UNL     1     -14.655  35.516  -5.383  1.00  0.00    -0.067 SA
HETATM   11  C22 UNL     1     -13.611  36.474  -6.314  1.00  0.00     0.078 A 
HETATM   12  N2  UNL     1     -13.835  37.676  -5.806  1.00  0.00    -0.317 N 
HETATM   13  C32 UNL     1     -14.684  37.826  -4.844  1.00  0.00     0.263 A 
ATOM     14  H2  UNL     1     -13.335  38.485  -6.175  1.00  0.00     0.169 HD
HETATM   15  O3  UNL     1     -14.933  38.983  -4.316  1.00  0.00    -0.267 OA
BRANCH  11  16
HETATM   16  C23 UNL     1     -12.767  36.127  -7.308  1.00  0.00     0.048 C 
BRANCH  16  17
HETATM   17  C24 UNL     1     -13.205  36.131  -8.692  1.00  0.00    -0.033 A 
HETATM   18  C25 UNL     1     -12.277  36.131  -9.710  1.00  0.00     0.014 A 
HETATM   19  C26 UNL     1     -12.668  36.137 -11.028  1.00  0.00     0.030 A 
HETATM   20  C27 UNL     1     -14.014  36.143 -11.419  1.00  0.00     0.034 A 
HETATM   21  C30 UNL     1     -14.919  36.142 -10.386  1.00  0.00     0.030 A 
HETATM   22  C31 UNL     1     -14.532  36.136  -9.040  1.00  0.00     0.014 A 
BRANCH  20  23
HETATM   23  N1  UNL     1     -14.345  36.151 -12.787  1.00  0.00    -0.328 N 
HETATM   24  C28 UNL     1     -14.205  35.130 -13.729  1.00  0.00     0.218 C 
HETATM   25  C29 UNL     1     -14.655  35.431 -15.146  1.00  0.00     0.117 C 
HETATM   26  O2  UNL     1     -13.744  33.990 -13.521  1.00  0.00    -0.274 OA
ATOM     27  H1  UNL     1     -14.742  37.023 -13.139  1.00  0.00     0.169 HD
ENDBRANCH  20  23
ENDBRANCH  16  17
ENDBRANCH  11  16
ENDBRANCH   8   9
ENDBRANCH   7   8
BRANCH   6  28
HETATM   28  C13 UNL     1     -17.978  38.643  -1.441  1.00  0.00    -0.021 A 
HETATM   29  C14 UNL     1     -19.331  38.368  -1.389  1.00  0.00     0.014 A 
HETATM   30  C15 UNL     1     -20.290  39.286  -1.720  1.00  0.00     0.024 A 
HETATM   31  C16 UNL     1     -19.889  40.541  -2.124  1.00  0.00     0.034 A 
HETATM   32 CL1  UNL     1     -21.040  41.793  -2.572  1.00  0.00    -0.084 Cl
HETATM   33  C17 UNL     1     -18.530  40.860  -2.191  1.00  0.00     0.024 A 
HETATM   34  C18 UNL     1     -17.605  39.903  -1.847  1.00  0.00     0.014 A 
ENDBRANCH   6  28
BRANCH   1  35
HETATM   35  C8  UNL     1     -13.002  35.141  -0.727  1.00  0.00     0.056 C 
BRANCH  35  36
HETATM   36  C7  UNL     1     -11.867  35.946  -0.264  1.00  0.00    -0.012 C 
BRANCH  36  37
HETATM   37  C6  UNL     1     -11.131  36.716  -1.027  1.00  0.00    -0.040 A 
HETATM   38  C5  UNL     1     -11.307  38.088  -1.080  1.00  0.00     0.012 A 
HETATM   39  C4  UNL     1     -10.522  38.883  -1.889  1.00  0.00     0.012 A 
HETATM   40  C3  UNL     1      -9.523  38.333  -2.683  1.00  0.00    -0.040 A 
HETATM   41  C34 UNL     1      -9.345  36.970  -2.634  1.00  0.00     0.012 A 
HETATM   42  C33 UNL     1     -10.140  36.169  -1.815  1.00  0.00     0.012 A 
BRANCH  40  43
HETATM   43  C2  UNL     1      -8.764  39.110  -3.468  1.00  0.00    -0.020 C 
HETATM   44  C1  UNL     1      -8.923  40.574  -3.503  1.00  0.00     0.037 C 
ENDBRANCH  40  43
ENDBRANCH  36  37
ENDBRANCH  35  36
ENDBRANCH   1  35
TORSDOF 10
ENDMDL
MODEL 4
REMARK VINA RESULT: -7.888294682      4.018      8.210
REMARK  10 active torsions:
REMARK  status: ('A' for Active; 'I' for Inactive)
REMARK    1  A    between atoms: C2_2  and  C3_3 
REMARK    2  A    between atoms: C6_6  and  C7_7 
REMARK    3  A    between atoms: C7_7  and  C8_8 
REMARK    4  A    between atoms: C8_8  and  C9_9 
REMARK    5  A    between atoms: C12_14  and  C13_15 
REMARK    6  A    between atoms: C19_22  and  C20_23 
REMARK    7  A    between atoms: C20_23  and  C21_24 
REMARK    8  A    between atoms: C22_26  and  C23_27 
REMARK    9  A    between atoms: C23_27  and  C24_28 
REMARK   10  A    between atoms: C27_31  and  N1_32 
REMARK       I    between atoms: N1_32  and  C28_34 
ROOT
HETATM    1  C9  UNL     1     -18.633  34.587  -2.044  1.00  0.00    -0.003 C 
HETATM    2  C10 UNL     1     -17.776  35.348  -1.443  1.00  0.00     0.016 C 
HETATM    3  S1  UNL     1     -17.882  36.024   0.238  1.00  0.00    -0.047 SA
HETATM    4  C11 UNL     1     -16.101  35.855   0.419  1.00  0.00     0.225 C 
HETATM    5  O1  UNL     1     -15.485  35.588   1.452  1.00  0.00    -0.279 OA
HETATM    6  C12 UNL     1     -15.621  36.115  -0.967  1.00  0.00     0.043 C 
HETATM    7  C19 UNL     1     -16.435  35.889  -1.942  1.00  0.00    -0.002 C 
ENDROOT
BRANCH   7   8
HETATM    8  C20 UNL     1     -16.467  36.229  -3.365  1.00  0.00     0.038 C 
BRANCH   8   9
HETATM    9  C21 UNL     1     -15.559  36.340  -4.298  1.00  0.00     0.075 A 
HETATM   10  S2  UNL     1     -14.759  35.275  -5.347  1.00  0.00    -0.067 SA
HETATM   11  C22 UNL     1     -13.753  36.347  -6.190  1.00  0.00     0.078 A 
HETATM   12  N2  UNL     1     -14.072  37.504  -5.629  1.00  0.00    -0.317 N 
HETATM   13  C32 UNL     1     -14.959  37.546  -4.691  1.00  0.00     0.263 A 
ATOM     14  H2  UNL     1     -13.616  38.362  -5.938  1.00  0.00     0.169 HD
HETATM   15  O3  UNL     1     -15.302  38.654  -4.113  1.00  0.00    -0.267 OA
BRANCH  11  16
HETATM   16  C23 UNL     1     -12.856  36.110  -7.171  1.00  0.00     0.048 C 
BRANCH  16  17
HETATM   17  C24 UNL     1     -13.255  36.137  -8.567  1.00  0.00    -0.033 A 
HETATM   18  C25 UNL     1     -12.298  36.133  -9.558  1.00  0.00     0.014 A 
HETATM   19  C26 UNL     1     -12.653  36.160 -10.886  1.00  0.00     0.030 A 
HETATM   20  C27 UNL     1     -13.986  36.193 -11.315  1.00  0.00     0.034 A 
HETATM   21  C30 UNL     1     -14.920  36.196 -10.308  1.00  0.00     0.030 A 
HETATM   22  C31 UNL     1     -14.571  36.168  -8.951  1.00  0.00     0.014 A 
BRANCH  20  23
HETATM   23  N1  UNL     1     -14.279  36.222 -12.692  1.00  0.00    -0.328 N 
HETATM   24  C28 UNL     1     -14.058  35.237 -13.655  1.00  0.00     0.218 C 
HETATM   25  C29 UNL     1     -14.483  35.553 -15.077  1.00  0.00     0.117 C 
HETATM   26  O2  UNL     1     -13.544  34.117 -13.463  1.00  0.00    -0.274 OA
ATOM     27  H1  UNL     1     -14.710  37.082 -13.032  1.00  0.00     0.169 HD
ENDBRANCH  20  23
ENDBRANCH  16  17
ENDBRANCH  11  16
ENDBRANCH   8   9
ENDBRANCH   7   8
BRANCH   6  28
HETATM   28  C13 UNL     1     -14.150  36.395  -1.050  1.00  0.00    -0.021 A 
HETATM   29  C14 UNL     1     -13.672  37.659  -1.338  1.00  0.00     0.014 A 
HETATM   30  C15 UNL     1     -12.340  37.935  -1.483  1.00  0.00     0.024 A 
HETATM   31  C16 UNL     1     -11.434  36.907  -1.335  1.00  0.00     0.034 A 
HETATM   32 CL1  UNL     1      -9.701  37.154  -1.502  1.00  0.00    -0.084 Cl
HETATM   33  C17 UNL     1     -11.876  35.613  -1.044  1.00  0.00     0.024 A 
HETATM   34  C18 UNL     1     -13.226  35.387  -0.908  1.00  0.00     0.014 A 
ENDBRANCH   6  28
BRANCH   1  35
HETATM   35  C8  UNL     1     -19.866  34.202  -1.297  1.00  0.00     0.056 C 
BRANCH  35  36
HETATM   36  C7  UNL     1     -19.953  32.754  -1.080  1.00  0.00    -0.012 C 
BRANCH  36  37
HETATM   37  C6  UNL     1     -20.485  31.900  -1.918  1.00  0.00    -0.040 A 
HETATM   38  C5  UNL     1     -19.830  31.486  -3.065  1.00  0.00     0.012 A 
HETATM   39  C4  UNL     1     -20.406  30.584  -3.936  1.00  0.00     0.012 A 
HETATM   40  C3  UNL     1     -21.670  30.060  -3.694  1.00  0.00    -0.040 A 
HETATM   41  C34 UNL     1     -22.325  30.469  -2.556  1.00  0.00     0.012 A 
HETATM   42  C33 UNL     1     -21.740  31.380  -1.677  1.00  0.00     0.012 A 
BRANCH  40  43
HETATM   43  C2  UNL     1     -22.225  29.185  -4.544  1.00  0.00    -0.020 C 
HETATM   44  C1  UNL     1     -21.514  27.975  -4.993  1.00  0.00     0.037 C 
ENDBRANCH  40  43
ENDBRANCH  36  37
ENDBRANCH  35  36
ENDBRANCH   1  35
TORSDOF 10
ENDMDL
MODEL 5
REMARK VINA RESULT: -7.829246167      5.147      7.409
REMARK  10 active torsions:
REMARK  status: ('A' for Active; 'I' for Inactive)
REMARK    1  A    between atoms: C2_2  and  C3_3 
REMARK    2  A    between atoms: C6_6  and  C7_7 
REMARK    3  A    between atoms: C7_7  and  C8_8 
REMARK    4  A    between atoms: C8_8  and  C9_9 
REMARK    5  A    between atoms: C12_14  and  C13_15 
REMARK    6  A    between atoms: C19_22  and  C20_23 
REMARK    7  A    between atoms: C20_23  and  C21_24 
REMARK    8  A    between atoms: C22_26  and  C23_27 
REMARK    9  A    between atoms: C23_27  and  C24_28 
REMARK   10  A    between atoms: C27_31  and  N1_32 
REMARK       I    between atoms: N1_32  and  C28_34 
ROOT
HETATM    1  C9  UNL     1     -13.985  35.766  -2.530  1.00  0.00    -0.003 C 
HETATM    2  C10 UNL     1     -14.865  36.629  -2.925  1.00  0.00     0.016 C 
HETATM    3  S1  UNL     1     -16.056  37.543  -1.906  1.00  0.00    -0.047 SA
HETATM    4  C11 UNL     1     -15.883  38.972  -2.983  1.00  0.00     0.225 C 
HETATM    5  O1  UNL     1     -15.942  40.158  -2.654  1.00  0.00    -0.279 OA
HETATM    6  C12 UNL     1     -15.657  38.335  -4.311  1.00  0.00     0.043 C 
HETATM    7  C19 UNL     1     -15.159  37.146  -4.335  1.00  0.00    -0.002 C 
ENDROOT
BRANCH   7   8
HETATM    8  C20 UNL     1     -15.017  36.102  -5.350  1.00  0.00     0.038 C 
BRANCH   8   9
HETATM    9  C21 UNL     1     -14.842  36.105  -6.645  1.00  0.00     0.075 A 
HETATM   10  S2  UNL     1     -15.849  36.160  -8.007  1.00  0.00    -0.067 SA
HETATM   11  C22 UNL     1     -14.706  36.116  -9.258  1.00  0.00     0.078 A 
HETATM   12  N2  UNL     1     -13.572  36.060  -8.575  1.00  0.00    -0.317 N 
HETATM   13  C32 UNL     1     -13.593  36.053  -7.284  1.00  0.00     0.263 A 
ATOM     14  H2  UNL     1     -12.682  36.023  -9.071  1.00  0.00     0.169 HD
HETATM   15  O3  UNL     1     -12.509  35.998  -6.576  1.00  0.00    -0.267 OA
BRANCH  11  16
HETATM   16  C23 UNL     1     -14.879  36.129 -10.597  1.00  0.00     0.048 C 
BRANCH  16  17
HETATM   17  C24 UNL     1     -13.804  36.535 -11.482  1.00  0.00    -0.033 A 
HETATM   18  C25 UNL     1     -13.276  35.637 -12.384  1.00  0.00     0.014 A 
HETATM   19  C26 UNL     1     -12.255  35.998 -13.231  1.00  0.00     0.030 A 
HETATM   20  C27 UNL     1     -11.691  37.281 -13.236  1.00  0.00     0.034 A 
HETATM   21  C30 UNL     1     -12.235  38.157 -12.328  1.00  0.00     0.030 A 
HETATM   22  C31 UNL     1     -13.275  37.801 -11.460  1.00  0.00     0.014 A 
BRANCH  20  23
HETATM   23  N1  UNL     1     -10.646  37.584 -14.128  1.00  0.00    -0.328 N 
HETATM   24  C28 UNL     1     -10.443  38.743 -14.879  1.00  0.00     0.218 C 
HETATM   25  C29 UNL     1      -9.210  38.785 -15.763  1.00  0.00     0.117 C 
HETATM   26  O2  UNL     1     -11.176  39.751 -14.897  1.00  0.00    -0.274 OA
ATOM     27  H1  UNL     1      -9.940  36.856 -14.242  1.00  0.00     0.169 HD
ENDBRANCH  20  23
ENDBRANCH  16  17
ENDBRANCH  11  16
ENDBRANCH   8   9
ENDBRANCH   7   8
BRANCH   6  28
HETATM   28  C13 UNL     1     -15.835  39.275  -5.465  1.00  0.00    -0.021 A 
HETATM   29  C14 UNL     1     -14.786  40.038  -5.943  1.00  0.00     0.014 A 
HETATM   30  C15 UNL     1     -14.928  40.950  -6.952  1.00  0.00     0.024 A 
HETATM   31  C16 UNL     1     -16.173  41.117  -7.518  1.00  0.00     0.034 A 
HETATM   32 CL1  UNL     1     -16.465  42.263  -8.821  1.00  0.00    -0.084 Cl
HETATM   33  C17 UNL     1     -17.261  40.365  -7.065  1.00  0.00     0.024 A 
HETATM   34  C18 UNL     1     -17.066  39.461  -6.047  1.00  0.00     0.014 A 
ENDBRANCH   6  28
BRANCH   1  35
HETATM   35  C8  UNL     1     -13.915  35.461  -1.071  1.00  0.00     0.056 C 
BRANCH  35  36
HETATM   36  C7  UNL     1     -12.712  36.019  -0.446  1.00  0.00    -0.012 C 
BRANCH  36  37
HETATM   37  C6  UNL     1     -11.759  36.653  -1.084  1.00  0.00    -0.040 A 
HETATM   38  C5  UNL     1     -11.871  37.985  -1.442  1.00  0.00     0.012 A 
HETATM   39  C4  UNL     1     -10.856  38.637  -2.113  1.00  0.00     0.012 A 
HETATM   40  C3  UNL     1      -9.683  37.976  -2.456  1.00  0.00    -0.040 A 
HETATM   41  C34 UNL     1      -9.568  36.652  -2.103  1.00  0.00     0.012 A 
HETATM   42  C33 UNL     1     -10.595  35.996  -1.424  1.00  0.00     0.012 A 
BRANCH  40  43
HETATM   43  C2  UNL     1      -8.702  38.614  -3.109  1.00  0.00    -0.020 C 
HETATM   44  C1  UNL     1      -8.808  40.036  -3.482  1.00  0.00     0.037 C 
ENDBRANCH  40  43
ENDBRANCH  36  37
ENDBRANCH  35  36
ENDBRANCH   1  35
TORSDOF 10
ENDMDL
