MODEL 1
REMARK VINA RESULT: -8.488227689      0.000      0.000
REMARK  7 active torsions:
REMARK  status: ('A' for Active; 'I' for Inactive)
REMARK    1  A    between atoms: C2_2  and  C3_4 
REMARK    2  A    between atoms: C3_4  and  N1_5 
REMARK    3  A    between atoms: C14_17  and  N3_18 
REMARK    4  A    between atoms: C15_20  and  C16_21 
REMARK    5  A    between atoms: C16_21  and  C17_22 
REMARK    6  A    between atoms: C20_25  and  S1_26 
REMARK    7  A    between atoms: S1_26  and  N4_27 
ROOT
HETATM    1  N1  UNL     1     -14.743  38.469  -2.592  1.00  0.00    -0.333 N 
HETATM    2  C4  UNL     1     -13.541  38.106  -2.897  1.00  0.00     0.288 A 
HETATM    3  C5  UNL     1     -13.268  38.034  -4.462  1.00  0.00     0.267 A 
HETATM    4  C6  UNL     1     -13.177  37.992  -5.766  1.00  0.00    -0.002 A 
HETATM    5  C7  UNL     1     -12.407  37.037  -6.527  1.00  0.00     0.066 C 
HETATM    6  C8  UNL     1     -13.116  35.738  -6.467  1.00  0.00    -0.022 C 
HETATM    7  C9  UNL     1     -14.391  35.396  -6.126  1.00  0.00     0.000 C 
HETATM    8  C10 UNL     1     -15.232  35.607  -4.987  1.00  0.00     0.057 C 
HETATM    9  C11 UNL     1     -14.767  36.077  -3.747  1.00  0.00     0.221 C 
HETATM   10  N2  UNL     1     -13.761  36.853  -3.756  1.00  0.00     0.069 N 
HETATM   11  C12 UNL     1     -14.642  38.460  -3.835  1.00  0.00     0.289 A 
HETATM   12  C13 UNL     1     -14.553  38.452  -4.919  1.00  0.00     0.055 A 
HETATM   13  C14 UNL     1     -14.284  38.373  -6.233  1.00  0.00     0.047 A 
HETATM   14  N5  UNL     1     -15.202  35.707  -2.408  1.00  0.00    -0.297 N 
HETATM   15  C23 UNL     1     -16.556  35.168  -2.352  1.00  0.00     0.161 C 
HETATM   16  C24 UNL     1     -14.355  35.817  -1.212  1.00  0.00     0.259 C 
HETATM   17  O3  UNL     1     -14.829  35.367  -0.154  1.00  0.00    -0.267 OA
HETATM   18  C25 UNL     1     -12.998  36.411  -1.154  1.00  0.00     0.043 A 
HETATM   19  C26 UNL     1     -12.033  35.888  -0.379  1.00  0.00     0.018 A 
HETATM   20  C27 UNL     1     -10.724  36.390  -0.368  1.00  0.00     0.001 A 
HETATM   21  C28 UNL     1     -10.369  37.461  -1.167  1.00  0.00     0.001 A 
HETATM   22  C29 UNL     1     -11.328  38.027  -1.974  1.00  0.00     0.013 A 
HETATM   23  C30 UNL     1     -12.590  37.529  -1.970  1.00  0.00     0.018 A 
ENDROOT
BRANCH  13  24
HETATM   24  N3  UNL     1     -15.322  38.795  -7.039  1.00  0.00    -0.369 N 
HETATM   25  C15 UNL     1     -15.381  38.588  -8.386  1.00  0.00     0.066 C 
ATOM     26  H3  UNL     1     -16.095  39.292  -6.599  1.00  0.00     0.165 HD
BRANCH  25  27
HETATM   27  C16 UNL     1     -15.808  37.180  -8.728  1.00  0.00     0.083 C 
BRANCH  27  28
HETATM   28  C17 UNL     1     -15.144  36.628  -9.931  1.00  0.00    -0.053 A 
HETATM   29  C18 UNL     1     -13.792  36.528 -10.043  1.00  0.00     0.009 A 
HETATM   30  C19 UNL     1     -13.178  36.002 -11.192  1.00  0.00     0.026 A 
HETATM   31  C20 UNL     1     -14.015  35.582 -12.226  1.00  0.00     0.079 A 
HETATM   32  C21 UNL     1     -15.374  35.675 -12.131  1.00  0.00     0.026 A 
HETATM   33  C22 UNL     1     -15.935  36.202 -10.975  1.00  0.00     0.009 A 
BRANCH  31  34
HETATM   34  S1  UNL     1     -13.360  34.900 -13.712  1.00  0.00     0.256 S 
HETATM   35  O1  UNL     1     -14.166  35.351 -14.899  1.00  0.00    -0.201 OA
HETATM   36  O2  UNL     1     -13.399  33.405 -13.700  1.00  0.00    -0.201 OA
BRANCH  34  37
HETATM   37  N4  UNL     1     -11.752  35.419 -13.945  1.00  0.00    -0.324 N 
ATOM     38  H42 UNL     1     -11.284  36.108 -13.356  1.00  0.00     0.169 HD
ATOM     39  H41 UNL     1     -11.340  34.946 -14.749  1.00  0.00     0.169 HD
ENDBRANCH  34  37
ENDBRANCH  31  34
ENDBRANCH  27  28
ENDBRANCH  25  27
ENDBRANCH  13  24
BRANCH   1  40
HETATM   40  C3  UNL     1     -15.877  38.878  -1.694  1.00  0.00     0.138 C 
BRANCH  40  41
HETATM   41  C2  UNL     1     -16.885  39.701  -2.461  1.00  0.00     0.071 C 
HETATM   42  C1  UNL     1     -17.379  40.885  -1.717  1.00  0.00     0.023 C 
HETATM   43 BR1  UNL     1     -18.371  38.558  -2.905  1.00  0.00    -0.090 Br
ENDBRANCH  40  41
ENDBRANCH   1  40
TORSDOF 7
ENDMDL
MODEL 2
REMARK VINA RESULT: -8.318932946      1.140      1.322
REMARK  7 active torsions:
REMARK  status: ('A' for Active; 'I' for Inactive)
REMARK    1  A    between atoms: C2_2  and  C3_4 
REMARK    2  A    between atoms: C3_4  and  N1_5 
REMARK    3  A    between atoms: C14_17  and  N3_18 
REMARK    4  A    between atoms: C15_20  and  C16_21 
REMARK    5  A    between atoms: C16_21  and  C17_22 
REMARK    6  A    between atoms: C20_25  and  S1_26 
REMARK    7  A    between atoms: S1_26  and  N4_27 
ROOT
HETATM    1  N1  UNL     1     -14.635  38.433  -2.399  1.00  0.00    -0.333 N 
HETATM    2  C4  UNL     1     -13.440  38.099  -2.760  1.00  0.00     0.288 A 
HETATM    3  C5  UNL     1     -13.226  38.080  -4.337  1.00  0.00     0.267 A 
HETATM    4  C6  UNL     1     -13.184  38.080  -5.644  1.00  0.00    -0.002 A 
HETATM    5  C7  UNL     1     -12.429  37.161  -6.462  1.00  0.00     0.066 C 
HETATM    6  C8  UNL     1     -13.117  35.850  -6.418  1.00  0.00    -0.022 C 
HETATM    7  C9  UNL     1     -14.373  35.477  -6.040  1.00  0.00     0.000 C 
HETATM    8  C10 UNL     1     -15.173  35.640  -4.864  1.00  0.00     0.057 C 
HETATM    9  C11 UNL     1     -14.669  36.078  -3.628  1.00  0.00     0.221 C 
HETATM   10  N2  UNL     1     -13.675  36.870  -3.650  1.00  0.00     0.069 N 
HETATM   11  C12 UNL     1     -14.581  38.464  -3.645  1.00  0.00     0.289 A 
HETATM   12  C13 UNL     1     -14.533  38.491  -4.731  1.00  0.00     0.055 A 
HETATM   13  C14 UNL     1     -14.313  38.457  -6.057  1.00  0.00     0.047 A 
HETATM   14  N5  UNL     1     -15.047  35.659  -2.286  1.00  0.00    -0.297 N 
HETATM   15  C23 UNL     1     -16.389  35.098  -2.196  1.00  0.00     0.161 C 
HETATM   16  C24 UNL     1     -14.156  35.746  -1.120  1.00  0.00     0.259 C 
HETATM   17  O3  UNL     1     -14.584  35.256  -0.059  1.00  0.00    -0.267 OA
HETATM   18  C25 UNL     1     -12.808  36.359  -1.094  1.00  0.00     0.043 A 
HETATM   19  C26 UNL     1     -11.807  35.828  -0.372  1.00  0.00     0.018 A 
HETATM   20  C27 UNL     1     -10.506  36.349  -0.394  1.00  0.00     0.001 A 
HETATM   21  C28 UNL     1     -10.196  37.450  -1.172  1.00  0.00     0.001 A 
HETATM   22  C29 UNL     1     -11.194  38.026  -1.923  1.00  0.00     0.013 A 
HETATM   23  C30 UNL     1     -12.446  37.508  -1.888  1.00  0.00     0.018 A 
ENDROOT
BRANCH  13  24
HETATM   24  N3  UNL     1     -15.387  38.888  -6.809  1.00  0.00    -0.369 N 
HETATM   25  C15 UNL     1     -15.374  39.004  -8.168  1.00  0.00     0.066 C 
ATOM     26  H3  UNL     1     -16.245  39.134  -6.318  1.00  0.00     0.165 HD
BRANCH  25  27
HETATM   27  C16 UNL     1     -15.543  37.670  -8.856  1.00  0.00     0.083 C 
BRANCH  27  28
HETATM   28  C17 UNL     1     -14.642  37.474 -10.014  1.00  0.00    -0.053 A 
HETATM   29  C18 UNL     1     -13.799  36.411 -10.118  1.00  0.00     0.009 A 
HETATM   30  C19 UNL     1     -12.950  36.240 -11.223  1.00  0.00     0.026 A 
HETATM   31  C20 UNL     1     -13.002  37.212 -12.222  1.00  0.00     0.079 A 
HETATM   32  C21 UNL     1     -13.840  38.286 -12.136  1.00  0.00     0.026 A 
HETATM   33  C22 UNL     1     -14.662  38.412 -11.023  1.00  0.00     0.009 A 
BRANCH  31  34
HETATM   34  S1  UNL     1     -11.988  37.101 -13.658  1.00  0.00     0.256 S 
HETATM   35  O1  UNL     1     -10.691  37.832 -13.447  1.00  0.00    -0.201 OA
HETATM   36  O2  UNL     1     -12.647  37.718 -14.851  1.00  0.00    -0.201 OA
BRANCH  34  37
HETATM   37  N4  UNL     1     -11.618  35.471 -13.999  1.00  0.00    -0.324 N 
ATOM     38  H42 UNL     1     -11.414  34.771 -13.286  1.00  0.00     0.169 HD
ATOM     39  H41 UNL     1     -11.632  35.307 -15.006  1.00  0.00     0.169 HD
ENDBRANCH  34  37
ENDBRANCH  31  34
ENDBRANCH  27  28
ENDBRANCH  25  27
ENDBRANCH  13  24
BRANCH   1  40
HETATM   40  C3  UNL     1     -15.741  38.796  -1.447  1.00  0.00     0.138 C 
BRANCH  40  41
HETATM   41  C2  UNL     1     -16.795  39.616  -2.153  1.00  0.00     0.071 C 
HETATM   42  C1  UNL     1     -17.283  40.770  -1.360  1.00  0.00     0.023 C 
HETATM   43 BR1  UNL     1     -18.273  38.452  -2.568  1.00  0.00    -0.090 Br
ENDBRANCH  40  41
ENDBRANCH   1  40
TORSDOF 7
ENDMDL
MODEL 3
REMARK VINA RESULT: -7.968972635      2.363      4.308
REMARK  7 active torsions:
REMARK  status: ('A' for Active; 'I' for Inactive)
REMARK    1  A    between atoms: C2_2  and  C3_4 
REMARK    2  A    between atoms: C3_4  and  N1_5 
REMARK    3  A    between atoms: C14_17  and  N3_18 
REMARK    4  A    between atoms: C15_20  and  C16_21 
REMARK    5  A    between atoms: C16_21  and  C17_22 
REMARK    6  A    between atoms: C20_25  and  S1_26 
REMARK    7  A    between atoms: S1_26  and  N4_27 
ROOT
HETATM    1  N1  UNL     1     -17.618  36.878  -1.389  1.00  0.00    -0.333 N 
HETATM    2  C4  UNL     1     -16.806  37.865  -1.198  1.00  0.00     0.288 A 
HETATM    3  C5  UNL     1     -15.471  37.775  -2.059  1.00  0.00     0.267 A 
HETATM    4  C6  UNL     1     -14.412  37.576  -2.800  1.00  0.00    -0.002 A 
HETATM    5  C7  UNL     1     -13.056  37.915  -2.439  1.00  0.00     0.066 C 
HETATM    6  C8  UNL     1     -12.606  36.943  -1.417  1.00  0.00    -0.022 C 
HETATM    7  C9  UNL     1     -13.079  35.724  -1.028  1.00  0.00     0.000 C 
HETATM    8  C10 UNL     1     -14.340  35.219  -0.573  1.00  0.00     0.057 C 
HETATM    9  C11 UNL     1     -15.411  36.034  -0.174  1.00  0.00     0.221 C 
HETATM   10  N2  UNL     1     -15.519  37.172  -0.729  1.00  0.00     0.069 N 
HETATM   11  C12 UNL     1     -16.621  36.709  -2.119  1.00  0.00     0.289 A 
HETATM   12  C13 UNL     1     -15.750  36.563  -2.755  1.00  0.00     0.055 A 
HETATM   13  C14 UNL     1     -14.607  36.522  -3.461  1.00  0.00     0.047 A 
HETATM   14  N5  UNL     1     -16.378  35.816   0.893  1.00  0.00    -0.297 N 
HETATM   15  C23 UNL     1     -16.547  34.415   1.262  1.00  0.00     0.161 C 
HETATM   16  C24 UNL     1     -17.098  36.897   1.580  1.00  0.00     0.259 C 
HETATM   17  O3  UNL     1     -17.816  36.563   2.539  1.00  0.00    -0.267 OA
HETATM   18  C25 UNL     1     -17.047  38.338   1.235  1.00  0.00     0.043 A 
HETATM   19  C26 UNL     1     -17.056  39.289   2.184  1.00  0.00     0.018 A 
HETATM   20  C27 UNL     1     -16.932  40.652   1.881  1.00  0.00     0.001 A 
HETATM   21  C28 UNL     1     -16.794  41.079   0.573  1.00  0.00     0.001 A 
HETATM   22  C29 UNL     1     -16.784  40.136  -0.428  1.00  0.00     0.013 A 
HETATM   23  C30 UNL     1     -16.906  38.822  -0.117  1.00  0.00     0.018 A 
ENDROOT
BRANCH  13  24
HETATM   24  N3  UNL     1     -14.542  35.470  -4.352  1.00  0.00    -0.369 N 
HETATM   25  C15 UNL     1     -14.719  35.594  -5.698  1.00  0.00     0.066 C 
ATOM     26  H3  UNL     1     -14.350  34.540  -3.980  1.00  0.00     0.165 HD
BRANCH  25  27
HETATM   27  C16 UNL     1     -13.487  36.133  -6.387  1.00  0.00     0.083 C 
BRANCH  27  28
HETATM   28  C17 UNL     1     -13.584  36.147  -7.865  1.00  0.00    -0.053 A 
HETATM   29  C18 UNL     1     -14.774  36.136  -8.523  1.00  0.00     0.009 A 
HETATM   30  C19 UNL     1     -14.848  36.149  -9.926  1.00  0.00     0.026 A 
HETATM   31  C20 UNL     1     -13.643  36.172 -10.627  1.00  0.00     0.079 A 
HETATM   32  C21 UNL     1     -12.439  36.183  -9.983  1.00  0.00     0.026 A 
HETATM   33  C22 UNL     1     -12.415  36.170  -8.594  1.00  0.00     0.009 A 
BRANCH  31  34
HETATM   34  S1  UNL     1     -13.609  36.196 -12.387  1.00  0.00     0.256 S 
HETATM   35  O1  UNL     1     -14.852  36.846 -12.930  1.00  0.00    -0.201 OA
HETATM   36  O2  UNL     1     -13.553  34.816 -12.961  1.00  0.00    -0.201 OA
BRANCH  34  37
HETATM   37  N4  UNL     1     -12.268  37.092 -12.944  1.00  0.00    -0.324 N 
ATOM     38  H42 UNL     1     -11.838  36.965 -13.860  1.00  0.00     0.169 HD
ATOM     39  H41 UNL     1     -11.969  37.760 -12.234  1.00  0.00     0.169 HD
ENDBRANCH  34  37
ENDBRANCH  31  34
ENDBRANCH  27  28
ENDBRANCH  25  27
ENDBRANCH  13  24
BRANCH   1  40
HETATM   40  C3  UNL     1     -18.892  36.091  -1.257  1.00  0.00     0.138 C 
BRANCH  40  41
HETATM   41  C2  UNL     1     -18.729  34.719  -1.869  1.00  0.00     0.071 C 
HETATM   42  C1  UNL     1     -19.292  34.605  -3.237  1.00  0.00     0.023 C 
HETATM   43 BR1  UNL     1     -19.596  33.447  -0.711  1.00  0.00    -0.090 Br
ENDBRANCH  40  41
ENDBRANCH   1  40
TORSDOF 7
ENDMDL
MODEL 4
REMARK VINA RESULT: -7.886756140      2.468      4.202
REMARK  7 active torsions:
REMARK  status: ('A' for Active; 'I' for Inactive)
REMARK    1  A    between atoms: C2_2  and  C3_4 
REMARK    2  A    between atoms: C3_4  and  N1_5 
REMARK    3  A    between atoms: C14_17  and  N3_18 
REMARK    4  A    between atoms: C15_20  and  C16_21 
REMARK    5  A    between atoms: C16_21  and  C17_22 
REMARK    6  A    between atoms: C20_25  and  S1_26 
REMARK    7  A    between atoms: S1_26  and  N4_27 
ROOT
HETATM    1  N1  UNL     1     -17.598  36.899  -1.363  1.00  0.00    -0.333 N 
HETATM    2  C4  UNL     1     -16.776  37.880  -1.189  1.00  0.00     0.288 A 
HETATM    3  C5  UNL     1     -15.456  37.777  -2.071  1.00  0.00     0.267 A 
HETATM    4  C6  UNL     1     -14.410  37.567  -2.828  1.00  0.00    -0.002 A 
HETATM    5  C7  UNL     1     -13.046  37.897  -2.490  1.00  0.00     0.066 C 
HETATM    6  C8  UNL     1     -12.587  36.924  -1.472  1.00  0.00    -0.022 C 
HETATM    7  C9  UNL     1     -13.063  35.711  -1.072  1.00  0.00     0.000 C 
HETATM    8  C10 UNL     1     -14.320  35.217  -0.595  1.00  0.00     0.057 C 
HETATM    9  C11 UNL     1     -15.379  36.042  -0.181  1.00  0.00     0.221 C 
HETATM   10  N2  UNL     1     -15.487  37.179  -0.738  1.00  0.00     0.069 N 
HETATM   11  C12 UNL     1     -16.615  36.720  -2.109  1.00  0.00     0.289 A 
HETATM   12  C13 UNL     1     -15.756  36.564  -2.758  1.00  0.00     0.055 A 
HETATM   13  C14 UNL     1     -14.624  36.512  -3.482  1.00  0.00     0.047 A 
HETATM   14  N5  UNL     1     -16.330  35.834   0.902  1.00  0.00    -0.297 N 
HETATM   15  C23 UNL     1     -16.504  34.437   1.279  1.00  0.00     0.161 C 
HETATM   16  C24 UNL     1     -17.031  36.924   1.597  1.00  0.00     0.259 C 
HETATM   17  O3  UNL     1     -17.735  36.599   2.569  1.00  0.00    -0.267 OA
HETATM   18  C25 UNL     1     -16.973  38.363   1.247  1.00  0.00     0.043 A 
HETATM   19  C26 UNL     1     -16.959  39.317   2.192  1.00  0.00     0.018 A 
HETATM   20  C27 UNL     1     -16.830  40.679   1.882  1.00  0.00     0.001 A 
HETATM   21  C28 UNL     1     -16.711  41.100   0.571  1.00  0.00     0.001 A 
HETATM   22  C29 UNL     1     -16.724  40.154  -0.427  1.00  0.00     0.013 A 
HETATM   23  C30 UNL     1     -16.851  38.842  -0.109  1.00  0.00     0.018 A 
ENDROOT
BRANCH  13  24
HETATM   24  N3  UNL     1     -14.582  35.456  -4.370  1.00  0.00    -0.369 N 
HETATM   25  C15 UNL     1     -14.738  35.583  -5.719  1.00  0.00     0.066 C 
ATOM     26  H3  UNL     1     -14.424  34.522  -3.994  1.00  0.00     0.165 HD
BRANCH  25  27
HETATM   27  C16 UNL     1     -13.481  36.081  -6.393  1.00  0.00     0.083 C 
BRANCH  27  28
HETATM   28  C17 UNL     1     -13.572  36.130  -7.870  1.00  0.00    -0.053 A 
HETATM   29  C18 UNL     1     -14.760  36.141  -8.534  1.00  0.00     0.009 A 
HETATM   30  C19 UNL     1     -14.828  36.187  -9.936  1.00  0.00     0.026 A 
HETATM   31  C20 UNL     1     -13.620  36.220 -10.631  1.00  0.00     0.079 A 
HETATM   32  C21 UNL     1     -12.419  36.209  -9.984  1.00  0.00     0.026 A 
HETATM   33  C22 UNL     1     -12.401  36.164  -8.595  1.00  0.00     0.009 A 
BRANCH  31  34
HETATM   34  S1  UNL     1     -13.580  36.285 -12.391  1.00  0.00     0.256 S 
HETATM   35  O1  UNL     1     -12.300  36.915 -12.867  1.00  0.00    -0.201 OA
HETATM   36  O2  UNL     1     -14.702  37.107 -12.942  1.00  0.00    -0.201 OA
BRANCH  34  37
HETATM   37  N4  UNL     1     -13.662  34.712 -13.045  1.00  0.00    -0.324 N 
ATOM     38  H42 UNL     1     -13.401  33.868 -12.535  1.00  0.00     0.169 HD
ATOM     39  H41 UNL     1     -14.004  34.744 -14.005  1.00  0.00     0.169 HD
ENDBRANCH  34  37
ENDBRANCH  31  34
ENDBRANCH  27  28
ENDBRANCH  25  27
ENDBRANCH  13  24
BRANCH   1  40
HETATM   40  C3  UNL     1     -18.877  36.122  -1.208  1.00  0.00     0.138 C 
BRANCH  40  41
HETATM   41  C2  UNL     1     -20.063  37.058  -1.205  1.00  0.00     0.071 C 
HETATM   42  C1  UNL     1     -20.389  37.604   0.135  1.00  0.00     0.023 C 
HETATM   43 BR1  UNL     1     -21.582  36.091  -1.890  1.00  0.00    -0.090 Br
ENDBRANCH  40  41
ENDBRANCH   1  40
TORSDOF 7
ENDMDL
MODEL 5
REMARK VINA RESULT: -7.407902367      5.686     10.618
REMARK  7 active torsions:
REMARK  status: ('A' for Active; 'I' for Inactive)
REMARK    1  A    between atoms: C2_2  and  C3_4 
REMARK    2  A    between atoms: C3_4  and  N1_5 
REMARK    3  A    between atoms: C14_17  and  N3_18 
REMARK    4  A    between atoms: C15_20  and  C16_21 
REMARK    5  A    between atoms: C16_21  and  C17_22 
REMARK    6  A    between atoms: C20_25  and  S1_26 
REMARK    7  A    between atoms: S1_26  and  N4_27 
ROOT
HETATM    1  N1  UNL     1     -14.761  35.691  -2.982  1.00  0.00    -0.333 N 
HETATM    2  C4  UNL     1     -14.220  35.677  -1.809  1.00  0.00     0.288 A 
HETATM    3  C5  UNL     1     -15.243  35.362  -0.632  1.00  0.00     0.267 A 
HETATM    4  C6  UNL     1     -16.183  35.117   0.244  1.00  0.00    -0.002 A 
HETATM    5  C7  UNL     1     -16.265  35.679   1.571  1.00  0.00     0.066 C 
HETATM    6  C8  UNL     1     -16.669  37.097   1.435  1.00  0.00    -0.022 C 
HETATM    7  C9  UNL     1     -17.226  37.806   0.412  1.00  0.00     0.000 C 
HETATM    8  C10 UNL     1     -16.895  38.043  -0.961  1.00  0.00     0.057 C 
HETATM    9  C11 UNL     1     -15.650  37.732  -1.531  1.00  0.00     0.221 C 
HETATM   10  N2  UNL     1     -15.013  36.746  -1.044  1.00  0.00     0.069 N 
HETATM   11  C12 UNL     1     -15.648  35.425  -2.147  1.00  0.00     0.289 A 
HETATM   12  C13 UNL     1     -16.421  35.192  -1.417  1.00  0.00     0.055 A 
HETATM   13  C14 UNL     1     -17.254  34.936  -0.394  1.00  0.00     0.047 A 
HETATM   14  N5  UNL     1     -14.902  38.460  -2.546  1.00  0.00    -0.297 N 
HETATM   15  C23 UNL     1     -15.726  39.317  -3.390  1.00  0.00     0.161 C 
HETATM   16  C24 UNL     1     -13.441  38.387  -2.698  1.00  0.00     0.259 C 
HETATM   17  O3  UNL     1     -12.934  39.143  -3.544  1.00  0.00    -0.267 OA
HETATM   18  C25 UNL     1     -12.528  37.500  -1.939  1.00  0.00     0.043 A 
HETATM   19  C26 UNL     1     -11.311  37.913  -1.547  1.00  0.00     0.018 A 
HETATM   20  C27 UNL     1     -10.463  37.116  -0.765  1.00  0.00     0.001 A 
HETATM   21  C28 UNL     1     -10.852  35.852  -0.361  1.00  0.00     0.001 A 
HETATM   22  C29 UNL     1     -12.090  35.390  -0.744  1.00  0.00     0.013 A 
HETATM   23  C30 UNL     1     -12.895  36.175  -1.502  1.00  0.00     0.018 A 
ENDROOT
BRANCH  13  24
HETATM   24  N3  UNL     1     -18.541  34.631  -0.789  1.00  0.00    -0.369 N 
HETATM   25  C15 UNL     1     -19.553  34.318   0.070  1.00  0.00     0.066 C 
ATOM     26  H3  UNL     1     -18.748  34.640  -1.787  1.00  0.00     0.165 HD
BRANCH  25  27
HETATM   27  C16 UNL     1     -20.143  35.545   0.725  1.00  0.00     0.083 C 
BRANCH  27  28
HETATM   28  C17 UNL     1     -20.363  35.399   2.182  1.00  0.00    -0.053 A 
HETATM   29  C18 UNL     1     -21.568  35.059   2.713  1.00  0.00     0.009 A 
HETATM   30  C19 UNL     1     -21.760  34.925   4.098  1.00  0.00     0.026 A 
HETATM   31  C20 UNL     1     -20.657  35.157   4.919  1.00  0.00     0.079 A 
HETATM   32  C21 UNL     1     -19.439  35.499   4.405  1.00  0.00     0.026 A 
HETATM   33  C22 UNL     1     -19.298  35.620   3.028  1.00  0.00     0.009 A 
BRANCH  31  34
HETATM   34  S1  UNL     1     -20.775  35.013   6.670  1.00  0.00     0.256 S 
HETATM   35  O1  UNL     1     -21.612  33.823   7.047  1.00  0.00    -0.201 OA
HETATM   36  O2  UNL     1     -21.423  36.214   7.283  1.00  0.00    -0.201 OA
BRANCH  34  37
HETATM   37  N4  UNL     1     -19.226  34.799   7.354  1.00  0.00    -0.324 N 
ATOM     38  H42 UNL     1     -18.588  34.045   7.096  1.00  0.00     0.169 HD
ATOM     39  H41 UNL     1     -19.041  35.524   8.046  1.00  0.00     0.169 HD
ENDBRANCH  34  37
ENDBRANCH  31  34
ENDBRANCH  27  28
ENDBRANCH  25  27
ENDBRANCH  13  24
BRANCH   1  40
HETATM   40  C3  UNL     1     -14.805  35.765  -4.483  1.00  0.00     0.138 C 
BRANCH  40  41
HETATM   41  C2  UNL     1     -16.233  35.887  -4.962  1.00  0.00     0.071 C 
HETATM   42  C1  UNL     1     -16.787  34.625  -5.511  1.00  0.00     0.023 C 
HETATM   43 BR1  UNL     1     -16.291  37.256  -6.316  1.00  0.00    -0.090 Br
ENDBRANCH  40  41
ENDBRANCH   1  40
TORSDOF 7
ENDMDL
