MODEL 1
REMARK VINA RESULT: -8.302363668      0.000      0.000
REMARK  7 active torsions:
REMARK  status: ('A' for Active; 'I' for Inactive)
REMARK    1  A    between atoms: N1_2  and  C3_4 
REMARK    2  A    between atoms: C7_8  and  C8_9 
REMARK    3  A    between atoms: C8_9  and  C9_10 
REMARK    4  A    between atoms: C8_9  and  N3_17 
REMARK    5  A    between atoms: C16_20  and  N4_21 
REMARK    6  A    between atoms: N4_21  and  S1_23 
REMARK    7  A    between atoms: S1_23  and  C17_26 
ROOT
HETATM    1  N3  UNL     1     -13.732  37.401  -3.575  1.00  0.00    -0.278 N 
HETATM    2  C15 UNL     1     -14.758  36.401  -3.389  1.00  0.00     0.257 A 
HETATM    3  O1  UNL     1     -15.730  36.173  -4.181  1.00  0.00    -0.270 OA
HETATM    4  C16 UNL     1     -14.557  35.644  -2.149  1.00  0.00     0.221 A 
HETATM    5  C26 UNL     1     -13.250  36.180  -1.660  1.00  0.00     0.002 A 
HETATM    6  C27 UNL     1     -12.476  35.813  -0.573  1.00  0.00     0.012 A 
HETATM    7  C28 UNL     1     -11.293  36.471  -0.307  1.00  0.00     0.001 A 
HETATM    8  C29 UNL     1     -10.855  37.507  -1.113  1.00  0.00     0.002 A 
HETATM    9  C30 UNL     1     -11.629  37.856  -2.179  1.00  0.00     0.031 A 
HETATM   10  C31 UNL     1     -12.827  37.203  -2.465  1.00  0.00     0.051 A 
ENDROOT
BRANCH   4  11
HETATM   11  N4  UNL     1     -15.623  35.971  -1.224  1.00  0.00    -0.297 N 
ATOM     12  H4  UNL     1     -15.704  36.883  -0.774  1.00  0.00     0.173 HD
BRANCH  11  13
HETATM   13  S1  UNL     1     -16.730  34.708  -0.953  1.00  0.00     0.261 S 
HETATM   14  O2  UNL     1     -17.408  34.286  -2.238  1.00  0.00    -0.200 OA
HETATM   15  O3  UNL     1     -15.916  33.495  -0.520  1.00  0.00    -0.200 OA
BRANCH  13  16
HETATM   16  C17 UNL     1     -17.872  35.018   0.308  1.00  0.00     0.102 A 
HETATM   17  C18 UNL     1     -19.234  34.888   0.139  1.00  0.00     0.040 A 
HETATM   18  C19 UNL     1     -20.125  35.148   1.150  1.00  0.00    -0.008 A 
HETATM   19  C20 UNL     1     -21.497  35.026   1.001  1.00  0.00     0.019 A 
HETATM   20  C23 UNL     1     -19.658  35.554   2.387  1.00  0.00     0.047 A 
HETATM   21  C21 UNL     1     -22.351  35.304   2.066  1.00  0.00     0.075 A 
HETATM   22  C22 UNL     1     -21.841  35.703   3.274  1.00  0.00     0.245 A 
HETATM   23  O4  UNL     1     -22.542  35.974   4.284  1.00  0.00    -0.268 OA
HETATM   24  N5  UNL     1     -20.509  35.814   3.391  1.00  0.00    -0.323 N 
ATOM     25  H5  UNL     1     -20.125  36.111   4.288  1.00  0.00     0.169 HD
HETATM   26  C24 UNL     1     -18.302  35.693   2.592  1.00  0.00     0.056 A 
HETATM   27  C25 UNL     1     -17.418  35.422   1.544  1.00  0.00     0.059 A 
HETATM   28 CL1  UNL     1     -15.713  35.622   1.929  1.00  0.00    -0.083 Cl
ENDBRANCH  13  16
ENDBRANCH  11  13
ENDBRANCH   4  11
BRANCH   1  29
HETATM   29  C8  UNL     1     -13.638  38.308  -4.668  1.00  0.00     0.064 C 
BRANCH  29  30
HETATM   30  C7  UNL     1     -13.651  37.667  -6.032  1.00  0.00    -0.006 A 
HETATM   31  C6  UNL     1     -12.569  36.830  -6.357  1.00  0.00     0.014 A 
HETATM   32  C5  UNL     1     -12.454  36.166  -7.546  1.00  0.00     0.003 A 
HETATM   33  C4  UNL     1     -13.437  36.310  -8.490  1.00  0.00     0.029 A 
HETATM   34  C3  UNL     1     -14.506  37.123  -8.195  1.00  0.00     0.030 A 
HETATM   35  C32 UNL     1     -14.607  37.796  -6.969  1.00  0.00     0.043 A 
BRANCH  34  36
HETATM   36  N1  UNL     1     -15.528  37.271  -9.181  1.00  0.00    -0.390 N 
HETATM   37  C1  UNL     1     -15.438  38.296 -10.206  1.00  0.00     0.149 C 
HETATM   38  C2  UNL     1     -16.685  36.402  -9.187  1.00  0.00     0.149 C 
ENDBRANCH  34  36
ENDBRANCH  29  30
BRANCH  29  39
HETATM   39  C9  UNL     1     -14.411  39.536  -4.589  1.00  0.00     0.008 A 
HETATM   40  C10 UNL     1     -13.828  40.694  -5.092  1.00  0.00     0.016 A 
HETATM   41  C11 UNL     1     -14.448  41.913  -5.083  1.00  0.00     0.018 A 
HETATM   42  C12 UNL     1     -15.724  41.983  -4.539  1.00  0.00     0.090 A 
HETATM   43  N2  UNL     1     -16.305  40.863  -4.044  1.00  0.00    -0.370 N 
HETATM   44  C13 UNL     1     -17.645  40.919  -3.469  1.00  0.00     0.154 C 
HETATM   45  C14 UNL     1     -15.677  39.679  -4.065  1.00  0.00     0.103 A 
ENDBRANCH  29  39
ENDBRANCH   1  29
TORSDOF 7
ENDMDL
MODEL 2
REMARK VINA RESULT: -8.129390447      2.234      2.647
REMARK  7 active torsions:
REMARK  status: ('A' for Active; 'I' for Inactive)
REMARK    1  A    between atoms: N1_2  and  C3_4 
REMARK    2  A    between atoms: C7_8  and  C8_9 
REMARK    3  A    between atoms: C8_9  and  C9_10 
REMARK    4  A    between atoms: C8_9  and  N3_17 
REMARK    5  A    between atoms: C16_20  and  N4_21 
REMARK    6  A    between atoms: N4_21  and  S1_23 
REMARK    7  A    between atoms: S1_23  and  C17_26 
ROOT
HETATM    1  N3  UNL     1     -13.601  37.249  -3.143  1.00  0.00    -0.278 N 
HETATM    2  C15 UNL     1     -14.515  36.189  -2.787  1.00  0.00     0.257 A 
HETATM    3  O1  UNL     1     -15.567  35.863  -3.430  1.00  0.00    -0.270 OA
HETATM    4  C16 UNL     1     -14.093  35.498  -1.564  1.00  0.00     0.221 A 
HETATM    5  C26 UNL     1     -12.774  36.142  -1.277  1.00  0.00     0.002 A 
HETATM    6  C27 UNL     1     -11.835  35.873  -0.297  1.00  0.00     0.012 A 
HETATM    7  C28 UNL     1     -10.679  36.622  -0.217  1.00  0.00     0.001 A 
HETATM    8  C29 UNL     1     -10.432  37.652  -1.107  1.00  0.00     0.002 A 
HETATM    9  C30 UNL     1     -11.367  37.904  -2.065  1.00  0.00     0.031 A 
HETATM   10  C31 UNL     1     -12.541  37.159  -2.163  1.00  0.00     0.051 A 
ENDROOT
BRANCH   4  11
HETATM   11  N4  UNL     1     -15.045  35.788  -0.511  1.00  0.00    -0.297 N 
ATOM     12  H4  UNL     1     -14.987  36.623   0.072  1.00  0.00     0.173 HD
BRANCH  11  13
HETATM   13  S1  UNL     1     -16.268  34.620  -0.330  1.00  0.00     0.261 S 
HETATM   14  O2  UNL     1     -15.833  33.279  -0.881  1.00  0.00    -0.200 OA
HETATM   15  O3  UNL     1     -16.443  34.393   1.166  1.00  0.00    -0.200 OA
BRANCH  13  16
HETATM   16  C17 UNL     1     -17.812  35.101  -0.944  1.00  0.00     0.102 A 
HETATM   17  C18 UNL     1     -18.555  34.322  -1.806  1.00  0.00     0.040 A 
HETATM   18  C19 UNL     1     -19.774  34.726  -2.290  1.00  0.00    -0.008 A 
HETATM   19  C20 UNL     1     -20.536  33.960  -3.157  1.00  0.00     0.019 A 
HETATM   20  C23 UNL     1     -20.290  35.952  -1.911  1.00  0.00     0.047 A 
HETATM   21  C21 UNL     1     -21.767  34.425  -3.614  1.00  0.00     0.075 A 
HETATM   22  C22 UNL     1     -22.237  35.647  -3.210  1.00  0.00     0.245 A 
HETATM   23  O4  UNL     1     -23.336  36.140  -3.576  1.00  0.00    -0.268 OA
HETATM   24  N5  UNL     1     -21.479  36.369  -2.371  1.00  0.00    -0.323 N 
ATOM     25  H5  UNL     1     -21.824  37.280  -2.067  1.00  0.00     0.169 HD
HETATM   26  C24 UNL     1     -19.574  36.756  -1.051  1.00  0.00     0.056 A 
HETATM   27  C25 UNL     1     -18.334  36.319  -0.573  1.00  0.00     0.059 A 
HETATM   28 CL1  UNL     1     -17.522  37.425   0.528  1.00  0.00    -0.083 Cl
ENDBRANCH  13  16
ENDBRANCH  11  13
ENDBRANCH   4  11
BRANCH   1  29
HETATM   29  C8  UNL     1     -13.724  38.116  -4.265  1.00  0.00     0.064 C 
BRANCH  29  30
HETATM   30  C7  UNL     1     -13.724  37.427  -5.606  1.00  0.00    -0.006 A 
HETATM   31  C6  UNL     1     -12.476  37.057  -6.137  1.00  0.00     0.014 A 
HETATM   32  C5  UNL     1     -12.322  36.408  -7.331  1.00  0.00     0.003 A 
HETATM   33  C4  UNL     1     -13.433  36.094  -8.069  1.00  0.00     0.029 A 
HETATM   34  C3  UNL     1     -14.665  36.446  -7.570  1.00  0.00     0.030 A 
HETATM   35  C32 UNL     1     -14.804  37.109  -6.343  1.00  0.00     0.043 A 
BRANCH  34  36
HETATM   36  N1  UNL     1     -15.820  36.116  -8.342  1.00  0.00    -0.390 N 
HETATM   37  C1  UNL     1     -17.067  35.738  -7.702  1.00  0.00     0.149 C 
HETATM   38  C2  UNL     1     -15.780  36.152  -9.788  1.00  0.00     0.149 C 
ENDBRANCH  34  36
ENDBRANCH  29  30
BRANCH  29  39
HETATM   39  C9  UNL     1     -14.674  39.211  -4.167  1.00  0.00     0.008 A 
HETATM   40  C10 UNL     1     -14.442  40.334  -4.954  1.00  0.00     0.016 A 
HETATM   41  C11 UNL     1     -15.260  41.430  -4.959  1.00  0.00     0.018 A 
HETATM   42  C12 UNL     1     -16.373  41.407  -4.130  1.00  0.00     0.090 A 
HETATM   43  N2  UNL     1     -16.612  40.320  -3.357  1.00  0.00    -0.370 N 
HETATM   44  C13 UNL     1     -17.778  40.279  -2.480  1.00  0.00     0.154 C 
HETATM   45  C14 UNL     1     -15.796  39.257  -3.370  1.00  0.00     0.103 A 
ENDBRANCH  29  39
ENDBRANCH   1  29
TORSDOF 7
ENDMDL
MODEL 3
REMARK VINA RESULT: -8.037286429      2.295      2.578
REMARK  7 active torsions:
REMARK  status: ('A' for Active; 'I' for Inactive)
REMARK    1  A    between atoms: N1_2  and  C3_4 
REMARK    2  A    between atoms: C7_8  and  C8_9 
REMARK    3  A    between atoms: C8_9  and  C9_10 
REMARK    4  A    between atoms: C8_9  and  N3_17 
REMARK    5  A    between atoms: C16_20  and  N4_21 
REMARK    6  A    between atoms: N4_21  and  S1_23 
REMARK    7  A    between atoms: S1_23  and  C17_26 
ROOT
HETATM    1  N3  UNL     1     -13.640  37.254  -3.198  1.00  0.00    -0.278 N 
HETATM    2  C15 UNL     1     -14.585  36.207  -2.886  1.00  0.00     0.257 A 
HETATM    3  O1  UNL     1     -15.611  35.898  -3.576  1.00  0.00    -0.270 OA
HETATM    4  C16 UNL     1     -14.228  35.508  -1.646  1.00  0.00     0.221 A 
HETATM    5  C26 UNL     1     -12.914  36.131  -1.299  1.00  0.00     0.002 A 
HETATM    6  C27 UNL     1     -12.024  35.847  -0.279  1.00  0.00     0.012 A 
HETATM    7  C28 UNL     1     -10.861  36.578  -0.146  1.00  0.00     0.001 A 
HETATM    8  C29 UNL     1     -10.559  37.605  -1.022  1.00  0.00     0.002 A 
HETATM    9  C30 UNL     1     -11.446  37.873  -2.021  1.00  0.00     0.031 A 
HETATM   10  C31 UNL     1     -12.626  37.145  -2.172  1.00  0.00     0.051 A 
ENDROOT
BRANCH   4  11
HETATM   11  N4  UNL     1     -15.222  35.811  -0.637  1.00  0.00    -0.297 N 
ATOM     12  H4  UNL     1     -15.245  36.698  -0.133  1.00  0.00     0.173 HD
BRANCH  11  13
HETATM   13  S1  UNL     1     -16.346  34.565  -0.362  1.00  0.00     0.261 S 
HETATM   14  O2  UNL     1     -15.849  33.245  -0.911  1.00  0.00    -0.200 OA
HETATM   15  O3  UNL     1     -16.419  34.361   1.146  1.00  0.00    -0.200 OA
BRANCH  13  16
HETATM   16  C17 UNL     1     -17.952  34.922  -0.895  1.00  0.00     0.102 A 
HETATM   17  C18 UNL     1     -18.355  36.184  -1.279  1.00  0.00     0.040 A 
HETATM   18  C19 UNL     1     -19.638  36.448  -1.690  1.00  0.00    -0.008 A 
HETATM   19  C20 UNL     1     -20.063  37.708  -2.079  1.00  0.00     0.019 A 
HETATM   20  C23 UNL     1     -20.570  35.428  -1.726  1.00  0.00     0.047 A 
HETATM   21  C21 UNL     1     -21.380  37.914  -2.487  1.00  0.00     0.075 A 
HETATM   22  C22 UNL     1     -22.268  36.871  -2.506  1.00  0.00     0.245 A 
HETATM   23  O4  UNL     1     -23.472  36.972  -2.859  1.00  0.00    -0.268 OA
HETATM   24  N5  UNL     1     -21.830  35.662  -2.123  1.00  0.00    -0.323 N 
ATOM     25  H5  UNL     1     -22.487  34.881  -2.136  1.00  0.00     0.169 HD
HETATM   26  C24 UNL     1     -20.202  34.154  -1.349  1.00  0.00     0.056 A 
HETATM   27  C25 UNL     1     -18.888  33.913  -0.935  1.00  0.00     0.059 A 
HETATM   28 CL1  UNL     1     -18.534  32.248  -0.491  1.00  0.00    -0.083 Cl
ENDBRANCH  13  16
ENDBRANCH  11  13
ENDBRANCH   4  11
BRANCH   1  29
HETATM   29  C8  UNL     1     -13.699  38.124  -4.323  1.00  0.00     0.064 C 
BRANCH  29  30
HETATM   30  C7  UNL     1     -13.707  37.434  -5.663  1.00  0.00    -0.006 A 
HETATM   31  C6  UNL     1     -12.463  37.040  -6.189  1.00  0.00     0.014 A 
HETATM   32  C5  UNL     1     -12.316  36.388  -7.382  1.00  0.00     0.003 A 
HETATM   33  C4  UNL     1     -13.430  36.093  -8.124  1.00  0.00     0.029 A 
HETATM   34  C3  UNL     1     -14.658  36.467  -7.630  1.00  0.00     0.030 A 
HETATM   35  C32 UNL     1     -14.789  37.135  -6.404  1.00  0.00     0.043 A 
BRANCH  34  36
HETATM   36  N1  UNL     1     -15.816  36.158  -8.406  1.00  0.00    -0.390 N 
HETATM   37  C1  UNL     1     -15.769  36.166  -9.857  1.00  0.00     0.149 C 
HETATM   38  C2  UNL     1     -17.071  35.827  -7.767  1.00  0.00     0.149 C 
ENDBRANCH  34  36
ENDBRANCH  29  30
BRANCH  29  39
HETATM   39  C9  UNL     1     -14.597  39.263  -4.243  1.00  0.00     0.008 A 
HETATM   40  C10 UNL     1     -14.311  40.362  -5.047  1.00  0.00     0.016 A 
HETATM   41  C11 UNL     1     -15.077  41.495  -5.071  1.00  0.00     0.018 A 
HETATM   42  C12 UNL     1     -16.191  41.537  -4.244  1.00  0.00     0.090 A 
HETATM   43  N2  UNL     1     -16.482  40.474  -3.455  1.00  0.00    -0.370 N 
HETATM   44  C13 UNL     1     -17.650  40.501  -2.581  1.00  0.00     0.154 C 
HETATM   45  C14 UNL     1     -15.717  39.374  -3.450  1.00  0.00     0.103 A 
ENDBRANCH  29  39
ENDBRANCH   1  29
TORSDOF 7
ENDMDL
MODEL 4
REMARK VINA RESULT: -8.001369549      1.350      1.537
REMARK  7 active torsions:
REMARK  status: ('A' for Active; 'I' for Inactive)
REMARK    1  A    between atoms: N1_2  and  C3_4 
REMARK    2  A    between atoms: C7_8  and  C8_9 
REMARK    3  A    between atoms: C8_9  and  C9_10 
REMARK    4  A    between atoms: C8_9  and  N3_17 
REMARK    5  A    between atoms: C16_20  and  N4_21 
REMARK    6  A    between atoms: N4_21  and  S1_23 
REMARK    7  A    between atoms: S1_23  and  C17_26 
ROOT
HETATM    1  N3  UNL     1     -13.690  37.223  -3.095  1.00  0.00    -0.278 N 
HETATM    2  C15 UNL     1     -14.615  36.169  -2.752  1.00  0.00     0.257 A 
HETATM    3  O1  UNL     1     -15.660  35.849  -3.409  1.00  0.00    -0.270 OA
HETATM    4  C16 UNL     1     -14.214  35.476  -1.523  1.00  0.00     0.221 A 
HETATM    5  C26 UNL     1     -12.896  36.112  -1.217  1.00  0.00     0.002 A 
HETATM    6  C27 UNL     1     -11.973  35.838  -0.225  1.00  0.00     0.012 A 
HETATM    7  C28 UNL     1     -10.813  36.579  -0.129  1.00  0.00     0.001 A 
HETATM    8  C29 UNL     1     -10.547  37.607  -1.015  1.00  0.00     0.002 A 
HETATM    9  C30 UNL     1     -11.467  37.864  -1.987  1.00  0.00     0.031 A 
HETATM   10  C31 UNL     1     -12.644  37.126  -2.101  1.00  0.00     0.051 A 
ENDROOT
BRANCH   4  11
HETATM   11  N4  UNL     1     -15.179  35.773  -0.484  1.00  0.00    -0.297 N 
ATOM     12  H4  UNL     1     -15.241  36.684  -0.030  1.00  0.00     0.173 HD
BRANCH  11  13
HETATM   13  S1  UNL     1     -16.202  34.474  -0.083  1.00  0.00     0.261 S 
HETATM   14  O2  UNL     1     -16.041  33.327  -1.058  1.00  0.00    -0.200 OA
HETATM   15  O3  UNL     1     -15.716  33.925   1.253  1.00  0.00    -0.200 OA
BRANCH  13  16
HETATM   16  C17 UNL     1     -17.861  34.911   0.131  1.00  0.00     0.102 A 
HETATM   17  C18 UNL     1     -18.878  34.420  -0.661  1.00  0.00     0.040 A 
HETATM   18  C19 UNL     1     -20.188  34.787  -0.480  1.00  0.00    -0.008 A 
HETATM   19  C20 UNL     1     -21.224  34.308  -1.266  1.00  0.00     0.019 A 
HETATM   20  C23 UNL     1     -20.518  35.677   0.525  1.00  0.00     0.047 A 
HETATM   21  C21 UNL     1     -22.534  34.718  -1.033  1.00  0.00     0.075 A 
HETATM   22  C22 UNL     1     -22.813  35.601  -0.023  1.00  0.00     0.245 A 
HETATM   23  O4  UNL     1     -23.967  36.022   0.253  1.00  0.00    -0.268 OA
HETATM   24  N5  UNL     1     -21.791  36.050   0.722  1.00  0.00    -0.323 N 
ATOM     25  H5  UNL     1     -21.993  36.709   1.475  1.00  0.00     0.169 HD
HETATM   26  C24 UNL     1     -19.527  36.186   1.337  1.00  0.00     0.056 A 
HETATM   27  C25 UNL     1     -18.201  35.795   1.130  1.00  0.00     0.059 A 
HETATM   28 CL1  UNL     1     -17.029  36.501   2.236  1.00  0.00    -0.083 Cl
ENDBRANCH  13  16
ENDBRANCH  11  13
ENDBRANCH   4  11
BRANCH   1  29
HETATM   29  C8  UNL     1     -13.791  38.090  -4.220  1.00  0.00     0.064 C 
BRANCH  29  30
HETATM   30  C7  UNL     1     -13.778  37.400  -5.560  1.00  0.00    -0.006 A 
HETATM   31  C6  UNL     1     -12.523  37.042  -6.084  1.00  0.00     0.014 A 
HETATM   32  C5  UNL     1     -12.355  36.394  -7.277  1.00  0.00     0.003 A 
HETATM   33  C4  UNL     1     -13.459  36.068  -8.020  1.00  0.00     0.029 A 
HETATM   34  C3  UNL     1     -14.698  36.407  -7.528  1.00  0.00     0.030 A 
HETATM   35  C32 UNL     1     -14.849  37.071  -6.302  1.00  0.00     0.043 A 
BRANCH  34  36
HETATM   36  N1  UNL     1     -15.845  36.066  -8.307  1.00  0.00    -0.390 N 
HETATM   37  C1  UNL     1     -15.832  36.185  -9.753  1.00  0.00     0.149 C 
HETATM   38  C2  UNL     1     -17.056  35.589  -7.674  1.00  0.00     0.149 C 
ENDBRANCH  34  36
ENDBRANCH  29  30
BRANCH  29  39
HETATM   39  C9  UNL     1     -14.735  39.191  -4.135  1.00  0.00     0.008 A 
HETATM   40  C10 UNL     1     -14.470  40.323  -4.899  1.00  0.00     0.016 A 
HETATM   41  C11 UNL     1     -15.279  41.426  -4.913  1.00  0.00     0.018 A 
HETATM   42  C12 UNL     1     -16.419  41.400  -4.120  1.00  0.00     0.090 A 
HETATM   43  N2  UNL     1     -16.690  40.303  -3.370  1.00  0.00    -0.370 N 
HETATM   44  C13 UNL     1     -17.883  40.260  -2.532  1.00  0.00     0.154 C 
HETATM   45  C14 UNL     1     -15.882  39.234  -3.374  1.00  0.00     0.103 A 
ENDBRANCH  29  39
ENDBRANCH   1  29
TORSDOF 7
ENDMDL
MODEL 5
REMARK VINA RESULT: -7.842144307      3.603      9.726
REMARK  7 active torsions:
REMARK  status: ('A' for Active; 'I' for Inactive)
REMARK    1  A    between atoms: N1_2  and  C3_4 
REMARK    2  A    between atoms: C7_8  and  C8_9 
REMARK    3  A    between atoms: C8_9  and  C9_10 
REMARK    4  A    between atoms: C8_9  and  N3_17 
REMARK    5  A    between atoms: C16_20  and  N4_21 
REMARK    6  A    between atoms: N4_21  and  S1_23 
REMARK    7  A    between atoms: S1_23  and  C17_26 
ROOT
HETATM    1  N3  UNL     1     -15.329  36.531  -3.067  1.00  0.00    -0.278 N 
HETATM    2  C15 UNL     1     -15.681  35.931  -4.333  1.00  0.00     0.257 A 
HETATM    3  O1  UNL     1     -15.453  34.725  -4.676  1.00  0.00    -0.270 OA
HETATM    4  C16 UNL     1     -16.357  36.888  -5.216  1.00  0.00     0.221 A 
HETATM    5  C26 UNL     1     -16.502  38.086  -4.332  1.00  0.00     0.002 A 
HETATM    6  C27 UNL     1     -17.130  39.298  -4.554  1.00  0.00     0.012 A 
HETATM    7  C28 UNL     1     -17.122  40.275  -3.580  1.00  0.00     0.001 A 
HETATM    8  C29 UNL     1     -16.491  40.069  -2.367  1.00  0.00     0.002 A 
HETATM    9  C30 UNL     1     -15.876  38.869  -2.164  1.00  0.00     0.031 A 
HETATM   10  C31 UNL     1     -15.874  37.869  -3.135  1.00  0.00     0.051 A 
ENDROOT
BRANCH   4  11
HETATM   11  N4  UNL     1     -15.488  37.181  -6.338  1.00  0.00    -0.297 N 
ATOM     12  H4  UNL     1     -14.599  37.670  -6.235  1.00  0.00     0.173 HD
BRANCH  11  13
HETATM   13  S1  UNL     1     -16.076  36.642  -7.840  1.00  0.00     0.261 S 
HETATM   14  O2  UNL     1     -16.786  35.312  -7.707  1.00  0.00    -0.200 OA
HETATM   15  O3  UNL     1     -17.159  37.624  -8.268  1.00  0.00    -0.200 OA
BRANCH  13  16
HETATM   16  C17 UNL     1     -14.895  36.621  -9.103  1.00  0.00     0.102 A 
HETATM   17  C18 UNL     1     -15.188  36.936 -10.413  1.00  0.00     0.040 A 
HETATM   18  C19 UNL     1     -14.238  36.904 -11.403  1.00  0.00    -0.008 A 
HETATM   19  C20 UNL     1     -14.511  37.215 -12.725  1.00  0.00     0.019 A 
HETATM   20  C23 UNL     1     -12.938  36.545 -11.094  1.00  0.00     0.047 A 
HETATM   21  C21 UNL     1     -13.503  37.164 -13.685  1.00  0.00     0.075 A 
HETATM   22  C22 UNL     1     -12.229  36.804 -13.331  1.00  0.00     0.245 A 
HETATM   23  O4  UNL     1     -11.263  36.732 -14.135  1.00  0.00    -0.268 OA
HETATM   24  N5  UNL     1     -11.992  36.506 -12.044  1.00  0.00    -0.323 N 
ATOM     25  H5  UNL     1     -11.045  36.237 -11.775  1.00  0.00     0.169 HD
HETATM   26  C24 UNL     1     -12.610  36.225  -9.795  1.00  0.00     0.056 A 
HETATM   27  C25 UNL     1     -13.598  36.266  -8.806  1.00  0.00     0.059 A 
HETATM   28 CL1  UNL     1     -13.057  35.849  -7.185  1.00  0.00    -0.083 Cl
ENDBRANCH  13  16
ENDBRANCH  11  13
ENDBRANCH   4  11
BRANCH   1  29
HETATM   29  C8  UNL     1     -14.658  35.881  -1.993  1.00  0.00     0.064 C 
BRANCH  29  30
HETATM   30  C7  UNL     1     -13.244  36.343  -1.751  1.00  0.00    -0.006 A 
HETATM   31  C6  UNL     1     -12.619  35.903  -0.571  1.00  0.00     0.014 A 
HETATM   32  C5  UNL     1     -11.334  36.224  -0.228  1.00  0.00     0.003 A 
HETATM   33  C4  UNL     1     -10.597  37.018  -1.067  1.00  0.00     0.029 A 
HETATM   34  C3  UNL     1     -11.187  37.461  -2.228  1.00  0.00     0.030 A 
HETATM   35  C32 UNL     1     -12.505  37.121  -2.563  1.00  0.00     0.043 A 
BRANCH  34  36
HETATM   36  N1  UNL     1     -10.416  38.289  -3.098  1.00  0.00    -0.390 N 
HETATM   37  C1  UNL     1      -9.741  39.474  -2.602  1.00  0.00     0.149 C 
HETATM   38  C2  UNL     1     -10.284  37.969  -4.503  1.00  0.00     0.149 C 
ENDBRANCH  34  36
ENDBRANCH  29  30
BRANCH  29  39
HETATM   39  C9  UNL     1     -15.415  35.645  -0.775  1.00  0.00     0.008 A 
HETATM   40  C10 UNL     1     -15.792  34.334  -0.500  1.00  0.00     0.016 A 
HETATM   41  C11 UNL     1     -16.502  33.975   0.613  1.00  0.00     0.018 A 
HETATM   42  C12 UNL     1     -16.859  34.980   1.502  1.00  0.00     0.090 A 
HETATM   43  N2  UNL     1     -16.500  36.262   1.246  1.00  0.00    -0.370 N 
HETATM   44  C13 UNL     1     -16.866  37.329   2.170  1.00  0.00     0.154 C 
HETATM   45  C14 UNL     1     -15.803  36.589   0.149  1.00  0.00     0.103 A 
ENDBRANCH  29  39
ENDBRANCH   1  29
TORSDOF 7
ENDMDL
