MODEL 1
REMARK VINA RESULT: -7.739349120      0.000      0.000
REMARK  5 active torsions:
REMARK  status: ('A' for Active; 'I' for Inactive)
REMARK    1  A    between atoms: C5_5  and  C6_6 
REMARK    2  A    between atoms: C6_6  and  C7_7 
REMARK    3  A    between atoms: C7_7  and  C8_8 
REMARK    4  A    between atoms: C8_8  and  C9_9 
REMARK    5  A    between atoms: C9_9  and  C10_10 
ROOT
HETATM    1  C1  UNL     1      12.475   2.335  22.484  1.00  0.00     0.012 C 
HETATM    2  C2  UNL     1      12.952   3.569  22.433  1.00  0.00    -0.025 C 
HETATM    3  C3  UNL     1      12.157   4.794  22.742  1.00  0.00     0.029 C 
HETATM    4  C4  UNL     1      10.806   4.767  22.130  1.00  0.00     0.029 C 
HETATM    5  C5  UNL     1       9.796   3.924  22.815  1.00  0.00     0.081 C 
HETATM    6  N1  UNL     1      10.093   2.547  22.941  1.00  0.00    -0.394 N 
ATOM      7  H1  UNL     1       9.272   1.993  23.183  1.00  0.00     0.159 HD
HETATM    8  C13 UNL     1      11.152   1.825  22.823  1.00  0.00     0.083 C 
ENDROOT
BRANCH   5   9
HETATM    9  C6  UNL     1       9.433   4.502  24.170  1.00  0.00     0.025 C 
BRANCH   9  10
HETATM   10  C7  UNL     1       8.013   4.144  24.556  1.00  0.00     0.002 C 
BRANCH  10  11
HETATM   11  C8  UNL     1       7.053   4.366  23.412  1.00  0.00     0.000 C 
BRANCH  11  12
HETATM   12  C9  UNL     1       5.915   5.279  23.737  1.00  0.00     0.004 C 
BRANCH  12  13
HETATM   13  C10 UNL     1       6.244   6.331  24.752  1.00  0.00    -0.014 A 
HETATM   14  C11 UNL     1       6.792   7.641  24.327  1.00  0.00     0.005 A 
HETATM   15  C12 UNL     1       5.348   7.560  24.683  1.00  0.00     0.005 A 
ENDBRANCH  12  13
ENDBRANCH  11  12
ENDBRANCH  10  11
ENDBRANCH   9  10
ENDBRANCH   5   9
TORSDOF 5
ENDMDL
MODEL 2
REMARK VINA RESULT: -7.546152665      1.610      5.716
REMARK  5 active torsions:
REMARK  status: ('A' for Active; 'I' for Inactive)
REMARK    1  A    between atoms: C5_5  and  C6_6 
REMARK    2  A    between atoms: C6_6  and  C7_7 
REMARK    3  A    between atoms: C7_7  and  C8_8 
REMARK    4  A    between atoms: C8_8  and  C9_9 
REMARK    5  A    between atoms: C9_9  and  C10_10 
ROOT
HETATM    1  C1  UNL     1       5.453   6.773  24.026  1.00  0.00     0.012 C 
HETATM    2  C2  UNL     1       6.221   7.735  24.514  1.00  0.00    -0.025 C 
HETATM    3  C3  UNL     1       7.650   7.556  24.905  1.00  0.00     0.029 C 
HETATM    4  C4  UNL     1       7.880   6.309  25.675  1.00  0.00     0.029 C 
HETATM    5  C5  UNL     1       7.926   5.054  24.887  1.00  0.00     0.081 C 
HETATM    6  N1  UNL     1       6.773   4.730  24.134  1.00  0.00    -0.394 N 
ATOM      7  H1  UNL     1       6.769   3.757  23.828  1.00  0.00     0.159 HD
HETATM    8  C13 UNL     1       5.727   5.370  23.742  1.00  0.00     0.083 C 
ENDROOT
BRANCH   5   9
HETATM    9  C6  UNL     1       9.154   5.014  23.997  1.00  0.00     0.025 C 
BRANCH   9  10
HETATM   10  C7  UNL     1       9.060   3.895  22.982  1.00  0.00     0.002 C 
BRANCH  10  11
HETATM   11  C8  UNL     1      10.401   3.242  22.749  1.00  0.00     0.000 C 
BRANCH  11  12
HETATM   12  C9  UNL     1      11.570   4.088  23.140  1.00  0.00     0.004 C 
BRANCH  12  13
HETATM   13  C10 UNL     1      12.230   4.788  21.990  1.00  0.00    -0.014 A 
HETATM   14  C11 UNL     1      11.628   6.013  21.411  1.00  0.00     0.005 A 
HETATM   15  C12 UNL     1      12.784   6.163  22.338  1.00  0.00     0.005 A 
ENDBRANCH  12  13
ENDBRANCH  11  12
ENDBRANCH  10  11
ENDBRANCH   9  10
ENDBRANCH   5   9
TORSDOF 5
ENDMDL
MODEL 3
REMARK VINA RESULT: -7.455471034      1.647      5.563
REMARK  5 active torsions:
REMARK  status: ('A' for Active; 'I' for Inactive)
REMARK    1  A    between atoms: C5_5  and  C6_6 
REMARK    2  A    between atoms: C6_6  and  C7_7 
REMARK    3  A    between atoms: C7_7  and  C8_8 
REMARK    4  A    between atoms: C8_8  and  C9_9 
REMARK    5  A    between atoms: C9_9  and  C10_10 
ROOT
HETATM    1  C1  UNL     1       5.686   6.724  24.121  1.00  0.00     0.012 C 
HETATM    2  C2  UNL     1       6.768   7.357  24.544  1.00  0.00    -0.025 C 
HETATM    3  C3  UNL     1       8.120   6.735  24.656  1.00  0.00     0.029 C 
HETATM    4  C4  UNL     1       8.077   5.382  25.263  1.00  0.00     0.029 C 
HETATM    5  C5  UNL     1       7.631   4.281  24.376  1.00  0.00     0.081 C 
HETATM    6  N1  UNL     1       6.337   4.397  23.816  1.00  0.00    -0.394 N 
ATOM      7  H1  UNL     1       5.998   3.514  23.434  1.00  0.00     0.159 HD
HETATM    8  C13 UNL     1       5.484   5.351  23.674  1.00  0.00     0.083 C 
ENDROOT
BRANCH   5   9
HETATM    9  C6  UNL     1       8.648   4.019  23.281  1.00  0.00     0.025 C 
BRANCH   9  10
HETATM   10  C7  UNL     1      10.042   3.871  23.851  1.00  0.00     0.002 C 
BRANCH  10  11
HETATM   11  C8  UNL     1      10.963   3.159  22.890  1.00  0.00     0.000 C 
BRANCH  11  12
HETATM   12  C9  UNL     1      11.980   4.046  22.246  1.00  0.00     0.004 C 
BRANCH  12  13
HETATM   13  C10 UNL     1      11.753   5.508  22.482  1.00  0.00    -0.014 A 
HETATM   14  C11 UNL     1      12.814   6.494  22.164  1.00  0.00     0.005 A 
HETATM   15  C12 UNL     1      11.683   6.338  21.207  1.00  0.00     0.005 A 
ENDBRANCH  12  13
ENDBRANCH  11  12
ENDBRANCH  10  11
ENDBRANCH   9  10
ENDBRANCH   5   9
TORSDOF 5
ENDMDL
MODEL 4
REMARK VINA RESULT: -7.372542114      0.904      1.361
REMARK  5 active torsions:
REMARK  status: ('A' for Active; 'I' for Inactive)
REMARK    1  A    between atoms: C5_5  and  C6_6 
REMARK    2  A    between atoms: C6_6  and  C7_7 
REMARK    3  A    between atoms: C7_7  and  C8_8 
REMARK    4  A    between atoms: C8_8  and  C9_9 
REMARK    5  A    between atoms: C9_9  and  C10_10 
ROOT
HETATM    1  C1  UNL     1      12.639   2.367  22.373  1.00  0.00     0.012 C 
HETATM    2  C2  UNL     1      13.037   3.629  22.362  1.00  0.00    -0.025 C 
HETATM    3  C3  UNL     1      12.186   4.786  22.768  1.00  0.00     0.029 C 
HETATM    4  C4  UNL     1      10.810   4.702  22.220  1.00  0.00     0.029 C 
HETATM    5  C5  UNL     1       9.888   3.766  22.908  1.00  0.00     0.081 C 
HETATM    6  N1  UNL     1      10.274   2.406  22.951  1.00  0.00    -0.394 N 
ATOM      7  H1  UNL     1       9.501   1.791  23.204  1.00  0.00     0.159 HD
HETATM    8  C13 UNL     1      11.368   1.759  22.748  1.00  0.00     0.083 C 
ENDROOT
BRANCH   5   9
HETATM    9  C6  UNL     1       9.558   4.256  24.306  1.00  0.00     0.025 C 
BRANCH   9  10
HETATM   10  C7  UNL     1       8.589   5.419  24.265  1.00  0.00     0.002 C 
BRANCH  10  11
HETATM   11  C8  UNL     1       8.081   5.767  25.644  1.00  0.00     0.000 C 
BRANCH  11  12
HETATM   12  C9  UNL     1       7.643   7.188  25.793  1.00  0.00     0.004 C 
BRANCH  12  13
HETATM   13  C10 UNL     1       6.757   7.675  24.687  1.00  0.00    -0.014 A 
HETATM   14  C11 UNL     1       5.539   6.918  24.311  1.00  0.00     0.005 A 
HETATM   15  C12 UNL     1       5.383   8.137  25.153  1.00  0.00     0.005 A 
ENDBRANCH  12  13
ENDBRANCH  11  12
ENDBRANCH  10  11
ENDBRANCH   9  10
ENDBRANCH   5   9
TORSDOF 5
ENDMDL
MODEL 5
REMARK VINA RESULT: -7.337500242      1.045      1.361
REMARK  5 active torsions:
REMARK  status: ('A' for Active; 'I' for Inactive)
REMARK    1  A    between atoms: C5_5  and  C6_6 
REMARK    2  A    between atoms: C6_6  and  C7_7 
REMARK    3  A    between atoms: C7_7  and  C8_8 
REMARK    4  A    between atoms: C8_8  and  C9_9 
REMARK    5  A    between atoms: C9_9  and  C10_10 
ROOT
HETATM    1  C1  UNL     1      12.551   2.297  22.443  1.00  0.00     0.012 C 
HETATM    2  C2  UNL     1      13.001   3.541  22.422  1.00  0.00    -0.025 C 
HETATM    3  C3  UNL     1      12.186   4.740  22.778  1.00  0.00     0.029 C 
HETATM    4  C4  UNL     1      10.827   4.702  22.185  1.00  0.00     0.029 C 
HETATM    5  C5  UNL     1       9.844   3.819  22.859  1.00  0.00     0.081 C 
HETATM    6  N1  UNL     1      10.171   2.445  22.940  1.00  0.00    -0.394 N 
ATOM      7  H1  UNL     1       9.365   1.868  23.178  1.00  0.00     0.159 HD
HETATM    8  C13 UNL     1      11.244   1.749  22.786  1.00  0.00     0.083 C 
ENDROOT
BRANCH   5   9
HETATM    9  C6  UNL     1       9.490   4.350  24.236  1.00  0.00     0.025 C 
BRANCH   9  10
HETATM   10  C7  UNL     1       8.023   4.138  24.544  1.00  0.00     0.002 C 
BRANCH  10  11
HETATM   11  C8  UNL     1       7.222   5.400  24.332  1.00  0.00     0.000 C 
BRANCH  11  12
HETATM   12  C9  UNL     1       8.002   6.660  24.528  1.00  0.00     0.004 C 
BRANCH  12  13
HETATM   13  C10 UNL     1       7.207   7.787  25.112  1.00  0.00    -0.014 A 
HETATM   14  C11 UNL     1       6.470   7.606  26.386  1.00  0.00     0.005 A 
HETATM   15  C12 UNL     1       7.771   8.331  26.418  1.00  0.00     0.005 A 
ENDBRANCH  12  13
ENDBRANCH  11  12
ENDBRANCH  10  11
ENDBRANCH   9  10
ENDBRANCH   5   9
TORSDOF 5
ENDMDL
