MODEL 1
REMARK VINA RESULT: -8.280204826      0.000      0.000
REMARK  5 active torsions:
REMARK  status: ('A' for Active; 'I' for Inactive)
REMARK    1  A    between atoms: C4_4  and  C5_5 
REMARK    2  A    between atoms: C5_5  and  C6_6 
REMARK    3  A    between atoms: C6_6  and  C7_7 
REMARK    4  A    between atoms: C7_7  and  C8_8 
REMARK    5  A    between atoms: C8_8  and  C9_9 
ROOT
HETATM    1  C6  UNL     1       7.990   4.031  23.102  1.00  0.00     0.005 C 
ENDROOT
BRANCH   1   2
HETATM    2  C5  UNL     1       9.265   4.654  23.599  1.00  0.00     0.038 C 
BRANCH   2   3
HETATM    3  C4  UNL     1      10.475   3.958  23.144  1.00  0.00    -0.058 A 
HETATM    4  C3  UNL     1      10.477   2.578  23.153  1.00  0.00     0.007 A 
HETATM    5  C2  UNL     1      11.562   1.822  22.747  1.00  0.00     0.001 A 
HETATM    6  C1  UNL     1      12.704   2.458  22.310  1.00  0.00     0.000 A 
HETATM    7  C14 UNL     1      12.705   3.839  22.300  1.00  0.00     0.001 A 
HETATM    8  C13 UNL     1      11.618   4.587  22.707  1.00  0.00     0.007 A 
ENDBRANCH   2   3
ENDBRANCH   1   2
BRANCH   1   9
HETATM    9  C7  UNL     1       6.932   4.253  24.161  1.00  0.00     0.005 C 
BRANCH   9  10
HETATM   10  C8  UNL     1       5.980   5.335  23.724  1.00  0.00     0.040 C 
BRANCH  10  11
HETATM   11  C9  UNL     1       6.101   6.507  24.621  1.00  0.00    -0.034 A 
HETATM   12  C10 UNL     1       7.132   6.758  25.499  1.00  0.00     0.033 A 
HETATM   13  C11 UNL     1       6.805   7.953  26.107  1.00  0.00     0.142 A 
HETATM   14  O1  UNL     1       5.672   8.360  25.617  1.00  0.00    -0.334 OA
HETATM   15  C12 UNL     1       5.197   7.534  24.718  1.00  0.00     0.148 A 
ENDBRANCH  10  11
ENDBRANCH   9  10
ENDBRANCH   1   9
TORSDOF 5
ENDMDL
MODEL 2
REMARK VINA RESULT: -8.278969623      0.979      1.460
REMARK  5 active torsions:
REMARK  status: ('A' for Active; 'I' for Inactive)
REMARK    1  A    between atoms: C4_4  and  C5_5 
REMARK    2  A    between atoms: C5_5  and  C6_6 
REMARK    3  A    between atoms: C6_6  and  C7_7 
REMARK    4  A    between atoms: C7_7  and  C8_8 
REMARK    5  A    between atoms: C8_8  and  C9_9 
ROOT
HETATM    1  C6  UNL     1       8.712   4.224  24.936  1.00  0.00     0.005 C 
ENDROOT
BRANCH   1   2
HETATM    2  C5  UNL     1       9.101   4.566  23.524  1.00  0.00     0.038 C 
BRANCH   2   3
HETATM    3  C4  UNL     1      10.369   3.959  23.101  1.00  0.00    -0.058 A 
HETATM    4  C3  UNL     1      10.479   2.585  23.137  1.00  0.00     0.007 A 
HETATM    5  C2  UNL     1      11.626   1.909  22.763  1.00  0.00     0.001 A 
HETATM    6  C1  UNL     1      12.722   2.624  22.330  1.00  0.00     0.000 A 
HETATM    7  C14 UNL     1      12.615   4.000  22.292  1.00  0.00     0.001 A 
HETATM    8  C13 UNL     1      11.466   4.668  22.668  1.00  0.00     0.007 A 
ENDBRANCH   2   3
ENDBRANCH   1   2
BRANCH   1   9
HETATM    9  C7  UNL     1       8.364   5.519  25.638  1.00  0.00     0.005 C 
BRANCH   9  10
HETATM   10  C8  UNL     1       7.872   6.534  24.640  1.00  0.00     0.040 C 
BRANCH  10  11
HETATM   11  C9  UNL     1       6.760   7.319  25.224  1.00  0.00    -0.034 A 
HETATM   12  C10 UNL     1       5.506   7.487  24.677  1.00  0.00     0.033 A 
HETATM   13  C11 UNL     1       4.828   8.288  25.573  1.00  0.00     0.142 A 
HETATM   14  O1  UNL     1       5.628   8.560  26.561  1.00  0.00    -0.334 OA
HETATM   15  C12 UNL     1       6.806   8.006  26.410  1.00  0.00     0.148 A 
ENDBRANCH  10  11
ENDBRANCH   9  10
ENDBRANCH   1   9
TORSDOF 5
ENDMDL
MODEL 3
REMARK VINA RESULT: -8.278743454      0.978      1.895
REMARK  5 active torsions:
REMARK  status: ('A' for Active; 'I' for Inactive)
REMARK    1  A    between atoms: C4_4  and  C5_5 
REMARK    2  A    between atoms: C5_5  and  C6_6 
REMARK    3  A    between atoms: C6_6  and  C7_7 
REMARK    4  A    between atoms: C7_7  and  C8_8 
REMARK    5  A    between atoms: C8_8  and  C9_9 
ROOT
HETATM    1  C6  UNL     1       8.664   4.209  24.893  1.00  0.00     0.005 C 
ENDROOT
BRANCH   1   2
HETATM    2  C5  UNL     1       9.102   4.538  23.492  1.00  0.00     0.038 C 
BRANCH   2   3
HETATM    3  C4  UNL     1      10.346   3.868  23.094  1.00  0.00    -0.058 A 
HETATM    4  C3  UNL     1      11.406   4.649  22.682  1.00  0.00     0.007 A 
HETATM    5  C2  UNL     1      12.622   4.124  22.285  1.00  0.00     0.001 A 
HETATM    6  C1  UNL     1      12.803   2.757  22.293  1.00  0.00     0.000 A 
HETATM    7  C14 UNL     1      11.744   1.973  22.704  1.00  0.00     0.001 A 
HETATM    8  C13 UNL     1      10.533   2.504  23.099  1.00  0.00     0.007 A 
ENDBRANCH   2   3
ENDBRANCH   1   2
BRANCH   1   9
HETATM    9  C7  UNL     1       8.373   5.517  25.597  1.00  0.00     0.005 C 
BRANCH   9  10
HETATM   10  C8  UNL     1       7.873   6.538  24.609  1.00  0.00     0.040 C 
BRANCH  10  11
HETATM   11  C9  UNL     1       6.769   7.322  25.208  1.00  0.00    -0.034 A 
HETATM   12  C10 UNL     1       5.509   7.493  24.676  1.00  0.00     0.033 A 
HETATM   13  C11 UNL     1       4.842   8.292  25.582  1.00  0.00     0.142 A 
HETATM   14  O1  UNL     1       5.653   8.560  26.562  1.00  0.00    -0.334 OA
HETATM   15  C12 UNL     1       6.829   8.006  26.395  1.00  0.00     0.148 A 
ENDBRANCH  10  11
ENDBRANCH   9  10
ENDBRANCH   1   9
TORSDOF 5
ENDMDL
MODEL 4
REMARK VINA RESULT: -7.954545994      2.702      6.899
REMARK  5 active torsions:
REMARK  status: ('A' for Active; 'I' for Inactive)
REMARK    1  A    between atoms: C4_4  and  C5_5 
REMARK    2  A    between atoms: C5_5  and  C6_6 
REMARK    3  A    between atoms: C6_6  and  C7_7 
REMARK    4  A    between atoms: C7_7  and  C8_8 
REMARK    5  A    between atoms: C8_8  and  C9_9 
ROOT
HETATM    1  C6  UNL     1       7.618   4.567  23.635  1.00  0.00     0.005 C 
ENDROOT
BRANCH   1   2
HETATM    2  C5  UNL     1       8.210   5.551  24.605  1.00  0.00     0.038 C 
BRANCH   2   3
HETATM    3  C4  UNL     1       7.248   6.549  25.090  1.00  0.00    -0.058 A 
HETATM    4  C3  UNL     1       6.070   6.712  24.392  1.00  0.00     0.007 A 
HETATM    5  C2  UNL     1       5.095   7.623  24.758  1.00  0.00     0.001 A 
HETATM    6  C1  UNL     1       5.292   8.413  25.870  1.00  0.00     0.000 A 
HETATM    7  C14 UNL     1       6.471   8.252  26.571  1.00  0.00     0.001 A 
HETATM    8  C13 UNL     1       7.440   7.342  26.199  1.00  0.00     0.007 A 
ENDBRANCH   2   3
ENDBRANCH   1   2
BRANCH   1   9
HETATM    9  C7  UNL     1       8.765   3.898  22.909  1.00  0.00     0.005 C 
BRANCH   9  10
HETATM   10  C8  UNL     1      10.053   4.121  23.658  1.00  0.00     0.040 C 
BRANCH  10  11
HETATM   11  C9  UNL     1      11.169   3.446  22.956  1.00  0.00    -0.034 A 
HETATM   12  C10 UNL     1      12.252   4.061  22.368  1.00  0.00     0.033 A 
HETATM   13  C11 UNL     1      13.012   3.033  21.848  1.00  0.00     0.142 A 
HETATM   14  O1  UNL     1      12.413   1.911  22.117  1.00  0.00    -0.334 OA
HETATM   15  C12 UNL     1      11.299   2.092  22.782  1.00  0.00     0.148 A 
ENDBRANCH  10  11
ENDBRANCH   9  10
ENDBRANCH   1   9
TORSDOF 5
ENDMDL
MODEL 5
REMARK VINA RESULT: -7.953581033      2.660      6.856
REMARK  5 active torsions:
REMARK  status: ('A' for Active; 'I' for Inactive)
REMARK    1  A    between atoms: C4_4  and  C5_5 
REMARK    2  A    between atoms: C5_5  and  C6_6 
REMARK    3  A    between atoms: C6_6  and  C7_7 
REMARK    4  A    between atoms: C7_7  and  C8_8 
REMARK    5  A    between atoms: C8_8  and  C9_9 
ROOT
HETATM    1  C6  UNL     1       7.757   4.267  23.905  1.00  0.00     0.005 C 
ENDROOT
BRANCH   1   2
HETATM    2  C5  UNL     1       8.295   5.412  24.719  1.00  0.00     0.038 C 
BRANCH   2   3
HETATM    3  C4  UNL     1       7.282   6.420  25.055  1.00  0.00    -0.058 A 
HETATM    4  C3  UNL     1       7.497   7.220  26.158  1.00  0.00     0.007 A 
HETATM    5  C2  UNL     1       6.610   8.199  26.566  1.00  0.00     0.001 A 
HETATM    6  C1  UNL     1       5.449   8.400  25.850  1.00  0.00     0.000 A 
HETATM    7  C14 UNL     1       5.230   7.601  24.746  1.00  0.00     0.001 A 
HETATM    8  C13 UNL     1       6.120   6.624  24.345  1.00  0.00     0.007 A 
ENDBRANCH   2   3
ENDBRANCH   1   2
BRANCH   1   9
HETATM    9  C7  UNL     1       8.778   3.952  22.833  1.00  0.00     0.005 C 
BRANCH   9  10
HETATM   10  C8  UNL     1      10.092   4.613  23.158  1.00  0.00     0.040 C 
BRANCH  10  11
HETATM   11  C9  UNL     1      11.212   3.711  22.805  1.00  0.00    -0.034 A 
HETATM   12  C10 UNL     1      12.465   4.096  22.382  1.00  0.00     0.033 A 
HETATM   13  C11 UNL     1      13.153   2.917  22.176  1.00  0.00     0.142 A 
HETATM   14  O1  UNL     1      12.359   1.929  22.459  1.00  0.00    -0.334 OA
HETATM   15  C12 UNL     1      11.175   2.341  22.843  1.00  0.00     0.148 A 
ENDBRANCH  10  11
ENDBRANCH   9  10
ENDBRANCH   1   9
TORSDOF 5
ENDMDL
