MODEL 1
REMARK VINA RESULT: -7.647045297      0.000      0.000
REMARK  6 active torsions:
REMARK  status: ('A' for Active; 'I' for Inactive)
REMARK    1  A    between atoms: C3_3  and  C4_4 
REMARK    2  A    between atoms: C4_4  and  C5_5 
REMARK    3  A    between atoms: C5_5  and  C6_6 
REMARK    4  A    between atoms: C6_6  and  C7_7 
REMARK    5  A    between atoms: C7_7  and  O1_8 
REMARK    6  A    between atoms: O1_8  and  C8_9 
ROOT
HETATM    1  C1  UNL     1      11.185   1.228  22.836  1.00  0.00     0.012 C 
HETATM    2  C2  UNL     1      12.022   2.064  22.540  1.00  0.00    -0.117 C 
HETATM    3  C3  UNL     1      13.013   3.082  22.198  1.00  0.00     0.093 C 
ENDROOT
BRANCH   3   4
HETATM    4  C4  UNL     1      12.501   4.422  22.671  1.00  0.00     0.012 C 
BRANCH   4   5
HETATM    5  C5  UNL     1      11.158   4.790  22.094  1.00  0.00     0.003 C 
BRANCH   5   6
HETATM    6  C6  UNL     1      10.175   4.977  23.216  1.00  0.00     0.027 C 
BRANCH   6   7
HETATM    7  C7  UNL     1       8.947   4.169  22.951  1.00  0.00     0.175 C 
BRANCH   7   8
HETATM    8  O1  UNL     1       8.177   4.138  24.163  1.00  0.00    -0.356 OA
BRANCH   8   9
HETATM    9  C8  UNL     1       7.464   5.246  24.598  1.00  0.00     0.042 C 
HETATM   10  C9  UNL     1       7.982   5.986  25.561  1.00  0.00     0.005 C 
HETATM   11  C10 UNL     1       7.246   7.183  26.054  1.00  0.00     0.029 C 
HETATM   12  C11 UNL     1       6.635   7.839  24.814  1.00  0.00     0.004 C 
HETATM   13  C12 UNL     1       5.686   6.919  24.112  1.00  0.00     0.007 C 
HETATM   14  C13 UNL     1       6.170   5.526  23.955  1.00  0.00     0.064 C 
ENDBRANCH   8   9
ENDBRANCH   7   8
ENDBRANCH   6   7
ENDBRANCH   5   6
ENDBRANCH   4   5
ENDBRANCH   3   4
TORSDOF 6
ENDMDL
MODEL 2
REMARK VINA RESULT: -7.537284390      2.611      4.294
REMARK  6 active torsions:
REMARK  status: ('A' for Active; 'I' for Inactive)
REMARK    1  A    between atoms: C3_3  and  C4_4 
REMARK    2  A    between atoms: C4_4  and  C5_5 
REMARK    3  A    between atoms: C5_5  and  C6_6 
REMARK    4  A    between atoms: C6_6  and  C7_7 
REMARK    5  A    between atoms: C7_7  and  O1_8 
REMARK    6  A    between atoms: O1_8  and  C8_9 
ROOT
HETATM    1  C1  UNL     1      11.213   5.236  22.062  1.00  0.00     0.012 C 
HETATM    2  C2  UNL     1      10.513   4.626  22.852  1.00  0.00    -0.117 C 
HETATM    3  C3  UNL     1       9.656   3.908  23.793  1.00  0.00     0.093 C 
ENDROOT
BRANCH   3   4
HETATM    4  C4  UNL     1       8.333   4.634  23.878  1.00  0.00     0.012 C 
BRANCH   4   5
HETATM    5  C5  UNL     1       8.206   5.511  25.097  1.00  0.00     0.003 C 
BRANCH   5   6
HETATM    6  C6  UNL     1       7.578   6.818  24.699  1.00  0.00     0.027 C 
BRANCH   6   7
HETATM    7  C7  UNL     1       6.091   6.712  24.792  1.00  0.00     0.175 C 
BRANCH   7   8
HETATM    8  O1  UNL     1       5.721   6.981  26.153  1.00  0.00    -0.356 OA
BRANCH   8   9
HETATM    9  C8  UNL     1       5.430   8.266  26.585  1.00  0.00     0.042 C 
HETATM   10  C9  UNL     1       4.406   8.896  26.039  1.00  0.00     0.005 C 
HETATM   11  C10 UNL     1       4.063  10.277  26.477  1.00  0.00     0.029 C 
HETATM   12  C11 UNL     1       4.266  10.297  27.994  1.00  0.00     0.004 C 
HETATM   13  C12 UNL     1       5.682   9.987  28.367  1.00  0.00     0.007 C 
HETATM   14  C13 UNL     1       6.286   8.849  27.632  1.00  0.00     0.064 C 
ENDBRANCH   8   9
ENDBRANCH   7   8
ENDBRANCH   6   7
ENDBRANCH   5   6
ENDBRANCH   4   5
ENDBRANCH   3   4
TORSDOF 6
ENDMDL
MODEL 3
REMARK VINA RESULT: -7.485754276      2.497      3.814
REMARK  6 active torsions:
REMARK  status: ('A' for Active; 'I' for Inactive)
REMARK    1  A    between atoms: C3_3  and  C4_4 
REMARK    2  A    between atoms: C4_4  and  C5_5 
REMARK    3  A    between atoms: C5_5  and  C6_6 
REMARK    4  A    between atoms: C6_6  and  C7_7 
REMARK    5  A    between atoms: C7_7  and  O1_8 
REMARK    6  A    between atoms: O1_8  and  C8_9 
ROOT
HETATM    1  C1  UNL     1      11.074   1.657  22.875  1.00  0.00     0.012 C 
HETATM    2  C2  UNL     1      10.687   2.809  22.967  1.00  0.00    -0.117 C 
HETATM    3  C3  UNL     1      10.214   4.185  23.097  1.00  0.00     0.093 C 
ENDROOT
BRANCH   3   4
HETATM    4  C4  UNL     1       9.315   4.264  24.309  1.00  0.00     0.012 C 
BRANCH   4   5
HETATM    5  C5  UNL     1       7.968   4.875  24.020  1.00  0.00     0.003 C 
BRANCH   5   6
HETATM    6  C6  UNL     1       7.709   5.982  25.004  1.00  0.00     0.027 C 
BRANCH   6   7
HETATM    7  C7  UNL     1       6.438   6.683  24.650  1.00  0.00     0.175 C 
BRANCH   7   8
HETATM    8  O1  UNL     1       5.696   6.876  25.865  1.00  0.00    -0.356 OA
BRANCH   8   9
HETATM    9  C8  UNL     1       5.457   8.143  26.375  1.00  0.00     0.042 C 
HETATM   10  C9  UNL     1       4.434   8.828  25.898  1.00  0.00     0.005 C 
HETATM   11  C10 UNL     1       4.145  10.192  26.422  1.00  0.00     0.029 C 
HETATM   12  C11 UNL     1       4.397  10.123  27.930  1.00  0.00     0.004 C 
HETATM   13  C12 UNL     1       5.814   9.756  28.238  1.00  0.00     0.007 C 
HETATM   14  C13 UNL     1       6.361   8.644  27.422  1.00  0.00     0.064 C 
ENDBRANCH   8   9
ENDBRANCH   7   8
ENDBRANCH   6   7
ENDBRANCH   5   6
ENDBRANCH   4   5
ENDBRANCH   3   4
TORSDOF 6
ENDMDL
MODEL 4
REMARK VINA RESULT: -7.398976713      0.561      1.438
REMARK  6 active torsions:
REMARK  status: ('A' for Active; 'I' for Inactive)
REMARK    1  A    between atoms: C3_3  and  C4_4 
REMARK    2  A    between atoms: C4_4  and  C5_5 
REMARK    3  A    between atoms: C5_5  and  C6_6 
REMARK    4  A    between atoms: C6_6  and  C7_7 
REMARK    5  A    between atoms: C7_7  and  O1_8 
REMARK    6  A    between atoms: O1_8  and  C8_9 
ROOT
HETATM    1  C1  UNL     1      11.217   1.179  22.846  1.00  0.00     0.012 C 
HETATM    2  C2  UNL     1      11.956   2.084  22.498  1.00  0.00    -0.117 C 
HETATM    3  C3  UNL     1      12.831   3.183  22.096  1.00  0.00     0.093 C 
ENDROOT
BRANCH   3   4
HETATM    4  C4  UNL     1      12.317   4.454  22.730  1.00  0.00     0.012 C 
BRANCH   4   5
HETATM    5  C5  UNL     1      10.871   4.741  22.416  1.00  0.00     0.003 C 
BRANCH   5   6
HETATM    6  C6  UNL     1      10.047   4.533  23.656  1.00  0.00     0.027 C 
BRANCH   6   7
HETATM    7  C7  UNL     1       8.646   4.179  23.278  1.00  0.00     0.175 C 
BRANCH   7   8
HETATM    8  O1  UNL     1       7.810   4.440  24.416  1.00  0.00    -0.356 OA
BRANCH   8   9
HETATM    9  C8  UNL     1       7.223   5.680  24.615  1.00  0.00     0.042 C 
HETATM   10  C9  UNL     1       6.071   5.931  24.021  1.00  0.00     0.005 C 
HETATM   11  C10 UNL     1       5.409   7.252  24.212  1.00  0.00     0.029 C 
HETATM   12  C11 UNL     1       5.619   7.616  25.684  1.00  0.00     0.004 C 
HETATM   13  C12 UNL     1       7.072   7.727  26.025  1.00  0.00     0.007 C 
HETATM   14  C13 UNL     1       7.924   6.641  25.482  1.00  0.00     0.064 C 
ENDBRANCH   8   9
ENDBRANCH   7   8
ENDBRANCH   6   7
ENDBRANCH   5   6
ENDBRANCH   4   5
ENDBRANCH   3   4
TORSDOF 6
ENDMDL
MODEL 5
REMARK VINA RESULT: -7.373576089      1.134      6.554
REMARK  6 active torsions:
REMARK  status: ('A' for Active; 'I' for Inactive)
REMARK    1  A    between atoms: C3_3  and  C4_4 
REMARK    2  A    between atoms: C4_4  and  C5_5 
REMARK    3  A    between atoms: C5_5  and  C6_6 
REMARK    4  A    between atoms: C6_6  and  C7_7 
REMARK    5  A    between atoms: C7_7  and  O1_8 
REMARK    6  A    between atoms: O1_8  and  C8_9 
ROOT
HETATM    1  C1  UNL     1       4.483   8.745  26.089  1.00  0.00     0.012 C 
HETATM    2  C2  UNL     1       5.080   8.049  25.286  1.00  0.00    -0.117 C 
HETATM    3  C3  UNL     1       5.815   7.217  24.337  1.00  0.00     0.093 C 
ENDROOT
BRANCH   3   4
HETATM    4  C4  UNL     1       7.288   7.317  24.659  1.00  0.00     0.012 C 
BRANCH   4   5
HETATM    5  C5  UNL     1       7.921   5.992  24.997  1.00  0.00     0.003 C 
BRANCH   5   6
HETATM    6  C6  UNL     1       7.125   4.889  24.356  1.00  0.00     0.027 C 
BRANCH   6   7
HETATM    7  C7  UNL     1       7.953   4.208  23.316  1.00  0.00     0.175 C 
BRANCH   7   8
HETATM    8  O1  UNL     1       9.202   3.846  23.924  1.00  0.00    -0.356 OA
BRANCH   8   9
HETATM    9  C8  UNL     1      10.328   3.572  23.162  1.00  0.00     0.042 C 
HETATM   10  C9  UNL     1      11.005   4.585  22.656  1.00  0.00     0.005 C 
HETATM   11  C10 UNL     1      12.220   4.330  21.832  1.00  0.00     0.029 C 
HETATM   12  C11 UNL     1      12.951   3.172  22.514  1.00  0.00     0.004 C 
HETATM   13  C12 UNL     1      12.108   1.937  22.564  1.00  0.00     0.007 C 
HETATM   14  C13 UNL     1      10.698   2.161  22.968  1.00  0.00     0.064 C 
ENDBRANCH   8   9
ENDBRANCH   7   8
ENDBRANCH   6   7
ENDBRANCH   5   6
ENDBRANCH   4   5
ENDBRANCH   3   4
TORSDOF 6
ENDMDL
