MODEL 1
REMARK VINA RESULT: -8.034310332      0.000      0.000
REMARK  11 active torsions:
REMARK  status: ('A' for Active; 'I' for Inactive)
REMARK    1  A    between atoms: S1_2  and  C2_5 
REMARK    2  A    between atoms: C2_5  and  N1_6 
REMARK    3  A    between atoms: C2_5  and  C3_10 
REMARK    4  A    between atoms: C3_10  and  N2_11 
REMARK    5  A    between atoms: C3_10  and  C4_15 
REMARK    6  A    between atoms: C4_15  and  O3_16 
REMARK    7  A    between atoms: C4_15  and  C5_18 
REMARK    8  A    between atoms: C5_18  and  C6_19 
REMARK    9  A    between atoms: N3_20  and  O4_22 
REMARK   10  A    between atoms: N4_24  and  N5_26 
REMARK       I    between atoms: N5_26  and  C7_28 
REMARK   11  A    between atoms: C7_28  and  C8_30 
ROOT
HETATM    1  C8  UNL     1      -7.179  15.085 -17.012  1.00  0.00     0.054 A 
HETATM    2  C9  UNL     1      -6.309  14.115 -16.495  1.00  0.00     0.018 A 
HETATM    3  C10 UNL     1      -6.439  12.779 -16.792  1.00  0.00     0.001 A 
HETATM    4  C11 UNL     1      -7.448  12.352 -17.620  1.00  0.00     0.002 A 
HETATM    5  C12 UNL     1      -8.304  13.301 -18.129  1.00  0.00     0.024 A 
HETATM    6  C13 UNL     1      -8.176  14.665 -17.830  1.00  0.00     0.060 A 
HETATM    7  C14 UNL     1      -9.111  15.556 -18.494  1.00  0.00     0.100 C 
HETATM    8  N6  UNL     1      -9.840  16.258 -19.047  1.00  0.00    -0.191 NA
ENDROOT
BRANCH   1   9
HETATM    9  C7  UNL     1      -7.005  16.426 -16.594  1.00  0.00     0.271 C 
HETATM   10  N5  UNL     1      -7.693  17.053 -15.552  1.00  0.00    -0.266 N 
ATOM     11  H5  UNL     1      -8.384  16.524 -15.020  1.00  0.00     0.190 HD
HETATM   12  O5  UNL     1      -6.134  17.126 -17.225  1.00  0.00    -0.266 OA
BRANCH  10  13
HETATM   13  N4  UNL     1      -7.456  18.383 -15.226  1.00  0.00    -0.298 N 
HETATM   14  C5  UNL     1      -8.354  19.265 -15.278  1.00  0.00     0.074 C 
ATOM     15  H4  UNL     1      -6.517  18.656 -14.932  1.00  0.00     0.187 HD
BRANCH  14  16
HETATM   16  C4  UNL     1      -9.728  18.972 -15.686  1.00  0.00     0.204 C 
BRANCH  16  17
HETATM   17  C3  UNL     1     -10.755  19.942 -15.139  1.00  0.00     0.263 C 
BRANCH  17  18
HETATM   18  C2  UNL     1     -12.028  19.259 -14.745  1.00  0.00     0.337 C 
BRANCH  18  19
HETATM   19  S1  UNL     1     -11.761  18.377 -13.232  1.00  0.00     0.172 S 
HETATM   20  C1  UNL     1     -11.434  16.659 -13.519  1.00  0.00     0.163 C 
HETATM   21  O1  UNL     1     -10.609  19.022 -12.519  1.00  0.00    -0.226 OA
HETATM   22  O2  UNL     1     -13.021  18.474 -12.423  1.00  0.00    -0.226 OA
ENDBRANCH  18  19
BRANCH  18  23
HETATM   23  N1  UNL     1     -12.526  18.358 -15.760  1.00  0.00    -0.059 N 
ATOM     24  H13 UNL     1     -12.655  17.412 -15.402  1.00  0.00     0.275 HD
ATOM     25  H12 UNL     1     -13.496  18.558 -16.006  1.00  0.00     0.275 HD
ATOM     26  H11 UNL     1     -11.913  18.378 -16.575  1.00  0.00     0.275 HD
ENDBRANCH  18  23
ENDBRANCH  17  18
BRANCH  17  27
HETATM   27  N2  UNL     1     -11.076  20.959 -16.121  1.00  0.00    -0.069 N 
ATOM     28  H23 UNL     1     -11.904  20.730 -16.670  1.00  0.00     0.275 HD
ATOM     29  H22 UNL     1     -11.426  21.819 -15.697  1.00  0.00     0.275 HD
ATOM     30  H21 UNL     1     -10.250  21.114 -16.700  1.00  0.00     0.275 HD
ENDBRANCH  17  27
ENDBRANCH  16  17
BRANCH  16  31
HETATM   31  O3  UNL     1      -9.932  18.871 -17.054  1.00  0.00    -0.387 OA
ATOM     32  H3  UNL     1     -10.020  17.949 -17.266  1.00  0.00     0.210 HD
ENDBRANCH  16  31
ENDBRANCH  14  16
BRANCH  14  33
HETATM   33  C6  UNL     1      -7.959  20.621 -14.928  1.00  0.00     0.142 C 
HETATM   34  N3  UNL     1      -7.497  21.487 -15.758  1.00  0.00    -0.278 N 
ATOM     35  H3  UNL     1      -7.392  21.224 -16.738  1.00  0.00     0.193 HD
BRANCH  34  36
HETATM   36  O4  UNL     1      -7.141  22.749 -15.372  1.00  0.00    -0.290 OA
ATOM     37  H4  UNL     1      -7.354  23.094 -14.513  1.00  0.00     0.244 HD
ENDBRANCH  34  36
ENDBRANCH  14  33
ENDBRANCH  10  13
ENDBRANCH   1   9
TORSDOF 11
ENDMDL
MODEL 2
REMARK VINA RESULT: -8.007290245      1.418      1.592
REMARK  11 active torsions:
REMARK  status: ('A' for Active; 'I' for Inactive)
REMARK    1  A    between atoms: S1_2  and  C2_5 
REMARK    2  A    between atoms: C2_5  and  N1_6 
REMARK    3  A    between atoms: C2_5  and  C3_10 
REMARK    4  A    between atoms: C3_10  and  N2_11 
REMARK    5  A    between atoms: C3_10  and  C4_15 
REMARK    6  A    between atoms: C4_15  and  O3_16 
REMARK    7  A    between atoms: C4_15  and  C5_18 
REMARK    8  A    between atoms: C5_18  and  C6_19 
REMARK    9  A    between atoms: N3_20  and  O4_22 
REMARK   10  A    between atoms: N4_24  and  N5_26 
REMARK       I    between atoms: N5_26  and  C7_28 
REMARK   11  A    between atoms: C7_28  and  C8_30 
ROOT
HETATM    1  C8  UNL     1      -7.168  15.240 -16.969  1.00  0.00     0.054 A 
HETATM    2  C9  UNL     1      -6.320  14.248 -16.457  1.00  0.00     0.018 A 
HETATM    3  C10 UNL     1      -6.499  12.913 -16.733  1.00  0.00     0.001 A 
HETATM    4  C11 UNL     1      -7.539  12.509 -17.533  1.00  0.00     0.002 A 
HETATM    5  C12 UNL     1      -8.375  13.479 -18.037  1.00  0.00     0.024 A 
HETATM    6  C13 UNL     1      -8.195  14.842 -17.761  1.00  0.00     0.060 A 
HETATM    7  C14 UNL     1      -9.115  15.754 -18.416  1.00  0.00     0.100 C 
HETATM    8  N6  UNL     1      -9.833  16.472 -18.964  1.00  0.00    -0.191 NA
ENDROOT
BRANCH   1   9
HETATM    9  C7  UNL     1      -6.942  16.579 -16.574  1.00  0.00     0.271 C 
HETATM   10  N5  UNL     1      -7.637  17.266 -15.574  1.00  0.00    -0.266 N 
ATOM     11  H5  UNL     1      -8.375  16.785 -15.059  1.00  0.00     0.190 HD
HETATM   12  O5  UNL     1      -6.012  17.219 -17.184  1.00  0.00    -0.266 OA
BRANCH  10  13
HETATM   13  N4  UNL     1      -7.345  18.589 -15.267  1.00  0.00    -0.298 N 
HETATM   14  C5  UNL     1      -8.225  19.489 -15.242  1.00  0.00     0.074 C 
ATOM     15  H4  UNL     1      -6.379  18.841 -15.054  1.00  0.00     0.187 HD
BRANCH  14  16
HETATM   16  C4  UNL     1      -9.634  19.228 -15.532  1.00  0.00     0.204 C 
BRANCH  16  17
HETATM   17  C3  UNL     1     -10.449  18.818 -14.323  1.00  0.00     0.263 C 
BRANCH  17  18
HETATM   18  C2  UNL     1     -11.160  17.516 -14.532  1.00  0.00     0.337 C 
BRANCH  18  19
HETATM   19  S1  UNL     1     -10.293  16.242 -13.658  1.00  0.00     0.172 S 
HETATM   20  C1  UNL     1     -11.293  15.518 -12.386  1.00  0.00     0.163 C 
HETATM   21  O1  UNL     1      -9.871  15.204 -14.655  1.00  0.00    -0.226 OA
HETATM   22  O2  UNL     1      -9.103  16.875 -12.999  1.00  0.00    -0.226 OA
ENDBRANCH  18  19
BRANCH  18  23
HETATM   23  N1  UNL     1     -11.290  17.158 -15.926  1.00  0.00    -0.059 N 
ATOM     24  H13 UNL     1     -11.302  16.147 -16.062  1.00  0.00     0.275 HD
ATOM     25  H12 UNL     1     -12.219  17.368 -16.290  1.00  0.00     0.275 HD
ATOM     26  H11 UNL     1     -10.555  17.608 -16.472  1.00  0.00     0.275 HD
ENDBRANCH  18  23
ENDBRANCH  17  18
BRANCH  17  27
HETATM   27  N2  UNL     1     -11.441  19.826 -14.005  1.00  0.00    -0.069 N 
ATOM     28  H23 UNL     1     -11.597  20.481 -14.772  1.00  0.00     0.275 HD
ATOM     29  H22 UNL     1     -12.386  19.446 -13.955  1.00  0.00     0.275 HD
ATOM     30  H21 UNL     1     -11.156  20.290 -13.143  1.00  0.00     0.275 HD
ENDBRANCH  17  27
ENDBRANCH  16  17
BRANCH  16  31
HETATM   31  O3  UNL     1     -10.311  20.259 -16.166  1.00  0.00    -0.387 OA
ATOM     32  H3  UNL     1     -10.409  20.021 -17.080  1.00  0.00     0.210 HD
ENDBRANCH  16  31
ENDBRANCH  14  16
BRANCH  14  33
HETATM   33  C6  UNL     1      -7.773  20.836 -14.925  1.00  0.00     0.142 C 
HETATM   34  N3  UNL     1      -7.538  21.754 -15.794  1.00  0.00    -0.278 N 
ATOM     35  H3  UNL     1      -7.673  21.543 -16.783  1.00  0.00     0.193 HD
BRANCH  34  36
HETATM   36  O4  UNL     1      -7.114  23.003 -15.438  1.00  0.00    -0.290 OA
ATOM     37  H4  UNL     1      -7.721  23.702 -15.224  1.00  0.00     0.244 HD
ENDBRANCH  34  36
ENDBRANCH  14  33
ENDBRANCH  10  13
ENDBRANCH   1   9
TORSDOF 11
ENDMDL
MODEL 3
REMARK VINA RESULT: -7.910636445      1.592      1.792
REMARK  11 active torsions:
REMARK  status: ('A' for Active; 'I' for Inactive)
REMARK    1  A    between atoms: S1_2  and  C2_5 
REMARK    2  A    between atoms: C2_5  and  N1_6 
REMARK    3  A    between atoms: C2_5  and  C3_10 
REMARK    4  A    between atoms: C3_10  and  N2_11 
REMARK    5  A    between atoms: C3_10  and  C4_15 
REMARK    6  A    between atoms: C4_15  and  O3_16 
REMARK    7  A    between atoms: C4_15  and  C5_18 
REMARK    8  A    between atoms: C5_18  and  C6_19 
REMARK    9  A    between atoms: N3_20  and  O4_22 
REMARK   10  A    between atoms: N4_24  and  N5_26 
REMARK       I    between atoms: N5_26  and  C7_28 
REMARK   11  A    between atoms: C7_28  and  C8_30 
ROOT
HETATM    1  C8  UNL     1      -7.129  15.153 -17.077  1.00  0.00     0.054 A 
HETATM    2  C9  UNL     1      -6.322  14.134 -16.552  1.00  0.00     0.018 A 
HETATM    3  C10 UNL     1      -6.584  12.802 -16.770  1.00  0.00     0.001 A 
HETATM    4  C11 UNL     1      -7.670  12.429 -17.524  1.00  0.00     0.002 A 
HETATM    5  C12 UNL     1      -8.465  13.425 -18.040  1.00  0.00     0.024 A 
HETATM    6  C13 UNL     1      -8.201  14.785 -17.822  1.00  0.00     0.060 A 
HETATM    7  C14 UNL     1      -9.088  15.723 -18.486  1.00  0.00     0.100 C 
HETATM    8  N6  UNL     1      -9.781  16.460 -19.040  1.00  0.00    -0.191 NA
ENDROOT
BRANCH   1   9
HETATM    9  C7  UNL     1      -6.815  16.491 -16.741  1.00  0.00     0.271 C 
HETATM   10  N5  UNL     1      -7.470  17.267 -15.780  1.00  0.00    -0.266 N 
ATOM     11  H5  UNL     1      -8.241  16.861 -15.251  1.00  0.00     0.190 HD
HETATM   12  O5  UNL     1      -5.841  17.039 -17.370  1.00  0.00    -0.266 OA
BRANCH  10  13
HETATM   13  N4  UNL     1      -7.091  18.581 -15.531  1.00  0.00    -0.298 N 
HETATM   14  C5  UNL     1      -7.927  19.498 -15.316  1.00  0.00     0.074 C 
ATOM     15  H4  UNL     1      -6.097  18.811 -15.521  1.00  0.00     0.187 HD
BRANCH  14  16
HETATM   16  C4  UNL     1      -9.372  19.268 -15.309  1.00  0.00     0.204 C 
BRANCH  16  17
HETATM   17  C3  UNL     1     -10.045  19.609 -13.996  1.00  0.00     0.263 C 
BRANCH  17  18
HETATM   18  C2  UNL     1     -10.259  18.401 -13.137  1.00  0.00     0.337 C 
BRANCH  18  19
HETATM   19  S1  UNL     1      -8.866  18.210 -12.060  1.00  0.00     0.172 S 
HETATM   20  C1  UNL     1      -9.325  17.477 -10.513  1.00  0.00     0.163 C 
HETATM   21  O1  UNL     1      -7.850  17.361 -12.766  1.00  0.00    -0.226 OA
HETATM   22  O2  UNL     1      -8.323  19.579 -11.774  1.00  0.00    -0.226 OA
ENDBRANCH  18  19
BRANCH  18  23
HETATM   23  N1  UNL     1     -10.464  17.191 -13.901  1.00  0.00    -0.059 N 
ATOM     24  H13 UNL     1      -9.781  16.471 -13.666  1.00  0.00     0.275 HD
ATOM     25  H12 UNL     1     -11.307  16.695 -13.613  1.00  0.00     0.275 HD
ATOM     26  H11 UNL     1     -10.467  17.404 -14.898  1.00  0.00     0.275 HD
ENDBRANCH  18  23
ENDBRANCH  17  18
BRANCH  17  27
HETATM   27  N2  UNL     1     -11.334  20.232 -14.227  1.00  0.00    -0.069 N 
ATOM     28  H23 UNL     1     -11.926  20.232 -13.396  1.00  0.00     0.275 HD
ATOM     29  H22 UNL     1     -11.267  21.242 -14.349  1.00  0.00     0.275 HD
ATOM     30  H21 UNL     1     -11.773  19.767 -15.022  1.00  0.00     0.275 HD
ENDBRANCH  17  27
ENDBRANCH  16  17
BRANCH  16  31
HETATM   31  O3  UNL     1     -10.078  19.900 -16.321  1.00  0.00    -0.387 OA
ATOM     32  H3  UNL     1     -10.427  19.226 -16.894  1.00  0.00     0.210 HD
ENDBRANCH  16  31
ENDBRANCH  14  16
BRANCH  14  33
HETATM   33  C6  UNL     1      -7.390  20.832 -15.091  1.00  0.00     0.142 C 
HETATM   34  N3  UNL     1      -7.694  21.872 -15.782  1.00  0.00    -0.278 N 
ATOM     35  H3  UNL     1      -8.359  21.776 -16.550  1.00  0.00     0.193 HD
BRANCH  34  36
HETATM   36  O4  UNL     1      -7.157  23.101 -15.525  1.00  0.00    -0.290 OA
ATOM     37  H4  UNL     1      -7.668  23.900 -15.583  1.00  0.00     0.244 HD
ENDBRANCH  34  36
ENDBRANCH  14  33
ENDBRANCH  10  13
ENDBRANCH   1   9
TORSDOF 11
ENDMDL
MODEL 4
REMARK VINA RESULT: -7.852079509      3.320      4.748
REMARK  11 active torsions:
REMARK  status: ('A' for Active; 'I' for Inactive)
REMARK    1  A    between atoms: S1_2  and  C2_5 
REMARK    2  A    between atoms: C2_5  and  N1_6 
REMARK    3  A    between atoms: C2_5  and  C3_10 
REMARK    4  A    between atoms: C3_10  and  N2_11 
REMARK    5  A    between atoms: C3_10  and  C4_15 
REMARK    6  A    between atoms: C4_15  and  O3_16 
REMARK    7  A    between atoms: C4_15  and  C5_18 
REMARK    8  A    between atoms: C5_18  and  C6_19 
REMARK    9  A    between atoms: N3_20  and  O4_22 
REMARK   10  A    between atoms: N4_24  and  N5_26 
REMARK       I    between atoms: N5_26  and  C7_28 
REMARK   11  A    between atoms: C7_28  and  C8_30 
ROOT
HETATM    1  C8  UNL     1      -9.610  10.563 -17.510  1.00  0.00     0.054 A 
HETATM    2  C9  UNL     1      -9.245   9.341 -18.091  1.00  0.00     0.018 A 
HETATM    3  C10 UNL     1     -10.004   8.203 -17.950  1.00  0.00     0.001 A 
HETATM    4  C11 UNL     1     -11.166   8.238 -17.219  1.00  0.00     0.002 A 
HETATM    5  C12 UNL     1     -11.528   9.435 -16.647  1.00  0.00     0.024 A 
HETATM    6  C13 UNL     1     -10.758  10.598 -16.788  1.00  0.00     0.060 A 
HETATM    7  C14 UNL     1     -11.301  11.802 -16.184  1.00  0.00     0.100 C 
HETATM    8  N6  UNL     1     -11.754  12.758 -15.725  1.00  0.00    -0.191 NA
ENDROOT
BRANCH   1   9
HETATM    9  C7  UNL     1      -8.729  11.660 -17.655  1.00  0.00     0.271 C 
HETATM   10  N5  UNL     1      -8.683  12.787 -16.830  1.00  0.00    -0.266 N 
ATOM     11  H5  UNL     1      -9.325  12.854 -16.039  1.00  0.00     0.190 HD
HETATM   12  O5  UNL     1      -7.893  11.613 -18.627  1.00  0.00    -0.266 OA
BRANCH  10  13
HETATM   13  N4  UNL     1      -7.783  13.820 -17.064  1.00  0.00    -0.298 N 
HETATM   14  C5  UNL     1      -8.147  15.018 -17.203  1.00  0.00     0.074 C 
ATOM     15  H4  UNL     1      -6.789  13.599 -17.125  1.00  0.00     0.187 HD
BRANCH  14  16
HETATM   16  C4  UNL     1      -9.548  15.434 -17.131  1.00  0.00     0.204 C 
BRANCH  16  17
HETATM   17  C3  UNL     1      -9.771  16.904 -17.417  1.00  0.00     0.263 C 
BRANCH  17  18
HETATM   18  C2  UNL     1     -10.566  17.578 -16.341  1.00  0.00     0.337 C 
BRANCH  18  19
HETATM   19  S1  UNL     1      -9.450  18.331 -15.190  1.00  0.00     0.172 S 
HETATM   20  C1  UNL     1     -10.258  19.554 -14.194  1.00  0.00     0.163 C 
HETATM   21  O1  UNL     1      -8.872  17.246 -14.331  1.00  0.00    -0.226 OA
HETATM   22  O2  UNL     1      -8.380  19.022 -15.983  1.00  0.00    -0.226 OA
ENDBRANCH  18  19
BRANCH  18  23
HETATM   23  N1  UNL     1     -11.458  16.677 -15.647  1.00  0.00    -0.059 N 
ATOM     24  H13 UNL     1     -10.964  16.096 -14.969  1.00  0.00     0.275 HD
ATOM     25  H12 UNL     1     -12.073  17.171 -15.000  1.00  0.00     0.275 HD
ATOM     26  H11 UNL     1     -11.981  16.117 -16.320  1.00  0.00     0.275 HD
ENDBRANCH  18  23
ENDBRANCH  17  18
BRANCH  17  27
HETATM   27  N2  UNL     1     -10.473  17.083 -18.674  1.00  0.00    -0.069 N 
ATOM     28  H23 UNL     1     -10.996  16.254 -18.954  1.00  0.00     0.275 HD
ATOM     29  H22 UNL     1     -11.262  17.725 -18.596  1.00  0.00     0.275 HD
ATOM     30  H21 UNL     1      -9.794  17.377 -19.377  1.00  0.00     0.275 HD
ENDBRANCH  17  27
ENDBRANCH  16  17
BRANCH  16  31
HETATM   31  O3  UNL     1     -10.423  14.713 -17.929  1.00  0.00    -0.387 OA
ATOM     32  H3  UNL     1     -11.303  14.875 -17.612  1.00  0.00     0.210 HD
ENDBRANCH  16  31
ENDBRANCH  14  16
BRANCH  14  33
HETATM   33  C6  UNL     1      -7.099  15.993 -17.465  1.00  0.00     0.142 C 
HETATM   34  N3  UNL     1      -6.605  16.791 -16.587  1.00  0.00    -0.278 N 
ATOM     35  H3  UNL     1      -6.959  16.754 -15.632  1.00  0.00     0.193 HD
BRANCH  34  36
HETATM   36  O4  UNL     1      -5.620  17.689 -16.891  1.00  0.00    -0.290 OA
ATOM     37  H4  UNL     1      -4.698  17.482 -16.794  1.00  0.00     0.244 HD
ENDBRANCH  34  36
ENDBRANCH  14  33
ENDBRANCH  10  13
ENDBRANCH   1   9
TORSDOF 11
ENDMDL
MODEL 5
REMARK VINA RESULT: -7.765518558      1.568      2.434
REMARK  11 active torsions:
REMARK  status: ('A' for Active; 'I' for Inactive)
REMARK    1  A    between atoms: S1_2  and  C2_5 
REMARK    2  A    between atoms: C2_5  and  N1_6 
REMARK    3  A    between atoms: C2_5  and  C3_10 
REMARK    4  A    between atoms: C3_10  and  N2_11 
REMARK    5  A    between atoms: C3_10  and  C4_15 
REMARK    6  A    between atoms: C4_15  and  O3_16 
REMARK    7  A    between atoms: C4_15  and  C5_18 
REMARK    8  A    between atoms: C5_18  and  C6_19 
REMARK    9  A    between atoms: N3_20  and  O4_22 
REMARK   10  A    between atoms: N4_24  and  N5_26 
REMARK       I    between atoms: N5_26  and  C7_28 
REMARK   11  A    between atoms: C7_28  and  C8_30 
ROOT
HETATM    1  C8  UNL     1      -7.152  15.233 -16.863  1.00  0.00     0.054 A 
HETATM    2  C9  UNL     1      -8.221  14.925 -17.715  1.00  0.00     0.018 A 
HETATM    3  C10 UNL     1      -8.456  13.648 -18.168  1.00  0.00     0.001 A 
HETATM    4  C11 UNL     1      -7.628  12.620 -17.787  1.00  0.00     0.002 A 
HETATM    5  C12 UNL     1      -6.578  12.918 -16.951  1.00  0.00     0.024 A 
HETATM    6  C13 UNL     1      -6.334  14.219 -16.486  1.00  0.00     0.060 A 
HETATM    7  C14 UNL     1      -5.229  14.369 -15.556  1.00  0.00     0.100 C 
HETATM    8  N6  UNL     1      -4.367  14.473 -14.797  1.00  0.00    -0.191 NA
ENDROOT
BRANCH   1   9
HETATM    9  C7  UNL     1      -6.953  16.588 -16.506  1.00  0.00     0.271 C 
HETATM   10  N5  UNL     1      -7.619  17.271 -15.484  1.00  0.00    -0.266 N 
ATOM     11  H5  UNL     1      -8.310  16.775 -14.921  1.00  0.00     0.190 HD
HETATM   12  O5  UNL     1      -6.082  17.248 -17.177  1.00  0.00    -0.266 OA
BRANCH  10  13
HETATM   13  N4  UNL     1      -7.359  18.610 -15.219  1.00  0.00    -0.298 N 
HETATM   14  C5  UNL     1      -8.264  19.485 -15.201  1.00  0.00     0.074 C 
ATOM     15  H4  UNL     1      -6.398  18.894 -15.031  1.00  0.00     0.187 HD
BRANCH  14  16
HETATM   16  C4  UNL     1      -9.671  19.176 -15.457  1.00  0.00     0.204 C 
BRANCH  16  17
HETATM   17  C3  UNL     1     -10.516  19.060 -14.205  1.00  0.00     0.263 C 
BRANCH  17  18
HETATM   18  C2  UNL     1     -11.350  17.816 -14.196  1.00  0.00     0.337 C 
BRANCH  18  19
HETATM   19  S1  UNL     1     -10.392  16.488 -13.517  1.00  0.00     0.172 S 
HETATM   20  C1  UNL     1     -11.291  15.594 -12.279  1.00  0.00     0.163 C 
HETATM   21  O1  UNL     1      -9.999  15.580 -14.645  1.00  0.00    -0.226 OA
HETATM   22  O2  UNL     1      -9.185  17.090 -12.861  1.00  0.00    -0.226 OA
ENDBRANCH  18  19
BRANCH  18  23
HETATM   23  N1  UNL     1     -11.841  17.452 -15.506  1.00  0.00    -0.059 N 
ATOM     24  H13 UNL     1     -11.551  18.119 -16.222  1.00  0.00     0.275 HD
ATOM     25  H12 UNL     1     -11.370  16.625 -15.875  1.00  0.00     0.275 HD
ATOM     26  H11 UNL     1     -12.853  17.336 -15.479  1.00  0.00     0.275 HD
ENDBRANCH  18  23
ENDBRANCH  17  18
BRANCH  17  27
HETATM   27  N2  UNL     1     -11.405  20.198 -14.077  1.00  0.00    -0.069 N 
ATOM     28  H23 UNL     1     -10.906  21.069 -13.897  1.00  0.00     0.275 HD
ATOM     29  H22 UNL     1     -11.832  20.465 -14.964  1.00  0.00     0.275 HD
ATOM     30  H21 UNL     1     -12.094  19.983 -13.356  1.00  0.00     0.275 HD
ENDBRANCH  17  27
ENDBRANCH  16  17
BRANCH  16  31
HETATM   31  O3  UNL     1     -10.321  20.041 -16.324  1.00  0.00    -0.387 OA
ATOM     32  H3  UNL     1     -10.393  19.605 -17.165  1.00  0.00     0.210 HD
ENDBRANCH  16  31
ENDBRANCH  14  16
BRANCH  14  33
HETATM   33  C6  UNL     1      -7.846  20.853 -14.930  1.00  0.00     0.142 C 
HETATM   34  N3  UNL     1      -7.582  21.730 -15.831  1.00  0.00    -0.278 N 
ATOM     35  H3  UNL     1      -7.665  21.470 -16.813  1.00  0.00     0.193 HD
BRANCH  34  36
HETATM   36  O4  UNL     1      -7.191  23.002 -15.517  1.00  0.00    -0.290 OA
ATOM     37  H4  UNL     1      -7.765  23.750 -15.632  1.00  0.00     0.244 HD
ENDBRANCH  34  36
ENDBRANCH  14  33
ENDBRANCH  10  13
ENDBRANCH   1   9
TORSDOF 11
ENDMDL
