MODEL 1
REMARK VINA RESULT: -7.814894723      0.000      0.000
REMARK  8 active torsions:
REMARK  status: ('A' for Active; 'I' for Inactive)
REMARK    1  A    between atoms: N2_3  and  S1_5 
REMARK    2  A    between atoms: S1_5  and  N3_7 
REMARK    3  A    between atoms: S1_5  and  C3_16 
REMARK    4  A    between atoms: N3_7  and  N4_9 
REMARK       I    between atoms: N4_9  and  C2_11 
REMARK    5  A    between atoms: C4_19  and  S2_20 
REMARK    6  A    between atoms: S2_20  and  C5_21 
REMARK    7  A    between atoms: C5_21  and  C6_22 
REMARK    8  A    between atoms: C10_34  and  N12_35 
ROOT
HETATM    1  N1  UNL     1      64.826  45.781  20.870  1.00  0.00    -0.171 NA
HETATM    2  C1  UNL     1      64.880  45.870  22.024  1.00  0.00     0.191 C 
HETATM    3  N2  UNL     1      64.940  45.974  23.437  1.00  0.00    -0.230 N 
ATOM      4  H2  UNL     1      64.121  46.210  23.998  1.00  0.00     0.190 HD
ENDROOT
BRANCH   3   5
HETATM    5  S1  UNL     1      66.340  45.704  24.083  1.00  0.00     0.199 S 
HETATM    6  O1  UNL     1      66.350  44.354  24.753  1.00  0.00    -0.218 OA
BRANCH   5   7
HETATM    7  N3  UNL     1      67.613  45.725  22.927  1.00  0.00    -0.234 N 
ATOM      8  H3  UNL     1      67.921  46.535  22.388  1.00  0.00     0.199 HD
BRANCH   7   9
HETATM    9  N4  UNL     1      68.156  44.429  22.853  1.00  0.00    -0.265 N 
HETATM   10  C2  UNL     1      67.814  43.528  21.813  1.00  0.00     0.201 C 
HETATM   11  N5  UNL     1      66.627  43.048  21.785  1.00  0.00    -0.372 N 
HETATM   12  N6  UNL     1      68.789  43.195  20.848  1.00  0.00    -0.062 NA
ATOM     13  H52 UNL     1      65.922  43.288  22.482  1.00  0.00     0.158 HD
ATOM     14  H51 UNL     1      66.381  42.400  21.037  1.00  0.00     0.158 HD
ATOM     15  H4  UNL     1      68.815  44.127  23.571  1.00  0.00     0.190 HD
ENDBRANCH   7   9
ENDBRANCH   5   7
BRANCH   5  16
HETATM   16  C3  UNL     1      66.696  46.891  25.314  1.00  0.00     0.220 A 
HETATM   17  N7  UNL     1      67.216  48.087  24.990  1.00  0.00    -0.312 N 
HETATM   18  C4  UNL     1      67.493  49.012  25.954  1.00  0.00     0.162 A 
ATOM     19  H7  UNL     1      67.407  48.305  24.013  1.00  0.00     0.170 HD
HETATM   20  N11 UNL     1      67.224  48.681  27.245  1.00  0.00    -0.171 N 
HETATM   21  C10 UNL     1      66.705  47.493  27.582  1.00  0.00     0.679 A 
ATOM     22  H11 UNL     1      67.424  49.360  27.980  1.00  0.00     0.186 HD
HETATM   23  N13 UNL     1      66.442  46.596  26.601  1.00  0.00    -0.166 N 
ATOM     24  H13 UNL     1      66.047  45.687  26.841  1.00  0.00     0.186 HD
BRANCH  18  25
HETATM   25  S2  UNL     1      68.179  50.606  25.598  1.00  0.00    -0.086 SA
BRANCH  25  26
HETATM   26  C5  UNL     1      67.445  51.916  26.604  1.00  0.00     0.160 C 
BRANCH  26  27
HETATM   27  C6  UNL     1      66.260  52.492  25.936  1.00  0.00     0.110 A 
HETATM   28  N8  UNL     1      65.240  51.718  25.512  1.00  0.00    -0.286 N 
HETATM   29  N9  UNL     1      64.333  52.508  24.948  1.00  0.00    -0.278 N 
ATOM     30  H8  UNL     1      65.176  50.704  25.607  1.00  0.00     0.188 HD
HETATM   31  C7  UNL     1      64.801  53.754  25.030  1.00  0.00     0.162 A 
ATOM     32  H9  UNL     1      63.448  52.218  24.532  1.00  0.00     0.189 HD
HETATM   33  N10 UNL     1      65.990  53.807  25.632  1.00  0.00    -0.314 N 
HETATM   34  S3  UNL     1      64.378  55.447  24.622  1.00  0.00    -0.091 SA
HETATM   35  C8  UNL     1      66.606  55.073  25.760  1.00  0.00     0.143 C 
HETATM   36  C9  UNL     1      65.579  56.179  25.826  1.00  0.00     0.103 C 
ENDBRANCH  26  27
ENDBRANCH  25  26
ENDBRANCH  18  25
BRANCH  21  37
HETATM   37  N12 UNL     1      66.468  47.227  28.815  1.00  0.00    -0.234 N 
ATOM     38 2H12 UNL     1      67.216  46.963  29.456  1.00  0.00     0.174 HD
ATOM     39 1H12 UNL     1      65.513  47.278  29.170  1.00  0.00     0.174 HD
ENDBRANCH  21  37
ENDBRANCH   5  16
ENDBRANCH   3   5
TORSDOF 8
ENDMDL
MODEL 2
REMARK VINA RESULT: -7.699612838      2.686      4.532
REMARK  8 active torsions:
REMARK  status: ('A' for Active; 'I' for Inactive)
REMARK    1  A    between atoms: N2_3  and  S1_5 
REMARK    2  A    between atoms: S1_5  and  N3_7 
REMARK    3  A    between atoms: S1_5  and  C3_16 
REMARK    4  A    between atoms: N3_7  and  N4_9 
REMARK       I    between atoms: N4_9  and  C2_11 
REMARK    5  A    between atoms: C4_19  and  S2_20 
REMARK    6  A    between atoms: S2_20  and  C5_21 
REMARK    7  A    between atoms: C5_21  and  C6_22 
REMARK    8  A    between atoms: C10_34  and  N12_35 
ROOT
HETATM    1  N1  UNL     1      64.892  46.128  21.100  1.00  0.00    -0.171 NA
HETATM    2  C1  UNL     1      65.211  45.922  22.194  1.00  0.00     0.191 C 
HETATM    3  N2  UNL     1      65.609  45.668  23.532  1.00  0.00    -0.230 N 
ATOM      4  H2  UNL     1      66.060  44.796  23.806  1.00  0.00     0.190 HD
ENDROOT
BRANCH   3   5
HETATM    5  S1  UNL     1      65.311  46.811  24.561  1.00  0.00     0.199 S 
HETATM    6  O1  UNL     1      63.854  47.190  24.506  1.00  0.00    -0.218 OA
BRANCH   5   7
HETATM    7  N3  UNL     1      65.673  46.350  26.178  1.00  0.00    -0.234 N 
ATOM      8  H3  UNL     1      64.999  46.052  26.882  1.00  0.00     0.199 HD
BRANCH   7   9
HETATM    9  N4  UNL     1      67.065  46.458  26.360  1.00  0.00    -0.265 N 
HETATM   10  C2  UNL     1      67.962  45.453  25.917  1.00  0.00     0.201 C 
HETATM   11  N5  UNL     1      67.957  44.321  26.517  1.00  0.00    -0.372 N 
HETATM   12  N6  UNL     1      68.823  45.734  24.833  1.00  0.00    -0.062 NA
ATOM     13  H52 UNL     1      67.336  44.119  27.300  1.00  0.00     0.158 HD
ATOM     14  H51 UNL     1      68.602  43.599  26.198  1.00  0.00     0.158 HD
ATOM     15  H4  UNL     1      67.440  47.285  26.825  1.00  0.00     0.190 HD
ENDBRANCH   7   9
ENDBRANCH   5   7
BRANCH   5  16
HETATM   16  C3  UNL     1      66.230  48.246  24.179  1.00  0.00     0.220 A 
HETATM   17  N7  UNL     1      65.915  49.433  24.723  1.00  0.00    -0.312 N 
HETATM   18  C4  UNL     1      66.635  50.552  24.424  1.00  0.00     0.162 A 
ATOM     19  H7  UNL     1      65.127  49.498  25.368  1.00  0.00     0.170 HD
HETATM   20  N11 UNL     1      67.677  50.422  23.561  1.00  0.00    -0.171 N 
HETATM   21  C10 UNL     1      68.003  49.244  23.011  1.00  0.00     0.679 A 
ATOM     22  H11 UNL     1      68.228  51.248  23.323  1.00  0.00     0.186 HD
HETATM   23  N13 UNL     1      67.267  48.152  23.329  1.00  0.00    -0.166 N 
ATOM     24  H13 UNL     1      67.503  47.248  22.919  1.00  0.00     0.186 HD
BRANCH  18  25
HETATM   25  S2  UNL     1      66.273  52.147  25.104  1.00  0.00    -0.086 SA
BRANCH  25  26
HETATM   26  C5  UNL     1      67.128  52.442  26.669  1.00  0.00     0.160 C 
BRANCH  26  27
HETATM   27  C6  UNL     1      67.531  51.167  27.298  1.00  0.00     0.110 A 
HETATM   28  N8  UNL     1      66.769  50.568  28.235  1.00  0.00    -0.286 N 
HETATM   29  N9  UNL     1      67.389  49.456  28.617  1.00  0.00    -0.278 N 
ATOM     30  H8  UNL     1      65.875  50.908  28.589  1.00  0.00     0.188 HD
HETATM   31  C7  UNL     1      68.520  49.383  27.915  1.00  0.00     0.162 A 
ATOM     32  H9  UNL     1      67.062  48.787  29.314  1.00  0.00     0.189 HD
HETATM   33  N10 UNL     1      68.663  50.414  27.082  1.00  0.00    -0.314 N 
HETATM   34  S3  UNL     1      69.960  48.344  27.669  1.00  0.00    -0.091 SA
HETATM   35  C8  UNL     1      69.836  50.465  26.295  1.00  0.00     0.143 C 
HETATM   36  C9  UNL     1      70.375  49.080  26.021  1.00  0.00     0.103 C 
ENDBRANCH  26  27
ENDBRANCH  25  26
ENDBRANCH  18  25
BRANCH  21  37
HETATM   37  N12 UNL     1      68.996  49.172  22.201  1.00  0.00    -0.234 N 
ATOM     38 2H12 UNL     1      69.368  50.002  21.738  1.00  0.00     0.174 HD
ATOM     39 1H12 UNL     1      69.429  48.269  22.009  1.00  0.00     0.174 HD
ENDBRANCH  21  37
ENDBRANCH   5  16
ENDBRANCH   3   5
TORSDOF 8
ENDMDL
MODEL 3
REMARK VINA RESULT: -7.663146512      2.797      4.077
REMARK  8 active torsions:
REMARK  status: ('A' for Active; 'I' for Inactive)
REMARK    1  A    between atoms: N2_3  and  S1_5 
REMARK    2  A    between atoms: S1_5  and  N3_7 
REMARK    3  A    between atoms: S1_5  and  C3_16 
REMARK    4  A    between atoms: N3_7  and  N4_9 
REMARK       I    between atoms: N4_9  and  C2_11 
REMARK    5  A    between atoms: C4_19  and  S2_20 
REMARK    6  A    between atoms: S2_20  and  C5_21 
REMARK    7  A    between atoms: C5_21  and  C6_22 
REMARK    8  A    between atoms: C10_34  and  N12_35 
ROOT
HETATM    1  N1  UNL     1      64.776  46.037  21.267  1.00  0.00    -0.171 NA
HETATM    2  C1  UNL     1      65.220  45.949  22.332  1.00  0.00     0.191 C 
HETATM    3  N2  UNL     1      65.771  45.840  23.635  1.00  0.00    -0.230 N 
ATOM      4  H2  UNL     1      66.391  45.074  23.898  1.00  0.00     0.190 HD
ENDROOT
BRANCH   3   5
HETATM    5  S1  UNL     1      65.368  46.968  24.644  1.00  0.00     0.199 S 
HETATM    6  O1  UNL     1      63.906  47.299  24.492  1.00  0.00    -0.218 OA
BRANCH   5   7
HETATM    7  N3  UNL     1      65.636  46.515  26.281  1.00  0.00    -0.234 N 
ATOM      8  H3  UNL     1      64.923  46.214  26.945  1.00  0.00     0.199 HD
BRANCH   7   9
HETATM    9  N4  UNL     1      67.014  46.632  26.544  1.00  0.00    -0.265 N 
HETATM   10  C2  UNL     1      67.950  45.664  26.098  1.00  0.00     0.201 C 
HETATM   11  N5  UNL     1      67.932  44.502  26.637  1.00  0.00    -0.372 N 
HETATM   12  N6  UNL     1      68.864  46.015  25.080  1.00  0.00    -0.062 NA
ATOM     13  H52 UNL     1      67.272  44.249  27.372  1.00  0.00     0.158 HD
ATOM     14  H51 UNL     1      68.605  43.806  26.316  1.00  0.00     0.158 HD
ATOM     15  H4  UNL     1      67.350  47.437  27.072  1.00  0.00     0.190 HD
ENDBRANCH   7   9
ENDBRANCH   5   7
BRANCH   5  16
HETATM   16  C3  UNL     1      66.262  48.434  24.326  1.00  0.00     0.220 A 
HETATM   17  N7  UNL     1      65.973  49.574  24.976  1.00  0.00    -0.312 N 
HETATM   18  C4  UNL     1      66.674  50.718  24.726  1.00  0.00     0.162 A 
ATOM     19  H7  UNL     1      65.220  49.585  25.665  1.00  0.00     0.170 HD
HETATM   20  N11 UNL     1      67.668  50.661  23.802  1.00  0.00    -0.171 N 
HETATM   21  C10 UNL     1      67.967  49.532  23.146  1.00  0.00     0.679 A 
ATOM     22  H11 UNL     1      68.204  51.506  23.600  1.00  0.00     0.186 HD
HETATM   23  N13 UNL     1      67.252  48.413  23.417  1.00  0.00    -0.166 N 
ATOM     24  H13 UNL     1      67.468  47.545  22.926  1.00  0.00     0.186 HD
BRANCH  18  25
HETATM   25  S2  UNL     1      66.345  52.253  25.546  1.00  0.00    -0.086 SA
BRANCH  25  26
HETATM   26  C5  UNL     1      67.576  52.639  26.811  1.00  0.00     0.160 C 
BRANCH  26  27
HETATM   27  C6  UNL     1      67.983  54.058  26.735  1.00  0.00     0.110 A 
HETATM   28  N8  UNL     1      67.110  55.027  26.391  1.00  0.00    -0.286 N 
HETATM   29  N9  UNL     1      67.762  56.185  26.399  1.00  0.00    -0.278 N 
ATOM     30  H8  UNL     1      66.125  54.895  26.164  1.00  0.00     0.188 HD
HETATM   31  C7  UNL     1      69.021  55.919  26.746  1.00  0.00     0.162 A 
ATOM     32  H9  UNL     1      67.373  57.103  26.182  1.00  0.00     0.189 HD
HETATM   33  N10 UNL     1      69.218  54.619  26.967  1.00  0.00    -0.314 N 
HETATM   34  S3  UNL     1      70.596  56.718  27.052  1.00  0.00    -0.091 SA
HETATM   35  C8  UNL     1      70.522  54.203  27.321  1.00  0.00     0.143 C 
HETATM   36  C9  UNL     1      71.275  55.302  28.034  1.00  0.00     0.103 C 
ENDBRANCH  26  27
ENDBRANCH  25  26
ENDBRANCH  18  25
BRANCH  21  37
HETATM   37  N12 UNL     1      68.916  49.529  22.281  1.00  0.00    -0.234 N 
ATOM     38 2H12 UNL     1      69.544  50.325  22.176  1.00  0.00     0.174 HD
ATOM     39 1H12 UNL     1      69.052  48.715  21.681  1.00  0.00     0.174 HD
ENDBRANCH  21  37
ENDBRANCH   5  16
ENDBRANCH   3   5
TORSDOF 8
ENDMDL
MODEL 4
REMARK VINA RESULT: -7.649977279      1.485      2.846
REMARK  8 active torsions:
REMARK  status: ('A' for Active; 'I' for Inactive)
REMARK    1  A    between atoms: N2_3  and  S1_5 
REMARK    2  A    between atoms: S1_5  and  N3_7 
REMARK    3  A    between atoms: S1_5  and  C3_16 
REMARK    4  A    between atoms: N3_7  and  N4_9 
REMARK       I    between atoms: N4_9  and  C2_11 
REMARK    5  A    between atoms: C4_19  and  S2_20 
REMARK    6  A    between atoms: S2_20  and  C5_21 
REMARK    7  A    between atoms: C5_21  and  C6_22 
REMARK    8  A    between atoms: C10_34  and  N12_35 
ROOT
HETATM    1  N1  UNL     1      65.742  46.141  28.277  1.00  0.00    -0.171 NA
HETATM    2  C1  UNL     1      65.779  45.494  27.318  1.00  0.00     0.191 C 
HETATM    3  N2  UNL     1      65.818  44.699  26.143  1.00  0.00    -0.230 N 
ATOM      4  H2  UNL     1      65.492  43.733  26.133  1.00  0.00     0.190 HD
ENDROOT
BRANCH   3   5
HETATM    5  S1  UNL     1      66.391  45.397  24.864  1.00  0.00     0.199 S 
HETATM    6  O1  UNL     1      67.183  44.410  24.047  1.00  0.00    -0.218 OA
BRANCH   5   7
HETATM    7  N3  UNL     1      65.156  46.042  23.856  1.00  0.00    -0.234 N 
ATOM      8  H3  UNL     1      64.206  46.275  24.146  1.00  0.00     0.199 HD
BRANCH   7   9
HETATM    9  N4  UNL     1      65.686  46.192  22.561  1.00  0.00    -0.265 N 
HETATM   10  C2  UNL     1      65.218  45.426  21.463  1.00  0.00     0.201 C 
HETATM   11  N5  UNL     1      65.477  44.172  21.439  1.00  0.00    -0.372 N 
HETATM   12  N6  UNL     1      64.486  46.070  20.442  1.00  0.00    -0.062 NA
ATOM     13  H52 UNL     1      66.006  43.707  22.176  1.00  0.00     0.158 HD
ATOM     14  H51 UNL     1      65.141  43.621  20.649  1.00  0.00     0.158 HD
ATOM     15  H4  UNL     1      66.429  46.874  22.407  1.00  0.00     0.190 HD
ENDBRANCH   7   9
ENDBRANCH   5   7
BRANCH   5  16
HETATM   16  C3  UNL     1      67.478  46.693  25.299  1.00  0.00     0.220 A 
HETATM   17  N7  UNL     1      67.016  47.824  25.860  1.00  0.00    -0.312 N 
HETATM   18  C4  UNL     1      67.868  48.834  26.198  1.00  0.00     0.162 A 
ATOM     19  H7  UNL     1      66.016  47.928  26.034  1.00  0.00     0.170 HD
HETATM   20  N11 UNL     1      69.192  48.656  25.949  1.00  0.00    -0.171 N 
HETATM   21  C10 UNL     1      69.666  47.534  25.391  1.00  0.00     0.679 A 
ATOM     22  H11 UNL     1      69.845  49.400  26.195  1.00  0.00     0.186 HD
HETATM   23  N13 UNL     1      68.794  46.549  25.066  1.00  0.00    -0.166 N 
ATOM     24  H13 UNL     1      69.140  45.690  24.640  1.00  0.00     0.186 HD
BRANCH  18  25
HETATM   25  S2  UNL     1      67.326  50.349  26.940  1.00  0.00    -0.086 SA
BRANCH  25  26
HETATM   26  C5  UNL     1      67.583  51.777  25.862  1.00  0.00     0.160 C 
BRANCH  26  27
HETATM   27  C6  UNL     1      66.292  52.379  25.468  1.00  0.00     0.110 A 
HETATM   28  N8  UNL     1      65.240  51.620  25.100  1.00  0.00    -0.286 N 
HETATM   29  N9  UNL     1      64.235  52.435  24.795  1.00  0.00    -0.278 N 
ATOM     30  H8  UNL     1      65.219  50.601  25.062  1.00  0.00     0.188 HD
HETATM   31  C7  UNL     1      64.676  53.679  24.978  1.00  0.00     0.162 A 
ATOM     32  H9  UNL     1      63.304  52.160  24.482  1.00  0.00     0.189 HD
HETATM   33  N10 UNL     1      65.943  53.709  25.394  1.00  0.00    -0.314 N 
HETATM   34  S3  UNL     1      64.148  55.389  24.878  1.00  0.00    -0.091 SA
HETATM   35  C8  UNL     1      66.537  54.974  25.602  1.00  0.00     0.143 C 
HETATM   36  C9  UNL     1      65.504  56.011  25.976  1.00  0.00     0.103 C 
ENDBRANCH  26  27
ENDBRANCH  25  26
ENDBRANCH  18  25
BRANCH  21  37
HETATM   37  N12 UNL     1      70.926  47.413  25.175  1.00  0.00    -0.234 N 
ATOM     38 2H12 UNL     1      71.313  47.471  24.233  1.00  0.00     0.174 HD
ATOM     39 1H12 UNL     1      71.561  47.256  25.957  1.00  0.00     0.174 HD
ENDBRANCH  21  37
ENDBRANCH   5  16
ENDBRANCH   3   5
TORSDOF 8
ENDMDL
MODEL 5
REMARK VINA RESULT: -7.627207667      1.964      2.592
REMARK  8 active torsions:
REMARK  status: ('A' for Active; 'I' for Inactive)
REMARK    1  A    between atoms: N2_3  and  S1_5 
REMARK    2  A    between atoms: S1_5  and  N3_7 
REMARK    3  A    between atoms: S1_5  and  C3_16 
REMARK    4  A    between atoms: N3_7  and  N4_9 
REMARK       I    between atoms: N4_9  and  C2_11 
REMARK    5  A    between atoms: C4_19  and  S2_20 
REMARK    6  A    between atoms: S2_20  and  C5_21 
REMARK    7  A    between atoms: C5_21  and  C6_22 
REMARK    8  A    between atoms: C10_34  and  N12_35 
ROOT
HETATM    1  N1  UNL     1      64.553  45.535  23.111  1.00  0.00    -0.171 NA
HETATM    2  C1  UNL     1      64.945  46.367  23.814  1.00  0.00     0.191 C 
HETATM    3  N2  UNL     1      65.418  47.387  24.679  1.00  0.00    -0.230 N 
ATOM      4  H2  UNL     1      64.975  48.305  24.727  1.00  0.00     0.190 HD
ENDROOT
BRANCH   3   5
HETATM    5  S1  UNL     1      66.663  47.018  25.554  1.00  0.00     0.199 S 
HETATM    6  O1  UNL     1      66.287  45.970  26.570  1.00  0.00    -0.218 OA
BRANCH   5   7
HETATM    7  N3  UNL     1      67.966  46.399  24.618  1.00  0.00    -0.234 N 
ATOM      8  H3  UNL     1      68.388  46.849  23.806  1.00  0.00     0.199 HD
BRANCH   7   9
HETATM    9  N4  UNL     1      68.346  45.160  25.167  1.00  0.00    -0.265 N 
HETATM   10  C2  UNL     1      67.958  43.927  24.585  1.00  0.00     0.201 C 
HETATM   11  N5  UNL     1      66.724  43.587  24.638  1.00  0.00    -0.372 N 
HETATM   12  N6  UNL     1      68.940  43.122  23.968  1.00  0.00    -0.062 NA
ATOM     13  H52 UNL     1      66.014  44.168  25.084  1.00  0.00     0.158 HD
ATOM     14  H51 UNL     1      66.445  42.700  24.219  1.00  0.00     0.158 HD
ATOM     15  H4  UNL     1      68.919  45.149  26.012  1.00  0.00     0.190 HD
ENDBRANCH   7   9
ENDBRANCH   5   7
BRANCH   5  16
HETATM   16  C3  UNL     1      67.235  48.410  26.440  1.00  0.00     0.220 A 
HETATM   17  N7  UNL     1      67.646  49.516  25.797  1.00  0.00    -0.312 N 
HETATM   18  C4  UNL     1      68.092  50.602  26.492  1.00  0.00     0.162 A 
ATOM     19  H7  UNL     1      67.624  49.544  24.778  1.00  0.00     0.170 HD
HETATM   20  N11 UNL     1      68.105  50.524  27.849  1.00  0.00    -0.171 N 
HETATM   21  C10 UNL     1      67.698  49.427  28.502  1.00  0.00     0.679 A 
ATOM     22  H11 UNL     1      68.436  51.326  28.386  1.00  0.00     0.186 HD
HETATM   23  N13 UNL     1      67.261  48.365  27.783  1.00  0.00    -0.166 N 
ATOM     24  H13 UNL     1      66.949  47.524  28.266  1.00  0.00     0.186 HD
BRANCH  18  25
HETATM   25  S2  UNL     1      68.647  52.091  25.709  1.00  0.00    -0.086 SA
BRANCH  25  26
HETATM   26  C5  UNL     1      68.892  53.442  26.885  1.00  0.00     0.160 C 
BRANCH  26  27
HETATM   27  C6  UNL     1      68.013  54.585  26.563  1.00  0.00     0.110 A 
HETATM   28  N8  UNL     1      68.401  55.859  26.778  1.00  0.00    -0.286 N 
HETATM   29  N9  UNL     1      67.406  56.658  26.406  1.00  0.00    -0.278 N 
ATOM     30  H8  UNL     1      69.299  56.157  27.158  1.00  0.00     0.188 HD
HETATM   31  C7  UNL     1      66.422  55.873  25.969  1.00  0.00     0.162 A 
ATOM     32  H9  UNL     1      67.398  57.677  26.446  1.00  0.00     0.189 HD
HETATM   33  N10 UNL     1      66.739  54.579  26.042  1.00  0.00    -0.314 N 
HETATM   34  S3  UNL     1      64.770  55.939  25.275  1.00  0.00    -0.091 SA
HETATM   35  C8  UNL     1      65.766  53.640  25.630  1.00  0.00     0.143 C 
HETATM   36  C9  UNL     1      64.849  54.224  24.580  1.00  0.00     0.103 C 
ENDBRANCH  26  27
ENDBRANCH  25  26
ENDBRANCH  18  25
BRANCH  21  37
HETATM   37  N12 UNL     1      67.730  49.401  29.785  1.00  0.00    -0.234 N 
ATOM     38 2H12 UNL     1      66.921  49.671  30.344  1.00  0.00     0.174 HD
ATOM     39 1H12 UNL     1      68.581  49.106  30.265  1.00  0.00     0.174 HD
ENDBRANCH  21  37
ENDBRANCH   5  16
ENDBRANCH   3   5
TORSDOF 8
ENDMDL
