MODEL 1
REMARK VINA RESULT: -8.607303617      0.000      0.000
REMARK  8 active torsions:
REMARK  status: ('A' for Active; 'I' for Inactive)
REMARK    1  A    between atoms: O1_2  and  C2_3 
REMARK    2  A    between atoms: C4_5  and  N1_6 
REMARK    3  A    between atoms: C5_8  and  C6_9 
REMARK    4  A    between atoms: C7_14  and  N4_15 
REMARK    5  A    between atoms: N4_15  and  N5_17 
REMARK    6  A    between atoms: C9_24  and  C10_25 
REMARK    7  A    between atoms: N8_28  and  C11_29 
REMARK    8  A    between atoms: C16_38  and  O4_39 
ROOT
HETATM    1  C2  UNL     1      72.522  55.824  29.905  1.00  0.00     0.105 A 
HETATM    2  C3  UNL     1      72.269  56.883  29.068  1.00  0.00     0.070 A 
HETATM    3  C4  UNL     1      72.603  56.852  27.718  1.00  0.00     0.051 A 
HETATM    4  C9  UNL     1      73.200  55.741  27.198  1.00  0.00     0.063 A 
HETATM    5  C15 UNL     1      73.474  54.641  28.020  1.00  0.00     0.098 A 
HETATM    6  N10 UNL     1      74.093  53.458  27.541  1.00  0.00    -0.098 NA
HETATM    7  C16 UNL     1      73.126  54.721  29.344  1.00  0.00     0.127 A 
ENDROOT
BRANCH   3   8
HETATM    8  N1  UNL     1      72.292  57.999  26.970  1.00  0.00    -0.363 N 
HETATM    9  C5  UNL     1      71.162  58.608  27.097  1.00  0.00     0.125 C 
ATOM     10  H1  UNL     1      72.979  58.360  26.308  1.00  0.00     0.165 HD
BRANCH   9  11
HETATM   11  C6  UNL     1      70.851  59.802  26.312  1.00  0.00     0.132 A 
HETATM   12  N2  UNL     1      70.028  59.799  25.254  1.00  0.00    -0.280 N 
HETATM   13  N3  UNL     1      69.772  60.905  24.570  1.00  0.00    -0.130 N 
ATOM     14  H2  UNL     1      69.588  58.924  24.968  1.00  0.00     0.188 HD
HETATM   15  C7  UNL     1      70.355  62.068  24.945  1.00  0.00     0.713 A 
ATOM     16  H3  UNL     1      69.141  60.880  23.768  1.00  0.00     0.205 HD
HETATM   17  N6  UNL     1      71.178  62.105  25.993  1.00  0.00    -0.151 N 
HETATM   18  C8  UNL     1      71.433  60.990  26.679  1.00  0.00     0.289 A 
ATOM     19  H6  UNL     1      71.612  62.986  26.270  1.00  0.00     0.188 HD
HETATM   20  O2  UNL     1      72.222  61.027  27.685  1.00  0.00    -0.265 OA
BRANCH  15  21
HETATM   21  N4  UNL     1      70.114  63.142  24.291  1.00  0.00    -0.137 N 
ATOM     22  H4  UNL     1      70.879  63.752  24.005  1.00  0.00     0.205 HD
BRANCH  21  23
HETATM   23  N5  UNL     1      68.804  63.469  23.974  1.00  0.00    -0.331 N 
ATOM     24  H52 UNL     1      68.624  64.245  23.336  1.00  0.00     0.177 HD
ATOM     25  H51 UNL     1      68.039  62.930  24.381  1.00  0.00     0.177 HD
ENDBRANCH  21  23
ENDBRANCH  15  21
ENDBRANCH   9  11
ENDBRANCH   3   8
BRANCH   4  26
HETATM   26  C10 UNL     1      73.598  55.588  25.795  1.00  0.00     0.138 A 
HETATM   27  N7  UNL     1      72.946  54.847  24.867  1.00  0.00    -0.278 N 
HETATM   28  N8  UNL     1      73.578  54.936  23.736  1.00  0.00    -0.237 N 
ATOM     29  H7  UNL     1      72.095  54.308  25.030  1.00  0.00     0.189 HD
HETATM   30  C14 UNL     1      74.648  55.726  23.884  1.00  0.00     0.343 A 
HETATM   31  O3  UNL     1      75.508  56.049  22.997  1.00  0.00    -0.245 OA
HETATM   32  N9  UNL     1      74.640  56.124  25.189  1.00  0.00    -0.291 N 
ATOM     33  H9  UNL     1      75.329  56.738  25.626  1.00  0.00     0.172 HD
BRANCH  28  34
HETATM   34  C11 UNL     1      73.197  54.285  22.495  1.00  0.00     0.105 C 
HETATM   35  C12 UNL     1      72.281  53.127  22.713  1.00  0.00     0.034 C 
HETATM   36  C13 UNL     1      72.516  55.269  21.559  1.00  0.00     0.034 C 
ENDBRANCH  28  34
ENDBRANCH   4  26
BRANCH   1  37
HETATM   37  O1  UNL     1      72.175  55.890  31.241  1.00  0.00    -0.353 OA
HETATM   38  C1  UNL     1      72.720  56.799  32.148  1.00  0.00     0.210 C 
ENDBRANCH   1  37
BRANCH   7  39
HETATM   39  O4  UNL     1      73.396  53.629  30.166  1.00  0.00    -0.351 OA
HETATM   40  C17 UNL     1      74.497  53.598  31.033  1.00  0.00     0.210 C 
ENDBRANCH   7  39
TORSDOF 8
ENDMDL
MODEL 2
REMARK VINA RESULT: -8.329374514      1.184      1.376
REMARK  8 active torsions:
REMARK  status: ('A' for Active; 'I' for Inactive)
REMARK    1  A    between atoms: O1_2  and  C2_3 
REMARK    2  A    between atoms: C4_5  and  N1_6 
REMARK    3  A    between atoms: C5_8  and  C6_9 
REMARK    4  A    between atoms: C7_14  and  N4_15 
REMARK    5  A    between atoms: N4_15  and  N5_17 
REMARK    6  A    between atoms: C9_24  and  C10_25 
REMARK    7  A    between atoms: N8_28  and  C11_29 
REMARK    8  A    between atoms: C16_38  and  O4_39 
ROOT
HETATM    1  C2  UNL     1      73.099  54.436  29.277  1.00  0.00     0.105 A 
HETATM    2  C3  UNL     1      72.789  55.629  28.674  1.00  0.00     0.070 A 
HETATM    3  C4  UNL     1      72.997  55.845  27.315  1.00  0.00     0.051 A 
HETATM    4  C9  UNL     1      73.523  54.847  26.548  1.00  0.00     0.063 A 
HETATM    5  C15 UNL     1      73.851  53.615  27.127  1.00  0.00     0.098 A 
HETATM    6  N10 UNL     1      74.402  52.538  26.386  1.00  0.00    -0.098 NA
HETATM    7  C16 UNL     1      73.628  53.452  28.471  1.00  0.00     0.127 A 
ENDROOT
BRANCH   3   8
HETATM    8  N1  UNL     1      72.640  57.109  26.820  1.00  0.00    -0.363 N 
HETATM    9  C5  UNL     1      71.469  57.612  27.019  1.00  0.00     0.125 C 
ATOM     10  H1  UNL     1      73.326  57.645  26.288  1.00  0.00     0.165 HD
BRANCH   9  11
HETATM   11  C6  UNL     1      71.109  58.930  26.498  1.00  0.00     0.132 A 
HETATM   12  N2  UNL     1      70.209  59.122  25.523  1.00  0.00    -0.280 N 
HETATM   13  N3  UNL     1      69.912  60.335  25.081  1.00  0.00    -0.130 N 
ATOM     14  H2  UNL     1      69.742  58.314  25.112  1.00  0.00     0.188 HD
HETATM   15  C7  UNL     1      70.532  61.410  25.623  1.00  0.00     0.713 A 
ATOM     16  H3  UNL     1      69.223  60.457  24.339  1.00  0.00     0.205 HD
HETATM   17  N6  UNL     1      71.431  61.255  26.594  1.00  0.00    -0.151 N 
HETATM   18  C8  UNL     1      71.728  60.031  27.037  1.00  0.00     0.289 A 
ATOM     19  H6  UNL     1      71.892  62.070  26.998  1.00  0.00     0.188 HD
HETATM   20  O2  UNL     1      72.591  59.883  27.970  1.00  0.00    -0.265 OA
BRANCH  15  21
HETATM   21  N4  UNL     1      70.251  62.586  25.203  1.00  0.00    -0.137 N 
ATOM     22  H4  UNL     1      70.997  63.227  24.931  1.00  0.00     0.205 HD
BRANCH  21  23
HETATM   23  N5  UNL     1      68.925  62.984  25.118  1.00  0.00    -0.331 N 
ATOM     24  H52 UNL     1      68.417  62.845  24.244  1.00  0.00     0.177 HD
ATOM     25  H51 UNL     1      68.475  63.408  25.930  1.00  0.00     0.177 HD
ENDBRANCH  21  23
ENDBRANCH  15  21
ENDBRANCH   9  11
ENDBRANCH   3   8
BRANCH   4  26
HETATM   26  C10 UNL     1      73.788  54.951  25.110  1.00  0.00     0.138 A 
HETATM   27  N7  UNL     1      72.983  54.485  24.125  1.00  0.00    -0.278 N 
HETATM   28  N8  UNL     1      73.529  54.747  22.975  1.00  0.00    -0.237 N 
ATOM     29  H7  UNL     1      72.093  54.007  24.263  1.00  0.00     0.189 HD
HETATM   30  C14 UNL     1      74.690  55.383  23.168  1.00  0.00     0.343 A 
HETATM   31  O3  UNL     1      75.507  55.800  22.279  1.00  0.00    -0.245 OA
HETATM   32  N9  UNL     1      74.832  55.501  24.520  1.00  0.00    -0.291 N 
ATOM     33  H9  UNL     1      75.618  55.942  24.997  1.00  0.00     0.172 HD
BRANCH  28  34
HETATM   34  C11 UNL     1      72.978  54.407  21.675  1.00  0.00     0.105 C 
HETATM   35  C12 UNL     1      72.018  53.266  21.739  1.00  0.00     0.034 C 
HETATM   36  C13 UNL     1      72.267  55.602  21.064  1.00  0.00     0.034 C 
ENDBRANCH  28  34
ENDBRANCH   4  26
BRANCH   1  37
HETATM   37  O1  UNL     1      72.877  54.258  30.630  1.00  0.00    -0.353 OA
HETATM   38  C1  UNL     1      73.867  54.365  31.606  1.00  0.00     0.210 C 
ENDBRANCH   1  37
BRANCH   7  39
HETATM   39  O4  UNL     1      73.952  52.228  29.052  1.00  0.00    -0.351 OA
HETATM   40  C17 UNL     1      73.055  51.151  29.079  1.00  0.00     0.210 C 
ENDBRANCH   7  39
TORSDOF 8
ENDMDL
MODEL 3
REMARK VINA RESULT: -8.278197483      2.114      2.633
REMARK  8 active torsions:
REMARK  status: ('A' for Active; 'I' for Inactive)
REMARK    1  A    between atoms: O1_2  and  C2_3 
REMARK    2  A    between atoms: C4_5  and  N1_6 
REMARK    3  A    between atoms: C5_8  and  C6_9 
REMARK    4  A    between atoms: C7_14  and  N4_15 
REMARK    5  A    between atoms: N4_15  and  N5_17 
REMARK    6  A    between atoms: C9_24  and  C10_25 
REMARK    7  A    between atoms: N8_28  and  C11_29 
REMARK    8  A    between atoms: C16_38  and  O4_39 
ROOT
HETATM    1  C2  UNL     1      73.163  56.483  31.510  1.00  0.00     0.105 A 
HETATM    2  C3  UNL     1      72.504  57.242  30.575  1.00  0.00     0.070 A 
HETATM    3  C4  UNL     1      72.046  56.704  29.377  1.00  0.00     0.051 A 
HETATM    4  C9  UNL     1      72.252  55.381  29.112  1.00  0.00     0.063 A 
HETATM    5  C15 UNL     1      72.918  54.574  30.041  1.00  0.00     0.098 A 
HETATM    6  N10 UNL     1      73.164  53.193  29.826  1.00  0.00    -0.098 NA
HETATM    7  C16 UNL     1      73.351  55.153  31.208  1.00  0.00     0.127 A 
ENDROOT
BRANCH   3   8
HETATM    8  N1  UNL     1      71.389  57.585  28.504  1.00  0.00    -0.363 N 
HETATM    9  C5  UNL     1      72.035  58.443  27.790  1.00  0.00     0.125 C 
ATOM     10  H1  UNL     1      70.373  57.546  28.434  1.00  0.00     0.165 HD
BRANCH   9  11
HETATM   11  C6  UNL     1      71.338  59.355  26.884  1.00  0.00     0.132 A 
HETATM   12  N2  UNL     1      70.490  58.948  25.930  1.00  0.00    -0.280 N 
HETATM   13  N3  UNL     1      69.878  59.809  25.130  1.00  0.00    -0.130 N 
ATOM     14  H2  UNL     1      70.311  57.950  25.817  1.00  0.00     0.188 HD
HETATM   15  C7  UNL     1      70.114  61.134  25.276  1.00  0.00     0.713 A 
ATOM     16  H3  UNL     1      69.235  59.476  24.411  1.00  0.00     0.205 HD
HETATM   17  N6  UNL     1      70.951  61.573  26.215  1.00  0.00    -0.151 N 
HETATM   18  C8  UNL     1      71.565  60.703  27.019  1.00  0.00     0.289 A 
ATOM     19  H6  UNL     1      71.122  62.573  26.319  1.00  0.00     0.188 HD
HETATM   20  O2  UNL     1      72.369  61.125  27.920  1.00  0.00    -0.265 OA
BRANCH  15  21
HETATM   21  N4  UNL     1      69.527  61.974  24.509  1.00  0.00    -0.137 N 
ATOM     22  H4  UNL     1      69.646  61.917  23.497  1.00  0.00     0.205 HD
BRANCH  21  23
HETATM   23  N5  UNL     1      68.727  62.963  25.062  1.00  0.00    -0.331 N 
ATOM     24  H52 UNL     1      69.131  63.608  25.743  1.00  0.00     0.177 HD
ATOM     25  H51 UNL     1      67.749  63.034  24.782  1.00  0.00     0.177 HD
ENDBRANCH  21  23
ENDBRANCH  15  21
ENDBRANCH   9  11
ENDBRANCH   3   8
BRANCH   4  26
HETATM   26  C10 UNL     1      71.818  54.698  27.889  1.00  0.00     0.138 A 
HETATM   27  N7  UNL     1      72.604  54.414  26.823  1.00  0.00    -0.278 N 
HETATM   28  N8  UNL     1      71.891  53.809  25.922  1.00  0.00    -0.237 N 
ATOM     29  H7  UNL     1      73.596  54.639  26.741  1.00  0.00     0.189 HD
HETATM   30  C14 UNL     1      70.634  53.677  26.362  1.00  0.00     0.343 A 
HETATM   31  O3  UNL     1      69.649  53.136  25.757  1.00  0.00    -0.245 OA
HETATM   32  N9  UNL     1      70.612  54.245  27.603  1.00  0.00    -0.291 N 
ATOM     33  H9  UNL     1      69.796  54.308  28.211  1.00  0.00     0.172 HD
BRANCH  28  34
HETATM   34  C11 UNL     1      72.367  53.342  24.632  1.00  0.00     0.105 C 
HETATM   35  C12 UNL     1      73.695  53.920  24.268  1.00  0.00     0.034 C 
HETATM   36  C13 UNL     1      72.480  51.827  24.616  1.00  0.00     0.034 C 
ENDBRANCH  28  34
ENDBRANCH   4  26
BRANCH   1  37
HETATM   37  O1  UNL     1      73.603  57.053  32.690  1.00  0.00    -0.353 OA
HETATM   38  C1  UNL     1      73.970  58.391  32.824  1.00  0.00     0.210 C 
ENDBRANCH   1  37
BRANCH   7  39
HETATM   39  O4  UNL     1      74.015  54.353  32.136  1.00  0.00    -0.351 OA
HETATM   40  C17 UNL     1      75.414  54.286  32.200  1.00  0.00     0.210 C 
ENDBRANCH   7  39
TORSDOF 8
ENDMDL
MODEL 4
REMARK VINA RESULT: -8.122840109      8.428     10.747
REMARK  8 active torsions:
REMARK  status: ('A' for Active; 'I' for Inactive)
REMARK    1  A    between atoms: O1_2  and  C2_3 
REMARK    2  A    between atoms: C4_5  and  N1_6 
REMARK    3  A    between atoms: C5_8  and  C6_9 
REMARK    4  A    between atoms: C7_14  and  N4_15 
REMARK    5  A    between atoms: N4_15  and  N5_17 
REMARK    6  A    between atoms: C9_24  and  C10_25 
REMARK    7  A    between atoms: N8_28  and  C11_29 
REMARK    8  A    between atoms: C16_38  and  O4_39 
ROOT
HETATM    1  C2  UNL     1      65.297  46.067  23.796  1.00  0.00     0.105 A 
HETATM    2  C3  UNL     1      65.148  47.386  24.147  1.00  0.00     0.070 A 
HETATM    3  C4  UNL     1      66.078  48.047  24.943  1.00  0.00     0.051 A 
HETATM    4  C9  UNL     1      67.176  47.374  25.394  1.00  0.00     0.063 A 
HETATM    5  C15 UNL     1      67.362  46.028  25.056  1.00  0.00     0.098 A 
HETATM    6  N10 UNL     1      68.481  45.272  25.494  1.00  0.00    -0.098 NA
HETATM    7  C16 UNL     1      66.416  45.421  24.269  1.00  0.00     0.127 A 
ENDROOT
BRANCH   3   8
HETATM    8  N1  UNL     1      65.811  49.394  25.231  1.00  0.00    -0.363 N 
HETATM    9  C5  UNL     1      65.921  50.316  24.336  1.00  0.00     0.125 C 
ATOM     10  H1  UNL     1      65.521  49.651  26.175  1.00  0.00     0.165 HD
BRANCH   9  11
HETATM   11  C6  UNL     1      65.639  51.716  24.649  1.00  0.00     0.132 A 
HETATM   12  N2  UNL     1      64.450  52.298  24.438  1.00  0.00    -0.280 N 
HETATM   13  N3  UNL     1      64.236  53.571  24.737  1.00  0.00    -0.130 N 
ATOM     14  H2  UNL     1      63.691  51.747  24.037  1.00  0.00     0.188 HD
HETATM   15  C7  UNL     1      65.242  54.306  25.268  1.00  0.00     0.713 A 
ATOM     16  H3  UNL     1      63.323  53.993  24.568  1.00  0.00     0.205 HD
HETATM   17  N6  UNL     1      66.436  53.759  25.492  1.00  0.00    -0.151 N 
HETATM   18  C8  UNL     1      66.647  52.476  25.189  1.00  0.00     0.289 A 
ATOM     19  H6  UNL     1      67.187  54.319  25.894  1.00  0.00     0.188 HD
HETATM   20  O2  UNL     1      67.794  51.952  25.405  1.00  0.00    -0.265 OA
BRANCH  15  21
HETATM   21  N4  UNL     1      65.045  55.537  25.561  1.00  0.00    -0.137 N 
ATOM     22  H4  UNL     1      65.375  55.913  26.450  1.00  0.00     0.205 HD
BRANCH  21  23
HETATM   23  N5  UNL     1      64.380  56.356  24.660  1.00  0.00    -0.331 N 
ATOM     24  H52 UNL     1      64.882  56.711  23.846  1.00  0.00     0.177 HD
ATOM     25  H51 UNL     1      63.401  56.591  24.822  1.00  0.00     0.177 HD
ENDBRANCH  21  23
ENDBRANCH  15  21
ENDBRANCH   9  11
ENDBRANCH   3   8
BRANCH   4  26
HETATM   26  C10 UNL     1      68.224  47.957  26.237  1.00  0.00     0.138 A 
HETATM   27  N7  UNL     1      69.305  48.641  25.789  1.00  0.00    -0.278 N 
HETATM   28  N8  UNL     1      70.022  49.009  26.809  1.00  0.00    -0.237 N 
ATOM     29  H7  UNL     1      69.521  48.836  24.812  1.00  0.00     0.189 HD
HETATM   30  C14 UNL     1      69.443  48.586  27.938  1.00  0.00     0.343 A 
HETATM   31  O3  UNL     1      69.852  48.757  29.135  1.00  0.00    -0.245 OA
HETATM   32  N9  UNL     1      68.312  47.926  27.553  1.00  0.00    -0.291 N 
ATOM     33  H9  UNL     1      67.643  47.481  28.181  1.00  0.00     0.172 HD
BRANCH  28  34
HETATM   34  C11 UNL     1      71.262  49.762  26.748  1.00  0.00     0.105 C 
HETATM   35  C12 UNL     1      72.448  48.895  26.482  1.00  0.00     0.034 C 
HETATM   36  C13 UNL     1      71.192  50.828  25.667  1.00  0.00     0.034 C 
ENDBRANCH  28  34
ENDBRANCH   4  26
BRANCH   1  37
HETATM   37  O1  UNL     1      64.352  45.444  23.002  1.00  0.00    -0.353 OA
HETATM   38  C1  UNL     1      64.482  45.262  21.625  1.00  0.00     0.210 C 
ENDBRANCH   1  37
BRANCH   7  39
HETATM   39  O4  UNL     1      66.598  44.082  23.931  1.00  0.00    -0.351 OA
HETATM   40  C17 UNL     1      67.370  43.686  22.829  1.00  0.00     0.210 C 
ENDBRANCH   7  39
TORSDOF 8
ENDMDL
MODEL 5
REMARK VINA RESULT: -8.010175749      8.361     10.761
REMARK  8 active torsions:
REMARK  status: ('A' for Active; 'I' for Inactive)
REMARK    1  A    between atoms: O1_2  and  C2_3 
REMARK    2  A    between atoms: C4_5  and  N1_6 
REMARK    3  A    between atoms: C5_8  and  C6_9 
REMARK    4  A    between atoms: C7_14  and  N4_15 
REMARK    5  A    between atoms: N4_15  and  N5_17 
REMARK    6  A    between atoms: C9_24  and  C10_25 
REMARK    7  A    between atoms: N8_28  and  C11_29 
REMARK    8  A    between atoms: C16_38  and  O4_39 
ROOT
HETATM    1  C2  UNL     1      65.360  46.188  23.763  1.00  0.00     0.105 A 
HETATM    2  C3  UNL     1      65.308  47.507  24.139  1.00  0.00     0.070 A 
HETATM    3  C4  UNL     1      66.262  48.073  24.979  1.00  0.00     0.051 A 
HETATM    4  C9  UNL     1      67.286  47.304  25.448  1.00  0.00     0.063 A 
HETATM    5  C15 UNL     1      67.374  45.954  25.086  1.00  0.00     0.098 A 
HETATM    6  N10 UNL     1      68.413  45.101  25.540  1.00  0.00    -0.098 NA
HETATM    7  C16 UNL     1      66.408  45.443  24.256  1.00  0.00     0.127 A 
ENDROOT
BRANCH   3   8
HETATM    8  N1  UNL     1      66.095  49.432  25.289  1.00  0.00    -0.363 N 
HETATM    9  C5  UNL     1      66.824  50.348  24.747  1.00  0.00     0.125 C 
ATOM     10  H1  UNL     1      65.378  49.702  25.962  1.00  0.00     0.165 HD
BRANCH   9  11
HETATM   11  C6  UNL     1      66.640  51.760  25.079  1.00  0.00     0.132 A 
HETATM   12  N2  UNL     1      67.514  52.471  25.805  1.00  0.00    -0.280 N 
HETATM   13  N3  UNL     1      67.310  53.750  26.083  1.00  0.00    -0.130 N 
ATOM     14  H2  UNL     1      68.359  52.015  26.153  1.00  0.00     0.188 HD
HETATM   15  C7  UNL     1      66.190  54.358  25.624  1.00  0.00     0.713 A 
ATOM     16  H3  UNL     1      67.989  54.272  26.637  1.00  0.00     0.205 HD
HETATM   17  N6  UNL     1      65.301  53.681  24.898  1.00  0.00    -0.151 N 
HETATM   18  C8  UNL     1      65.511  52.392  24.621  1.00  0.00     0.289 A 
ATOM     19  H6  UNL     1      64.461  54.147  24.556  1.00  0.00     0.188 HD
HETATM   20  O2  UNL     1      64.657  51.743  23.925  1.00  0.00    -0.265 OA
BRANCH  15  21
HETATM   21  N4  UNL     1      65.983  55.594  25.886  1.00  0.00    -0.137 N 
ATOM     22  H4  UNL     1      65.193  56.083  25.466  1.00  0.00     0.205 HD
BRANCH  21  23
HETATM   23  N5  UNL     1      66.842  56.263  26.747  1.00  0.00    -0.331 N 
ATOM     24  H52 UNL     1      66.550  57.154  27.148  1.00  0.00     0.177 HD
ATOM     25  H51 UNL     1      67.751  55.855  26.967  1.00  0.00     0.177 HD
ENDBRANCH  21  23
ENDBRANCH  15  21
ENDBRANCH   9  11
ENDBRANCH   3   8
BRANCH   4  26
HETATM   26  C10 UNL     1      68.350  47.783  26.336  1.00  0.00     0.138 A 
HETATM   27  N7  UNL     1      69.617  48.081  25.959  1.00  0.00    -0.278 N 
HETATM   28  N8  UNL     1      70.287  48.470  27.002  1.00  0.00    -0.237 N 
ATOM     29  H7  UNL     1      69.985  48.011  25.010  1.00  0.00     0.189 HD
HETATM   30  C14 UNL     1      69.492  48.442  28.078  1.00  0.00     0.343 A 
HETATM   31  O3  UNL     1      69.795  48.755  29.278  1.00  0.00    -0.245 OA
HETATM   32  N9  UNL     1      68.278  48.005  27.635  1.00  0.00    -0.291 N 
ATOM     33  H9  UNL     1      67.449  47.873  28.213  1.00  0.00     0.172 HD
BRANCH  28  34
HETATM   34  C11 UNL     1      71.681  48.876  27.014  1.00  0.00     0.105 C 
HETATM   35  C12 UNL     1      72.540  48.002  26.163  1.00  0.00     0.034 C 
HETATM   36  C13 UNL     1      71.827  50.311  26.534  1.00  0.00     0.034 C 
ENDBRANCH  28  34
ENDBRANCH   4  26
BRANCH   1  37
HETATM   37  O1  UNL     1      64.395  45.660  22.926  1.00  0.00    -0.353 OA
HETATM   38  C1  UNL     1      64.569  45.459  21.557  1.00  0.00     0.210 C 
ENDBRANCH   1  37
BRANCH   7  39
HETATM   39  O4  UNL     1      66.492  44.101  23.893  1.00  0.00    -0.351 OA
HETATM   40  C17 UNL     1      67.278  43.664  22.817  1.00  0.00     0.210 C 
ENDBRANCH   7  39
TORSDOF 8
ENDMDL
