MODEL 1
REMARK VINA RESULT: -9.133122380      0.000      0.000
REMARK  12 active torsions:
REMARK  status: ('A' for Active; 'I' for Inactive)
REMARK    1  A    between atoms: O1_2  and  C2_3 
REMARK    2  A    between atoms: C2_3  and  C3_4 
REMARK       I    between atoms: C3_4  and  N1_6 
REMARK    3  A    between atoms: N1_6  and  N2_8 
REMARK    4  A    between atoms: N2_8  and  N3_9 
REMARK    5  A    between atoms: N3_9  and  O3_10 
REMARK    6  A    between atoms: N3_9  and  O4_12 
REMARK    7  A    between atoms: O4_12  and  C4_13 
REMARK    8  A    between atoms: C7_19  and  N5_20 
REMARK    9  A    between atoms: N5_20  and  N6_22 
REMARK   10  A    between atoms: C8_24  and  C9_25 
REMARK   11  A    between atoms: C12_28  and  O6_29 
REMARK   12  A    between atoms: C13_31  and  O7_32 
ROOT
HETATM    1  C2  UNL     1      67.969  46.922  26.396  1.00  0.00     0.213 C 
HETATM    2  C6  UNL     1      66.989  47.143  27.553  1.00  0.00     0.182 C 
HETATM    3  N4  UNL     1      67.219  48.382  28.167  1.00  0.00    -0.365 N 
ATOM      4  H4  UNL     1      66.977  48.512  29.149  1.00  0.00     0.161 HD
HETATM    5  C7  UNL     1      67.717  49.324  27.522  1.00  0.00     0.158 C 
HETATM    6  S1  UNL     1      68.014  48.704  25.872  1.00  0.00    -0.043 SA
ENDROOT
BRANCH   5   7
HETATM    7  N5  UNL     1      68.024  50.626  27.939  1.00  0.00    -0.280 N 
ATOM      8  H5  UNL     1      68.785  50.753  28.605  1.00  0.00     0.189 HD
BRANCH   7   9
HETATM    9  N6  UNL     1      67.336  51.766  27.487  1.00  0.00    -0.309 N 
HETATM   10  C8  UNL     1      67.664  52.394  26.421  1.00  0.00     0.118 C 
ATOM     11  H6  UNL     1      66.543  52.107  28.031  1.00  0.00     0.186 HD
BRANCH  10  12
HETATM   12  C9  UNL     1      66.883  53.569  26.041  1.00  0.00    -0.017 A 
HETATM   13  C10 UNL     1      67.297  54.861  26.324  1.00  0.00     0.016 A 
HETATM   14  C11 UNL     1      66.543  55.952  25.955  1.00  0.00     0.040 A 
HETATM   15  C12 UNL     1      65.345  55.802  25.290  1.00  0.00     0.098 A 
HETATM   16  C13 UNL     1      64.905  54.521  24.993  1.00  0.00     0.099 A 
HETATM   17  C14 UNL     1      65.678  53.445  25.374  1.00  0.00     0.052 A 
BRANCH  15  18
HETATM   18  O6  UNL     1      64.597  56.931  24.927  1.00  0.00    -0.358 OA
ATOM     19  H6  UNL     1      64.709  57.319  24.067  1.00  0.00     0.217 HD
ENDBRANCH  15  18
BRANCH  16  20
HETATM   20  O7  UNL     1      63.698  54.383  24.325  1.00  0.00    -0.358 OA
ATOM     21  H7  UNL     1      63.237  53.556  24.402  1.00  0.00     0.217 HD
ENDBRANCH  16  20
ENDBRANCH  10  12
ENDBRANCH   7   9
ENDBRANCH   5   7
BRANCH   1  22
HETATM   22  O1  UNL     1      69.221  46.615  26.843  1.00  0.00    -0.363 OA
HETATM   23  C1  UNL     1      70.263  47.292  26.254  1.00  0.00     0.204 C 
ENDBRANCH   1  22
BRANCH   1  24
HETATM   24  C3  UNL     1      67.406  46.105  25.338  1.00  0.00     0.282 C 
HETATM   25  O2  UNL     1      68.086  45.697  24.399  1.00  0.00    -0.268 OA
HETATM   26  N1  UNL     1      66.020  45.774  25.406  1.00  0.00    -0.251 N 
ATOM     27  H1  UNL     1      65.457  46.113  26.185  1.00  0.00     0.187 HD
BRANCH  26  28
HETATM   28  N2  UNL     1      65.433  44.991  24.414  1.00  0.00     0.009 NA
BRANCH  28  29
HETATM   29  N3  UNL     1      64.853  45.737  23.411  1.00  0.00     0.058 NA
BRANCH  29  30
HETATM   30  O3  UNL     1      64.155  46.774  23.897  1.00  0.00    -0.272 OA
ATOM     31  H3  UNL     1      64.638  47.589  23.831  1.00  0.00     0.241 HD
ENDBRANCH  29  30
BRANCH  29  32
HETATM   32  O4  UNL     1      64.132  44.975  22.520  1.00  0.00    -0.182 OA
BRANCH  32  33
HETATM   33  C4  UNL     1      64.529  44.772  21.204  1.00  0.00     0.275 C 
HETATM   34  C5  UNL     1      64.950  43.431  20.703  1.00  0.00     0.128 C 
HETATM   35  O5  UNL     1      64.518  45.776  20.445  1.00  0.00    -0.264 OA
ENDBRANCH  32  33
ENDBRANCH  29  32
ENDBRANCH  28  29
ENDBRANCH  26  28
ENDBRANCH   1  24
TORSDOF 12
ENDMDL
MODEL 2
REMARK VINA RESULT: -8.983189370      0.982      1.492
REMARK  12 active torsions:
REMARK  status: ('A' for Active; 'I' for Inactive)
REMARK    1  A    between atoms: O1_2  and  C2_3 
REMARK    2  A    between atoms: C2_3  and  C3_4 
REMARK       I    between atoms: C3_4  and  N1_6 
REMARK    3  A    between atoms: N1_6  and  N2_8 
REMARK    4  A    between atoms: N2_8  and  N3_9 
REMARK    5  A    between atoms: N3_9  and  O3_10 
REMARK    6  A    between atoms: N3_9  and  O4_12 
REMARK    7  A    between atoms: O4_12  and  C4_13 
REMARK    8  A    between atoms: C7_19  and  N5_20 
REMARK    9  A    between atoms: N5_20  and  N6_22 
REMARK   10  A    between atoms: C8_24  and  C9_25 
REMARK   11  A    between atoms: C12_28  and  O6_29 
REMARK   12  A    between atoms: C13_31  and  O7_32 
ROOT
HETATM    1  C2  UNL     1      67.793  47.062  26.816  1.00  0.00     0.213 C 
HETATM    2  C6  UNL     1      67.223  47.777  28.045  1.00  0.00     0.182 C 
HETATM    3  N4  UNL     1      67.793  49.050  28.186  1.00  0.00    -0.365 N 
ATOM      4  H4  UNL     1      67.861  49.474  29.112  1.00  0.00     0.161 HD
HETATM    5  C7  UNL     1      68.217  49.666  27.190  1.00  0.00     0.158 C 
HETATM    6  S1  UNL     1      67.941  48.600  25.782  1.00  0.00    -0.043 SA
ENDROOT
BRANCH   5   7
HETATM    7  N5  UNL     1      68.813  50.932  27.112  1.00  0.00    -0.280 N 
ATOM      8  H5  UNL     1      69.801  51.016  27.349  1.00  0.00     0.189 HD
BRANCH   7   9
HETATM    9  N6  UNL     1      68.119  52.092  26.724  1.00  0.00    -0.309 N 
HETATM   10  C8  UNL     1      66.951  52.057  26.203  1.00  0.00     0.118 C 
ATOM     11  H6  UNL     1      68.565  52.998  26.865  1.00  0.00     0.186 HD
BRANCH  10  12
HETATM   12  C9  UNL     1      66.317  53.322  25.835  1.00  0.00    -0.017 A 
HETATM   13  C10 UNL     1      65.045  53.385  25.290  1.00  0.00     0.016 A 
HETATM   14  C11 UNL     1      64.470  54.589  24.951  1.00  0.00     0.040 A 
HETATM   15  C12 UNL     1      65.139  55.780  25.140  1.00  0.00     0.098 A 
HETATM   16  C13 UNL     1      66.413  55.747  25.684  1.00  0.00     0.099 A 
HETATM   17  C14 UNL     1      66.967  54.529  26.015  1.00  0.00     0.052 A 
BRANCH  15  18
HETATM   18  O6  UNL     1      64.529  56.992  24.785  1.00  0.00    -0.358 OA
ATOM     19  H6  UNL     1      64.744  57.408  23.958  1.00  0.00     0.217 HD
ENDBRANCH  15  18
BRANCH  16  20
HETATM   20  O7  UNL     1      67.075  56.951  25.869  1.00  0.00    -0.358 OA
ATOM     21  H7  UNL     1      67.049  57.347  26.732  1.00  0.00     0.217 HD
ENDBRANCH  16  20
ENDBRANCH  10  12
ENDBRANCH   7   9
ENDBRANCH   5   7
BRANCH   1  22
HETATM   22  O1  UNL     1      69.063  46.613  27.032  1.00  0.00    -0.363 OA
HETATM   23  C1  UNL     1      69.958  46.794  26.004  1.00  0.00     0.204 C 
ENDBRANCH   1  22
BRANCH   1  24
HETATM   24  C3  UNL     1      66.842  46.147  26.213  1.00  0.00     0.282 C 
HETATM   25  O2  UNL     1      66.218  45.325  26.880  1.00  0.00    -0.268 OA
HETATM   26  N1  UNL     1      66.638  46.218  24.804  1.00  0.00    -0.251 N 
ATOM     27  H1  UNL     1      67.157  46.900  24.251  1.00  0.00     0.187 HD
BRANCH  26  28
HETATM   28  N2  UNL     1      65.735  45.361  24.178  1.00  0.00     0.009 NA
BRANCH  28  29
HETATM   29  N3  UNL     1      64.821  46.024  23.387  1.00  0.00     0.058 NA
BRANCH  29  30
HETATM   30  O3  UNL     1      64.026  46.829  24.106  1.00  0.00    -0.272 OA
ATOM     31  H3  UNL     1      63.674  47.539  23.583  1.00  0.00     0.241 HD
ENDBRANCH  29  30
BRANCH  29  32
HETATM   32  O4  UNL     1      64.121  45.183  22.552  1.00  0.00    -0.182 OA
BRANCH  32  33
HETATM   33  C4  UNL     1      64.498  44.934  21.239  1.00  0.00     0.275 C 
HETATM   34  C5  UNL     1      64.806  43.558  20.752  1.00  0.00     0.128 C 
HETATM   35  O5  UNL     1      64.571  45.928  20.469  1.00  0.00    -0.264 OA
ENDBRANCH  32  33
ENDBRANCH  29  32
ENDBRANCH  28  29
ENDBRANCH  26  28
ENDBRANCH   1  24
TORSDOF 12
ENDMDL
MODEL 3
REMARK VINA RESULT: -8.966179880      1.391      1.833
REMARK  12 active torsions:
REMARK  status: ('A' for Active; 'I' for Inactive)
REMARK    1  A    between atoms: O1_2  and  C2_3 
REMARK    2  A    between atoms: C2_3  and  C3_4 
REMARK       I    between atoms: C3_4  and  N1_6 
REMARK    3  A    between atoms: N1_6  and  N2_8 
REMARK    4  A    between atoms: N2_8  and  N3_9 
REMARK    5  A    between atoms: N3_9  and  O3_10 
REMARK    6  A    between atoms: N3_9  and  O4_12 
REMARK    7  A    between atoms: O4_12  and  C4_13 
REMARK    8  A    between atoms: C7_19  and  N5_20 
REMARK    9  A    between atoms: N5_20  and  N6_22 
REMARK   10  A    between atoms: C8_24  and  C9_25 
REMARK   11  A    between atoms: C12_28  and  O6_29 
REMARK   12  A    between atoms: C13_31  and  O7_32 
ROOT
HETATM    1  C2  UNL     1      66.908  46.368  25.213  1.00  0.00     0.213 C 
HETATM    2  C6  UNL     1      66.367  46.573  26.631  1.00  0.00     0.182 C 
HETATM    3  N4  UNL     1      66.853  47.769  27.178  1.00  0.00    -0.365 N 
ATOM      4  H4  UNL     1      66.949  47.860  28.190  1.00  0.00     0.161 HD
HETATM    5  C7  UNL     1      67.169  48.720  26.438  1.00  0.00     0.158 C 
HETATM    6  S1  UNL     1      66.882  48.170  24.761  1.00  0.00    -0.043 SA
ENDROOT
BRANCH   5   7
HETATM    7  N5  UNL     1      67.668  49.984  26.775  1.00  0.00    -0.280 N 
ATOM      8  H5  UNL     1      68.551  50.036  27.284  1.00  0.00     0.189 HD
BRANCH   7   9
HETATM    9  N6  UNL     1      67.015  51.187  26.450  1.00  0.00    -0.309 N 
HETATM   10  C8  UNL     1      67.635  52.298  26.323  1.00  0.00     0.118 C 
ATOM     11  H6  UNL     1      66.004  51.172  26.310  1.00  0.00     0.186 HD
BRANCH  10  12
HETATM   12  C9  UNL     1      66.861  53.490  25.983  1.00  0.00    -0.017 A 
HETATM   13  C10 UNL     1      67.283  54.769  26.310  1.00  0.00     0.016 A 
HETATM   14  C11 UNL     1      66.535  55.876  25.979  1.00  0.00     0.040 A 
HETATM   15  C12 UNL     1      65.335  55.756  25.309  1.00  0.00     0.098 A 
HETATM   16  C13 UNL     1      64.889  54.488  24.969  1.00  0.00     0.099 A 
HETATM   17  C14 UNL     1      65.656  53.396  25.312  1.00  0.00     0.052 A 
BRANCH  15  18
HETATM   18  O6  UNL     1      64.594  56.901  24.985  1.00  0.00    -0.358 OA
ATOM     19  H6  UNL     1      64.480  57.592  25.628  1.00  0.00     0.217 HD
ENDBRANCH  15  18
BRANCH  16  20
HETATM   20  O7  UNL     1      63.681  54.381  24.296  1.00  0.00    -0.358 OA
ATOM     21  H7  UNL     1      63.646  54.672  23.392  1.00  0.00     0.217 HD
ENDBRANCH  16  20
ENDBRANCH  10  12
ENDBRANCH   7   9
ENDBRANCH   5   7
BRANCH   1  22
HETATM   22  O1  UNL     1      68.217  45.985  25.219  1.00  0.00    -0.363 OA
HETATM   23  C1  UNL     1      68.920  46.196  24.056  1.00  0.00     0.204 C 
ENDBRANCH   1  22
BRANCH   1  24
HETATM   24  C3  UNL     1      65.988  45.629  24.368  1.00  0.00     0.282 C 
HETATM   25  O2  UNL     1      65.678  44.465  24.606  1.00  0.00    -0.268 OA
HETATM   26  N1  UNL     1      65.437  46.292  23.232  1.00  0.00    -0.251 N 
ATOM     27  H1  UNL     1      65.695  47.259  23.034  1.00  0.00     0.187 HD
BRANCH  26  28
HETATM   28  N2  UNL     1      64.548  45.626  22.389  1.00  0.00     0.009 NA
BRANCH  28  29
HETATM   29  N3  UNL     1      64.990  45.555  21.086  1.00  0.00     0.058 NA
BRANCH  29  30
HETATM   30  O3  UNL     1      64.310  46.383  20.280  1.00  0.00    -0.272 OA
ATOM     31  H3  UNL     1      63.965  47.133  20.752  1.00  0.00     0.241 HD
ENDBRANCH  29  30
BRANCH  29  32
HETATM   32  O4  UNL     1      65.048  44.266  20.606  1.00  0.00    -0.182 OA
BRANCH  32  33
HETATM   33  C4  UNL     1      65.664  43.229  21.295  1.00  0.00     0.275 C 
HETATM   34  C5  UNL     1      67.101  43.285  21.691  1.00  0.00     0.128 C 
HETATM   35  O5  UNL     1      64.951  42.230  21.575  1.00  0.00    -0.264 OA
ENDBRANCH  32  33
ENDBRANCH  29  32
ENDBRANCH  28  29
ENDBRANCH  26  28
ENDBRANCH   1  24
TORSDOF 12
ENDMDL
MODEL 4
REMARK VINA RESULT: -8.582491874      1.244      1.299
REMARK  12 active torsions:
REMARK  status: ('A' for Active; 'I' for Inactive)
REMARK    1  A    between atoms: O1_2  and  C2_3 
REMARK    2  A    between atoms: C2_3  and  C3_4 
REMARK       I    between atoms: C3_4  and  N1_6 
REMARK    3  A    between atoms: N1_6  and  N2_8 
REMARK    4  A    between atoms: N2_8  and  N3_9 
REMARK    5  A    between atoms: N3_9  and  O3_10 
REMARK    6  A    between atoms: N3_9  and  O4_12 
REMARK    7  A    between atoms: O4_12  and  C4_13 
REMARK    8  A    between atoms: C7_19  and  N5_20 
REMARK    9  A    between atoms: N5_20  and  N6_22 
REMARK   10  A    between atoms: C8_24  and  C9_25 
REMARK   11  A    between atoms: C12_28  and  O6_29 
REMARK   12  A    between atoms: C13_31  and  O7_32 
ROOT
HETATM    1  C2  UNL     1      69.132  47.374  25.069  1.00  0.00     0.213 C 
HETATM    2  C6  UNL     1      68.743  47.540  26.542  1.00  0.00     0.182 C 
HETATM    3  N4  UNL     1      69.137  48.798  27.019  1.00  0.00    -0.365 N 
ATOM      4  H4  UNL     1      69.341  48.922  28.011  1.00  0.00     0.161 HD
HETATM    5  C7  UNL     1      69.240  49.765  26.241  1.00  0.00     0.158 C 
HETATM    6  S1  UNL     1      68.825  49.150  24.614  1.00  0.00    -0.043 SA
ENDROOT
BRANCH   5   7
HETATM    7  N5  UNL     1      69.613  51.089  26.507  1.00  0.00    -0.280 N 
ATOM      8  H5  UNL     1      70.505  51.256  26.972  1.00  0.00     0.189 HD
BRANCH   7   9
HETATM    9  N6  UNL     1      68.819  52.200  26.169  1.00  0.00    -0.309 N 
HETATM   10  C8  UNL     1      67.585  52.293  26.495  1.00  0.00     0.118 C 
ATOM     11  H6  UNL     1      69.245  52.963  25.643  1.00  0.00     0.186 HD
BRANCH  10  12
HETATM   12  C9  UNL     1      66.851  53.491  26.094  1.00  0.00    -0.017 A 
HETATM   13  C10 UNL     1      67.298  54.769  26.385  1.00  0.00     0.016 A 
HETATM   14  C11 UNL     1      66.587  55.882  25.996  1.00  0.00     0.040 A 
HETATM   15  C12 UNL     1      65.401  55.768  25.303  1.00  0.00     0.098 A 
HETATM   16  C13 UNL     1      64.930  54.501  24.997  1.00  0.00     0.099 A 
HETATM   17  C14 UNL     1      65.659  53.403  25.398  1.00  0.00     0.052 A 
BRANCH  15  18
HETATM   18  O6  UNL     1      64.698  56.919  24.920  1.00  0.00    -0.358 OA
ATOM     19  H6  UNL     1      64.261  57.450  25.576  1.00  0.00     0.217 HD
ENDBRANCH  15  18
BRANCH  16  20
HETATM   20  O7  UNL     1      63.735  54.400  24.300  1.00  0.00    -0.358 OA
ATOM     21  H7  UNL     1      63.578  55.012  23.591  1.00  0.00     0.217 HD
ENDBRANCH  16  20
ENDBRANCH  10  12
ENDBRANCH   7   9
ENDBRANCH   5   7
BRANCH   1  22
HETATM   22  O1  UNL     1      70.470  47.158  24.918  1.00  0.00    -0.363 OA
HETATM   23  C1  UNL     1      71.096  47.872  23.925  1.00  0.00     0.204 C 
ENDBRANCH   1  22
BRANCH   1  24
HETATM   24  C3  UNL     1      68.218  46.509  24.347  1.00  0.00     0.282 C 
HETATM   25  O2  UNL     1      68.566  45.881  23.350  1.00  0.00    -0.268 OA
HETATM   26  N1  UNL     1      66.878  46.398  24.822  1.00  0.00    -0.251 N 
ATOM     27  H1  UNL     1      66.589  46.920  25.649  1.00  0.00     0.187 HD
BRANCH  26  28
HETATM   28  N2  UNL     1      65.961  45.580  24.164  1.00  0.00     0.009 NA
BRANCH  28  29
HETATM   29  N3  UNL     1      64.951  46.287  23.549  1.00  0.00     0.058 NA
BRANCH  29  30
HETATM   30  O3  UNL     1      64.220  46.986  24.429  1.00  0.00    -0.272 OA
ATOM     31  H3  UNL     1      63.479  47.412  24.016  1.00  0.00     0.241 HD
ENDBRANCH  29  30
BRANCH  29  32
HETATM   32  O4  UNL     1      64.184  45.512  22.709  1.00  0.00    -0.182 OA
BRANCH  32  33
HETATM   33  C4  UNL     1      64.596  45.138  21.437  1.00  0.00     0.275 C 
HETATM   34  C5  UNL     1      65.064  43.754  21.132  1.00  0.00     0.128 C 
HETATM   35  O5  UNL     1      64.559  46.024  20.543  1.00  0.00    -0.264 OA
ENDBRANCH  32  33
ENDBRANCH  29  32
ENDBRANCH  28  29
ENDBRANCH  26  28
ENDBRANCH   1  24
TORSDOF 12
ENDMDL
MODEL 5
REMARK VINA RESULT: -8.421429800      1.266      1.497
REMARK  12 active torsions:
REMARK  status: ('A' for Active; 'I' for Inactive)
REMARK    1  A    between atoms: O1_2  and  C2_3 
REMARK    2  A    between atoms: C2_3  and  C3_4 
REMARK       I    between atoms: C3_4  and  N1_6 
REMARK    3  A    between atoms: N1_6  and  N2_8 
REMARK    4  A    between atoms: N2_8  and  N3_9 
REMARK    5  A    between atoms: N3_9  and  O3_10 
REMARK    6  A    between atoms: N3_9  and  O4_12 
REMARK    7  A    between atoms: O4_12  and  C4_13 
REMARK    8  A    between atoms: C7_19  and  N5_20 
REMARK    9  A    between atoms: N5_20  and  N6_22 
REMARK   10  A    between atoms: C8_24  and  C9_25 
REMARK   11  A    between atoms: C12_28  and  O6_29 
REMARK   12  A    between atoms: C13_31  and  O7_32 
ROOT
HETATM    1  C2  UNL     1      68.467  47.309  26.524  1.00  0.00     0.213 C 
HETATM    2  C6  UNL     1      68.456  48.041  27.870  1.00  0.00     0.182 C 
HETATM    3  N4  UNL     1      69.036  49.311  27.748  1.00  0.00    -0.365 N 
ATOM      4  H4  UNL     1      69.481  49.744  28.558  1.00  0.00     0.161 HD
HETATM    5  C7  UNL     1      69.014  49.914  26.658  1.00  0.00     0.158 C 
HETATM    6  S1  UNL     1      68.180  48.835  25.502  1.00  0.00    -0.043 SA
ENDROOT
BRANCH   5   7
HETATM    7  N5  UNL     1      69.528  51.174  26.325  1.00  0.00    -0.280 N 
ATOM      8  H5  UNL     1      70.540  51.296  26.316  1.00  0.00     0.189 HD
BRANCH   7   9
HETATM    9  N6  UNL     1      68.720  52.280  26.004  1.00  0.00    -0.309 N 
HETATM   10  C8  UNL     1      67.512  52.395  26.411  1.00  0.00     0.118 C 
ATOM     11  H6  UNL     1      69.114  53.020  25.424  1.00  0.00     0.186 HD
BRANCH  10  12
HETATM   12  C9  UNL     1      66.759  53.585  26.020  1.00  0.00    -0.017 A 
HETATM   13  C10 UNL     1      67.204  54.868  26.293  1.00  0.00     0.016 A 
HETATM   14  C11 UNL     1      66.476  55.974  25.914  1.00  0.00     0.040 A 
HETATM   15  C12 UNL     1      65.275  55.846  25.249  1.00  0.00     0.098 A 
HETATM   16  C13 UNL     1      64.806  54.574  24.962  1.00  0.00     0.099 A 
HETATM   17  C14 UNL     1      65.553  53.484  25.352  1.00  0.00     0.052 A 
BRANCH  15  18
HETATM   18  O6  UNL     1      64.554  56.990  24.876  1.00  0.00    -0.358 OA
ATOM     19  H6  UNL     1      64.928  57.607  24.258  1.00  0.00     0.217 HD
ENDBRANCH  15  18
BRANCH  16  20
HETATM   20  O7  UNL     1      63.597  54.459  24.293  1.00  0.00    -0.358 OA
ATOM     21  H7  UNL     1      62.804  54.696  24.760  1.00  0.00     0.217 HD
ENDBRANCH  16  20
ENDBRANCH  10  12
ENDBRANCH   7   9
ENDBRANCH   5   7
BRANCH   1  22
HETATM   22  O1  UNL     1      69.712  46.853  26.204  1.00  0.00    -0.363 OA
HETATM   23  C1  UNL     1      70.054  46.895  24.873  1.00  0.00     0.204 C 
ENDBRANCH   1  22
BRANCH   1  24
HETATM   24  C3  UNL     1      67.350  46.395  26.379  1.00  0.00     0.282 C 
HETATM   25  O2  UNL     1      67.099  45.534  27.219  1.00  0.00    -0.268 OA
HETATM   26  N1  UNL     1      66.528  46.514  25.219  1.00  0.00    -0.251 N 
ATOM     27  H1  UNL     1      66.737  47.228  24.521  1.00  0.00     0.187 HD
BRANCH  26  28
HETATM   28  N2  UNL     1      65.443  45.659  25.033  1.00  0.00     0.009 NA
BRANCH  28  29
HETATM   29  N3  UNL     1      65.717  44.616  24.175  1.00  0.00     0.058 NA
BRANCH  29  30
HETATM   30  O3  UNL     1      66.495  43.687  24.749  1.00  0.00    -0.272 OA
ATOM     31  H3  UNL     1      67.291  43.536  24.253  1.00  0.00     0.241 HD
ENDBRANCH  29  30
BRANCH  29  32
HETATM   32  O4  UNL     1      66.191  45.034  22.952  1.00  0.00    -0.182 OA
BRANCH  32  33
HETATM   33  C4  UNL     1      65.360  45.339  21.883  1.00  0.00     0.275 C 
HETATM   34  C5  UNL     1      64.616  44.286  21.134  1.00  0.00     0.128 C 
HETATM   35  O5  UNL     1      65.260  46.554  21.568  1.00  0.00    -0.264 OA
ENDBRANCH  32  33
ENDBRANCH  29  32
ENDBRANCH  28  29
ENDBRANCH  26  28
ENDBRANCH   1  24
TORSDOF 12
ENDMDL
