MODEL 1
REMARK VINA RESULT: -7.541070924      0.000      0.000
REMARK  11 active torsions:
REMARK  status: ('A' for Active; 'I' for Inactive)
REMARK    1  A    between atoms: C2_2  and  C3_3 
REMARK    2  A    between atoms: C3_3  and  N1_4 
REMARK       I    between atoms: N1_4  and  C4_6 
REMARK    3  A    between atoms: C4_6  and  C5_8 
REMARK    4  A    between atoms: C7_13  and  N4_14 
REMARK    5  A    between atoms: C10_22  and  N7_23 
REMARK    6  A    between atoms: N7_23  and  C11_24 
REMARK    7  A    between atoms: C14_27  and  N8_28 
REMARK    8  A    between atoms: C16_32  and  N9_33 
REMARK    9  A    between atoms: N9_33  and  O4_34 
REMARK   10  A    between atoms: N10_36  and  N11_38 
REMARK   11  A    between atoms: N11_38  and  N12_40 
ROOT
HETATM    1  C5  UNL     1      68.615  50.928  25.879  1.00  0.00     0.108 A 
HETATM    2  C6  UNL     1      69.087  52.145  26.315  1.00  0.00     0.158 A 
HETATM    3  N2  UNL     1      68.325  53.257  26.292  1.00  0.00    -0.081 N 
HETATM    4  N3  UNL     1      68.610  54.502  26.667  1.00  0.00    -0.111 N 
ATOM      5  H3  UNL     1      69.495  54.827  27.055  1.00  0.00     0.207 HD
HETATM    6  C7  UNL     1      67.521  55.251  26.443  1.00  0.00     0.706 A 
HETATM    7  N5  UNL     1      66.571  54.435  25.925  1.00  0.00    -0.019 N 
ATOM      8  H5  UNL     1      65.629  54.713  25.650  1.00  0.00     0.203 HD
HETATM    9  C8  UNL     1      67.086  53.186  25.836  1.00  0.00     0.722 A 
HETATM   10  N6  UNL     1      66.596  52.006  25.398  1.00  0.00    -0.157 N 
HETATM   11  C9  UNL     1      65.231  52.072  24.911  1.00  0.00     0.178 C 
HETATM   12  C10 UNL     1      67.302  50.850  25.394  1.00  0.00     0.213 A 
ENDROOT
BRANCH  12  13
HETATM   13  N7  UNL     1      66.895  49.829  24.955  1.00  0.00    -0.383 NA
BRANCH  13  14
HETATM   14  C11 UNL     1      66.537  48.729  24.274  1.00  0.00     0.140 A 
HETATM   15  C12 UNL     1      65.359  48.033  24.771  1.00  0.00     0.050 A 
HETATM   16  C13 UNL     1      64.988  46.899  24.117  1.00  0.00     0.039 A 
HETATM   17  C14 UNL     1      65.649  46.383  23.037  1.00  0.00     0.105 A 
HETATM   18  C15 UNL     1      66.745  47.044  22.587  1.00  0.00     0.073 A 
HETATM   19  C16 UNL     1      67.207  48.219  23.189  1.00  0.00     0.125 A 
BRANCH  17  20
HETATM   20  N8  UNL     1      65.152  45.211  22.459  1.00  0.00    -0.116 N 
HETATM   21  O2  UNL     1      63.932  44.942  22.597  1.00  0.00    -0.532 OA
HETATM   22  O3  UNL     1      65.940  44.360  21.746  1.00  0.00    -0.532 OA
ENDBRANCH  17  20
BRANCH  19  23
HETATM   23  N9  UNL     1      68.351  48.860  22.641  1.00  0.00    -0.144 N 
HETATM   24  N10 UNL     1      69.472  48.307  22.610  1.00  0.00    -0.202 N 
ATOM     25  H10 UNL     1      69.531  47.365  22.998  1.00  0.00     0.212 HD
BRANCH  23  26
HETATM   26  O4  UNL     1      68.198  50.123  22.129  1.00  0.00    -0.266 OA
ATOM     27  H4  UNL     1      68.772  50.389  21.421  1.00  0.00     0.247 HD
ENDBRANCH  23  26
BRANCH  24  28
HETATM   28  N11 UNL     1      70.618  48.837  22.110  1.00  0.00    -0.233 N 
ATOM     29  H11 UNL     1      71.074  48.356  21.335  1.00  0.00     0.209 HD
BRANCH  28  30
HETATM   30  N12 UNL     1      71.205  50.002  22.602  1.00  0.00    -0.330 N 
ATOM     31 2H12 UNL     1      70.751  50.454  23.396  1.00  0.00     0.178 HD
ATOM     32 1H12 UNL     1      72.051  50.415  22.210  1.00  0.00     0.178 HD
ENDBRANCH  28  30
ENDBRANCH  24  28
ENDBRANCH  19  23
ENDBRANCH  13  14
ENDBRANCH  12  13
BRANCH   1  33
HETATM   33  C4  UNL     1      69.487  49.764  26.000  1.00  0.00     0.258 C 
HETATM   34  N1  UNL     1      69.168  48.755  26.927  1.00  0.00    -0.357 N 
ATOM     35  H1  UNL     1      68.332  48.841  27.504  1.00  0.00     0.162 HD
HETATM   36  O1  UNL     1      70.496  49.682  25.295  1.00  0.00    -0.267 OA
BRANCH  34  37
HETATM   37  C3  UNL     1      70.039  47.575  27.068  1.00  0.00     0.122 C 
BRANCH  37  38
HETATM   38  C2  UNL     1      69.400  46.455  26.281  1.00  0.00     0.015 C 
HETATM   39  C1  UNL     1      67.976  46.305  26.729  1.00  0.00     0.006 C 
ENDBRANCH  37  38
ENDBRANCH  34  37
ENDBRANCH   1  33
BRANCH   6  40
HETATM   40  N4  UNL     1      67.397  56.515  26.671  1.00  0.00    -0.233 N 
ATOM     41  H42 UNL     1      67.902  57.053  27.376  1.00  0.00     0.174 HD
ATOM     42  H41 UNL     1      66.776  57.162  26.185  1.00  0.00     0.174 HD
ENDBRANCH   6  40
TORSDOF 11
ENDMDL
MODEL 2
REMARK VINA RESULT: -7.420668918      2.368      3.876
REMARK  11 active torsions:
REMARK  status: ('A' for Active; 'I' for Inactive)
REMARK    1  A    between atoms: C2_2  and  C3_3 
REMARK    2  A    between atoms: C3_3  and  N1_4 
REMARK       I    between atoms: N1_4  and  C4_6 
REMARK    3  A    between atoms: C4_6  and  C5_8 
REMARK    4  A    between atoms: C7_13  and  N4_14 
REMARK    5  A    between atoms: C10_22  and  N7_23 
REMARK    6  A    between atoms: N7_23  and  C11_24 
REMARK    7  A    between atoms: C14_27  and  N8_28 
REMARK    8  A    between atoms: C16_32  and  N9_33 
REMARK    9  A    between atoms: N9_33  and  O4_34 
REMARK   10  A    between atoms: N10_36  and  N11_38 
REMARK   11  A    between atoms: N11_38  and  N12_40 
ROOT
HETATM    1  C5  UNL     1      70.551  52.557  26.188  1.00  0.00     0.108 A 
HETATM    2  C6  UNL     1      71.400  53.575  26.556  1.00  0.00     0.158 A 
HETATM    3  N2  UNL     1      70.946  54.804  26.877  1.00  0.00    -0.081 N 
HETATM    4  N3  UNL     1      71.610  55.896  27.251  1.00  0.00    -0.111 N 
ATOM      5  H3  UNL     1      72.620  55.978  27.361  1.00  0.00     0.207 HD
HETATM    6  C7  UNL     1      70.709  56.867  27.455  1.00  0.00     0.706 A 
HETATM    7  N5  UNL     1      69.486  56.341  27.198  1.00  0.00    -0.019 N 
ATOM      8  H5  UNL     1      68.597  56.836  27.265  1.00  0.00     0.203 HD
HETATM    9  C8  UNL     1      69.647  55.047  26.837  1.00  0.00     0.722 A 
HETATM   10  N6  UNL     1      68.789  54.067  26.477  1.00  0.00    -0.157 N 
HETATM   11  C9  UNL     1      67.396  54.472  26.461  1.00  0.00     0.178 C 
HETATM   12  C10 UNL     1      69.173  52.812  26.144  1.00  0.00     0.213 A 
ENDROOT
BRANCH  12  13
HETATM   13  N7  UNL     1      68.429  51.971  25.770  1.00  0.00    -0.383 NA
BRANCH  13  14
HETATM   14  C11 UNL     1      67.697  50.884  25.479  1.00  0.00     0.140 A 
HETATM   15  C12 UNL     1      67.126  50.847  24.139  1.00  0.00     0.050 A 
HETATM   16  C13 UNL     1      66.357  49.769  23.824  1.00  0.00     0.039 A 
HETATM   17  C14 UNL     1      66.093  48.737  24.680  1.00  0.00     0.105 A 
HETATM   18  C15 UNL     1      66.632  48.787  25.924  1.00  0.00     0.073 A 
HETATM   19  C16 UNL     1      67.438  49.850  26.345  1.00  0.00     0.125 A 
BRANCH  17  20
HETATM   20  N8  UNL     1      65.288  47.690  24.221  1.00  0.00    -0.116 N 
HETATM   21  O2  UNL     1      64.244  47.407  24.862  1.00  0.00    -0.532 OA
HETATM   22  O3  UNL     1      65.591  46.974  23.103  1.00  0.00    -0.532 OA
ENDBRANCH  17  20
BRANCH  19  23
HETATM   23  N9  UNL     1      67.980  49.815  27.658  1.00  0.00    -0.144 N 
HETATM   24  N10 UNL     1      69.012  49.165  27.934  1.00  0.00    -0.202 N 
ATOM     25  H10 UNL     1      69.453  48.656  27.168  1.00  0.00     0.212 HD
BRANCH  23  26
HETATM   26  O4  UNL     1      67.340  50.529  28.638  1.00  0.00    -0.266 OA
ATOM     27  H4  UNL     1      67.052  50.062  29.413  1.00  0.00     0.247 HD
ENDBRANCH  23  26
BRANCH  24  28
HETATM   28  N11 UNL     1      69.603  49.071  29.153  1.00  0.00    -0.233 N 
ATOM     29  H11 UNL     1      69.006  49.066  29.980  1.00  0.00     0.209 HD
BRANCH  28  30
HETATM   30  N12 UNL     1      70.983  48.979  29.333  1.00  0.00    -0.330 N 
ATOM     31 2H12 UNL     1      71.574  49.196  28.531  1.00  0.00     0.178 HD
ATOM     32 1H12 UNL     1      71.418  48.711  30.215  1.00  0.00     0.178 HD
ENDBRANCH  28  30
ENDBRANCH  24  28
ENDBRANCH  19  23
ENDBRANCH  13  14
ENDBRANCH  12  13
BRANCH   1  33
HETATM   33  C4  UNL     1      71.124  51.242  25.919  1.00  0.00     0.258 C 
HETATM   34  N1  UNL     1      71.292  50.821  24.586  1.00  0.00    -0.357 N 
ATOM     35  H1  UNL     1      71.018  51.437  23.820  1.00  0.00     0.162 HD
HETATM   36  O1  UNL     1      71.445  50.511  26.860  1.00  0.00    -0.267 OA
BRANCH  34  37
HETATM   37  C3  UNL     1      71.863  49.495  24.294  1.00  0.00     0.122 C 
BRANCH  37  38
HETATM   38  C2  UNL     1      70.771  48.675  23.648  1.00  0.00     0.015 C 
HETATM   39  C1  UNL     1      70.113  47.837  24.703  1.00  0.00     0.006 C 
ENDBRANCH  37  38
ENDBRANCH  34  37
ENDBRANCH   1  33
BRANCH   6  40
HETATM   40  N4  UNL     1      70.955  58.079  27.822  1.00  0.00    -0.233 N 
ATOM     41  H42 UNL     1      71.801  58.407  28.288  1.00  0.00     0.174 HD
ATOM     42  H41 UNL     1      70.342  58.885  27.705  1.00  0.00     0.174 HD
ENDBRANCH   6  40
TORSDOF 11
ENDMDL
MODEL 3
REMARK VINA RESULT: -7.345050342      2.560      5.480
REMARK  11 active torsions:
REMARK  status: ('A' for Active; 'I' for Inactive)
REMARK    1  A    between atoms: C2_2  and  C3_3 
REMARK    2  A    between atoms: C3_3  and  N1_4 
REMARK       I    between atoms: N1_4  and  C4_6 
REMARK    3  A    between atoms: C4_6  and  C5_8 
REMARK    4  A    between atoms: C7_13  and  N4_14 
REMARK    5  A    between atoms: C10_22  and  N7_23 
REMARK    6  A    between atoms: N7_23  and  C11_24 
REMARK    7  A    between atoms: C14_27  and  N8_28 
REMARK    8  A    between atoms: C16_32  and  N9_33 
REMARK    9  A    between atoms: N9_33  and  O4_34 
REMARK   10  A    between atoms: N10_36  and  N11_38 
REMARK   11  A    between atoms: N11_38  and  N12_40 
ROOT
HETATM    1  C5  UNL     1      66.273  51.285  24.777  1.00  0.00     0.108 A 
HETATM    2  C6  UNL     1      65.211  52.079  24.412  1.00  0.00     0.158 A 
HETATM    3  N2  UNL     1      65.156  53.389  24.730  1.00  0.00    -0.081 N 
HETATM    4  N3  UNL     1      64.221  54.299  24.466  1.00  0.00    -0.111 N 
ATOM      5  H3  UNL     1      63.355  54.141  23.952  1.00  0.00     0.207 HD
HETATM    6  C7  UNL     1      64.626  55.460  24.999  1.00  0.00     0.706 A 
HETATM    7  N5  UNL     1      65.824  55.235  25.591  1.00  0.00    -0.019 N 
ATOM      8  H5  UNL     1      66.387  55.929  26.085  1.00  0.00     0.203 HD
HETATM    9  C8  UNL     1      66.147  53.933  25.416  1.00  0.00     0.722 A 
HETATM   10  N6  UNL     1      67.202  53.177  25.791  1.00  0.00    -0.157 N 
HETATM   11  C9  UNL     1      68.210  53.894  26.549  1.00  0.00     0.178 C 
HETATM   12  C10 UNL     1      67.326  51.859  25.505  1.00  0.00     0.213 A 
ENDROOT
BRANCH  12  13
HETATM   13  N7  UNL     1      68.219  51.181  25.884  1.00  0.00    -0.383 NA
BRANCH  13  14
HETATM   14  C11 UNL     1      69.276  50.383  26.103  1.00  0.00     0.140 A 
HETATM   15  C12 UNL     1      70.396  50.552  25.187  1.00  0.00     0.050 A 
HETATM   16  C13 UNL     1      71.471  49.738  25.368  1.00  0.00     0.039 A 
HETATM   17  C14 UNL     1      71.559  48.785  26.344  1.00  0.00     0.105 A 
HETATM   18  C15 UNL     1      70.507  48.641  27.189  1.00  0.00     0.073 A 
HETATM   19  C16 UNL     1      69.356  49.429  27.088  1.00  0.00     0.125 A 
BRANCH  17  20
HETATM   20  N8  UNL     1      72.728  48.022  26.417  1.00  0.00    -0.116 N 
HETATM   21  O2  UNL     1      72.885  47.254  27.401  1.00  0.00    -0.532 OA
HETATM   22  O3  UNL     1      73.694  48.074  25.459  1.00  0.00    -0.532 OA
ENDBRANCH  17  20
BRANCH  19  23
HETATM   23  N9  UNL     1      68.308  49.227  28.027  1.00  0.00    -0.144 N 
HETATM   24  N10 UNL     1      68.511  49.226  29.260  1.00  0.00    -0.202 N 
ATOM     25  H10 UNL     1      69.472  49.378  29.568  1.00  0.00     0.212 HD
BRANCH  23  26
HETATM   26  O4  UNL     1      67.039  49.037  27.543  1.00  0.00    -0.266 OA
ATOM     27  H4  UNL     1      66.311  49.338  28.072  1.00  0.00     0.247 HD
ENDBRANCH  23  26
BRANCH  24  28
HETATM   28  N11 UNL     1      67.579  49.042  30.230  1.00  0.00    -0.233 N 
ATOM     29  H11 UNL     1      67.636  49.618  31.070  1.00  0.00     0.209 HD
BRANCH  28  30
HETATM   30  N12 UNL     1      66.548  48.107  30.139  1.00  0.00    -0.330 N 
ATOM     31 2H12 UNL     1      66.331  47.741  29.212  1.00  0.00     0.178 HD
ATOM     32 1H12 UNL     1      66.013  47.780  30.942  1.00  0.00     0.178 HD
ENDBRANCH  28  30
ENDBRANCH  24  28
ENDBRANCH  19  23
ENDBRANCH  13  14
ENDBRANCH  12  13
BRANCH   1  33
HETATM   33  C4  UNL     1      66.280  49.893  24.336  1.00  0.00     0.258 C 
HETATM   34  N1  UNL     1      67.173  49.493  23.324  1.00  0.00    -0.357 N 
ATOM     35  H1  UNL     1      67.810  50.174  22.910  1.00  0.00     0.162 HD
HETATM   36  O1  UNL     1      65.499  49.087  24.848  1.00  0.00    -0.267 OA
BRANCH  34  37
HETATM   37  C3  UNL     1      67.191  48.095  22.861  1.00  0.00     0.122 C 
BRANCH  37  38
HETATM   38  C2  UNL     1      68.562  47.541  23.175  1.00  0.00     0.015 C 
HETATM   39  C1  UNL     1      68.510  46.859  24.509  1.00  0.00     0.006 C 
ENDBRANCH  37  38
ENDBRANCH  34  37
ENDBRANCH   1  33
BRANCH   6  40
HETATM   40  N4  UNL     1      63.993  56.584  24.964  1.00  0.00    -0.233 N 
ATOM     41  H42 UNL     1      64.370  57.479  24.651  1.00  0.00     0.174 HD
ATOM     42  H41 UNL     1      63.026  56.746  25.247  1.00  0.00     0.174 HD
ENDBRANCH   6  40
TORSDOF 11
ENDMDL
MODEL 4
REMARK VINA RESULT: -7.253479417      1.378      1.609
REMARK  11 active torsions:
REMARK  status: ('A' for Active; 'I' for Inactive)
REMARK    1  A    between atoms: C2_2  and  C3_3 
REMARK    2  A    between atoms: C3_3  and  N1_4 
REMARK       I    between atoms: N1_4  and  C4_6 
REMARK    3  A    between atoms: C4_6  and  C5_8 
REMARK    4  A    between atoms: C7_13  and  N4_14 
REMARK    5  A    between atoms: C10_22  and  N7_23 
REMARK    6  A    between atoms: N7_23  and  C11_24 
REMARK    7  A    between atoms: C14_27  and  N8_28 
REMARK    8  A    between atoms: C16_32  and  N9_33 
REMARK    9  A    between atoms: N9_33  and  O4_34 
REMARK   10  A    between atoms: N10_36  and  N11_38 
REMARK   11  A    between atoms: N11_38  and  N12_40 
ROOT
HETATM    1  C5  UNL     1      69.917  51.190  25.575  1.00  0.00     0.108 A 
HETATM    2  C6  UNL     1      70.687  52.262  25.961  1.00  0.00     0.158 A 
HETATM    3  N2  UNL     1      70.140  53.425  26.371  1.00  0.00    -0.081 N 
HETATM    4  N3  UNL     1      70.721  54.553  26.775  1.00  0.00    -0.111 N 
ATOM      5  H3  UNL     1      71.723  54.723  26.844  1.00  0.00     0.207 HD
HETATM    6  C7  UNL     1      69.747  55.424  27.075  1.00  0.00     0.706 A 
HETATM    7  N5  UNL     1      68.565  54.800  26.845  1.00  0.00    -0.019 N 
ATOM      8  H5  UNL     1      67.639  55.206  26.980  1.00  0.00     0.203 HD
HETATM    9  C8  UNL     1      68.824  53.547  26.405  1.00  0.00     0.722 A 
HETATM   10  N6  UNL     1      68.042  52.512  26.029  1.00  0.00    -0.157 N 
HETATM   11  C9  UNL     1      66.618  52.786  26.099  1.00  0.00     0.178 C 
HETATM   12  C10 UNL     1      68.521  51.317  25.608  1.00  0.00     0.213 A 
ENDROOT
BRANCH  12  13
HETATM   13  N7  UNL     1      67.838  50.431  25.221  1.00  0.00    -0.383 NA
BRANCH  13  14
HETATM   14  C11 UNL     1      67.250  49.312  24.769  1.00  0.00     0.140 A 
HETATM   15  C12 UNL     1      66.380  48.628  25.716  1.00  0.00     0.050 A 
HETATM   16  C13 UNL     1      65.790  47.477  25.293  1.00  0.00     0.039 A 
HETATM   17  C14 UNL     1      65.966  46.934  24.052  1.00  0.00     0.105 A 
HETATM   18  C15 UNL     1      66.779  47.584  23.181  1.00  0.00     0.073 A 
HETATM   19  C16 UNL     1      67.431  48.775  23.518  1.00  0.00     0.125 A 
BRANCH  17  20
HETATM   20  N8  UNL     1      65.293  45.746  23.751  1.00  0.00    -0.116 N 
HETATM   21  O2  UNL     1      65.624  44.695  24.358  1.00  0.00    -0.532 OA
HETATM   22  O3  UNL     1      64.290  45.689  22.833  1.00  0.00    -0.532 OA
ENDBRANCH  17  20
BRANCH  19  23
HETATM   23  N9  UNL     1      68.249  49.403  22.540  1.00  0.00    -0.144 N 
HETATM   24  N10 UNL     1      69.334  48.909  22.164  1.00  0.00    -0.202 N 
ATOM     25  H10 UNL     1      69.610  48.025  22.593  1.00  0.00     0.212 HD
BRANCH  23  26
HETATM   26  O4  UNL     1      67.812  50.585  21.999  1.00  0.00    -0.266 OA
ATOM     27  H4  UNL     1      67.087  50.554  21.387  1.00  0.00     0.247 HD
ENDBRANCH  23  26
BRANCH  24  28
HETATM   28  N11 UNL     1      70.181  49.432  21.240  1.00  0.00    -0.233 N 
ATOM     29  H11 UNL     1      70.393  48.878  20.411  1.00  0.00     0.209 HD
BRANCH  28  30
HETATM   30  N12 UNL     1      70.775  50.687  21.367  1.00  0.00    -0.330 N 
ATOM     31 2H12 UNL     1      71.219  51.079  20.536  1.00  0.00     0.178 HD
ATOM     32 1H12 UNL     1      70.787  51.219  22.237  1.00  0.00     0.178 HD
ENDBRANCH  28  30
ENDBRANCH  24  28
ENDBRANCH  19  23
ENDBRANCH  13  14
ENDBRANCH  12  13
BRANCH   1  33
HETATM   33  C4  UNL     1      70.592  49.950  25.205  1.00  0.00     0.258 C 
HETATM   34  N1  UNL     1      70.452  48.816  26.027  1.00  0.00    -0.357 N 
ATOM     35  H1  UNL     1      69.880  48.866  26.870  1.00  0.00     0.162 HD
HETATM   36  O1  UNL     1      71.283  49.912  24.184  1.00  0.00    -0.267 OA
BRANCH  34  37
HETATM   37  C3  UNL     1      71.130  47.556  25.675  1.00  0.00     0.122 C 
BRANCH  37  38
HETATM   38  C2  UNL     1      70.106  46.674  25.003  1.00  0.00     0.015 C 
HETATM   39  C1  UNL     1      69.116  46.216  26.033  1.00  0.00     0.006 C 
ENDBRANCH  37  38
ENDBRANCH  34  37
ENDBRANCH   1  33
BRANCH   6  40
HETATM   40  N4  UNL     1      69.900  56.633  27.498  1.00  0.00    -0.233 N 
ATOM     41  H42 UNL     1      70.097  57.452  26.923  1.00  0.00     0.174 HD
ATOM     42  H41 UNL     1      69.854  56.948  28.467  1.00  0.00     0.174 HD
ENDBRANCH   6  40
TORSDOF 11
ENDMDL
MODEL 5
REMARK VINA RESULT: -7.129589191      2.325      3.676
REMARK  11 active torsions:
REMARK  status: ('A' for Active; 'I' for Inactive)
REMARK    1  A    between atoms: C2_2  and  C3_3 
REMARK    2  A    between atoms: C3_3  and  N1_4 
REMARK       I    between atoms: N1_4  and  C4_6 
REMARK    3  A    between atoms: C4_6  and  C5_8 
REMARK    4  A    between atoms: C7_13  and  N4_14 
REMARK    5  A    between atoms: C10_22  and  N7_23 
REMARK    6  A    between atoms: N7_23  and  C11_24 
REMARK    7  A    between atoms: C14_27  and  N8_28 
REMARK    8  A    between atoms: C16_32  and  N9_33 
REMARK    9  A    between atoms: N9_33  and  O4_34 
REMARK   10  A    between atoms: N10_36  and  N11_38 
REMARK   11  A    between atoms: N11_38  and  N12_40 
ROOT
HETATM    1  C5  UNL     1      70.758  51.998  25.958  1.00  0.00     0.108 A 
HETATM    2  C6  UNL     1      71.509  53.098  26.302  1.00  0.00     0.158 A 
HETATM    3  N2  UNL     1      70.942  54.252  26.708  1.00  0.00    -0.081 N 
HETATM    4  N3  UNL     1      71.502  55.403  27.075  1.00  0.00    -0.111 N 
ATOM      5  H3  UNL     1      72.501  55.602  27.110  1.00  0.00     0.207 HD
HETATM    6  C7  UNL     1      70.513  56.252  27.388  1.00  0.00     0.706 A 
HETATM    7  N5  UNL     1      69.344  55.592  27.204  1.00  0.00    -0.019 N 
ATOM      8  H5  UNL     1      68.410  55.975  27.360  1.00  0.00     0.203 HD
HETATM    9  C8  UNL     1      69.624  54.338  26.779  1.00  0.00     0.722 A 
HETATM   10  N6  UNL     1      68.861  53.275  26.444  1.00  0.00    -0.157 N 
HETATM   11  C9  UNL     1      67.433  53.511  26.553  1.00  0.00     0.178 C 
HETATM   12  C10 UNL     1      69.361  52.087  26.031  1.00  0.00     0.213 A 
ENDROOT
BRANCH  12  13
HETATM   13  N7  UNL     1      68.692  51.175  25.680  1.00  0.00    -0.383 NA
BRANCH  13  14
HETATM   14  C11 UNL     1      67.892  50.113  25.495  1.00  0.00     0.140 A 
HETATM   15  C12 UNL     1      66.829  50.286  24.515  1.00  0.00     0.050 A 
HETATM   16  C13 UNL     1      65.986  49.235  24.324  1.00  0.00     0.039 A 
HETATM   17  C14 UNL     1      66.078  48.045  24.991  1.00  0.00     0.105 A 
HETATM   18  C15 UNL     1      67.074  47.901  25.902  1.00  0.00     0.073 A 
HETATM   19  C16 UNL     1      67.993  48.920  26.169  1.00  0.00     0.125 A 
BRANCH  17  20
HETATM   20  N8  UNL     1      65.145  47.048  24.692  1.00  0.00    -0.116 N 
HETATM   21  O2  UNL     1      63.930  47.365  24.608  1.00  0.00    -0.532 OA
HETATM   22  O3  UNL     1      65.505  45.753  24.481  1.00  0.00    -0.532 OA
ENDBRANCH  17  20
BRANCH  19  23
HETATM   23  N9  UNL     1      69.018  48.679  27.123  1.00  0.00    -0.144 N 
HETATM   24  N10 UNL     1      68.988  49.172  28.271  1.00  0.00    -0.202 N 
ATOM     25  H10 UNL     1      68.186  49.761  28.497  1.00  0.00     0.212 HD
BRANCH  23  26
HETATM   26  O4  UNL     1      70.063  47.871  26.754  1.00  0.00    -0.266 OA
ATOM     27  H4  UNL     1      70.917  48.048  27.128  1.00  0.00     0.247 HD
ENDBRANCH  23  26
BRANCH  24  28
HETATM   28  N11 UNL     1      69.917  49.001  29.247  1.00  0.00    -0.233 N 
ATOM     29  H11 UNL     1      69.606  48.654  30.154  1.00  0.00     0.209 HD
BRANCH  28  30
HETATM   30  N12 UNL     1      71.273  49.274  29.073  1.00  0.00    -0.330 N 
ATOM     31 2H12 UNL     1      71.934  48.536  29.318  1.00  0.00     0.178 HD
ATOM     32 1H12 UNL     1      71.627  50.163  28.720  1.00  0.00     0.178 HD
ENDBRANCH  28  30
ENDBRANCH  24  28
ENDBRANCH  19  23
ENDBRANCH  13  14
ENDBRANCH  12  13
BRANCH   1  33
HETATM   33  C4  UNL     1      71.457  50.770  25.590  1.00  0.00     0.258 C 
HETATM   34  N1  UNL     1      71.335  50.272  24.280  1.00  0.00    -0.357 N 
ATOM     35  H1  UNL     1      70.766  50.771  23.597  1.00  0.00     0.162 HD
HETATM   36  O1  UNL     1      72.137  50.179  26.433  1.00  0.00    -0.267 OA
BRANCH  34  37
HETATM   37  C3  UNL     1      72.028  49.031  23.891  1.00  0.00     0.122 C 
BRANCH  37  38
HETATM   38  C2  UNL     1      70.964  48.032  23.503  1.00  0.00     0.015 C 
HETATM   39  C1  UNL     1      69.888  48.747  22.740  1.00  0.00     0.006 C 
ENDBRANCH  37  38
ENDBRANCH  34  37
ENDBRANCH   1  33
BRANCH   6  40
HETATM   40  N4  UNL     1      70.645  57.473  27.785  1.00  0.00    -0.233 N 
ATOM     41  H42 UNL     1      71.324  58.149  27.436  1.00  0.00     0.174 HD
ATOM     42  H41 UNL     1      70.096  57.939  28.507  1.00  0.00     0.174 HD
ENDBRANCH   6  40
TORSDOF 11
ENDMDL
