MODEL 1
REMARK VINA RESULT: -8.322294265      0.000      0.000
REMARK  12 active torsions:
REMARK  status: ('A' for Active; 'I' for Inactive)
REMARK    1  A    between atoms: C2_2  and  C5_5 
REMARK    2  A    between atoms: C10_12  and  O2_13 
REMARK    3  A    between atoms: O2_13  and  C11_14 
REMARK    4  A    between atoms: C11_14  and  O3_15 
REMARK    5  A    between atoms: O3_15  and  C12_16 
REMARK    6  A    between atoms: C12_16  and  C13_17 
REMARK    7  A    between atoms: C13_17  and  C14_18 
REMARK    8  A    between atoms: C14_18  and  C15_19 
REMARK    9  A    between atoms: C15_19  and  O4_20 
REMARK   10  A    between atoms: O4_20  and  N1_21 
REMARK   11  A    between atoms: C31_40  and  O7_41 
REMARK   12  A    between atoms: C32_44  and  O9_45 
ROOT
HETATM    1  C5  UNL     1      40.006 -24.134  27.908  1.00  0.00     0.026 C 
HETATM    2 CL1  UNL     1      38.383 -24.362  27.280  1.00  0.00    -0.088 Cl
HETATM    3  C6  UNL     1      40.420 -22.903  28.136  1.00  0.00    -0.032 C 
HETATM    4  C7  UNL     1      41.790 -22.762  28.664  1.00  0.00     0.013 C 
HETATM    5  C8  UNL     1      42.045 -21.781  29.556  1.00  0.00     0.054 C 
HETATM    6  C9  UNL     1      40.891 -20.962  29.881  1.00  0.00     0.184 C 
HETATM    7  O1  UNL     1      40.693 -20.617  31.048  1.00  0.00    -0.290 OA
HETATM    8  C10 UNL     1      39.947 -20.537  28.788  1.00  0.00     0.135 C 
HETATM    9  C16 UNL     1      40.774 -19.498  28.027  1.00  0.00     0.049 C 
HETATM   10  C17 UNL     1      40.164 -19.166  26.714  1.00  0.00     0.030 C 
HETATM   11  C18 UNL     1      40.144 -20.392  25.855  1.00  0.00     0.049 C 
HETATM   12 CL2  UNL     1      41.803 -21.055  25.804  1.00  0.00    -0.118 Cl
HETATM   13  C19 UNL     1      39.254 -21.404  26.511  1.00  0.00     0.022 C 
HETATM   14  C20 UNL     1      37.854 -20.846  26.430  1.00  0.00     0.008 C 
HETATM   15  C21 UNL     1      37.426 -20.491  25.022  1.00  0.00     0.007 C 
HETATM   16  C22 UNL     1      38.358 -19.434  24.425  1.00  0.00     0.009 C 
HETATM   17  C23 UNL     1      37.857 -19.152  23.041  1.00  0.00     0.014 C 
HETATM   18  C24 UNL     1      38.376 -17.822  22.491  1.00  0.00     0.021 C 
HETATM   19  C25 UNL     1      38.092 -20.285  22.075  1.00  0.00     0.003 C 
HETATM   20  C26 UNL     1      39.436 -20.906  22.143  1.00  0.00     0.006 C 
HETATM   21  C27 UNL     1      39.816 -21.187  23.559  1.00  0.00     0.012 C 
HETATM   22  C28 UNL     1      39.727 -19.998  24.474  1.00  0.00    -0.018 C 
HETATM   23  C29 UNL     1      40.795 -19.013  23.990  1.00  0.00     0.018 C 
HETATM   24  C30 UNL     1      37.689 -19.810  20.706  1.00  0.00     0.066 C 
HETATM   25  C31 UNL     1      36.233 -19.409  20.781  1.00  0.00     0.260 C 
HETATM   26  O8  UNL     1      35.966 -18.514  21.786  1.00  0.00    -0.331 OA
HETATM   27  C32 UNL     1      36.328 -18.983  23.057  1.00  0.00     0.268 C 
HETATM   28  C33 UNL     1      39.561 -21.716  27.921  1.00  0.00     0.069 C 
ENDROOT
BRANCH   8  29
HETATM   29  O2  UNL     1      38.915 -19.859  29.357  1.00  0.00    -0.347 OA
BRANCH  29  30
HETATM   30  C11 UNL     1      38.950 -18.534  29.549  1.00  0.00     0.339 C 
BRANCH  30  31
HETATM   31  O3  UNL     1      37.633 -18.007  29.421  1.00  0.00    -0.367 OA
BRANCH  31  32
HETATM   32  C12 UNL     1      37.495 -16.756  29.929  1.00  0.00     0.170 C 
BRANCH  32  33
HETATM   33  C13 UNL     1      36.233 -16.073  29.530  1.00  0.00     0.028 C 
BRANCH  33  34
HETATM   34  C14 UNL     1      36.426 -14.766  28.839  1.00  0.00     0.031 C 
BRANCH  34  35
HETATM   35  C15 UNL     1      37.730 -14.586  28.136  1.00  0.00     0.208 C 
BRANCH  35  36
HETATM   36  O4  UNL     1      37.503 -14.865  26.736  1.00  0.00    -0.221 OA
BRANCH  36  37
HETATM   37  N1  UNL     1      37.989 -15.996  26.167  1.00  0.00     0.004 N 
HETATM   38  O5  UNL     1      37.358 -17.062  26.260  1.00  0.00    -0.511 OA
HETATM   39  O6  UNL     1      39.165 -15.982  25.488  1.00  0.00    -0.511 OA
ENDBRANCH  36  37
ENDBRANCH  35  36
ENDBRANCH  34  35
ENDBRANCH  33  34
ENDBRANCH  32  33
ENDBRANCH  31  32
ENDBRANCH  30  31
ENDBRANCH  29  30
ENDBRANCH   8  29
BRANCH   1  40
HETATM   40  C2  UNL     1      40.791 -25.364  28.133  1.00  0.00    -0.013 C 
HETATM   41  C1  UNL     1      41.029 -25.692  29.586  1.00  0.00     0.020 C 
HETATM   42  C3  UNL     1      42.089 -25.379  27.322  1.00  0.00     0.020 C 
HETATM   43  C4  UNL     1      39.983 -26.548  27.582  1.00  0.00     0.020 C 
ENDBRANCH   1  40
BRANCH  27  44
HETATM   44  O9  UNL     1      35.944 -17.992  23.955  1.00  0.00    -0.370 OA
ATOM     45  H9  UNL     1      35.993 -17.130  23.557  1.00  0.00     0.212 HD
ENDBRANCH  27  44
BRANCH  25  46
HETATM   46  O7  UNL     1      35.923 -18.788  19.571  1.00  0.00    -0.371 OA
ATOM     47  H7  UNL     1      36.032 -17.854  19.706  1.00  0.00     0.212 HD
ENDBRANCH  25  46
TORSDOF 12
ENDMDL
MODEL 2
REMARK VINA RESULT: -8.112392151      3.290      6.173
REMARK  12 active torsions:
REMARK  status: ('A' for Active; 'I' for Inactive)
REMARK    1  A    between atoms: C2_2  and  C5_5 
REMARK    2  A    between atoms: C10_12  and  O2_13 
REMARK    3  A    between atoms: O2_13  and  C11_14 
REMARK    4  A    between atoms: C11_14  and  O3_15 
REMARK    5  A    between atoms: O3_15  and  C12_16 
REMARK    6  A    between atoms: C12_16  and  C13_17 
REMARK    7  A    between atoms: C13_17  and  C14_18 
REMARK    8  A    between atoms: C14_18  and  C15_19 
REMARK    9  A    between atoms: C15_19  and  O4_20 
REMARK   10  A    between atoms: O4_20  and  N1_21 
REMARK   11  A    between atoms: C31_40  and  O7_41 
REMARK   12  A    between atoms: C32_44  and  O9_45 
ROOT
HETATM    1  C5  UNL     1      37.136 -23.998  25.028  1.00  0.00     0.026 C 
HETATM    2 CL1  UNL     1      35.964 -23.337  26.155  1.00  0.00    -0.088 Cl
HETATM    3  C6  UNL     1      38.417 -23.787  25.263  1.00  0.00    -0.032 C 
HETATM    4  C7  UNL     1      39.363 -24.362  24.289  1.00  0.00     0.013 C 
HETATM    5  C8  UNL     1      40.544 -24.839  24.735  1.00  0.00     0.054 C 
HETATM    6  C9  UNL     1      40.732 -24.708  26.169  1.00  0.00     0.184 C 
HETATM    7  O1  UNL     1      41.244 -25.630  26.808  1.00  0.00    -0.290 OA
HETATM    8  C10 UNL     1      40.304 -23.443  26.864  1.00  0.00     0.135 C 
HETATM    9  C16 UNL     1      41.355 -22.437  26.389  1.00  0.00     0.049 C 
HETATM   10  C17 UNL     1      40.955 -21.039  26.697  1.00  0.00     0.030 C 
HETATM   11  C18 UNL     1      39.700 -20.711  25.953  1.00  0.00     0.049 C 
HETATM   12 CL2  UNL     1      39.968 -21.088  24.226  1.00  0.00    -0.118 Cl
HETATM   13  C19 UNL     1      38.609 -21.603  26.464  1.00  0.00     0.022 C 
HETATM   14  C20 UNL     1      38.346 -21.172  27.886  1.00  0.00     0.008 C 
HETATM   15  C21 UNL     1      38.030 -19.697  28.021  1.00  0.00     0.007 C 
HETATM   16  C22 UNL     1      39.194 -18.846  27.509  1.00  0.00     0.009 C 
HETATM   17  C23 UNL     1      38.787 -17.414  27.681  1.00  0.00     0.014 C 
HETATM   18  C24 UNL     1      39.983 -16.460  27.655  1.00  0.00     0.021 C 
HETATM   19  C25 UNL     1      37.705 -16.978  26.728  1.00  0.00     0.003 C 
HETATM   20  C26 UNL     1      37.884 -17.416  25.323  1.00  0.00     0.006 C 
HETATM   21  C27 UNL     1      38.240 -18.864  25.264  1.00  0.00     0.012 C 
HETATM   22  C28 UNL     1      39.427 -19.247  26.102  1.00  0.00    -0.018 C 
HETATM   23  C29 UNL     1      40.633 -18.542  25.473  1.00  0.00     0.018 C 
HETATM   24  C30 UNL     1      37.510 -15.497  26.903  1.00  0.00     0.066 C 
HETATM   25  C31 UNL     1      37.134 -15.262  28.349  1.00  0.00     0.260 C 
HETATM   26  O8  UNL     1      38.016 -15.820  29.239  1.00  0.00    -0.331 OA
HETATM   27  C32 UNL     1      38.169 -17.205  29.074  1.00  0.00     0.268 C 
HETATM   28  C33 UNL     1      38.901 -23.050  26.452  1.00  0.00     0.069 C 
ENDROOT
BRANCH   8  29
HETATM   29  O2  UNL     1      40.505 -23.602  28.199  1.00  0.00    -0.347 OA
BRANCH  29  30
HETATM   30  C11 UNL     1      39.608 -24.209  28.989  1.00  0.00     0.339 C 
BRANCH  30  31
HETATM   31  O3  UNL     1      40.189 -24.439  30.269  1.00  0.00    -0.367 OA
BRANCH  31  32
HETATM   32  C12 UNL     1      41.292 -25.228  30.231  1.00  0.00     0.170 C 
BRANCH  32  33
HETATM   33  C13 UNL     1      42.438 -24.709  31.030  1.00  0.00     0.028 C 
BRANCH  33  34
HETATM   34  C14 UNL     1      43.246 -23.659  30.347  1.00  0.00     0.031 C 
BRANCH  34  35
HETATM   35  C15 UNL     1      43.213 -22.304  30.970  1.00  0.00     0.208 C 
BRANCH  35  36
HETATM   36  O4  UNL     1      42.146 -21.566  30.332  1.00  0.00    -0.221 OA
BRANCH  36  37
HETATM   37  N1  UNL     1      41.074 -21.141  31.045  1.00  0.00     0.004 N 
HETATM   38  O5  UNL     1      40.735 -21.740  32.079  1.00  0.00    -0.511 OA
HETATM   39  O6  UNL     1      40.358 -20.060  30.644  1.00  0.00    -0.511 OA
ENDBRANCH  36  37
ENDBRANCH  35  36
ENDBRANCH  34  35
ENDBRANCH  33  34
ENDBRANCH  32  33
ENDBRANCH  31  32
ENDBRANCH  30  31
ENDBRANCH  29  30
ENDBRANCH   8  29
BRANCH   1  40
HETATM   40  C2  UNL     1      36.582 -24.753  23.886  1.00  0.00    -0.013 C 
HETATM   41  C1  UNL     1      36.983 -26.207  23.849  1.00  0.00     0.020 C 
HETATM   42  C3  UNL     1      36.839 -24.052  22.550  1.00  0.00     0.020 C 
HETATM   43  C4  UNL     1      35.052 -24.762  24.024  1.00  0.00     0.020 C 
ENDBRANCH   1  40
BRANCH  27  44
HETATM   44  O9  UNL     1      39.043 -17.616  30.076  1.00  0.00    -0.370 OA
ATOM     45  H9  UNL     1      38.574 -18.039  30.787  1.00  0.00     0.212 HD
ENDBRANCH  27  44
BRANCH  25  46
HETATM   46  O7  UNL     1      37.150 -13.882  28.550  1.00  0.00    -0.371 OA
ATOM     47  H7  UNL     1      36.372 -13.534  28.132  1.00  0.00     0.212 HD
ENDBRANCH  25  46
TORSDOF 12
ENDMDL
MODEL 3
REMARK VINA RESULT: -8.020222013      3.385      6.128
REMARK  12 active torsions:
REMARK  status: ('A' for Active; 'I' for Inactive)
REMARK    1  A    between atoms: C2_2  and  C5_5 
REMARK    2  A    between atoms: C10_12  and  O2_13 
REMARK    3  A    between atoms: O2_13  and  C11_14 
REMARK    4  A    between atoms: C11_14  and  O3_15 
REMARK    5  A    between atoms: O3_15  and  C12_16 
REMARK    6  A    between atoms: C12_16  and  C13_17 
REMARK    7  A    between atoms: C13_17  and  C14_18 
REMARK    8  A    between atoms: C14_18  and  C15_19 
REMARK    9  A    between atoms: C15_19  and  O4_20 
REMARK   10  A    between atoms: O4_20  and  N1_21 
REMARK   11  A    between atoms: C31_40  and  O7_41 
REMARK   12  A    between atoms: C32_44  and  O9_45 
ROOT
HETATM    1  C5  UNL     1      37.101 -24.208  24.890  1.00  0.00     0.026 C 
HETATM    2 CL1  UNL     1      35.997 -23.611  26.116  1.00  0.00    -0.088 Cl
HETATM    3  C6  UNL     1      38.390 -23.978  25.045  1.00  0.00    -0.032 C 
HETATM    4  C7  UNL     1      39.278 -24.500  23.989  1.00  0.00     0.013 C 
HETATM    5  C8  UNL     1      40.496 -24.967  24.337  1.00  0.00     0.054 C 
HETATM    6  C9  UNL     1      40.779 -24.882  25.759  1.00  0.00     0.184 C 
HETATM    7  O1  UNL     1      41.349 -25.816  26.327  1.00  0.00    -0.290 OA
HETATM    8  C10 UNL     1      40.376 -23.651  26.526  1.00  0.00     0.135 C 
HETATM    9  C16 UNL     1      41.374 -22.608  26.018  1.00  0.00     0.049 C 
HETATM   10  C17 UNL     1      40.971 -21.231  26.402  1.00  0.00     0.030 C 
HETATM   11  C18 UNL     1      39.661 -20.902  25.757  1.00  0.00     0.049 C 
HETATM   12 CL2  UNL     1      39.818 -21.214  24.004  1.00  0.00    -0.118 Cl
HETATM   13  C19 UNL     1      38.624 -21.834  26.308  1.00  0.00     0.022 C 
HETATM   14  C20 UNL     1      38.452 -21.458  27.760  1.00  0.00     0.008 C 
HETATM   15  C21 UNL     1      38.119 -19.996  27.968  1.00  0.00     0.007 C 
HETATM   16  C22 UNL     1      39.229 -19.103  27.410  1.00  0.00     0.009 C 
HETATM   17  C23 UNL     1      38.810 -17.687  27.660  1.00  0.00     0.014 C 
HETATM   18  C24 UNL     1      39.983 -16.708  27.588  1.00  0.00     0.021 C 
HETATM   19  C25 UNL     1      37.656 -17.241  26.800  1.00  0.00     0.003 C 
HETATM   20  C26 UNL     1      37.747 -17.626  25.371  1.00  0.00     0.006 C 
HETATM   21  C27 UNL     1      38.124 -19.063  25.236  1.00  0.00     0.012 C 
HETATM   22  C28 UNL     1      39.373 -19.451  25.977  1.00  0.00    -0.018 C 
HETATM   23  C29 UNL     1      40.520 -18.699  25.294  1.00  0.00     0.018 C 
HETATM   24  C30 UNL     1      37.447 -15.771  27.041  1.00  0.00     0.066 C 
HETATM   25  C31 UNL     1      37.166 -15.594  28.516  1.00  0.00     0.260 C 
HETATM   26  O8  UNL     1      38.118 -16.165  29.324  1.00  0.00    -0.331 OA
HETATM   27  C32 UNL     1      38.284 -17.539  29.099  1.00  0.00     0.268 C 
HETATM   28  C33 UNL     1      38.941 -23.274  26.225  1.00  0.00     0.069 C 
ENDROOT
BRANCH   8  29
HETATM   29  O2  UNL     1      40.670 -23.853  27.838  1.00  0.00    -0.347 OA
BRANCH  29  30
HETATM   30  C11 UNL     1      39.782 -24.370  28.698  1.00  0.00     0.339 C 
BRANCH  30  31
HETATM   31  O3  UNL     1      39.958 -23.765  29.975  1.00  0.00    -0.367 OA
BRANCH  31  32
HETATM   32  C12 UNL     1      41.171 -23.179  30.137  1.00  0.00     0.170 C 
BRANCH  32  33
HETATM   33  C13 UNL     1      41.104 -21.747  30.539  1.00  0.00     0.028 C 
BRANCH  33  34
HETATM   34  C14 UNL     1      41.772 -20.805  29.595  1.00  0.00     0.031 C 
BRANCH  34  35
HETATM   35  C15 UNL     1      43.226 -21.044  29.356  1.00  0.00     0.208 C 
BRANCH  35  36
HETATM   36  O4  UNL     1      43.923 -20.687  30.570  1.00  0.00    -0.221 OA
BRANCH  36  37
HETATM   37  N1  UNL     1      45.257 -20.450  30.560  1.00  0.00     0.004 N 
HETATM   38  O5  UNL     1      45.881 -20.339  31.629  1.00  0.00    -0.511 OA
HETATM   39  O6  UNL     1      45.933 -20.331  29.387  1.00  0.00    -0.511 OA
ENDBRANCH  36  37
ENDBRANCH  35  36
ENDBRANCH  34  35
ENDBRANCH  33  34
ENDBRANCH  32  33
ENDBRANCH  31  32
ENDBRANCH  30  31
ENDBRANCH  29  30
ENDBRANCH   8  29
BRANCH   1  40
HETATM   40  C2  UNL     1      36.484 -24.933  23.761  1.00  0.00    -0.013 C 
HETATM   41  C1  UNL     1      36.907 -26.376  23.644  1.00  0.00     0.020 C 
HETATM   42  C3  UNL     1      36.636 -24.182  22.437  1.00  0.00     0.020 C 
HETATM   43  C4  UNL     1      34.967 -24.979  24.002  1.00  0.00     0.020 C 
ENDBRANCH   1  40
BRANCH  27  44
HETATM   44  O9  UNL     1      39.231 -17.967  30.024  1.00  0.00    -0.370 OA
ATOM     45  H9  UNL     1      38.894 -18.679  30.555  1.00  0.00     0.212 HD
ENDBRANCH  27  44
BRANCH  25  46
HETATM   46  O7  UNL     1      37.172 -14.222  28.766  1.00  0.00    -0.371 OA
ATOM     47  H7  UNL     1      37.013 -14.111  29.696  1.00  0.00     0.212 HD
ENDBRANCH  25  46
TORSDOF 12
ENDMDL
MODEL 4
REMARK VINA RESULT: -7.871039899      4.510      9.891
REMARK  12 active torsions:
REMARK  status: ('A' for Active; 'I' for Inactive)
REMARK    1  A    between atoms: C2_2  and  C5_5 
REMARK    2  A    between atoms: C10_12  and  O2_13 
REMARK    3  A    between atoms: O2_13  and  C11_14 
REMARK    4  A    between atoms: C11_14  and  O3_15 
REMARK    5  A    between atoms: O3_15  and  C12_16 
REMARK    6  A    between atoms: C12_16  and  C13_17 
REMARK    7  A    between atoms: C13_17  and  C14_18 
REMARK    8  A    between atoms: C14_18  and  C15_19 
REMARK    9  A    between atoms: C15_19  and  O4_20 
REMARK   10  A    between atoms: O4_20  and  N1_21 
REMARK   11  A    between atoms: C31_40  and  O7_41 
REMARK   12  A    between atoms: C32_44  and  O9_45 
ROOT
HETATM    1  C5  UNL     1      39.133 -18.726  28.573  1.00  0.00     0.026 C 
HETATM    2 CL1  UNL     1      39.459 -18.707  30.297  1.00  0.00    -0.088 Cl
HETATM    3  C6  UNL     1      39.329 -19.850  27.912  1.00  0.00    -0.032 C 
HETATM    4  C7  UNL     1      39.042 -19.817  26.466  1.00  0.00     0.013 C 
HETATM    5  C8  UNL     1      38.516 -20.915  25.883  1.00  0.00     0.054 C 
HETATM    6  C9  UNL     1      38.304 -22.025  26.794  1.00  0.00     0.184 C 
HETATM    7  O1  UNL     1      37.274 -22.698  26.712  1.00  0.00    -0.290 OA
HETATM    8  C10 UNL     1      39.347 -22.348  27.831  1.00  0.00     0.135 C 
HETATM    9  C16 UNL     1      40.476 -22.941  26.986  1.00  0.00     0.049 C 
HETATM   10  C17 UNL     1      41.742 -23.045  27.756  1.00  0.00     0.030 C 
HETATM   11  C18 UNL     1      42.193 -21.674  28.149  1.00  0.00     0.049 C 
HETATM   12 CL2  UNL     1      42.254 -20.670  26.672  1.00  0.00    -0.118 Cl
HETATM   13  C19 UNL     1      41.164 -21.091  29.070  1.00  0.00     0.022 C 
HETATM   14  C20 UNL     1      41.229 -21.905  30.340  1.00  0.00     0.008 C 
HETATM   15  C21 UNL     1      42.615 -21.965  30.947  1.00  0.00     0.007 C 
HETATM   16  C22 UNL     1      43.607 -22.595  29.967  1.00  0.00     0.009 C 
HETATM   17  C23 UNL     1      44.939 -22.609  30.654  1.00  0.00     0.014 C 
HETATM   18  C24 UNL     1      45.915 -23.600  30.017  1.00  0.00     0.021 C 
HETATM   19  C25 UNL     1      45.551 -21.240  30.804  1.00  0.00     0.003 C 
HETATM   20  C26 UNL     1      45.473 -20.377  29.602  1.00  0.00     0.006 C 
HETATM   21  C27 UNL     1      44.096 -20.399  29.026  1.00  0.00     0.012 C 
HETATM   22  C28 UNL     1      43.566 -21.775  28.734  1.00  0.00    -0.018 C 
HETATM   23  C29 UNL     1      44.447 -22.337  27.615  1.00  0.00     0.018 C 
HETATM   24  C30 UNL     1      46.938 -21.418  31.359  1.00  0.00     0.066 C 
HETATM   25  C31 UNL     1      46.803 -22.136  32.682  1.00  0.00     0.260 C 
HETATM   26  O8  UNL     1      46.079 -23.299  32.599  1.00  0.00    -0.331 OA
HETATM   27  C32 UNL     1      44.782 -23.111  32.099  1.00  0.00     0.268 C 
HETATM   28  C33 UNL     1      39.774 -21.099  28.572  1.00  0.00     0.069 C 
ENDROOT
BRANCH   8  29
HETATM   29  O2  UNL     1      38.877 -23.362  28.606  1.00  0.00    -0.347 OA
BRANCH  29  30
HETATM   30  C11 UNL     1      39.291 -24.627  28.454  1.00  0.00     0.339 C 
BRANCH  30  31
HETATM   31  O3  UNL     1      39.602 -25.175  29.732  1.00  0.00    -0.367 OA
BRANCH  31  32
HETATM   32  C12 UNL     1      40.489 -26.200  29.684  1.00  0.00     0.170 C 
BRANCH  32  33
HETATM   33  C13 UNL     1      41.836 -25.863  30.221  1.00  0.00     0.028 C 
BRANCH  33  34
HETATM   34  C14 UNL     1      42.970 -26.204  29.313  1.00  0.00     0.031 C 
BRANCH  34  35
HETATM   35  C15 UNL     1      43.317 -27.652  29.220  1.00  0.00     0.208 C 
BRANCH  35  36
HETATM   36  O4  UNL     1      44.445 -27.879  30.092  1.00  0.00    -0.221 OA
BRANCH  36  37
HETATM   37  N1  UNL     1      44.546 -29.023  30.812  1.00  0.00     0.004 N 
HETATM   38  O5  UNL     1      43.688 -29.913  30.694  1.00  0.00    -0.511 OA
HETATM   39  O6  UNL     1      45.583 -29.216  31.668  1.00  0.00    -0.511 OA
ENDBRANCH  36  37
ENDBRANCH  35  36
ENDBRANCH  34  35
ENDBRANCH  33  34
ENDBRANCH  32  33
ENDBRANCH  31  32
ENDBRANCH  30  31
ENDBRANCH  29  30
ENDBRANCH   8  29
BRANCH   1  40
HETATM   40  C2  UNL     1      38.657 -17.455  27.990  1.00  0.00    -0.013 C 
HETATM   41  C1  UNL     1      37.429 -17.590  27.124  1.00  0.00     0.020 C 
HETATM   42  C3  UNL     1      39.776 -16.687  27.282  1.00  0.00     0.020 C 
HETATM   43  C4  UNL     1      38.234 -16.535  29.144  1.00  0.00     0.020 C 
ENDBRANCH   1  40
BRANCH  27  44
HETATM   44  O9  UNL     1      44.174 -24.362  32.131  1.00  0.00    -0.370 OA
ATOM     45  H9  UNL     1      43.407 -24.385  31.570  1.00  0.00     0.212 HD
ENDBRANCH  27  44
BRANCH  25  46
HETATM   46  O7  UNL     1      48.093 -22.473  33.092  1.00  0.00    -0.371 OA
ATOM     47  H7  UNL     1      48.655 -22.386  32.331  1.00  0.00     0.212 HD
ENDBRANCH  25  46
TORSDOF 12
ENDMDL
MODEL 5
REMARK VINA RESULT: -7.861665182      3.852      9.035
REMARK  12 active torsions:
REMARK  status: ('A' for Active; 'I' for Inactive)
REMARK    1  A    between atoms: C2_2  and  C5_5 
REMARK    2  A    between atoms: C10_12  and  O2_13 
REMARK    3  A    between atoms: O2_13  and  C11_14 
REMARK    4  A    between atoms: C11_14  and  O3_15 
REMARK    5  A    between atoms: O3_15  and  C12_16 
REMARK    6  A    between atoms: C12_16  and  C13_17 
REMARK    7  A    between atoms: C13_17  and  C14_18 
REMARK    8  A    between atoms: C14_18  and  C15_19 
REMARK    9  A    between atoms: C15_19  and  O4_20 
REMARK   10  A    between atoms: O4_20  and  N1_21 
REMARK   11  A    between atoms: C31_40  and  O7_41 
REMARK   12  A    between atoms: C32_44  and  O9_45 
ROOT
HETATM    1  C5  UNL     1      39.221 -18.541  28.160  1.00  0.00     0.026 C 
HETATM    2 CL1  UNL     1      39.374 -18.673  29.903  1.00  0.00    -0.088 Cl
HETATM    3  C6  UNL     1      39.447 -19.616  27.429  1.00  0.00    -0.032 C 
HETATM    4  C7  UNL     1      39.305 -19.456  25.971  1.00  0.00     0.013 C 
HETATM    5  C8  UNL     1      38.807 -20.483  25.250  1.00  0.00     0.054 C 
HETATM    6  C9  UNL     1      38.472 -21.654  26.041  1.00  0.00     0.184 C 
HETATM    7  O1  UNL     1      37.436 -22.279  25.804  1.00  0.00    -0.290 OA
HETATM    8  C10 UNL     1      39.397 -22.098  27.143  1.00  0.00     0.135 C 
HETATM    9  C16 UNL     1      40.586 -22.664  26.363  1.00  0.00     0.049 C 
HETATM   10  C17 UNL     1      41.766 -22.877  27.241  1.00  0.00     0.030 C 
HETATM   11  C18 UNL     1      42.218 -21.560  27.788  1.00  0.00     0.049 C 
HETATM   12 CL2  UNL     1      42.455 -20.444  26.412  1.00  0.00    -0.118 Cl
HETATM   13  C19 UNL     1      41.120 -21.014  28.652  1.00  0.00     0.022 C 
HETATM   14  C20 UNL     1      41.035 -21.928  29.850  1.00  0.00     0.008 C 
HETATM   15  C21 UNL     1      42.352 -22.090  30.580  1.00  0.00     0.007 C 
HETATM   16  C22 UNL     1      43.417 -22.677  29.651  1.00  0.00     0.009 C 
HETATM   17  C23 UNL     1      44.673 -22.796  30.459  1.00  0.00     0.014 C 
HETATM   18  C24 UNL     1      45.677 -23.769  29.838  1.00  0.00     0.021 C 
HETATM   19  C25 UNL     1      45.308 -21.468  30.780  1.00  0.00     0.003 C 
HETATM   20  C26 UNL     1      45.375 -20.509  29.653  1.00  0.00     0.006 C 
HETATM   21  C27 UNL     1      44.062 -20.432  28.947  1.00  0.00     0.012 C 
HETATM   22  C28 UNL     1      43.522 -21.759  28.492  1.00  0.00    -0.018 C 
HETATM   23  C29 UNL     1      44.492 -22.264  27.420  1.00  0.00     0.018 C 
HETATM   24  C30 UNL     1      46.627 -21.742  31.449  1.00  0.00     0.066 C 
HETATM   25  C31 UNL     1      46.341 -22.558  32.689  1.00  0.00     0.260 C 
HETATM   26  O8  UNL     1      45.594 -23.683  32.440  1.00  0.00    -0.331 OA
HETATM   27  C32 UNL     1      44.359 -23.406  31.835  1.00  0.00     0.268 C 
HETATM   28  C33 UNL     1      39.787 -20.929  28.023  1.00  0.00     0.069 C 
ENDROOT
BRANCH   8  29
HETATM   29  O2  UNL     1      38.823 -23.152  27.782  1.00  0.00    -0.347 OA
BRANCH  29  30
HETATM   30  C11 UNL     1      39.154 -24.421  27.505  1.00  0.00     0.339 C 
BRANCH  30  31
HETATM   31  O3  UNL     1      37.973 -25.158  27.204  1.00  0.00    -0.367 OA
BRANCH  31  32
HETATM   32  C12 UNL     1      38.123 -26.028  26.174  1.00  0.00     0.170 C 
BRANCH  32  33
HETATM   33  C13 UNL     1      37.193 -25.788  25.036  1.00  0.00     0.028 C 
BRANCH  33  34
HETATM   34  C14 UNL     1      35.888 -26.503  25.137  1.00  0.00     0.031 C 
BRANCH  34  35
HETATM   35  C15 UNL     1      34.857 -26.123  24.127  1.00  0.00     0.208 C 
BRANCH  35  36
HETATM   36  O4  UNL     1      34.413 -24.787  24.451  1.00  0.00    -0.221 OA
BRANCH  36  37
HETATM   37  N1  UNL     1      34.445 -23.802  23.520  1.00  0.00     0.004 N 
HETATM   38  O5  UNL     1      35.531 -23.325  23.152  1.00  0.00    -0.511 OA
HETATM   39  O6  UNL     1      33.296 -23.322  22.977  1.00  0.00    -0.511 OA
ENDBRANCH  36  37
ENDBRANCH  35  36
ENDBRANCH  34  35
ENDBRANCH  33  34
ENDBRANCH  32  33
ENDBRANCH  31  32
ENDBRANCH  30  31
ENDBRANCH  29  30
ENDBRANCH   8  29
BRANCH   1  40
HETATM   40  C2  UNL     1      38.842 -17.211  27.642  1.00  0.00    -0.013 C 
HETATM   41  C1  UNL     1      37.668 -17.223  26.696  1.00  0.00     0.020 C 
HETATM   42  C3  UNL     1      40.039 -16.454  27.060  1.00  0.00     0.020 C 
HETATM   43  C4  UNL     1      38.390 -16.352  28.832  1.00  0.00     0.020 C 
ENDBRANCH   1  40
BRANCH  27  44
HETATM   44  O9  UNL     1      43.713 -24.632  31.704  1.00  0.00    -0.370 OA
ATOM     45  H9  UNL     1      43.704 -24.919  30.799  1.00  0.00     0.212 HD
ENDBRANCH  27  44
BRANCH  25  46
HETATM   46  O7  UNL     1      47.573 -22.975  33.191  1.00  0.00    -0.371 OA
ATOM     47  H7  UNL     1      47.430 -23.227  34.096  1.00  0.00     0.212 HD
ENDBRANCH  25  46
TORSDOF 12
ENDMDL
