MODEL 1
REMARK VINA RESULT: -7.604021786      0.000      0.000
REMARK  10 active torsions:
REMARK  status: ('A' for Active; 'I' for Inactive)
REMARK    1  A    between atoms: C2_2  and  O1_3 
REMARK    2  A    between atoms: O1_3  and  C3_4 
REMARK    3  A    between atoms: C3_4  and  C4_6 
REMARK    4  A    between atoms: C5_7  and  N1_8 
REMARK    5  A    between atoms: N1_8  and  C6_10 
REMARK    6  A    between atoms: C12_18  and  O5_19 
REMARK    7  A    between atoms: C13_21  and  O6_22 
REMARK    8  A    between atoms: C18_31  and  O7_32 
REMARK    9  A    between atoms: C22_37  and  O8_38 
REMARK   10  A    between atoms: C24_40  and  O9_41 
ROOT
HETATM    1  C6  UNL     1      39.605 -21.006  25.602  1.00  0.00     0.055 A 
HETATM    2  C7  UNL     1      38.329 -20.625  25.219  1.00  0.00     0.069 A 
HETATM    3  C8  UNL     1      37.606 -21.326  24.325  1.00  0.00     0.097 A 
HETATM    4  O3  UNL     1      36.422 -20.808  24.094  1.00  0.00    -0.273 OA
HETATM    5  C9  UNL     1      35.357 -21.497  23.531  1.00  0.00     0.316 C 
HETATM    6  O4  UNL     1      34.252 -21.188  23.675  1.00  0.00    -0.257 OA
HETATM    7  C10 UNL     1      35.364 -22.621  22.742  1.00  0.00     0.126 C 
HETATM    8  C11 UNL     1      34.694 -23.246  23.754  1.00  0.00     0.076 C 
HETATM    9  C12 UNL     1      35.211 -24.387  24.404  1.00  0.00     0.101 C 
HETATM   10  C13 UNL     1      36.550 -24.868  24.496  1.00  0.00     0.103 C 
HETATM   11  C15 UNL     1      37.754 -24.285  24.059  1.00  0.00     0.071 C 
HETATM   12  C16 UNL     1      37.758 -23.466  22.975  1.00  0.00     0.066 C 
HETATM   13  N2  UNL     1      37.345 -23.367  21.653  1.00  0.00    -0.299 N 
ATOM     14  H2  UNL     1      37.934 -23.606  20.854  1.00  0.00     0.187 HD
HETATM   15  N3  UNL     1      35.972 -22.883  21.535  1.00  0.00    -0.295 N 
ATOM     16  H3  UNL     1      35.505 -22.751  20.638  1.00  0.00     0.187 HD
HETATM   17  C17 UNL     1      38.235 -22.488  23.790  1.00  0.00     0.061 A 
HETATM   18  C18 UNL     1      39.434 -22.939  24.069  1.00  0.00     0.103 A 
HETATM   19  C20 UNL     1      40.143 -22.175  25.010  1.00  0.00     0.072 A 
HETATM   20 BR1  UNL     1      41.889 -22.640  25.574  1.00  0.00    -0.046 Br
ENDROOT
BRANCH   1  21
HETATM   21  N1  UNL     1      40.394 -20.242  26.481  1.00  0.00    -0.354 N 
ATOM     22  H1  UNL     1      41.281 -20.642  26.787  1.00  0.00     0.166 HD
BRANCH  21  23
HETATM   23  C5  UNL     1      40.060 -18.990  26.962  1.00  0.00     0.053 A 
HETATM   24  C4  UNL     1      39.418 -18.828  28.160  1.00  0.00     0.086 A 
HETATM   25  C26 UNL     1      38.954 -17.551  28.521  1.00  0.00     0.065 A 
HETATM   26  C24 UNL     1      39.126 -16.452  27.705  1.00  0.00     0.120 A 
HETATM   27 BR2  UNL     1      38.054 -17.290  30.173  1.00  0.00    -0.047 Br
HETATM   28  C22 UNL     1      39.774 -16.614  26.499  1.00  0.00     0.105 A 
HETATM   29  C21 UNL     1      40.233 -17.856  26.130  1.00  0.00     0.070 A 
BRANCH  24  30
HETATM   30  C3  UNL     1      39.273 -19.892  29.098  1.00  0.00     0.297 C 
HETATM   31  O2  UNL     1      38.313 -20.746  29.049  1.00  0.00    -0.259 OA
BRANCH  30  32
HETATM   32  O1  UNL     1      40.138 -20.094  30.138  1.00  0.00    -0.318 OA
BRANCH  32  33
HETATM   33  C2  UNL     1      40.985 -21.195  30.223  1.00  0.00     0.174 C 
HETATM   34  C1  UNL     1      42.261 -20.905  29.485  1.00  0.00     0.034 C 
ENDBRANCH  32  33
ENDBRANCH  30  32
ENDBRANCH  24  30
BRANCH  26  35
HETATM   35  O9  UNL     1      38.678 -15.193  28.043  1.00  0.00    -0.352 OA
HETATM   36  C25 UNL     1      37.454 -14.645  27.641  1.00  0.00     0.210 C 
ENDBRANCH  26  35
BRANCH  28  37
HETATM   37  O8  UNL     1      39.979 -15.550  25.641  1.00  0.00    -0.353 OA
HETATM   38  C23 UNL     1      39.776 -15.711  24.254  1.00  0.00     0.210 C 
ENDBRANCH  28  37
ENDBRANCH  21  23
ENDBRANCH   1  21
BRANCH  18  39
HETATM   39  O7  UNL     1      40.049 -24.015  23.559  1.00  0.00    -0.353 OA
HETATM   40  C19 UNL     1      41.009 -24.134  22.567  1.00  0.00     0.210 C 
ENDBRANCH  18  39
BRANCH  10  41
HETATM   41  O6  UNL     1      36.722 -26.060  25.089  1.00  0.00    -0.353 OA
HETATM   42  C14 UNL     1      37.626 -26.233  26.150  1.00  0.00     0.210 C 
ENDBRANCH  10  41
BRANCH   9  43
HETATM   43  O5  UNL     1      34.324 -25.158  25.045  1.00  0.00    -0.358 OA
ATOM     44  H5  UNL     1      34.462 -25.272  25.978  1.00  0.00     0.217 HD
ENDBRANCH   9  43
TORSDOF 10
ENDMDL
MODEL 2
REMARK VINA RESULT: -7.549698451      3.332      6.128
REMARK  10 active torsions:
REMARK  status: ('A' for Active; 'I' for Inactive)
REMARK    1  A    between atoms: C2_2  and  O1_3 
REMARK    2  A    between atoms: O1_3  and  C3_4 
REMARK    3  A    between atoms: C3_4  and  C4_6 
REMARK    4  A    between atoms: C5_7  and  N1_8 
REMARK    5  A    between atoms: N1_8  and  C6_10 
REMARK    6  A    between atoms: C12_18  and  O5_19 
REMARK    7  A    between atoms: C13_21  and  O6_22 
REMARK    8  A    between atoms: C18_31  and  O7_32 
REMARK    9  A    between atoms: C22_37  and  O8_38 
REMARK   10  A    between atoms: C24_40  and  O9_41 
ROOT
HETATM    1  C6  UNL     1      38.123 -20.944  27.610  1.00  0.00     0.055 A 
HETATM    2  C7  UNL     1      38.896 -20.774  28.748  1.00  0.00     0.069 A 
HETATM    3  C8  UNL     1      39.699 -21.745  29.223  1.00  0.00     0.097 A 
HETATM    4  O3  UNL     1      40.351 -21.393  30.307  1.00  0.00    -0.273 OA
HETATM    5  C9  UNL     1      41.492 -22.027  30.780  1.00  0.00     0.316 C 
HETATM    6  O4  UNL     1      42.261 -21.515  31.475  1.00  0.00    -0.257 OA
HETATM    7  C10 UNL     1      41.943 -23.303  30.546  1.00  0.00     0.126 C 
HETATM    8  C11 UNL     1      43.019 -22.731  29.930  1.00  0.00     0.076 C 
HETATM    9  C12 UNL     1      43.328 -22.978  28.576  1.00  0.00     0.101 C 
HETATM   10  C13 UNL     1      42.503 -23.448  27.513  1.00  0.00     0.103 C 
HETATM   11  C15 UNL     1      41.118 -23.695  27.483  1.00  0.00     0.071 C 
HETATM   12  C16 UNL     1      40.472 -24.081  28.614  1.00  0.00     0.066 C 
HETATM   13  N2  UNL     1      40.511 -24.988  29.664  1.00  0.00    -0.299 N 
ATOM     14  H2  UNL     1      40.006 -25.874  29.668  1.00  0.00     0.187 HD
HETATM   15  N3  UNL     1      41.358 -24.530  30.763  1.00  0.00    -0.295 N 
ATOM     16  H3  UNL     1      41.503 -25.071  31.615  1.00  0.00     0.187 HD
HETATM   17  C17 UNL     1      39.706 -22.964  28.485  1.00  0.00     0.061 A 
HETATM   18  C18 UNL     1      39.015 -23.241  27.406  1.00  0.00     0.103 A 
HETATM   19  C20 UNL     1      38.198 -22.195  26.950  1.00  0.00     0.072 A 
HETATM   20 BR1  UNL     1      37.117 -22.363  25.405  1.00  0.00    -0.046 Br
ENDROOT
BRANCH   1  21
HETATM   21  N1  UNL     1      37.227 -19.963  27.147  1.00  0.00    -0.354 N 
ATOM     22  H1  UNL     1      36.344 -20.281  26.748  1.00  0.00     0.166 HD
BRANCH  21  23
HETATM   23  C5  UNL     1      37.452 -18.600  27.190  1.00  0.00     0.053 A 
HETATM   24  C4  UNL     1      38.191 -17.963  26.230  1.00  0.00     0.086 A 
HETATM   25  C26 UNL     1      38.530 -16.610  26.412  1.00  0.00     0.065 A 
HETATM   26  C24 UNL     1      38.138 -15.901  27.528  1.00  0.00     0.120 A 
HETATM   27 BR2  UNL     1      39.559 -15.696  25.103  1.00  0.00    -0.047 Br
HETATM   28  C22 UNL     1      37.392 -16.542  28.495  1.00  0.00     0.105 A 
HETATM   29  C21 UNL     1      37.054 -17.865  28.333  1.00  0.00     0.070 A 
BRANCH  24  30
HETATM   30  C3  UNL     1      38.565 -18.597  25.008  1.00  0.00     0.297 C 
HETATM   31  O2  UNL     1      37.956 -18.391  23.895  1.00  0.00    -0.259 OA
BRANCH  30  32
HETATM   32  O1  UNL     1      39.600 -19.485  24.914  1.00  0.00    -0.318 OA
BRANCH  32  33
HETATM   33  C2  UNL     1      40.918 -19.155  25.218  1.00  0.00     0.174 C 
HETATM   34  C1  UNL     1      41.495 -20.191  26.140  1.00  0.00     0.034 C 
ENDBRANCH  32  33
ENDBRANCH  30  32
ENDBRANCH  24  30
BRANCH  26  35
HETATM   35  O9  UNL     1      38.460 -14.575  27.722  1.00  0.00    -0.352 OA
HETATM   36  C25 UNL     1      37.597 -13.500  27.485  1.00  0.00     0.210 C 
ENDBRANCH  26  35
BRANCH  28  37
HETATM   37  O8  UNL     1      36.968 -15.883  29.633  1.00  0.00    -0.353 OA
HETATM   38  C23 UNL     1      35.630 -15.446  29.740  1.00  0.00     0.210 C 
ENDBRANCH  28  37
ENDBRANCH  21  23
ENDBRANCH   1  21
BRANCH  18  39
HETATM   39  O7  UNL     1      38.992 -24.389  26.714  1.00  0.00    -0.353 OA
HETATM   40  C19 UNL     1      38.087 -25.438  26.714  1.00  0.00     0.210 C 
ENDBRANCH  18  39
BRANCH  10  41
HETATM   41  O6  UNL     1      43.113 -23.701  26.345  1.00  0.00    -0.353 OA
HETATM   42  C14 UNL     1      42.390 -23.847  25.150  1.00  0.00     0.210 C 
ENDBRANCH  10  41
BRANCH   9  43
HETATM   43  O5  UNL     1      44.592 -22.740  28.204  1.00  0.00    -0.358 OA
ATOM     44  H5  UNL     1      45.268 -23.189  28.697  1.00  0.00     0.217 HD
ENDBRANCH   9  43
TORSDOF 10
ENDMDL
MODEL 3
REMARK VINA RESULT: -7.531958676      4.085      7.760
REMARK  10 active torsions:
REMARK  status: ('A' for Active; 'I' for Inactive)
REMARK    1  A    between atoms: C2_2  and  O1_3 
REMARK    2  A    between atoms: O1_3  and  C3_4 
REMARK    3  A    between atoms: C3_4  and  C4_6 
REMARK    4  A    between atoms: C5_7  and  N1_8 
REMARK    5  A    between atoms: N1_8  and  C6_10 
REMARK    6  A    between atoms: C12_18  and  O5_19 
REMARK    7  A    between atoms: C13_21  and  O6_22 
REMARK    8  A    between atoms: C18_31  and  O7_32 
REMARK    9  A    between atoms: C22_37  and  O8_38 
REMARK   10  A    between atoms: C24_40  and  O9_41 
ROOT
HETATM    1  C6  UNL     1      40.488 -22.064  28.950  1.00  0.00     0.055 A 
HETATM    2  C7  UNL     1      41.412 -21.316  29.662  1.00  0.00     0.069 A 
HETATM    3  C8  UNL     1      42.413 -21.884  30.360  1.00  0.00     0.097 A 
HETATM    4  O3  UNL     1      43.185 -21.011  30.965  1.00  0.00    -0.273 OA
HETATM    5  C9  UNL     1      44.467 -21.278  31.423  1.00  0.00     0.316 C 
HETATM    6  O4  UNL     1      45.264 -20.458  31.596  1.00  0.00    -0.257 OA
HETATM    7  C10 UNL     1      45.045 -22.480  31.747  1.00  0.00     0.126 C 
HETATM    8  C11 UNL     1      45.910 -22.259  30.714  1.00  0.00     0.076 C 
HETATM    9  C12 UNL     1      46.015 -23.144  29.620  1.00  0.00     0.101 C 
HETATM   10  C13 UNL     1      45.095 -24.116  29.129  1.00  0.00     0.103 C 
HETATM   11  C15 UNL     1      43.773 -24.394  29.526  1.00  0.00     0.071 C 
HETATM   12  C16 UNL     1      43.391 -24.179  30.811  1.00  0.00     0.066 C 
HETATM   13  N2  UNL     1      43.736 -24.431  32.133  1.00  0.00    -0.299 N 
ATOM     14  H2  UNL     1      43.368 -25.211  32.677  1.00  0.00     0.187 HD
HETATM   15  N3  UNL     1      44.685 -23.451  32.655  1.00  0.00    -0.295 N 
ATOM     16  H3  UNL     1      45.048 -23.482  33.607  1.00  0.00     0.187 HD
HETATM   17  C17 UNL     1      42.465 -23.308  30.327  1.00  0.00     0.061 A 
HETATM   18  C18 UNL     1      41.646 -24.117  29.699  1.00  0.00     0.103 A 
HETATM   19  C20 UNL     1      40.624 -23.473  28.983  1.00  0.00     0.072 A 
HETATM   20 BR1  UNL     1      39.330 -24.437  27.992  1.00  0.00    -0.046 Br
ENDROOT
BRANCH   1  21
HETATM   21  N1  UNL     1      39.397 -21.483  28.277  1.00  0.00    -0.354 N 
ATOM     22  H1  UNL     1      38.619 -22.093  28.026  1.00  0.00     0.166 HD
BRANCH  21  23
HETATM   23  C5  UNL     1      39.300 -20.149  27.928  1.00  0.00     0.053 A 
HETATM   24  C4  UNL     1      39.822 -19.673  26.756  1.00  0.00     0.086 A 
HETATM   25  C26 UNL     1      39.843 -18.285  26.530  1.00  0.00     0.065 A 
HETATM   26  C24 UNL     1      39.351 -17.386  27.453  1.00  0.00     0.120 A 
HETATM   27 BR2  UNL     1      40.567 -17.588  24.919  1.00  0.00    -0.047 Br
HETATM   28  C22 UNL     1      38.822 -17.865  28.633  1.00  0.00     0.105 A 
HETATM   29  C21 UNL     1      38.796 -19.219  28.870  1.00  0.00     0.070 A 
BRANCH  24  30
HETATM   30  C3  UNL     1      40.274 -20.536  25.715  1.00  0.00     0.297 C 
HETATM   31  O2  UNL     1      39.600 -20.758  24.643  1.00  0.00    -0.259 OA
BRANCH  30  32
HETATM   32  O1  UNL     1      41.463 -21.210  25.768  1.00  0.00    -0.318 OA
BRANCH  32  33
HETATM   33  C2  UNL     1      42.654 -20.624  26.187  1.00  0.00     0.174 C 
HETATM   34  C1  UNL     1      43.571 -21.683  26.731  1.00  0.00     0.034 C 
ENDBRANCH  32  33
ENDBRANCH  30  32
ENDBRANCH  24  30
BRANCH  26  35
HETATM   35  O9  UNL     1      39.363 -16.023  27.247  1.00  0.00    -0.352 OA
HETATM   36  C25 UNL     1      38.319 -15.292  26.670  1.00  0.00     0.210 C 
ENDBRANCH  26  35
BRANCH  28  37
HETATM   37  O8  UNL     1      38.312 -17.013  29.593  1.00  0.00    -0.353 OA
HETATM   38  C23 UNL     1      36.916 -16.850  29.723  1.00  0.00     0.210 C 
ENDBRANCH  28  37
ENDBRANCH  21  23
ENDBRANCH   1  21
BRANCH  18  39
HETATM   39  O7  UNL     1      41.667 -25.456  29.676  1.00  0.00    -0.353 OA
HETATM   40  C19 UNL     1      40.825 -26.393  30.255  1.00  0.00     0.210 C 
ENDBRANCH  18  39
BRANCH  10  41
HETATM   41  O6  UNL     1      45.526 -24.902  28.130  1.00  0.00    -0.353 OA
HETATM   42  C14 UNL     1      44.633 -25.603  27.303  1.00  0.00     0.210 C 
ENDBRANCH  10  41
BRANCH   9  43
HETATM   43  O5  UNL     1      47.151 -23.082  28.913  1.00  0.00    -0.358 OA
ATOM     44  H5  UNL     1      47.348 -23.833  28.367  1.00  0.00     0.217 HD
ENDBRANCH   9  43
TORSDOF 10
ENDMDL
MODEL 4
REMARK VINA RESULT: -7.463840557      2.799      8.208
REMARK  10 active torsions:
REMARK  status: ('A' for Active; 'I' for Inactive)
REMARK    1  A    between atoms: C2_2  and  O1_3 
REMARK    2  A    between atoms: O1_3  and  C3_4 
REMARK    3  A    between atoms: C3_4  and  C4_6 
REMARK    4  A    between atoms: C5_7  and  N1_8 
REMARK    5  A    between atoms: N1_8  and  C6_10 
REMARK    6  A    between atoms: C12_18  and  O5_19 
REMARK    7  A    between atoms: C13_21  and  O6_22 
REMARK    8  A    between atoms: C18_31  and  O7_32 
REMARK    9  A    between atoms: C22_37  and  O8_38 
REMARK   10  A    between atoms: C24_40  and  O9_41 
ROOT
HETATM    1  C6  UNL     1      36.504 -20.609  23.854  1.00  0.00     0.055 A 
HETATM    2  C7  UNL     1      36.937 -21.215  25.022  1.00  0.00     0.069 A 
HETATM    3  C8  UNL     1      37.834 -20.637  25.843  1.00  0.00     0.097 A 
HETATM    4  O3  UNL     1      38.116 -21.364  26.899  1.00  0.00    -0.273 OA
HETATM    5  C9  UNL     1      38.693 -20.874  28.062  1.00  0.00     0.316 C 
HETATM    6  O4  UNL     1      38.593 -21.394  29.090  1.00  0.00    -0.257 OA
HETATM    7  C10 UNL     1      39.452 -19.745  28.251  1.00  0.00     0.126 C 
HETATM    8  C11 UNL     1      38.445 -19.293  29.054  1.00  0.00     0.076 C 
HETATM    9  C12 UNL     1      37.749 -18.096  28.783  1.00  0.00     0.101 C 
HETATM   10  C13 UNL     1      37.602 -17.370  27.565  1.00  0.00     0.103 C 
HETATM   11  C15 UNL     1      38.016 -17.698  26.261  1.00  0.00     0.071 C 
HETATM   12  C16 UNL     1      39.121 -18.465  26.071  1.00  0.00     0.066 C 
HETATM   13  N2  UNL     1      40.458 -18.598  26.423  1.00  0.00    -0.299 N 
ATOM     14  H2  UNL     1      41.230 -18.226  25.871  1.00  0.00     0.187 HD
HETATM   15  N3  UNL     1      40.632 -19.333  27.674  1.00  0.00    -0.295 N 
ATOM     16  H3  UNL     1      41.546 -19.523  28.084  1.00  0.00     0.187 HD
HETATM   17  C17 UNL     1      38.317 -19.359  25.436  1.00  0.00     0.061 A 
HETATM   18  C18 UNL     1      37.989 -18.696  24.354  1.00  0.00     0.103 A 
HETATM   19  C20 UNL     1      37.047 -19.340  23.536  1.00  0.00     0.072 A 
HETATM   20 BR1  UNL     1      36.415 -18.568  21.927  1.00  0.00    -0.046 Br
ENDROOT
BRANCH   1  21
HETATM   21  N1  UNL     1      35.621 -21.236  22.955  1.00  0.00    -0.354 N 
ATOM     22  H1  UNL     1      34.660 -20.896  22.923  1.00  0.00     0.166 HD
BRANCH  21  23
HETATM   23  C5  UNL     1      35.957 -22.278  22.111  1.00  0.00     0.053 A 
HETATM   24  C4  UNL     1      35.400 -23.522  22.249  1.00  0.00     0.086 A 
HETATM   25  C26 UNL     1      35.900 -24.584  21.475  1.00  0.00     0.065 A 
HETATM   26  C24 UNL     1      36.933 -24.414  20.578  1.00  0.00     0.120 A 
HETATM   27 BR2  UNL     1      35.157 -26.324  21.644  1.00  0.00    -0.047 Br
HETATM   28  C22 UNL     1      37.492 -23.161  20.437  1.00  0.00     0.105 A 
HETATM   29  C21 UNL     1      37.017 -22.112  21.188  1.00  0.00     0.070 A 
BRANCH  24  30
HETATM   30  C3  UNL     1      34.276 -23.766  23.091  1.00  0.00     0.297 C 
HETATM   31  O2  UNL     1      33.100 -23.309  22.843  1.00  0.00    -0.259 OA
BRANCH  30  32
HETATM   32  O1  UNL     1      34.350 -24.503  24.240  1.00  0.00    -0.318 OA
BRANCH  32  33
HETATM   33  C2  UNL     1      35.436 -24.454  25.108  1.00  0.00     0.174 C 
HETATM   34  C1  UNL     1      36.078 -25.810  25.188  1.00  0.00     0.034 C 
ENDBRANCH  32  33
ENDBRANCH  30  32
ENDBRANCH  24  30
BRANCH  26  35
HETATM   35  O9  UNL     1      37.434 -25.444  19.810  1.00  0.00    -0.352 OA
HETATM   36  C25 UNL     1      38.525 -26.246  20.163  1.00  0.00     0.210 C 
ENDBRANCH  26  35
BRANCH  28  37
HETATM   37  O8  UNL     1      38.528 -22.928  19.552  1.00  0.00    -0.353 OA
HETATM   38  C23 UNL     1      39.826 -22.661  20.037  1.00  0.00     0.210 C 
ENDBRANCH  28  37
ENDBRANCH  21  23
ENDBRANCH   1  21
BRANCH  18  39
HETATM   39  O7  UNL     1      38.450 -17.506  23.944  1.00  0.00    -0.353 OA
HETATM   40  C19 UNL     1      39.405 -17.173  22.998  1.00  0.00     0.210 C 
ENDBRANCH  18  39
BRANCH  10  41
HETATM   41  O6  UNL     1      36.971 -16.188  27.641  1.00  0.00    -0.353 OA
HETATM   42  C14 UNL     1      37.654 -14.974  27.463  1.00  0.00     0.210 C 
ENDBRANCH  10  41
BRANCH   9  43
HETATM   43  O5  UNL     1      37.116 -17.531  29.819  1.00  0.00    -0.358 OA
ATOM     44  H5  UNL     1      36.210 -17.786  29.948  1.00  0.00     0.217 HD
ENDBRANCH   9  43
TORSDOF 10
ENDMDL
MODEL 5
REMARK VINA RESULT: -7.454955853      3.878      7.857
REMARK  10 active torsions:
REMARK  status: ('A' for Active; 'I' for Inactive)
REMARK    1  A    between atoms: C2_2  and  O1_3 
REMARK    2  A    between atoms: O1_3  and  C3_4 
REMARK    3  A    between atoms: C3_4  and  C4_6 
REMARK    4  A    between atoms: C5_7  and  N1_8 
REMARK    5  A    between atoms: N1_8  and  C6_10 
REMARK    6  A    between atoms: C12_18  and  O5_19 
REMARK    7  A    between atoms: C13_21  and  O6_22 
REMARK    8  A    between atoms: C18_31  and  O7_32 
REMARK    9  A    between atoms: C22_37  and  O8_38 
REMARK   10  A    between atoms: C24_40  and  O9_41 
ROOT
HETATM    1  C6  UNL     1      40.793 -21.712  28.520  1.00  0.00     0.055 A 
HETATM    2  C7  UNL     1      41.754 -20.979  29.198  1.00  0.00     0.069 A 
HETATM    3  C8  UNL     1      42.676 -21.560  29.990  1.00  0.00     0.097 A 
HETATM    4  O3  UNL     1      43.500 -20.701  30.542  1.00  0.00    -0.273 OA
HETATM    5  C9  UNL     1      44.737 -21.029  31.080  1.00  0.00     0.316 C 
HETATM    6  O4  UNL     1      45.597 -20.267  31.209  1.00  0.00    -0.257 OA
HETATM    7  C10 UNL     1      45.195 -22.240  31.540  1.00  0.00     0.126 C 
HETATM    8  C11 UNL     1      46.111 -22.194  30.529  1.00  0.00     0.076 C 
HETATM    9  C12 UNL     1      46.176 -23.187  29.529  1.00  0.00     0.101 C 
HETATM   10  C13 UNL     1      45.191 -24.120  29.091  1.00  0.00     0.103 C 
HETATM   11  C15 UNL     1      43.837 -24.245  29.454  1.00  0.00     0.071 C 
HETATM   12  C16 UNL     1      43.429 -23.875  30.696  1.00  0.00     0.066 C 
HETATM   13  N2  UNL     1      43.704 -24.025  32.049  1.00  0.00    -0.299 N 
ATOM     14  H2  UNL     1      43.250 -24.715  32.647  1.00  0.00     0.187 HD
HETATM   15  N3  UNL     1      44.717 -23.083  32.518  1.00  0.00    -0.295 N 
ATOM     16  H3  UNL     1      45.043 -23.052  33.484  1.00  0.00     0.187 HD
HETATM   17  C17 UNL     1      42.603 -22.980  30.092  1.00  0.00     0.061 A 
HETATM   18  C18 UNL     1      41.737 -23.773  29.508  1.00  0.00     0.103 A 
HETATM   19  C20 UNL     1      40.802 -23.117  28.691  1.00  0.00     0.072 A 
HETATM   20 BR1  UNL     1      39.464 -24.059  27.740  1.00  0.00    -0.046 Br
ENDROOT
BRANCH   1  21
HETATM   21  N1  UNL     1      39.783 -21.109  27.748  1.00  0.00    -0.354 N 
ATOM     22  H1  UNL     1      39.173 -21.722  27.208  1.00  0.00     0.166 HD
BRANCH  21  23
HETATM   23  C5  UNL     1      39.553 -19.748  27.666  1.00  0.00     0.053 A 
HETATM   24  C4  UNL     1      40.032 -19.000  26.625  1.00  0.00     0.086 A 
HETATM   25  C26 UNL     1      39.914 -17.599  26.677  1.00  0.00     0.065 A 
HETATM   26  C24 UNL     1      39.328 -16.954  27.745  1.00  0.00     0.120 A 
HETATM   27 BR2  UNL     1      40.573 -16.529  25.253  1.00  0.00    -0.047 Br
HETATM   28  C22 UNL     1      38.843 -17.707  28.794  1.00  0.00     0.105 A 
HETATM   29  C21 UNL     1      38.952 -19.077  28.759  1.00  0.00     0.070 A 
BRANCH  24  30
HETATM   30  C3  UNL     1      40.576 -19.591  25.446  1.00  0.00     0.297 C 
HETATM   31  O2  UNL     1      41.766 -20.074  25.388  1.00  0.00    -0.259 OA
BRANCH  30  32
HETATM   32  O1  UNL     1      39.882 -19.690  24.273  1.00  0.00    -0.318 OA
BRANCH  32  33
HETATM   33  C2  UNL     1      38.563 -20.129  24.201  1.00  0.00     0.174 C 
HETATM   34  C1  UNL     1      38.519 -21.619  24.389  1.00  0.00     0.034 C 
ENDBRANCH  32  33
ENDBRANCH  30  32
ENDBRANCH  24  30
BRANCH  26  35
HETATM   35  O9  UNL     1      39.203 -15.582  27.812  1.00  0.00    -0.352 OA
HETATM   36  C25 UNL     1      38.097 -14.857  27.357  1.00  0.00     0.210 C 
ENDBRANCH  26  35
BRANCH  28  37
HETATM   37  O8  UNL     1      38.243 -17.116  29.889  1.00  0.00    -0.353 OA
HETATM   38  C23 UNL     1      36.836 -17.090  29.996  1.00  0.00     0.210 C 
ENDBRANCH  28  37
ENDBRANCH  21  23
ENDBRANCH   1  21
BRANCH  18  39
HETATM   39  O7  UNL     1      41.640 -25.105  29.612  1.00  0.00    -0.353 OA
HETATM   40  C19 UNL     1      40.774 -25.904  30.342  1.00  0.00     0.210 C 
ENDBRANCH  18  39
BRANCH  10  41
HETATM   41  O6  UNL     1      45.585 -25.033  28.190  1.00  0.00    -0.353 OA
HETATM   42  C14 UNL     1      45.100 -26.351  28.212  1.00  0.00     0.210 C 
ENDBRANCH  10  41
BRANCH   9  43
HETATM   43  O5  UNL     1      47.337 -23.291  28.869  1.00  0.00    -0.358 OA
ATOM     44  H5  UNL     1      47.731 -24.154  28.844  1.00  0.00     0.217 HD
ENDBRANCH   9  43
TORSDOF 10
ENDMDL
