MODEL 1
REMARK VINA RESULT: -9.206168515      0.000      0.000
REMARK  10 active torsions:
REMARK  status: ('A' for Active; 'I' for Inactive)
REMARK    1  A    between atoms: C2_2  and  C4_4 
REMARK    2  A    between atoms: C4_4  and  N1_5 
REMARK    3  A    between atoms: C4_4  and  C23_38 
REMARK    4  A    between atoms: N1_5  and  S1_7 
REMARK    5  A    between atoms: S1_7  and  C5_10 
REMARK    6  A    between atoms: C8_14  and  N2_15 
REMARK    7  A    between atoms: N2_15  and  C9_17 
REMARK    8  A    between atoms: C9_17  and  C10_18 
REMARK       I    between atoms: N3_21  and  C13_22 
REMARK       I    between atoms: C13_22  and  N4_24 
REMARK    9  A    between atoms: N4_24  and  C14_26 
REMARK   10  A    between atoms: C21_33  and  N5_34 
ROOT
HETATM    1  C5  UNL     1     -20.066  14.848  14.393  1.00  0.00     0.083 A 
HETATM    2  C6  UNL     1     -19.379  15.801  15.107  1.00  0.00     0.051 A 
HETATM    3  C7  UNL     1     -20.009  16.677  16.001  1.00  0.00     0.064 A 
HETATM    4 CL1  UNL     1     -19.021  17.888  16.817  1.00  0.00    -0.082 Cl
HETATM    5  C8  UNL     1     -21.375  16.606  16.200  1.00  0.00     0.083 A 
HETATM    6  C21 UNL     1     -22.106  15.645  15.488  1.00  0.00     0.132 A 
HETATM    7  C22 UNL     1     -21.420  14.803  14.613  1.00  0.00     0.063 A 
ENDROOT
BRANCH   5   8
HETATM    8  N2  UNL     1     -22.088  17.439  17.100  1.00  0.00    -0.386 N 
ATOM      9  H2  UNL     1     -22.687  16.971  17.781  1.00  0.00     0.159 HD
BRANCH   8  10
HETATM   10  C9  UNL     1     -22.053  18.859  17.147  1.00  0.00     0.124 C 
BRANCH  10  11
HETATM   11  C10 UNL     1     -23.250  19.542  16.507  1.00  0.00     0.006 C 
HETATM   12  C11 UNL     1     -23.109  19.514  14.999  1.00  0.00     0.026 C 
HETATM   13  C12 UNL     1     -22.978  20.925  14.438  1.00  0.00     0.128 C 
HETATM   14  N3  UNL     1     -22.012  21.624  15.221  1.00  0.00    -0.334 N 
HETATM   15  C13 UNL     1     -20.750  22.006  14.747  1.00  0.00     0.318 C 
HETATM   16  C19 UNL     1     -22.407  21.922  16.596  1.00  0.00     0.128 C 
HETATM   17  O3  UNL     1     -19.996  22.640  15.572  1.00  0.00    -0.247 OA
HETATM   18  N4  UNL     1     -20.285  21.733  13.439  1.00  0.00    -0.338 N 
ATOM     19  H4  UNL     1     -20.889  21.230  12.789  1.00  0.00     0.164 HD
HETATM   20  C20 UNL     1     -23.405  20.903  17.091  1.00  0.00     0.026 C 
BRANCH  18  21
HETATM   21  C14 UNL     1     -18.960  22.156  12.999  1.00  0.00     0.086 C 
HETATM   22  C15 UNL     1     -18.972  23.426  12.210  1.00  0.00     0.025 C 
HETATM   23  C16 UNL     1     -17.741  23.345  11.368  1.00  0.00     0.002 C 
HETATM   24  C17 UNL     1     -17.433  21.896  11.174  1.00  0.00     0.002 C 
HETATM   25  C18 UNL     1     -18.339  21.125  12.079  1.00  0.00     0.025 C 
ENDBRANCH  18  21
ENDBRANCH  10  11
ENDBRANCH   8  10
ENDBRANCH   5   8
BRANCH   6  26
HETATM   26  N5  UNL     1     -23.498  15.499  15.605  1.00  0.00    -0.113 N 
HETATM   27  O4  UNL     1     -24.251  16.119  16.334  1.00  0.00    -0.532 OA
HETATM   28  O5  UNL     1     -24.091  14.509  14.817  1.00  0.00    -0.532 OA
ENDBRANCH   6  26
BRANCH   1  29
HETATM   29  S1  UNL     1     -19.272  13.774  13.269  1.00  0.00     0.259 S 
HETATM   30  O1  UNL     1     -18.620  14.566  12.148  1.00  0.00    -0.201 OA
HETATM   31  O2  UNL     1     -20.304  12.887  12.575  1.00  0.00    -0.201 OA
BRANCH  29  32
HETATM   32  N1  UNL     1     -18.094  12.764  13.928  1.00  0.00    -0.300 N 
ATOM     33  H1  UNL     1     -17.256  12.451  13.437  1.00  0.00     0.173 HD
BRANCH  32  34
HETATM   34  C4  UNL     1     -18.437  12.403  15.290  1.00  0.00     0.197 C 
BRANCH  34  35
HETATM   35  C2  UNL     1     -18.284  10.953  15.570  1.00  0.00     0.011 C 
HETATM   36  C1  UNL     1     -19.417  10.476  16.470  1.00  0.00     0.012 C 
HETATM   37  C3  UNL     1     -18.286  10.153  14.314  1.00  0.00     0.012 C 
ENDBRANCH  34  35
BRANCH  34  38
HETATM   38  C23 UNL     1     -17.599  13.223  16.240  1.00  0.00     0.197 C 
HETATM   39  O6  UNL     1     -16.449  13.562  15.870  1.00  0.00    -0.646 OA
HETATM   40  O7  UNL     1     -18.015  13.624  17.484  1.00  0.00    -0.646 OA
ENDBRANCH  34  38
ENDBRANCH  32  34
ENDBRANCH  29  32
ENDBRANCH   1  29
TORSDOF 10
ENDMDL
MODEL 2
REMARK VINA RESULT: -9.203908844      1.243      1.566
REMARK  10 active torsions:
REMARK  status: ('A' for Active; 'I' for Inactive)
REMARK    1  A    between atoms: C2_2  and  C4_4 
REMARK    2  A    between atoms: C4_4  and  N1_5 
REMARK    3  A    between atoms: C4_4  and  C23_38 
REMARK    4  A    between atoms: N1_5  and  S1_7 
REMARK    5  A    between atoms: S1_7  and  C5_10 
REMARK    6  A    between atoms: C8_14  and  N2_15 
REMARK    7  A    between atoms: N2_15  and  C9_17 
REMARK    8  A    between atoms: C9_17  and  C10_18 
REMARK       I    between atoms: N3_21  and  C13_22 
REMARK       I    between atoms: C13_22  and  N4_24 
REMARK    9  A    between atoms: N4_24  and  C14_26 
REMARK   10  A    between atoms: C21_33  and  N5_34 
ROOT
HETATM    1  C5  UNL     1     -20.130  14.819  14.350  1.00  0.00     0.083 A 
HETATM    2  C6  UNL     1     -19.279  15.514  15.176  1.00  0.00     0.051 A 
HETATM    3  C7  UNL     1     -19.723  16.510  16.056  1.00  0.00     0.064 A 
HETATM    4 CL1  UNL     1     -18.522  17.363  17.024  1.00  0.00    -0.082 Cl
HETATM    5  C8  UNL     1     -21.066  16.831  16.124  1.00  0.00     0.083 A 
HETATM    6  C21 UNL     1     -21.962  16.140  15.295  1.00  0.00     0.132 A 
HETATM    7  C22 UNL     1     -21.456  15.160  14.441  1.00  0.00     0.063 A 
ENDROOT
BRANCH   5   8
HETATM    8  N2  UNL     1     -21.603  17.809  16.999  1.00  0.00    -0.386 N 
ATOM      9  H2  UNL     1     -22.182  17.469  17.767  1.00  0.00     0.159 HD
BRANCH   8  10
HETATM   10  C9  UNL     1     -21.416  19.215  16.912  1.00  0.00     0.124 C 
BRANCH  10  11
HETATM   11  C10 UNL     1     -22.597  19.974  16.329  1.00  0.00     0.006 C 
HETATM   12  C11 UNL     1     -22.558  19.899  14.817  1.00  0.00     0.026 C 
HETATM   13  C12 UNL     1     -22.357  21.281  14.208  1.00  0.00     0.128 C 
HETATM   14  N3  UNL     1     -21.291  21.922  14.908  1.00  0.00    -0.334 N 
HETATM   15  C13 UNL     1     -20.037  22.193  14.343  1.00  0.00     0.318 C 
HETATM   16  C19 UNL     1     -21.572  22.282  16.296  1.00  0.00     0.128 C 
HETATM   17  O3  UNL     1     -19.185  22.786  15.100  1.00  0.00    -0.247 OA
HETATM   18  N4  UNL     1     -19.681  21.854  13.017  1.00  0.00    -0.338 N 
ATOM     19  H4  UNL     1     -20.363  21.384  12.422  1.00  0.00     0.164 HD
HETATM   20  C20 UNL     1     -22.609  21.357  16.883  1.00  0.00     0.026 C 
BRANCH  18  21
HETATM   21  C14 UNL     1     -18.360  22.161  12.482  1.00  0.00     0.086 C 
HETATM   22  C15 UNL     1     -18.364  23.282  11.492  1.00  0.00     0.025 C 
HETATM   23  C16 UNL     1     -17.160  23.028  10.647  1.00  0.00     0.002 C 
HETATM   24  C17 UNL     1     -16.890  21.559  10.691  1.00  0.00     0.002 C 
HETATM   25  C18 UNL     1     -17.788  20.975  11.733  1.00  0.00     0.025 C 
ENDBRANCH  18  21
ENDBRANCH  10  11
ENDBRANCH   8  10
ENDBRANCH   5   8
BRANCH   6  26
HETATM   26  N5  UNL     1     -23.342  16.398  15.275  1.00  0.00    -0.113 N 
HETATM   27  O4  UNL     1     -24.124  16.328  16.206  1.00  0.00    -0.532 OA
HETATM   28  O5  UNL     1     -23.894  16.748  14.040  1.00  0.00    -0.532 OA
ENDBRANCH   6  26
BRANCH   1  29
HETATM   29  S1  UNL     1     -19.561  13.592  13.246  1.00  0.00     0.259 S 
HETATM   30  O1  UNL     1     -18.113  13.849  12.866  1.00  0.00    -0.201 OA
HETATM   31  O2  UNL     1     -20.333  13.673  11.930  1.00  0.00    -0.201 OA
BRANCH  29  32
HETATM   32  N1  UNL     1     -19.666  12.002  13.800  1.00  0.00    -0.300 N 
ATOM     33  H1  UNL     1     -20.213  11.266  13.353  1.00  0.00     0.173 HD
BRANCH  32  34
HETATM   34  C4  UNL     1     -18.870  11.828  14.999  1.00  0.00     0.197 C 
BRANCH  34  35
HETATM   35  C2  UNL     1     -19.681  11.791  16.242  1.00  0.00     0.011 C 
HETATM   36  C1  UNL     1     -19.789  10.358  16.749  1.00  0.00     0.012 C 
HETATM   37  C3  UNL     1     -19.083  12.643  17.307  1.00  0.00     0.012 C 
ENDBRANCH  34  35
BRANCH  34  38
HETATM   38  C23 UNL     1     -18.046  10.572  14.861  1.00  0.00     0.197 C 
HETATM   39  O6  UNL     1     -18.335   9.775  13.936  1.00  0.00    -0.646 OA
HETATM   40  O7  UNL     1     -16.997  10.245  15.683  1.00  0.00    -0.646 OA
ENDBRANCH  34  38
ENDBRANCH  32  34
ENDBRANCH  29  32
ENDBRANCH   1  29
TORSDOF 10
ENDMDL
MODEL 3
REMARK VINA RESULT: -9.133329504      2.076      2.941
REMARK  10 active torsions:
REMARK  status: ('A' for Active; 'I' for Inactive)
REMARK    1  A    between atoms: C2_2  and  C4_4 
REMARK    2  A    between atoms: C4_4  and  N1_5 
REMARK    3  A    between atoms: C4_4  and  C23_38 
REMARK    4  A    between atoms: N1_5  and  S1_7 
REMARK    5  A    between atoms: S1_7  and  C5_10 
REMARK    6  A    between atoms: C8_14  and  N2_15 
REMARK    7  A    between atoms: N2_15  and  C9_17 
REMARK    8  A    between atoms: C9_17  and  C10_18 
REMARK       I    between atoms: N3_21  and  C13_22 
REMARK       I    between atoms: C13_22  and  N4_24 
REMARK    9  A    between atoms: N4_24  and  C14_26 
REMARK   10  A    between atoms: C21_33  and  N5_34 
ROOT
HETATM    1  C5  UNL     1     -18.269  15.143  15.518  1.00  0.00     0.083 A 
HETATM    2  C6  UNL     1     -19.598  15.034  15.186  1.00  0.00     0.051 A 
HETATM    3  C7  UNL     1     -20.516  16.073  15.387  1.00  0.00     0.064 A 
HETATM    4 CL1  UNL     1     -22.204  15.788  14.967  1.00  0.00    -0.082 Cl
HETATM    5  C8  UNL     1     -20.102  17.272  15.937  1.00  0.00     0.083 A 
HETATM    6  C21 UNL     1     -18.751  17.417  16.286  1.00  0.00     0.132 A 
HETATM    7  C22 UNL     1     -17.889  16.344  16.061  1.00  0.00     0.063 A 
ENDROOT
BRANCH   5   8
HETATM    8  N2  UNL     1     -20.958  18.381  16.156  1.00  0.00    -0.386 N 
ATOM      9  H2  UNL     1     -20.816  19.196  15.558  1.00  0.00     0.159 HD
BRANCH   8  10
HETATM   10  C9  UNL     1     -21.994  18.471  17.125  1.00  0.00     0.124 C 
BRANCH  10  11
HETATM   11  C10 UNL     1     -23.269  19.130  16.626  1.00  0.00     0.006 C 
HETATM   12  C11 UNL     1     -23.227  19.249  15.116  1.00  0.00     0.026 C 
HETATM   13  C12 UNL     1     -23.218  20.711  14.686  1.00  0.00     0.128 C 
HETATM   14  N3  UNL     1     -22.246  21.397  15.472  1.00  0.00    -0.334 N 
HETATM   15  C13 UNL     1     -21.043  21.904  14.961  1.00  0.00     0.318 C 
HETATM   16  C19 UNL     1     -22.566  21.542  16.890  1.00  0.00     0.128 C 
HETATM   17  O3  UNL     1     -20.275  22.508  15.796  1.00  0.00    -0.247 OA
HETATM   18  N4  UNL     1     -20.650  21.782  13.608  1.00  0.00    -0.338 N 
ATOM     19  H4  UNL     1     -21.264  21.302  12.951  1.00  0.00     0.164 HD
HETATM   20  C20 UNL     1     -23.467  20.419  17.346  1.00  0.00     0.026 C 
BRANCH  18  21
HETATM   21  C14 UNL     1     -19.385  22.329  13.131  1.00  0.00     0.086 C 
HETATM   22  C15 UNL     1     -19.550  23.416  12.117  1.00  0.00     0.025 C 
HETATM   23  C16 UNL     1     -18.277  23.385  11.338  1.00  0.00     0.002 C 
HETATM   24  C17 UNL     1     -17.736  21.996  11.428  1.00  0.00     0.002 C 
HETATM   25  C18 UNL     1     -18.560  21.264  12.438  1.00  0.00     0.025 C 
ENDBRANCH  18  21
ENDBRANCH  10  11
ENDBRANCH   8  10
ENDBRANCH   5   8
BRANCH   6  26
HETATM   26  N5  UNL     1     -18.230  18.586  16.865  1.00  0.00    -0.113 N 
HETATM   27  O4  UNL     1     -18.557  19.736  16.636  1.00  0.00    -0.532 OA
HETATM   28  O5  UNL     1     -17.196  18.418  17.789  1.00  0.00    -0.532 OA
ENDBRANCH   6  26
BRANCH   1  29
HETATM   29  S1  UNL     1     -17.138  13.834  15.278  1.00  0.00     0.259 S 
HETATM   30  O1  UNL     1     -15.769  14.210  15.816  1.00  0.00    -0.201 OA
HETATM   31  O2  UNL     1     -16.922  13.596  13.784  1.00  0.00    -0.201 OA
BRANCH  29  32
HETATM   32  N1  UNL     1     -17.568  12.358  15.971  1.00  0.00    -0.300 N 
ATOM     33  H1  UNL     1     -16.914  11.711  16.413  1.00  0.00     0.173 HD
BRANCH  32  34
HETATM   34  C4  UNL     1     -18.997  12.137  15.853  1.00  0.00     0.197 C 
BRANCH  34  35
HETATM   35  C2  UNL     1     -19.355  11.171  14.785  1.00  0.00     0.011 C 
HETATM   36  C1  UNL     1     -19.936  11.914  13.587  1.00  0.00     0.012 C 
HETATM   37  C3  UNL     1     -18.172  10.382  14.345  1.00  0.00     0.012 C 
ENDBRANCH  34  35
BRANCH  34  38
HETATM   38  C23 UNL     1     -19.533  11.683  17.189  1.00  0.00     0.197 C 
HETATM   39  O6  UNL     1     -20.004  12.551  17.962  1.00  0.00    -0.646 OA
HETATM   40  O7  UNL     1     -19.539  10.378  17.612  1.00  0.00    -0.646 OA
ENDBRANCH  34  38
ENDBRANCH  32  34
ENDBRANCH  29  32
ENDBRANCH   1  29
TORSDOF 10
ENDMDL
MODEL 4
REMARK VINA RESULT: -9.049152992      3.082      4.465
REMARK  10 active torsions:
REMARK  status: ('A' for Active; 'I' for Inactive)
REMARK    1  A    between atoms: C2_2  and  C4_4 
REMARK    2  A    between atoms: C4_4  and  N1_5 
REMARK    3  A    between atoms: C4_4  and  C23_38 
REMARK    4  A    between atoms: N1_5  and  S1_7 
REMARK    5  A    between atoms: S1_7  and  C5_10 
REMARK    6  A    between atoms: C8_14  and  N2_15 
REMARK    7  A    between atoms: N2_15  and  C9_17 
REMARK    8  A    between atoms: C9_17  and  C10_18 
REMARK       I    between atoms: N3_21  and  C13_22 
REMARK       I    between atoms: C13_22  and  N4_24 
REMARK    9  A    between atoms: N4_24  and  C14_26 
REMARK   10  A    between atoms: C21_33  and  N5_34 
ROOT
HETATM    1  C5  UNL     1     -18.856  15.930  17.407  1.00  0.00     0.083 A 
HETATM    2  C6  UNL     1     -20.035  16.450  16.930  1.00  0.00     0.051 A 
HETATM    3  C7  UNL     1     -20.164  17.785  16.523  1.00  0.00     0.064 A 
HETATM    4 CL1  UNL     1     -21.746  18.342  15.978  1.00  0.00    -0.082 Cl
HETATM    5  C8  UNL     1     -19.081  18.641  16.589  1.00  0.00     0.083 A 
HETATM    6  C21 UNL     1     -17.863  18.143  17.071  1.00  0.00     0.132 A 
HETATM    7  C22 UNL     1     -17.800  16.805  17.460  1.00  0.00     0.063 A 
ENDROOT
BRANCH   5   8
HETATM    8  N2  UNL     1     -19.119  19.999  16.181  1.00  0.00    -0.386 N 
ATOM      9  H2  UNL     1     -19.083  20.702  16.919  1.00  0.00     0.159 HD
BRANCH   8  10
HETATM   10  C9  UNL     1     -19.200  20.478  14.845  1.00  0.00     0.124 C 
BRANCH  10  11
HETATM   11  C10 UNL     1     -20.513  21.159  14.497  1.00  0.00     0.006 C 
HETATM   12  C11 UNL     1     -20.673  21.226  12.992  1.00  0.00     0.026 C 
HETATM   13  C12 UNL     1     -20.684  22.671  12.510  1.00  0.00     0.128 C 
HETATM   14  N3  UNL     1     -19.596  23.353  13.133  1.00  0.00    -0.334 N 
HETATM   15  C13 UNL     1     -18.461  23.805  12.446  1.00  0.00     0.318 C 
HETATM   16  C19 UNL     1     -19.718  23.555  14.574  1.00  0.00     0.128 C 
HETATM   17  O3  UNL     1     -17.572  24.412  13.147  1.00  0.00    -0.247 OA
HETATM   18  N4  UNL     1     -18.258  23.626  11.057  1.00  0.00    -0.338 N 
ATOM     19  H4  UNL     1     -18.968  23.143  10.507  1.00  0.00     0.164 HD
HETATM   20  C20 UNL     1     -20.578  22.476  15.188  1.00  0.00     0.026 C 
BRANCH  18  21
HETATM   21  C14 UNL     1     -17.056  24.117  10.395  1.00  0.00     0.086 C 
HETATM   22  C15 UNL     1     -17.338  24.926   9.169  1.00  0.00     0.025 C 
HETATM   23  C16 UNL     1     -16.101  24.787   8.345  1.00  0.00     0.002 C 
HETATM   24  C17 UNL     1     -15.463  23.490   8.721  1.00  0.00     0.002 C 
HETATM   25  C18 UNL     1     -16.191  22.968   9.918  1.00  0.00     0.025 C 
ENDBRANCH  18  21
ENDBRANCH  10  11
ENDBRANCH   8  10
ENDBRANCH   5   8
BRANCH   6  26
HETATM   26  N5  UNL     1     -16.706  18.931  17.193  1.00  0.00    -0.113 N 
HETATM   27  O4  UNL     1     -15.570  18.637  16.870  1.00  0.00    -0.532 OA
HETATM   28  O5  UNL     1     -16.867  20.188  17.781  1.00  0.00    -0.532 OA
ENDBRANCH   6  26
BRANCH   1  29
HETATM   29  S1  UNL     1     -18.712  14.270  17.926  1.00  0.00     0.259 S 
HETATM   30  O1  UNL     1     -20.082  13.689  18.232  1.00  0.00    -0.201 OA
HETATM   31  O2  UNL     1     -17.951  14.198  19.249  1.00  0.00    -0.201 OA
BRANCH  29  32
HETATM   32  N1  UNL     1     -17.950  13.226  16.843  1.00  0.00    -0.300 N 
ATOM     33  H1  UNL     1     -16.948  13.218  16.652  1.00  0.00     0.173 HD
BRANCH  32  34
HETATM   34  C4  UNL     1     -18.917  12.343  16.220  1.00  0.00     0.197 C 
BRANCH  34  35
HETATM   35  C2  UNL     1     -19.131  12.628  14.779  1.00  0.00     0.011 C 
HETATM   36  C1  UNL     1     -20.565  13.089  14.549  1.00  0.00     0.012 C 
HETATM   37  C3  UNL     1     -18.195  13.677  14.287  1.00  0.00     0.012 C 
ENDBRANCH  34  35
BRANCH  34  38
HETATM   38  C23 UNL     1     -18.477  10.914  16.424  1.00  0.00     0.197 C 
HETATM   39  O6  UNL     1     -19.044  10.245  17.320  1.00  0.00    -0.646 OA
HETATM   40  O7  UNL     1     -17.495  10.299  15.690  1.00  0.00    -0.646 OA
ENDBRANCH  34  38
ENDBRANCH  32  34
ENDBRANCH  29  32
ENDBRANCH   1  29
TORSDOF 10
ENDMDL
MODEL 5
REMARK VINA RESULT: -8.957659615      2.257      2.903
REMARK  10 active torsions:
REMARK  status: ('A' for Active; 'I' for Inactive)
REMARK    1  A    between atoms: C2_2  and  C4_4 
REMARK    2  A    between atoms: C4_4  and  N1_5 
REMARK    3  A    between atoms: C4_4  and  C23_38 
REMARK    4  A    between atoms: N1_5  and  S1_7 
REMARK    5  A    between atoms: S1_7  and  C5_10 
REMARK    6  A    between atoms: C8_14  and  N2_15 
REMARK    7  A    between atoms: N2_15  and  C9_17 
REMARK    8  A    between atoms: C9_17  and  C10_18 
REMARK       I    between atoms: N3_21  and  C13_22 
REMARK       I    between atoms: C13_22  and  N4_24 
REMARK    9  A    between atoms: N4_24  and  C14_26 
REMARK   10  A    between atoms: C21_33  and  N5_34 
ROOT
HETATM    1  C5  UNL     1     -18.836  15.188  15.677  1.00  0.00     0.083 A 
HETATM    2  C6  UNL     1     -20.204  15.152  15.548  1.00  0.00     0.051 A 
HETATM    3  C7  UNL     1     -21.008  16.291  15.689  1.00  0.00     0.064 A 
HETATM    4 CL1  UNL     1     -22.755  16.102  15.551  1.00  0.00    -0.082 Cl
HETATM    5  C8  UNL     1     -20.435  17.518  15.967  1.00  0.00     0.083 A 
HETATM    6  C21 UNL     1     -19.042  17.590  16.104  1.00  0.00     0.132 A 
HETATM    7  C22 UNL     1     -18.298  16.420  15.953  1.00  0.00     0.063 A 
ENDROOT
BRANCH   5   8
HETATM    8  N2  UNL     1     -21.171  18.723  16.105  1.00  0.00    -0.386 N 
ATOM      9  H2  UNL     1     -20.964  19.466  15.437  1.00  0.00     0.159 HD
BRANCH   8  10
HETATM   10  C9  UNL     1     -22.167  18.998  17.080  1.00  0.00     0.124 C 
BRANCH  10  11
HETATM   11  C10 UNL     1     -23.351  19.800  16.564  1.00  0.00     0.006 C 
HETATM   12  C11 UNL     1     -23.299  19.874  15.052  1.00  0.00     0.026 C 
HETATM   13  C12 UNL     1     -23.107  21.312  14.584  1.00  0.00     0.128 C 
HETATM   14  N3  UNL     1     -22.053  21.890  15.354  1.00  0.00    -0.334 N 
HETATM   15  C13 UNL     1     -20.798  22.228  14.830  1.00  0.00     0.318 C 
HETATM   16  C19 UNL     1     -22.349  22.110  16.768  1.00  0.00     0.128 C 
HETATM   17  O3  UNL     1     -19.958  22.752  15.649  1.00  0.00    -0.247 OA
HETATM   18  N4  UNL     1     -20.427  22.024  13.480  1.00  0.00    -0.338 N 
ATOM     19  H4  UNL     1     -21.100  21.608  12.835  1.00  0.00     0.164 HD
HETATM   20  C20 UNL     1     -23.382  21.121  17.251  1.00  0.00     0.026 C 
BRANCH  18  21
HETATM   21  C14 UNL     1     -19.105  22.395  12.990  1.00  0.00     0.086 C 
HETATM   22  C15 UNL     1     -19.123  23.556  12.047  1.00  0.00     0.025 C 
HETATM   23  C16 UNL     1     -17.892  23.375  11.221  1.00  0.00     0.002 C 
HETATM   24  C17 UNL     1     -17.576  21.916  11.211  1.00  0.00     0.002 C 
HETATM   25  C18 UNL     1     -18.478  21.260  12.207  1.00  0.00     0.025 C 
ENDBRANCH  18  21
ENDBRANCH  10  11
ENDBRANCH   8  10
ENDBRANCH   5   8
BRANCH   6  26
HETATM   26  N5  UNL     1     -18.361  18.783  16.401  1.00  0.00    -0.113 N 
HETATM   27  O4  UNL     1     -17.729  19.046  17.408  1.00  0.00    -0.532 OA
HETATM   28  O5  UNL     1     -18.440  19.801  15.447  1.00  0.00    -0.532 OA
ENDBRANCH   6  26
BRANCH   1  29
HETATM   29  S1  UNL     1     -17.848  13.759  15.516  1.00  0.00     0.259 S 
HETATM   30  O1  UNL     1     -16.395  14.140  15.289  1.00  0.00    -0.201 OA
HETATM   31  O2  UNL     1     -18.250  12.981  14.264  1.00  0.00    -0.201 OA
BRANCH  29  32
HETATM   32  N1  UNL     1     -17.892  12.686  16.817  1.00  0.00    -0.300 N 
ATOM     33  H1  UNL     1     -17.167  12.001  17.031  1.00  0.00     0.173 HD
BRANCH  32  34
HETATM   34  C4  UNL     1     -19.105  12.873  17.590  1.00  0.00     0.197 C 
BRANCH  34  35
HETATM   35  C2  UNL     1     -19.906  11.632  17.737  1.00  0.00     0.011 C 
HETATM   36  C1  UNL     1     -21.299  11.841  17.156  1.00  0.00     0.012 C 
HETATM   37  C3  UNL     1     -19.256  10.481  17.050  1.00  0.00     0.012 C 
ENDBRANCH  34  35
BRANCH  34  38
HETATM   38  C23 UNL     1     -18.742  13.440  18.940  1.00  0.00     0.197 C 
HETATM   39  O6  UNL     1     -19.250  12.911  19.958  1.00  0.00    -0.646 OA
HETATM   40  O7  UNL     1     -17.890  14.499  19.127  1.00  0.00    -0.646 OA
ENDBRANCH  34  38
ENDBRANCH  32  34
ENDBRANCH  29  32
ENDBRANCH   1  29
TORSDOF 10
ENDMDL
