MODEL 1
REMARK VINA RESULT: -9.063339945      0.000      0.000
REMARK  12 active torsions:
REMARK  status: ('A' for Active; 'I' for Inactive)
REMARK    1  A    between atoms: N1_8  and  C5_9 
REMARK    2  A    between atoms: C5_9  and  C6_10 
REMARK       I    between atoms: N2_20  and  C15_21 
REMARK       I    between atoms: C15_21  and  N3_23 
REMARK    3  A    between atoms: N3_23  and  C16_25 
REMARK    4  A    between atoms: C16_25  and  C17_26 
REMARK    5  A    between atoms: C17_26  and  C18_27 
REMARK    6  A    between atoms: C18_27  and  C19_28 
REMARK    7  A    between atoms: C19_28  and  C20_29 
REMARK    8  A    between atoms: C20_29  and  C21_30 
REMARK    9  A    between atoms: C21_30  and  C22_31 
REMARK   10  A    between atoms: C22_31  and  C23_32 
REMARK   11  A    between atoms: C23_32  and  O5_33 
REMARK   12  A    between atoms: N4_35  and  O6_37 
ROOT
HETATM    1  O1  UNL     1     -20.078  14.813  17.358  1.00  0.00    -0.271 OA
HETATM    2  C1  UNL     1     -19.769  15.490  16.319  1.00  0.00     0.241 C 
HETATM    3  C2  UNL     1     -20.689  15.395  15.174  1.00  0.00     0.270 C 
HETATM    4  O2  UNL     1     -21.848  16.109  15.253  1.00  0.00    -0.380 OA
HETATM    5  C3  UNL     1     -22.685  15.824  16.315  1.00  0.00     0.197 C 
HETATM    6  C4  UNL     1     -23.751  16.941  16.325  1.00  0.00     0.227 C 
HETATM    7  O3  UNL     1     -23.188  18.014  16.927  1.00  0.00    -0.276 OA
HETATM    8  N1  UNL     1     -23.857  19.121  17.075  1.00  0.00    -0.269 N 
HETATM    9  C12 UNL     1     -23.962  19.908  15.907  1.00  0.00     0.157 C 
HETATM   10  C13 UNL     1     -22.655  20.079  15.161  1.00  0.00     0.042 C 
HETATM   11  C14 UNL     1     -21.681  20.935  15.886  1.00  0.00     0.129 C 
HETATM   12  N2  UNL     1     -20.328  20.665  15.483  1.00  0.00    -0.334 N 
HETATM   13  C15 UNL     1     -19.779  21.227  14.310  1.00  0.00     0.318 C 
HETATM   14  O4  UNL     1     -18.597  20.952  13.974  1.00  0.00    -0.247 OA
HETATM   15  N3  UNL     1     -20.519  22.105  13.490  1.00  0.00    -0.343 N 
ATOM     16  H3  UNL     1     -21.477  22.325  13.761  1.00  0.00     0.164 HD
HETATM   17  C24 UNL     1     -19.482  19.825  16.302  1.00  0.00     0.129 C 
HETATM   18  C25 UNL     1     -19.655  18.382  15.955  1.00  0.00     0.039 C 
HETATM   19  C26 UNL     1     -18.361  17.598  15.986  1.00  0.00     0.124 C 
HETATM   20  N5  UNL     1     -18.579  16.238  16.407  1.00  0.00    -0.359 N 
ATOM     21  H5  UNL     1     -17.777  15.761  16.818  1.00  0.00     0.162 HD
ENDROOT
BRANCH  15  22
HETATM   22  C16 UNL     1     -19.994  22.710  12.287  1.00  0.00     0.124 C 
BRANCH  22  23
HETATM   23  C17 UNL     1     -19.229  23.993  12.551  1.00  0.00     0.020 C 
BRANCH  23  24
HETATM   24  C18 UNL     1     -17.791  23.877  12.172  1.00  0.00     0.002 C 
BRANCH  24  25
HETATM   25  C19 UNL     1     -17.531  22.889  11.079  1.00  0.00     0.000 C 
BRANCH  25  26
HETATM   26  C20 UNL     1     -16.122  23.043  10.577  1.00  0.00     0.000 C 
BRANCH  26  27
HETATM   27  C21 UNL     1     -16.091  23.528   9.158  1.00  0.00     0.008 C 
BRANCH  27  28
HETATM   28  C22 UNL     1     -17.207  24.493   8.919  1.00  0.00     0.086 C 
BRANCH  28  29
HETATM   29  C23 UNL     1     -16.650  25.872   8.680  1.00  0.00     0.135 C 
HETATM   30  N4  UNL     1     -16.706  26.709   9.640  1.00  0.00    -0.251 N 
ATOM     31  H4  UNL     1     -17.128  26.381  10.509  1.00  0.00     0.196 HD
BRANCH  29  32
HETATM   32  O5  UNL     1     -16.098  26.168   7.424  1.00  0.00    -0.348 OA
ATOM     33  H5  UNL     1     -15.220  26.530   7.385  1.00  0.00     0.219 HD
ENDBRANCH  29  32
BRANCH  30  34
HETATM   34  O6  UNL     1     -16.260  27.998   9.626  1.00  0.00    -0.288 OA
ATOM     35  H6  UNL     1     -16.663  28.743  10.055  1.00  0.00     0.244 HD
ENDBRANCH  30  34
ENDBRANCH  28  29
ENDBRANCH  27  28
ENDBRANCH  26  27
ENDBRANCH  25  26
ENDBRANCH  24  25
ENDBRANCH  23  24
ENDBRANCH  22  23
ENDBRANCH  15  22
BRANCH   8  36
HETATM   36  C5  UNL     1     -24.819  19.248  18.088  1.00  0.00     0.128 C 
BRANCH  36  37
HETATM   37  C6  UNL     1     -24.774  20.610  18.670  1.00  0.00    -0.019 A 
HETATM   38  C7  UNL     1     -25.896  21.427  18.658  1.00  0.00     0.014 A 
HETATM   39  C8  UNL     1     -25.845  22.692  19.202  1.00  0.00     0.024 A 
HETATM   40  C9  UNL     1     -24.677  23.186  19.775  1.00  0.00     0.034 A 
HETATM   41 CL1  UNL     1     -24.662  24.792  20.449  1.00  0.00    -0.084 Cl
HETATM   42  C10 UNL     1     -23.547  22.383  19.795  1.00  0.00     0.024 A 
HETATM   43  C11 UNL     1     -23.612  21.114  19.245  1.00  0.00     0.014 A 
ENDBRANCH  36  37
ENDBRANCH   8  36
TORSDOF 12
ENDMDL
MODEL 2
REMARK VINA RESULT: -8.886764669      2.376      2.916
REMARK  12 active torsions:
REMARK  status: ('A' for Active; 'I' for Inactive)
REMARK    1  A    between atoms: N1_8  and  C5_9 
REMARK    2  A    between atoms: C5_9  and  C6_10 
REMARK       I    between atoms: N2_20  and  C15_21 
REMARK       I    between atoms: C15_21  and  N3_23 
REMARK    3  A    between atoms: N3_23  and  C16_25 
REMARK    4  A    between atoms: C16_25  and  C17_26 
REMARK    5  A    between atoms: C17_26  and  C18_27 
REMARK    6  A    between atoms: C18_27  and  C19_28 
REMARK    7  A    between atoms: C19_28  and  C20_29 
REMARK    8  A    between atoms: C20_29  and  C21_30 
REMARK    9  A    between atoms: C21_30  and  C22_31 
REMARK   10  A    between atoms: C22_31  and  C23_32 
REMARK   11  A    between atoms: C23_32  and  O5_33 
REMARK   12  A    between atoms: N4_35  and  O6_37 
ROOT
HETATM    1  O1  UNL     1     -18.478  16.338  17.873  1.00  0.00    -0.271 OA
HETATM    2  C1  UNL     1     -18.181  17.005  16.824  1.00  0.00     0.241 C 
HETATM    3  C2  UNL     1     -18.776  16.543  15.560  1.00  0.00     0.270 C 
HETATM    4  O2  UNL     1     -20.086  16.852  15.345  1.00  0.00    -0.380 OA
HETATM    5  C3  UNL     1     -20.997  16.388  16.274  1.00  0.00     0.197 C 
HETATM    6  C4  UNL     1     -22.328  17.103  15.956  1.00  0.00     0.227 C 
HETATM    7  O3  UNL     1     -22.249  18.339  16.503  1.00  0.00    -0.276 OA
HETATM    8  N1  UNL     1     -23.235  19.181  16.389  1.00  0.00    -0.269 N 
HETATM    9  C12 UNL     1     -23.331  19.812  15.129  1.00  0.00     0.157 C 
HETATM   10  C13 UNL     1     -22.012  20.340  14.604  1.00  0.00     0.042 C 
HETATM   11  C14 UNL     1     -21.510  21.510  15.369  1.00  0.00     0.129 C 
HETATM   12  N2  UNL     1     -20.086  21.661  15.244  1.00  0.00    -0.334 N 
HETATM   13  C15 UNL     1     -19.504  22.287  14.121  1.00  0.00     0.318 C 
HETATM   14  O4  UNL     1     -18.251  22.382  14.032  1.00  0.00    -0.247 OA
HETATM   15  N3  UNL     1     -20.289  22.824  13.080  1.00  0.00    -0.343 N 
ATOM     16  H3  UNL     1     -21.304  22.743  13.151  1.00  0.00     0.164 HD
HETATM   17  C24 UNL     1     -19.213  21.192  16.298  1.00  0.00     0.129 C 
HETATM   18  C25 UNL     1     -18.869  19.750  16.116  1.00  0.00     0.039 C 
HETATM   19  C26 UNL     1     -17.435  19.425  16.470  1.00  0.00     0.124 C 
HETATM   20  N5  UNL     1     -17.315  18.099  17.019  1.00  0.00    -0.359 N 
ATOM     21  H5  UNL     1     -16.508  17.933  17.620  1.00  0.00     0.162 HD
ENDROOT
BRANCH  15  22
HETATM   22  C16 UNL     1     -19.737  23.481  11.917  1.00  0.00     0.124 C 
BRANCH  22  23
HETATM   23  C17 UNL     1     -19.285  24.902  12.195  1.00  0.00     0.020 C 
BRANCH  23  24
HETATM   24  C18 UNL     1     -18.081  25.275  11.398  1.00  0.00     0.002 C 
BRANCH  24  25
HETATM   25  C19 UNL     1     -17.757  24.308  10.303  1.00  0.00     0.000 C 
BRANCH  25  26
HETATM   26  C20 UNL     1     -16.279  24.029  10.291  1.00  0.00     0.000 C 
BRANCH  26  27
HETATM   27  C21 UNL     1     -15.978  22.623  10.712  1.00  0.00     0.008 C 
BRANCH  27  28
HETATM   28  C22 UNL     1     -17.228  21.801  10.697  1.00  0.00     0.086 C 
BRANCH  28  29
HETATM   29  C23 UNL     1     -16.923  20.396  11.144  1.00  0.00     0.135 C 
HETATM   30  N4  UNL     1     -16.647  19.534  10.246  1.00  0.00    -0.251 N 
ATOM     31  H4  UNL     1     -16.653  19.863   9.280  1.00  0.00     0.196 HD
BRANCH  29  32
HETATM   32  O5  UNL     1     -16.955  20.104  12.516  1.00  0.00    -0.348 OA
ATOM     33  H5  UNL     1     -17.195  19.226  12.791  1.00  0.00     0.219 HD
ENDBRANCH  29  32
BRANCH  30  34
HETATM   34  O6  UNL     1     -16.345  18.219  10.442  1.00  0.00    -0.288 OA
ATOM     35  H6  UNL     1     -16.136  17.578   9.773  1.00  0.00     0.244 HD
ENDBRANCH  30  34
ENDBRANCH  28  29
ENDBRANCH  27  28
ENDBRANCH  26  27
ENDBRANCH  25  26
ENDBRANCH  24  25
ENDBRANCH  23  24
ENDBRANCH  22  23
ENDBRANCH  15  22
BRANCH   8  36
HETATM   36  C5  UNL     1     -24.376  19.063  17.196  1.00  0.00     0.128 C 
BRANCH  36  37
HETATM   37  C6  UNL     1     -24.563  20.291  18.003  1.00  0.00    -0.019 A 
HETATM   38  C7  UNL     1     -25.640  21.137  17.775  1.00  0.00     0.014 A 
HETATM   39  C8  UNL     1     -25.806  22.277  18.531  1.00  0.00     0.024 A 
HETATM   40  C9  UNL     1     -24.908  22.614  19.538  1.00  0.00     0.034 A 
HETATM   41 CL1  UNL     1     -25.159  24.066  20.466  1.00  0.00    -0.084 Cl
HETATM   42  C10 UNL     1     -23.826  21.781  19.779  1.00  0.00     0.024 A 
HETATM   43  C11 UNL     1     -23.670  20.638  19.012  1.00  0.00     0.014 A 
ENDBRANCH  36  37
ENDBRANCH   8  36
TORSDOF 12
ENDMDL
MODEL 3
REMARK VINA RESULT: -8.840897543      2.255      2.692
REMARK  12 active torsions:
REMARK  status: ('A' for Active; 'I' for Inactive)
REMARK    1  A    between atoms: N1_8  and  C5_9 
REMARK    2  A    between atoms: C5_9  and  C6_10 
REMARK       I    between atoms: N2_20  and  C15_21 
REMARK       I    between atoms: C15_21  and  N3_23 
REMARK    3  A    between atoms: N3_23  and  C16_25 
REMARK    4  A    between atoms: C16_25  and  C17_26 
REMARK    5  A    between atoms: C17_26  and  C18_27 
REMARK    6  A    between atoms: C18_27  and  C19_28 
REMARK    7  A    between atoms: C19_28  and  C20_29 
REMARK    8  A    between atoms: C20_29  and  C21_30 
REMARK    9  A    between atoms: C21_30  and  C22_31 
REMARK   10  A    between atoms: C22_31  and  C23_32 
REMARK   11  A    between atoms: C23_32  and  O5_33 
REMARK   12  A    between atoms: N4_35  and  O6_37 
ROOT
HETATM    1  O1  UNL     1     -20.030  14.875  17.407  1.00  0.00    -0.271 OA
HETATM    2  C1  UNL     1     -19.718  15.548  16.366  1.00  0.00     0.241 C 
HETATM    3  C2  UNL     1     -20.625  15.435  15.212  1.00  0.00     0.270 C 
HETATM    4  O2  UNL     1     -21.793  16.136  15.275  1.00  0.00    -0.380 OA
HETATM    5  C3  UNL     1     -22.637  15.850  16.330  1.00  0.00     0.197 C 
HETATM    6  C4  UNL     1     -23.715  16.954  16.321  1.00  0.00     0.227 C 
HETATM    7  O3  UNL     1     -23.170  18.038  16.921  1.00  0.00    -0.276 OA
HETATM    8  N1  UNL     1     -23.853  19.138  17.054  1.00  0.00    -0.269 N 
HETATM    9  C12 UNL     1     -23.955  19.917  15.881  1.00  0.00     0.157 C 
HETATM   10  C13 UNL     1     -22.642  20.097  15.147  1.00  0.00     0.042 C 
HETATM   11  C14 UNL     1     -21.685  20.968  15.876  1.00  0.00     0.129 C 
HETATM   12  N2  UNL     1     -20.325  20.711  15.489  1.00  0.00    -0.334 N 
HETATM   13  C15 UNL     1     -19.770  21.271  14.318  1.00  0.00     0.318 C 
HETATM   14  O4  UNL     1     -18.582  21.007  13.995  1.00  0.00    -0.247 OA
HETATM   15  N3  UNL     1     -20.511  22.135  13.484  1.00  0.00    -0.343 N 
ATOM     16  H3  UNL     1     -21.475  22.346  13.744  1.00  0.00     0.164 HD
HETATM   17  C24 UNL     1     -19.479  19.885  16.322  1.00  0.00     0.129 C 
HETATM   18  C25 UNL     1     -19.632  18.439  15.984  1.00  0.00     0.039 C 
HETATM   19  C26 UNL     1     -18.330  17.670  16.033  1.00  0.00     0.124 C 
HETATM   20  N5  UNL     1     -18.537  16.310  16.462  1.00  0.00    -0.359 N 
ATOM     21  H5  UNL     1     -17.734  15.845  16.884  1.00  0.00     0.162 HD
ENDROOT
BRANCH  15  22
HETATM   22  C16 UNL     1     -19.980  22.738  12.282  1.00  0.00     0.124 C 
BRANCH  22  23
HETATM   23  C17 UNL     1     -19.442  24.137  12.507  1.00  0.00     0.020 C 
BRANCH  23  24
HETATM   24  C18 UNL     1     -17.955  24.155  12.627  1.00  0.00     0.002 C 
BRANCH  24  25
HETATM   25  C19 UNL     1     -17.271  24.937  11.551  1.00  0.00     0.000 C 
BRANCH  25  26
HETATM   26  C20 UNL     1     -16.676  23.999  10.537  1.00  0.00     0.000 C 
BRANCH  26  27
HETATM   27  C21 UNL     1     -16.426  22.641  11.121  1.00  0.00     0.008 C 
BRANCH  27  28
HETATM   28  C22 UNL     1     -16.781  21.580  10.129  1.00  0.00     0.086 C 
BRANCH  28  29
HETATM   29  C23 UNL     1     -16.681  20.222  10.772  1.00  0.00     0.135 C 
HETATM   30  N4  UNL     1     -16.492  19.217  10.011  1.00  0.00    -0.251 N 
ATOM     31  H4  UNL     1     -16.421  19.408   9.011  1.00  0.00     0.196 HD
BRANCH  29  32
HETATM   32  O5  UNL     1     -16.798  20.127  12.167  1.00  0.00    -0.348 OA
ATOM     33  H5  UNL     1     -16.033  20.304  12.702  1.00  0.00     0.219 HD
ENDBRANCH  29  32
BRANCH  30  34
HETATM   34  O6  UNL     1     -16.374  17.914  10.394  1.00  0.00    -0.288 OA
ATOM     35  H6  UNL     1     -15.839  17.575  11.102  1.00  0.00     0.244 HD
ENDBRANCH  30  34
ENDBRANCH  28  29
ENDBRANCH  27  28
ENDBRANCH  26  27
ENDBRANCH  25  26
ENDBRANCH  24  25
ENDBRANCH  23  24
ENDBRANCH  22  23
ENDBRANCH  15  22
BRANCH   8  36
HETATM   36  C5  UNL     1     -24.827  19.262  18.056  1.00  0.00     0.128 C 
BRANCH  36  37
HETATM   37  C6  UNL     1     -24.777  20.615  18.657  1.00  0.00    -0.019 A 
HETATM   38  C7  UNL     1     -25.896  21.437  18.657  1.00  0.00     0.014 A 
HETATM   39  C8  UNL     1     -25.841  22.694  19.218  1.00  0.00     0.024 A 
HETATM   40  C9  UNL     1     -24.671  23.177  19.796  1.00  0.00     0.034 A 
HETATM   41 CL1  UNL     1     -24.649  24.774  20.491  1.00  0.00    -0.084 Cl
HETATM   42  C10 UNL     1     -23.543  22.370  19.803  1.00  0.00     0.024 A 
HETATM   43  C11 UNL     1     -23.613  21.108  19.236  1.00  0.00     0.014 A 
ENDBRANCH  36  37
ENDBRANCH   8  36
TORSDOF 12
ENDMDL
MODEL 4
REMARK VINA RESULT: -8.681859804      2.283      2.815
REMARK  12 active torsions:
REMARK  status: ('A' for Active; 'I' for Inactive)
REMARK    1  A    between atoms: N1_8  and  C5_9 
REMARK    2  A    between atoms: C5_9  and  C6_10 
REMARK       I    between atoms: N2_20  and  C15_21 
REMARK       I    between atoms: C15_21  and  N3_23 
REMARK    3  A    between atoms: N3_23  and  C16_25 
REMARK    4  A    between atoms: C16_25  and  C17_26 
REMARK    5  A    between atoms: C17_26  and  C18_27 
REMARK    6  A    between atoms: C18_27  and  C19_28 
REMARK    7  A    between atoms: C19_28  and  C20_29 
REMARK    8  A    between atoms: C20_29  and  C21_30 
REMARK    9  A    between atoms: C21_30  and  C22_31 
REMARK   10  A    between atoms: C22_31  and  C23_32 
REMARK   11  A    between atoms: C23_32  and  O5_33 
REMARK   12  A    between atoms: N4_35  and  O6_37 
ROOT
HETATM    1  O1  UNL     1     -19.952  15.691  17.866  1.00  0.00    -0.271 OA
HETATM    2  C1  UNL     1     -19.585  16.294  16.801  1.00  0.00     0.241 C 
HETATM    3  C2  UNL     1     -20.417  16.081  15.605  1.00  0.00     0.270 C 
HETATM    4  O2  UNL     1     -21.597  16.762  15.545  1.00  0.00    -0.380 OA
HETATM    5  C3  UNL     1     -22.501  16.534  16.564  1.00  0.00     0.197 C 
HETATM    6  C4  UNL     1     -23.594  17.614  16.410  1.00  0.00     0.227 C 
HETATM    7  O3  UNL     1     -23.104  18.748  16.962  1.00  0.00    -0.276 OA
HETATM    8  N1  UNL     1     -23.811  19.841  16.973  1.00  0.00    -0.269 N 
HETATM    9  C12 UNL     1     -23.852  20.532  15.741  1.00  0.00     0.157 C 
HETATM   10  C13 UNL     1     -22.499  20.685  15.078  1.00  0.00     0.042 C 
HETATM   11  C14 UNL     1     -21.602  21.625  15.798  1.00  0.00     0.129 C 
HETATM   12  N2  UNL     1     -20.217  21.368  15.515  1.00  0.00    -0.334 N 
HETATM   13  C15 UNL     1     -19.599  21.854  14.342  1.00  0.00     0.318 C 
HETATM   14  O4  UNL     1     -18.389  21.591  14.113  1.00  0.00    -0.247 OA
HETATM   15  N3  UNL     1     -20.300  22.641  13.405  1.00  0.00    -0.343 N 
ATOM     16  H3  UNL     1     -21.281  22.851  13.589  1.00  0.00     0.164 HD
HETATM   17  C24 UNL     1     -19.412  20.621  16.456  1.00  0.00     0.129 C 
HETATM   18  C25 UNL     1     -19.520  19.152  16.215  1.00  0.00     0.039 C 
HETATM   19  C26 UNL     1     -18.213  18.414  16.400  1.00  0.00     0.124 C 
HETATM   20  N5  UNL     1     -18.425  17.085  16.912  1.00  0.00    -0.359 N 
ATOM     21  H5  UNL     1     -17.643  16.667  17.415  1.00  0.00     0.162 HD
ENDROOT
BRANCH  15  22
HETATM   22  C16 UNL     1     -19.705  23.166  12.197  1.00  0.00     0.124 C 
BRANCH  22  23
HETATM   23  C17 UNL     1     -19.142  24.564  12.370  1.00  0.00     0.020 C 
BRANCH  23  24
HETATM   24  C18 UNL     1     -17.650  24.576  12.340  1.00  0.00     0.002 C 
BRANCH  24  25
HETATM   25  C19 UNL     1     -17.076  25.222  11.120  1.00  0.00     0.000 C 
BRANCH  25  26
HETATM   26  C20 UNL     1     -16.408  24.184  10.260  1.00  0.00     0.000 C 
BRANCH  26  27
HETATM   27  C21 UNL     1     -16.378  22.845  10.933  1.00  0.00     0.008 C 
BRANCH  27  28
HETATM   28  C22 UNL     1     -16.710  21.767   9.952  1.00  0.00     0.086 C 
BRANCH  28  29
HETATM   29  C23 UNL     1     -16.769  20.435  10.652  1.00  0.00     0.135 C 
HETATM   30  N4  UNL     1     -16.396  19.405  10.001  1.00  0.00    -0.251 N 
ATOM     31  H4  UNL     1     -16.082  19.559   9.042  1.00  0.00     0.196 HD
BRANCH  29  32
HETATM   32  O5  UNL     1     -17.225  20.391  11.978  1.00  0.00    -0.348 OA
ATOM     33  H5  UNL     1     -17.001  21.107  12.562  1.00  0.00     0.219 HD
ENDBRANCH  29  32
BRANCH  30  34
HETATM   34  O6  UNL     1     -16.373  18.118  10.451  1.00  0.00    -0.288 OA
ATOM     35  H6  UNL     1     -15.958  17.801  11.245  1.00  0.00     0.244 HD
ENDBRANCH  30  34
ENDBRANCH  28  29
ENDBRANCH  27  28
ENDBRANCH  26  27
ENDBRANCH  25  26
ENDBRANCH  24  25
ENDBRANCH  23  24
ENDBRANCH  22  23
ENDBRANCH  15  22
BRANCH   8  36
HETATM   36  C5  UNL     1     -24.847  20.017  17.902  1.00  0.00     0.128 C 
BRANCH  36  37
HETATM   37  C6  UNL     1     -24.493  21.080  18.871  1.00  0.00    -0.019 A 
HETATM   38  C7  UNL     1     -23.836  20.774  20.056  1.00  0.00     0.014 A 
HETATM   39  C8  UNL     1     -23.510  21.769  20.951  1.00  0.00     0.024 A 
HETATM   40  C9  UNL     1     -23.828  23.100  20.700  1.00  0.00     0.034 A 
HETATM   41 CL1  UNL     1     -23.397  24.322  21.864  1.00  0.00    -0.084 Cl
HETATM   42  C10 UNL     1     -24.485  23.423  19.523  1.00  0.00     0.024 A 
HETATM   43  C11 UNL     1     -24.806  22.413  18.631  1.00  0.00     0.014 A 
ENDBRANCH  36  37
ENDBRANCH   8  36
TORSDOF 12
ENDMDL
MODEL 5
REMARK VINA RESULT: -8.637906934      1.672      2.261
REMARK  12 active torsions:
REMARK  status: ('A' for Active; 'I' for Inactive)
REMARK    1  A    between atoms: N1_8  and  C5_9 
REMARK    2  A    between atoms: C5_9  and  C6_10 
REMARK       I    between atoms: N2_20  and  C15_21 
REMARK       I    between atoms: C15_21  and  N3_23 
REMARK    3  A    between atoms: N3_23  and  C16_25 
REMARK    4  A    between atoms: C16_25  and  C17_26 
REMARK    5  A    between atoms: C17_26  and  C18_27 
REMARK    6  A    between atoms: C18_27  and  C19_28 
REMARK    7  A    between atoms: C19_28  and  C20_29 
REMARK    8  A    between atoms: C20_29  and  C21_30 
REMARK    9  A    between atoms: C21_30  and  C22_31 
REMARK   10  A    between atoms: C22_31  and  C23_32 
REMARK   11  A    between atoms: C23_32  and  O5_33 
REMARK   12  A    between atoms: N4_35  and  O6_37 
ROOT
HETATM    1  O1  UNL     1     -22.505  16.171  18.435  1.00  0.00    -0.271 OA
HETATM    2  C1  UNL     1     -21.753  16.279  17.407  1.00  0.00     0.241 C 
HETATM    3  C2  UNL     1     -22.416  16.197  16.095  1.00  0.00     0.270 C 
HETATM    4  O2  UNL     1     -23.092  17.304  15.675  1.00  0.00    -0.380 OA
HETATM    5  C3  UNL     1     -24.118  17.753  16.484  1.00  0.00     0.197 C 
HETATM    6  C4  UNL     1     -24.511  19.142  15.938  1.00  0.00     0.227 C 
HETATM    7  O3  UNL     1     -23.607  20.024  16.424  1.00  0.00    -0.276 OA
HETATM    8  N1  UNL     1     -23.683  21.288  16.123  1.00  0.00    -0.269 N 
HETATM    9  C12 UNL     1     -23.217  21.617  14.831  1.00  0.00     0.157 C 
HETATM   10  C13 UNL     1     -21.888  20.983  14.477  1.00  0.00     0.042 C 
HETATM   11  C14 UNL     1     -20.750  21.552  15.244  1.00  0.00     0.129 C 
HETATM   12  N2  UNL     1     -19.644  20.638  15.321  1.00  0.00    -0.334 N 
HETATM   13  C15 UNL     1     -18.719  20.506  14.263  1.00  0.00     0.318 C 
HETATM   14  O4  UNL     1     -17.774  19.678  14.354  1.00  0.00    -0.247 OA
HETATM   15  N3  UNL     1     -18.814  21.285  13.092  1.00  0.00    -0.343 N 
ATOM     16  H3  UNL     1     -19.581  21.953  13.017  1.00  0.00     0.164 HD
HETATM   17  C24 UNL     1     -19.440  19.847  16.514  1.00  0.00     0.129 C 
HETATM   18  C25 UNL     1     -20.221  18.575  16.461  1.00  0.00     0.039 C 
HETATM   19  C26 UNL     1     -19.479  17.390  17.038  1.00  0.00     0.124 C 
HETATM   20  N5  UNL     1     -20.380  16.460  17.668  1.00  0.00    -0.359 N 
ATOM     21  H5  UNL     1     -19.977  15.861  18.389  1.00  0.00     0.162 HD
ENDROOT
BRANCH  15  22
HETATM   22  C16 UNL     1     -17.884  21.190  11.989  1.00  0.00     0.124 C 
BRANCH  22  23
HETATM   23  C17 UNL     1     -17.461  22.542  11.449  1.00  0.00     0.020 C 
BRANCH  23  24
HETATM   24  C18 UNL     1     -18.466  23.604  11.744  1.00  0.00     0.002 C 
BRANCH  24  25
HETATM   25  C19 UNL     1     -17.893  24.806  12.426  1.00  0.00     0.000 C 
BRANCH  25  26
HETATM   26  C20 UNL     1     -18.268  26.050  11.667  1.00  0.00     0.000 C 
BRANCH  26  27
HETATM   27  C21 UNL     1     -17.163  26.496  10.757  1.00  0.00     0.008 C 
BRANCH  27  28
HETATM   28  C22 UNL     1     -17.585  26.359   9.329  1.00  0.00     0.086 C 
BRANCH  28  29
HETATM   29  C23 UNL     1     -16.552  25.577   8.561  1.00  0.00     0.135 C 
HETATM   30  N4  UNL     1     -16.081  24.524   9.104  1.00  0.00    -0.251 N 
ATOM     31  H4  UNL     1     -16.442  24.285  10.028  1.00  0.00     0.196 HD
BRANCH  29  32
HETATM   32  O5  UNL     1     -16.161  26.038   7.295  1.00  0.00    -0.348 OA
ATOM     33  H5  UNL     1     -15.692  25.447   6.718  1.00  0.00     0.219 HD
ENDBRANCH  29  32
BRANCH  30  34
HETATM   34  O6  UNL     1     -15.145  23.683   8.577  1.00  0.00    -0.288 OA
ATOM     35  H6  UNL     1     -14.205  23.731   8.701  1.00  0.00     0.244 HD
ENDBRANCH  30  34
ENDBRANCH  28  29
ENDBRANCH  27  28
ENDBRANCH  26  27
ENDBRANCH  25  26
ENDBRANCH  24  25
ENDBRANCH  23  24
ENDBRANCH  22  23
ENDBRANCH  15  22
BRANCH   8  36
HETATM   36  C5  UNL     1     -24.613  22.123  16.759  1.00  0.00     0.128 C 
BRANCH  36  37
HETATM   37  C6  UNL     1     -24.309  22.223  18.205  1.00  0.00    -0.019 A 
HETATM   38  C7  UNL     1     -23.478  23.224  18.691  1.00  0.00     0.014 A 
HETATM   39  C8  UNL     1     -23.201  23.310  20.038  1.00  0.00     0.024 A 
HETATM   40  C9  UNL     1     -23.738  22.403  20.946  1.00  0.00     0.034 A 
HETATM   41 CL1  UNL     1     -23.357  22.551  22.639  1.00  0.00    -0.084 Cl
HETATM   42  C10 UNL     1     -24.569  21.396  20.478  1.00  0.00     0.024 A 
HETATM   43  C11 UNL     1     -24.840  21.322  19.121  1.00  0.00     0.014 A 
ENDBRANCH  36  37
ENDBRANCH   8  36
TORSDOF 12
ENDMDL
