MODEL 1
REMARK VINA RESULT: -6.381426522      0.000      0.000
REMARK  7 active torsions:
REMARK  status: ('A' for Active; 'I' for Inactive)
REMARK    1  A    between atoms: C9_10  and  O2_11 
REMARK    2  A    between atoms: O2_11  and  C10_12 
REMARK    3  A    between atoms: C12_16  and  O5_17 
REMARK    4  A    between atoms: C14_19  and  O6_20 
REMARK    5  A    between atoms: O6_20  and  C15_21 
REMARK    6  A    between atoms: C15_21  and  C16_23 
REMARK    7  A    between atoms: C16_23  and  C17_25 
ROOT
HETATM    1  C1  UNL     1      21.448  65.348  21.082  1.00  0.00     0.017 C 
HETATM    2  C2  UNL     1      22.727  65.325  21.318  1.00  0.00    -0.059 C 
HETATM    3  C3  UNL     1      23.305  66.229  22.323  1.00  0.00     0.036 C 
HETATM    4  C4  UNL     1      24.690  66.616  21.924  1.00  0.00     0.010 C 
HETATM    5  C5  UNL     1      24.837  66.542  20.419  1.00  0.00     0.005 C 
HETATM    6  C6  UNL     1      26.184  67.142  20.079  1.00  0.00     0.011 C 
HETATM    7  C7  UNL     1      24.769  65.122  19.919  1.00  0.00     0.109 C 
HETATM    8  C8  UNL     1      26.050  64.425  20.004  1.00  0.00     0.198 C 
HETATM    9  O1  UNL     1      26.806  64.268  20.947  1.00  0.00    -0.291 OA
HETATM   10  C9  UNL     1      26.315  63.882  18.631  1.00  0.00     0.344 C 
HETATM   11  O4  UNL     1      25.731  64.834  17.823  1.00  0.00    -0.323 OA
HETATM   12  C12 UNL     1      24.509  65.134  18.432  1.00  0.00     0.282 C 
HETATM   13  C14 UNL     1      23.628  64.411  20.601  1.00  0.00     0.182 C 
ENDROOT
BRANCH  12  14
HETATM   14  O5  UNL     1      24.042  66.374  18.012  1.00  0.00    -0.365 OA
HETATM   15  C13 UNL     1      22.805  66.178  17.395  1.00  0.00     0.204 C 
ENDBRANCH  12  14
BRANCH  13  16
HETATM   16  O6  UNL     1      24.078  63.335  21.396  1.00  0.00    -0.304 OA
BRANCH  16  17
HETATM   17  C15 UNL     1      23.757  62.008  21.162  1.00  0.00     0.330 C 
HETATM   18  O7  UNL     1      23.941  61.582  20.007  1.00  0.00    -0.256 OA
BRANCH  17  19
HETATM   19  C16 UNL     1      23.240  61.223  22.257  1.00  0.00     0.227 C 
HETATM   20  O8  UNL     1      22.186  61.530  22.866  1.00  0.00    -0.286 OA
BRANCH  19  21
HETATM   21  C17 UNL     1      23.980  60.009  22.679  1.00  0.00     0.058 C 
HETATM   22  C18 UNL     1      23.391  59.507  23.996  1.00  0.00     0.018 C 
HETATM   23  C19 UNL     1      25.465  60.330  22.864  1.00  0.00     0.018 C 
ENDBRANCH  19  21
ENDBRANCH  17  19
ENDBRANCH  16  17
ENDBRANCH  13  16
BRANCH  10  24
HETATM   24  O2  UNL     1      27.679  63.702  18.394  1.00  0.00    -0.282 OA
BRANCH  24  25
HETATM   25  C10 UNL     1      28.495  64.542  17.691  1.00  0.00     0.257 C 
HETATM   26  C11 UNL     1      29.003  65.805  18.291  1.00  0.00     0.126 C 
HETATM   27  O3  UNL     1      28.813  64.226  16.515  1.00  0.00    -0.266 OA
ENDBRANCH  24  25
ENDBRANCH  10  24
TORSDOF 7
ENDMDL
MODEL 2
REMARK VINA RESULT: -6.352219496      2.104      4.573
REMARK  7 active torsions:
REMARK  status: ('A' for Active; 'I' for Inactive)
REMARK    1  A    between atoms: C9_10  and  O2_11 
REMARK    2  A    between atoms: O2_11  and  C10_12 
REMARK    3  A    between atoms: C12_16  and  O5_17 
REMARK    4  A    between atoms: C14_19  and  O6_20 
REMARK    5  A    between atoms: O6_20  and  C15_21 
REMARK    6  A    between atoms: C15_21  and  C16_23 
REMARK    7  A    between atoms: C16_23  and  C17_25 
ROOT
HETATM    1  C1  UNL     1      27.562  60.155  20.000  1.00  0.00     0.017 C 
HETATM    2  C2  UNL     1      26.438  60.799  19.878  1.00  0.00    -0.059 C 
HETATM    3  C3  UNL     1      25.358  60.242  19.051  1.00  0.00     0.036 C 
HETATM    4  C4  UNL     1      24.574  61.348  18.426  1.00  0.00     0.010 C 
HETATM    5  C5  UNL     1      25.443  62.578  18.270  1.00  0.00     0.005 C 
HETATM    6  C6  UNL     1      24.653  63.574  17.449  1.00  0.00     0.011 C 
HETATM    7  C7  UNL     1      25.799  63.183  19.603  1.00  0.00     0.109 C 
HETATM    8  C8  UNL     1      24.762  64.072  20.123  1.00  0.00     0.198 C 
HETATM    9  O1  UNL     1      23.572  63.881  20.302  1.00  0.00    -0.291 OA
HETATM   10  C9  UNL     1      25.449  65.370  20.429  1.00  0.00     0.344 C 
HETATM   11  O4  UNL     1      26.433  65.415  19.465  1.00  0.00    -0.323 OA
HETATM   12  C12 UNL     1      26.966  64.124  19.423  1.00  0.00     0.282 C 
HETATM   13  C14 UNL     1      26.209  62.086  20.552  1.00  0.00     0.182 C 
ENDROOT
BRANCH  12  14
HETATM   14  O5  UNL     1      27.613  63.899  18.213  1.00  0.00    -0.365 OA
HETATM   15  C13 UNL     1      28.465  64.979  17.976  1.00  0.00     0.204 C 
ENDBRANCH  12  14
BRANCH  13  16
HETATM   16  O6  UNL     1      25.333  61.988  21.655  1.00  0.00    -0.304 OA
BRANCH  16  17
HETATM   17  C15 UNL     1      25.272  60.896  22.505  1.00  0.00     0.330 C 
HETATM   18  O7  UNL     1      26.316  60.602  23.117  1.00  0.00    -0.256 OA
BRANCH  17  19
HETATM   19  C16 UNL     1      24.021  60.185  22.620  1.00  0.00     0.227 C 
HETATM   20  O8  UNL     1      23.636  59.357  21.759  1.00  0.00    -0.286 OA
BRANCH  19  21
HETATM   21  C17 UNL     1      23.159  60.441  23.798  1.00  0.00     0.058 C 
HETATM   22  C18 UNL     1      22.837  59.109  24.473  1.00  0.00     0.018 C 
HETATM   23  C19 UNL     1      21.862  61.130  23.368  1.00  0.00     0.018 C 
ENDBRANCH  19  21
ENDBRANCH  17  19
ENDBRANCH  16  17
ENDBRANCH  13  16
BRANCH  10  24
HETATM   24  O2  UNL     1      24.567  66.451  20.386  1.00  0.00    -0.282 OA
BRANCH  24  25
HETATM   25  C10 UNL     1      23.921  67.010  21.452  1.00  0.00     0.257 C 
HETATM   26  C11 UNL     1      22.943  68.114  21.270  1.00  0.00     0.126 C 
HETATM   27  O3  UNL     1      24.172  66.569  22.604  1.00  0.00    -0.266 OA
ENDBRANCH  24  25
ENDBRANCH  10  24
TORSDOF 7
ENDMDL
MODEL 3
REMARK VINA RESULT: -6.290499836      2.270      6.068
REMARK  7 active torsions:
REMARK  status: ('A' for Active; 'I' for Inactive)
REMARK    1  A    between atoms: C9_10  and  O2_11 
REMARK    2  A    between atoms: O2_11  and  C10_12 
REMARK    3  A    between atoms: C12_16  and  O5_17 
REMARK    4  A    between atoms: C14_19  and  O6_20 
REMARK    5  A    between atoms: O6_20  and  C15_21 
REMARK    6  A    between atoms: C15_21  and  C16_23 
REMARK    7  A    between atoms: C16_23  and  C17_25 
ROOT
HETATM    1  C1  UNL     1      23.492  65.866  20.223  1.00  0.00     0.017 C 
HETATM    2  C2  UNL     1      24.294  65.028  19.634  1.00  0.00    -0.059 C 
HETATM    3  C3  UNL     1      24.280  64.905  18.169  1.00  0.00     0.036 C 
HETATM    4  C4  UNL     1      24.605  63.503  17.773  1.00  0.00     0.010 C 
HETATM    5  C5  UNL     1      24.211  62.546  18.877  1.00  0.00     0.005 C 
HETATM    6  C6  UNL     1      24.375  61.146  18.325  1.00  0.00     0.011 C 
HETATM    7  C7  UNL     1      25.074  62.716  20.100  1.00  0.00     0.109 C 
HETATM    8  C8  UNL     1      26.336  61.984  20.016  1.00  0.00     0.198 C 
HETATM    9  O1  UNL     1      27.201  61.993  19.159  1.00  0.00    -0.291 OA
HETATM   10  C9  UNL     1      26.408  61.146  21.259  1.00  0.00     0.344 C 
HETATM   11  O4  UNL     1      25.081  60.856  21.494  1.00  0.00    -0.323 OA
HETATM   12  C12 UNL     1      24.399  62.057  21.278  1.00  0.00     0.282 C 
HETATM   13  C14 UNL     1      25.229  64.187  20.397  1.00  0.00     0.182 C 
ENDROOT
BRANCH  12  14
HETATM   14  O5  UNL     1      23.054  61.817  21.018  1.00  0.00    -0.365 OA
HETATM   15  C13 UNL     1      22.304  62.518  21.966  1.00  0.00     0.204 C 
ENDBRANCH  12  14
BRANCH  13  16
HETATM   16  O6  UNL     1      26.571  64.608  20.289  1.00  0.00    -0.304 OA
BRANCH  16  17
HETATM   17  C15 UNL     1      26.958  65.910  20.016  1.00  0.00     0.330 C 
HETATM   18  O7  UNL     1      26.838  66.736  20.940  1.00  0.00    -0.256 OA
BRANCH  17  19
HETATM   19  C16 UNL     1      27.466  66.214  18.699  1.00  0.00     0.227 C 
HETATM   20  O8  UNL     1      27.801  65.320  17.885  1.00  0.00    -0.286 OA
BRANCH  19  21
HETATM   21  C17 UNL     1      27.596  67.634  18.293  1.00  0.00     0.058 C 
HETATM   22  C18 UNL     1      26.222  68.158  17.884  1.00  0.00     0.018 C 
HETATM   23  C19 UNL     1      28.570  67.763  17.119  1.00  0.00     0.018 C 
ENDBRANCH  19  21
ENDBRANCH  17  19
ENDBRANCH  16  17
ENDBRANCH  13  16
BRANCH  10  24
HETATM   24  O2  UNL     1      27.209  60.017  21.082  1.00  0.00    -0.282 OA
BRANCH  24  25
HETATM   25  C10 UNL     1      27.464  59.053  22.016  1.00  0.00     0.257 C 
HETATM   26  C11 UNL     1      28.301  57.867  21.693  1.00  0.00     0.126 C 
HETATM   27  O3  UNL     1      26.973  59.188  23.167  1.00  0.00    -0.266 OA
ENDBRANCH  24  25
ENDBRANCH  10  24
TORSDOF 7
ENDMDL
MODEL 4
REMARK VINA RESULT: -6.151548103      2.190      4.681
REMARK  7 active torsions:
REMARK  status: ('A' for Active; 'I' for Inactive)
REMARK    1  A    between atoms: C9_10  and  O2_11 
REMARK    2  A    between atoms: O2_11  and  C10_12 
REMARK    3  A    between atoms: C12_16  and  O5_17 
REMARK    4  A    between atoms: C14_19  and  O6_20 
REMARK    5  A    between atoms: O6_20  and  C15_21 
REMARK    6  A    between atoms: C15_21  and  C16_23 
REMARK    7  A    between atoms: C16_23  and  C17_25 
ROOT
HETATM    1  C1  UNL     1      27.274  60.356  20.250  1.00  0.00     0.017 C 
HETATM    2  C2  UNL     1      26.094  60.851  20.019  1.00  0.00    -0.059 C 
HETATM    3  C3  UNL     1      25.362  60.467  18.803  1.00  0.00     0.036 C 
HETATM    4  C4  UNL     1      24.516  61.605  18.337  1.00  0.00     0.010 C 
HETATM    5  C5  UNL     1      25.118  62.918  18.790  1.00  0.00     0.005 C 
HETATM    6  C6  UNL     1      24.331  64.020  18.111  1.00  0.00     0.011 C 
HETATM    7  C7  UNL     1      25.040  63.084  20.286  1.00  0.00     0.109 C 
HETATM    8  C8  UNL     1      23.750  63.603  20.737  1.00  0.00     0.198 C 
HETATM    9  O1  UNL     1      22.618  63.209  20.520  1.00  0.00    -0.291 OA
HETATM   10  C9  UNL     1      24.064  64.801  21.583  1.00  0.00     0.344 C 
HETATM   11  O4  UNL     1      25.201  65.296  20.981  1.00  0.00    -0.323 OA
HETATM   12  C12 UNL     1      25.992  64.175  20.712  1.00  0.00     0.282 C 
HETATM   13  C14 UNL     1      25.456  61.796  20.949  1.00  0.00     0.182 C 
ENDROOT
BRANCH  12  14
HETATM   14  O5  UNL     1      26.918  64.455  19.714  1.00  0.00    -0.365 OA
HETATM   15  C13 UNL     1      27.258  65.805  19.813  1.00  0.00     0.204 C 
ENDBRANCH  12  14
BRANCH  13  16
HETATM   16  O6  UNL     1      24.404  61.221  21.692  1.00  0.00    -0.304 OA
BRANCH  16  17
HETATM   17  C15 UNL     1      24.580  60.506  22.865  1.00  0.00     0.330 C 
HETATM   18  O7  UNL     1      25.742  60.433  23.308  1.00  0.00    -0.256 OA
BRANCH  17  19
HETATM   19  C16 UNL     1      23.424  59.903  23.484  1.00  0.00     0.227 C 
HETATM   20  O8  UNL     1      23.211  58.667  23.452  1.00  0.00    -0.286 OA
BRANCH  19  21
HETATM   21  C17 UNL     1      22.450  60.776  24.182  1.00  0.00     0.058 C 
HETATM   22  C18 UNL     1      21.688  59.941  25.209  1.00  0.00     0.018 C 
HETATM   23  C19 UNL     1      21.468  61.386  23.180  1.00  0.00     0.018 C 
ENDBRANCH  19  21
ENDBRANCH  17  19
ENDBRANCH  16  17
ENDBRANCH  13  16
BRANCH  10  24
HETATM   24  O2  UNL     1      23.004  65.709  21.616  1.00  0.00    -0.282 OA
BRANCH  24  25
HETATM   25  C10 UNL     1      22.929  66.890  20.933  1.00  0.00     0.257 C 
HETATM   26  C11 UNL     1      22.469  66.936  19.520  1.00  0.00     0.126 C 
HETATM   27  O3  UNL     1      23.261  67.949  21.527  1.00  0.00    -0.266 OA
ENDBRANCH  24  25
ENDBRANCH  10  24
TORSDOF 7
ENDMDL
MODEL 5
REMARK VINA RESULT: -5.965795750      2.008      4.898
REMARK  7 active torsions:
REMARK  status: ('A' for Active; 'I' for Inactive)
REMARK    1  A    between atoms: C9_10  and  O2_11 
REMARK    2  A    between atoms: O2_11  and  C10_12 
REMARK    3  A    between atoms: C12_16  and  O5_17 
REMARK    4  A    between atoms: C14_19  and  O6_20 
REMARK    5  A    between atoms: O6_20  and  C15_21 
REMARK    6  A    between atoms: C15_21  and  C16_23 
REMARK    7  A    between atoms: C16_23  and  C17_25 
ROOT
HETATM    1  C1  UNL     1      22.837  66.015  17.965  1.00  0.00     0.017 C 
HETATM    2  C2  UNL     1      23.885  65.807  18.707  1.00  0.00    -0.059 C 
HETATM    3  C3  UNL     1      25.122  66.560  18.455  1.00  0.00     0.036 C 
HETATM    4  C4  UNL     1      26.308  65.719  18.796  1.00  0.00     0.010 C 
HETATM    5  C5  UNL     1      25.963  64.252  18.651  1.00  0.00     0.005 C 
HETATM    6  C6  UNL     1      27.255  63.479  18.806  1.00  0.00     0.011 C 
HETATM    7  C7  UNL     1      24.972  63.805  19.695  1.00  0.00     0.109 C 
HETATM    8  C8  UNL     1      25.600  63.457  20.967  1.00  0.00     0.198 C 
HETATM    9  O1  UNL     1      26.362  64.092  21.674  1.00  0.00    -0.291 OA
HETATM   10  C9  UNL     1      25.119  62.074  21.297  1.00  0.00     0.344 C 
HETATM   11  O4  UNL     1      24.976  61.508  20.049  1.00  0.00    -0.323 OA
HETATM   12  C12 UNL     1      24.363  62.491  19.267  1.00  0.00     0.282 C 
HETATM   13  C14 UNL     1      23.872  64.831  19.806  1.00  0.00     0.182 C 
ENDROOT
BRANCH  12  14
HETATM   14  O5  UNL     1      24.581  62.251  17.916  1.00  0.00    -0.365 OA
HETATM   15  C13 UNL     1      25.018  60.931  17.781  1.00  0.00     0.204 C 
ENDBRANCH  12  14
BRANCH  13  16
HETATM   16  O6  UNL     1      23.838  65.430  21.083  1.00  0.00    -0.304 OA
BRANCH  16  17
HETATM   17  C15 UNL     1      22.723  66.055  21.619  1.00  0.00     0.330 C 
HETATM   18  O7  UNL     1      22.798  67.286  21.788  1.00  0.00    -0.256 OA
BRANCH  17  19
HETATM   19  C16 UNL     1      21.570  65.247  21.938  1.00  0.00     0.227 C 
HETATM   20  O8  UNL     1      21.671  64.091  22.416  1.00  0.00    -0.286 OA
BRANCH  19  21
HETATM   21  C17 UNL     1      20.218  65.802  21.692  1.00  0.00     0.058 C 
HETATM   22  C18 UNL     1      19.177  64.786  22.157  1.00  0.00     0.018 C 
HETATM   23  C19 UNL     1      20.027  66.094  20.202  1.00  0.00     0.018 C 
ENDBRANCH  19  21
ENDBRANCH  17  19
ENDBRANCH  16  17
ENDBRANCH  13  16
BRANCH  10  24
HETATM   24  O2  UNL     1      26.014  61.394  22.126  1.00  0.00    -0.282 OA
BRANCH  24  25
HETATM   25  C10 UNL     1      25.751  60.256  22.835  1.00  0.00     0.257 C 
HETATM   26  C11 UNL     1      24.382  59.952  23.327  1.00  0.00     0.126 C 
HETATM   27  O3  UNL     1      26.699  59.461  23.067  1.00  0.00    -0.266 OA
ENDBRANCH  24  25
ENDBRANCH  10  24
TORSDOF 7
ENDMDL
