MODEL 1
REMARK VINA RESULT: -6.719486078      0.000      0.000
REMARK  6 active torsions:
REMARK  status: ('A' for Active; 'I' for Inactive)
REMARK    1  A    between atoms: C2_2  and  C3_3 
REMARK    2  A    between atoms: C3_3  and  C4_4 
REMARK    3  A    between atoms: C4_4  and  C5_5 
REMARK    4  A    between atoms: C4_4  and  N5_17 
REMARK    5  A    between atoms: N4_12  and  C6_13 
REMARK    6  A    between atoms: N6_20  and  C12_21 
ROOT
HETATM    1  C4  UNL     1      23.910  65.224  19.606  1.00  0.00     0.035 C 
ENDROOT
BRANCH   1   2
HETATM    2  C3  UNL     1      23.606  65.853  18.303  1.00  0.00     0.055 C 
BRANCH   2   3
HETATM    3  C2  UNL     1      22.616  66.967  18.340  1.00  0.00     0.001 C 
HETATM    4  C1  UNL     1      21.503  66.902  17.380  1.00  0.00     0.005 C 
ENDBRANCH   2   3
ENDBRANCH   1   2
BRANCH   1   5
HETATM    5  C5  UNL     1      24.780  65.870  20.560  1.00  0.00     0.157 A 
HETATM    6  N1  UNL     1      24.534  65.946  21.901  1.00  0.00    -0.267 N 
HETATM    7  N2  UNL     1      25.469  66.583  22.540  1.00  0.00    -0.226 N 
ATOM      8  H1  UNL     1      23.710  65.546  22.350  1.00  0.00     0.190 HD
HETATM    9  N3  UNL     1      26.322  66.918  21.595  1.00  0.00    -0.224 N 
ATOM     10  H2  UNL     1      25.528  66.778  23.539  1.00  0.00     0.210 HD
HETATM   11  N4  UNL     1      25.950  66.511  20.391  1.00  0.00    -0.250 N 
ATOM     12  H3  UNL     1      27.182  67.438  21.772  1.00  0.00     0.210 HD
BRANCH  11  13
HETATM   13  C6  UNL     1      26.707  66.766  19.222  1.00  0.00     0.046 C 
HETATM   14  C7  UNL     1      26.175  67.945  18.393  1.00  0.00     0.040 C 
HETATM   15  C8  UNL     1      28.047  67.398  19.737  1.00  0.00     0.040 C 
HETATM   16  C9  UNL     1      27.257  65.673  18.417  1.00  0.00     0.040 C 
ENDBRANCH  11  13
ENDBRANCH   1   5
BRANCH   1  17
HETATM   17  N5  UNL     1      23.985  63.754  19.553  1.00  0.00    -0.280 NA
HETATM   18  C10 UNL     1      23.474  63.157  20.756  1.00  0.00     0.125 C 
HETATM   19  C11 UNL     1      24.241  62.082  21.399  1.00  0.00     0.287 C 
HETATM   20  N6  UNL     1      25.218  61.438  20.565  1.00  0.00     0.097 N 
HETATM   21  C17 UNL     1      26.079  62.558  20.138  1.00  0.00     0.287 C 
HETATM   22  C18 UNL     1      25.225  63.241  19.111  1.00  0.00     0.125 C 
BRANCH  20  23
HETATM   23  C12 UNL     1      25.939  60.390  21.169  1.00  0.00     0.247 C 
HETATM   24  C13 UNL     1      27.404  60.526  20.722  1.00  0.00     0.045 C 
HETATM   25  C14 UNL     1      28.109  59.178  20.920  1.00  0.00     0.079 C 
HETATM   26  C15 UNL     1      27.558  58.625  22.191  1.00  0.00     0.112 C 
HETATM   27  S1  UNL     1      27.781  57.035  22.465  1.00  0.00    -0.058 SA
HETATM   28  O1  UNL     1      26.880  59.439  23.109  1.00  0.00    -0.342 OA
HETATM   29  C16 UNL     1      25.987  60.459  22.682  1.00  0.00     0.212 C 
ENDBRANCH  20  23
ENDBRANCH   1  17
TORSDOF 6
ENDMDL
MODEL 2
REMARK VINA RESULT: -6.703923368      5.236      8.149
REMARK  6 active torsions:
REMARK  status: ('A' for Active; 'I' for Inactive)
REMARK    1  A    between atoms: C2_2  and  C3_3 
REMARK    2  A    between atoms: C3_3  and  C4_4 
REMARK    3  A    between atoms: C4_4  and  C5_5 
REMARK    4  A    between atoms: C4_4  and  N5_17 
REMARK    5  A    between atoms: N4_12  and  C6_13 
REMARK    6  A    between atoms: N6_20  and  C12_21 
ROOT
HETATM    1  C4  UNL     1      22.286  65.558  21.549  1.00  0.00     0.035 C 
ENDROOT
BRANCH   1   2
HETATM    2  C3  UNL     1      21.622  64.693  22.548  1.00  0.00     0.055 C 
BRANCH   2   3
HETATM    3  C2  UNL     1      21.593  63.239  22.222  1.00  0.00     0.001 C 
HETATM    4  C1  UNL     1      20.272  62.593  22.173  1.00  0.00     0.005 C 
ENDBRANCH   2   3
ENDBRANCH   1   2
BRANCH   1   5
HETATM    5  C5  UNL     1      23.685  65.892  21.665  1.00  0.00     0.157 A 
HETATM    6  N1  UNL     1      24.184  66.850  22.501  1.00  0.00    -0.267 N 
HETATM    7  N2  UNL     1      25.475  66.958  22.414  1.00  0.00    -0.226 N 
ATOM      8  H1  UNL     1      23.607  67.416  23.123  1.00  0.00     0.190 HD
HETATM    9  N3  UNL     1      25.805  66.058  21.513  1.00  0.00    -0.224 N 
ATOM     10  H2  UNL     1      26.090  67.592  22.925  1.00  0.00     0.210 HD
HETATM   11  N4  UNL     1      24.764  65.394  21.036  1.00  0.00    -0.250 N 
ATOM     12  H3  UNL     1      26.766  65.889  21.212  1.00  0.00     0.210 HD
BRANCH  11  13
HETATM   13  C6  UNL     1      24.878  64.385  20.050  1.00  0.00     0.046 C 
HETATM   14  C7  UNL     1      24.341  64.809  18.674  1.00  0.00     0.040 C 
HETATM   15  C8  UNL     1      26.409  64.314  19.718  1.00  0.00     0.040 C 
HETATM   16  C9  UNL     1      24.642  62.975  20.371  1.00  0.00     0.040 C 
ENDBRANCH  11  13
ENDBRANCH   1   5
BRANCH   1  17
HETATM   17  N5  UNL     1      21.412  66.610  21.000  1.00  0.00    -0.280 NA
HETATM   18  C10 UNL     1      20.047  66.167  20.910  1.00  0.00     0.125 C 
HETATM   19  C11 UNL     1      19.296  66.422  19.674  1.00  0.00     0.287 C 
HETATM   20  N6  UNL     1      19.840  67.441  18.820  1.00  0.00     0.097 N 
HETATM   21  C17 UNL     1      21.207  66.952  18.550  1.00  0.00     0.287 C 
HETATM   22  C18 UNL     1      21.910  67.247  19.842  1.00  0.00     0.125 C 
BRANCH  20  23
HETATM   23  C12 UNL     1      19.111  67.707  17.646  1.00  0.00     0.247 C 
HETATM   24  C13 UNL     1      18.323  66.434  17.298  1.00  0.00     0.045 C 
HETATM   25  C14 UNL     1      17.931  66.483  15.816  1.00  0.00     0.079 C 
HETATM   26  C15 UNL     1      17.587  67.908  15.544  1.00  0.00     0.112 C 
HETATM   27  S1  UNL     1      17.538  68.373  13.984  1.00  0.00    -0.058 SA
HETATM   28  O1  UNL     1      17.317  68.806  16.586  1.00  0.00    -0.342 OA
HETATM   29  C16 UNL     1      18.058  68.786  17.798  1.00  0.00     0.212 C 
ENDBRANCH  20  23
ENDBRANCH   1  17
TORSDOF 6
ENDMDL
MODEL 3
REMARK VINA RESULT: -6.614273358      4.231      6.307
REMARK  6 active torsions:
REMARK  status: ('A' for Active; 'I' for Inactive)
REMARK    1  A    between atoms: C2_2  and  C3_3 
REMARK    2  A    between atoms: C3_3  and  C4_4 
REMARK    3  A    between atoms: C4_4  and  C5_5 
REMARK    4  A    between atoms: C4_4  and  N5_17 
REMARK    5  A    between atoms: N4_12  and  C6_13 
REMARK    6  A    between atoms: N6_20  and  C12_21 
ROOT
HETATM    1  C4  UNL     1      25.355  64.242  20.371  1.00  0.00     0.035 C 
ENDROOT
BRANCH   1   2
HETATM    2  C3  UNL     1      25.952  62.947  20.763  1.00  0.00     0.055 C 
BRANCH   2   3
HETATM    3  C2  UNL     1      26.482  62.116  19.645  1.00  0.00     0.001 C 
HETATM    4  C1  UNL     1      25.605  61.051  19.132  1.00  0.00     0.005 C 
ENDBRANCH   2   3
ENDBRANCH   1   2
BRANCH   1   5
HETATM    5  C5  UNL     1      25.812  65.480  20.956  1.00  0.00     0.157 A 
HETATM    6  N1  UNL     1      25.522  65.886  22.228  1.00  0.00    -0.267 N 
HETATM    7  N2  UNL     1      26.050  67.039  22.510  1.00  0.00    -0.226 N 
ATOM      8  H1  UNL     1      24.956  65.345  22.881  1.00  0.00     0.190 HD
HETATM    9  N3  UNL     1      26.684  67.373  21.407  1.00  0.00    -0.224 N 
ATOM     10  H2  UNL     1      25.987  67.563  23.383  1.00  0.00     0.210 HD
HETATM   11  N4  UNL     1      26.570  66.467  20.447  1.00  0.00    -0.250 N 
ATOM     12  H3  UNL     1      27.210  68.240  21.301  1.00  0.00     0.210 HD
BRANCH  11  13
HETATM   13  C6  UNL     1      27.161  66.617  19.170  1.00  0.00     0.046 C 
HETATM   14  C7  UNL     1      26.283  67.392  18.176  1.00  0.00     0.040 C 
HETATM   15  C8  UNL     1      28.307  67.668  19.375  1.00  0.00     0.040 C 
HETATM   16  C9  UNL     1      27.939  65.537  18.559  1.00  0.00     0.040 C 
ENDBRANCH  11  13
ENDBRANCH   1   5
BRANCH   1  17
HETATM   17  N5  UNL     1      23.918  64.163  20.060  1.00  0.00    -0.280 NA
HETATM   18  C10 UNL     1      23.370  65.460  19.768  1.00  0.00     0.125 C 
HETATM   19  C11 UNL     1      22.099  65.852  20.389  1.00  0.00     0.287 C 
HETATM   20  N6  UNL     1      21.305  64.771  20.906  1.00  0.00     0.097 N 
HETATM   21  C17 UNL     1      22.218  64.120  21.867  1.00  0.00     0.287 C 
HETATM   22  C18 UNL     1      23.160  63.384  20.961  1.00  0.00     0.125 C 
BRANCH  20  23
HETATM   23  C12 UNL     1      20.074  65.139  21.482  1.00  0.00     0.247 C 
HETATM   24  C13 UNL     1      19.142  65.562  20.336  1.00  0.00     0.045 C 
HETATM   25  C14 UNL     1      18.011  66.426  20.910  1.00  0.00     0.079 C 
HETATM   26  C15 UNL     1      17.670  65.809  22.225  1.00  0.00     0.112 C 
HETATM   27  S1  UNL     1      16.813  66.718  23.269  1.00  0.00    -0.058 SA
HETATM   28  O1  UNL     1      18.070  64.504  22.545  1.00  0.00    -0.342 OA
HETATM   29  C16 UNL     1      19.347  64.004  22.175  1.00  0.00     0.212 C 
ENDBRANCH  20  23
ENDBRANCH   1  17
TORSDOF 6
ENDMDL
MODEL 4
REMARK VINA RESULT: -6.597895809      3.467      4.210
REMARK  6 active torsions:
REMARK  status: ('A' for Active; 'I' for Inactive)
REMARK    1  A    between atoms: C2_2  and  C3_3 
REMARK    2  A    between atoms: C3_3  and  C4_4 
REMARK    3  A    between atoms: C4_4  and  C5_5 
REMARK    4  A    between atoms: C4_4  and  N5_17 
REMARK    5  A    between atoms: N4_12  and  C6_13 
REMARK    6  A    between atoms: N6_20  and  C12_21 
ROOT
HETATM    1  C4  UNL     1      23.055  67.266  20.376  1.00  0.00     0.035 C 
ENDROOT
BRANCH   1   2
HETATM    2  C3  UNL     1      22.892  68.090  19.159  1.00  0.00     0.055 C 
BRANCH   2   3
HETATM    3  C2  UNL     1      21.884  67.598  18.177  1.00  0.00     0.001 C 
HETATM    4  C1  UNL     1      22.388  66.806  17.044  1.00  0.00     0.005 C 
ENDBRANCH   2   3
ENDBRANCH   1   2
BRANCH   1   5
HETATM    5  C5  UNL     1      24.349  67.093  20.990  1.00  0.00     0.157 A 
HETATM    6  N1  UNL     1      24.592  67.220  22.328  1.00  0.00    -0.267 N 
HETATM    7  N2  UNL     1      25.841  67.018  22.625  1.00  0.00    -0.226 N 
ATOM      8  H1  UNL     1      23.874  67.448  23.016  1.00  0.00     0.190 HD
HETATM    9  N3  UNL     1      26.401  66.758  21.464  1.00  0.00    -0.224 N 
ATOM     10  H2  UNL     1      26.283  67.052  23.544  1.00  0.00     0.210 HD
HETATM   11  N4  UNL     1      25.545  66.791  20.454  1.00  0.00    -0.250 N 
ATOM     12  H3  UNL     1      27.394  66.552  21.352  1.00  0.00     0.210 HD
BRANCH  11  13
HETATM   13  C6  UNL     1      25.925  66.552  19.112  1.00  0.00     0.046 C 
HETATM   14  C7  UNL     1      26.008  67.829  18.262  1.00  0.00     0.040 C 
HETATM   15  C8  UNL     1      27.449  66.188  19.180  1.00  0.00     0.040 C 
HETATM   16  C9  UNL     1      25.437  65.382  18.378  1.00  0.00     0.040 C 
ENDBRANCH  11  13
ENDBRANCH   1   5
BRANCH   1  17
HETATM   17  N5  UNL     1      22.149  66.106  20.432  1.00  0.00    -0.280 NA
HETATM   18  C10 UNL     1      21.225  66.211  21.528  1.00  0.00     0.125 C 
HETATM   19  C11 UNL     1      21.005  65.043  22.390  1.00  0.00     0.287 C 
HETATM   20  N6  UNL     1      21.412  63.782  21.834  1.00  0.00     0.097 N 
HETATM   21  C17 UNL     1      22.843  63.995  21.539  1.00  0.00     0.287 C 
HETATM   22  C18 UNL     1      22.788  64.851  20.308  1.00  0.00     0.125 C 
BRANCH  20  23
HETATM   23  C12 UNL     1      21.182  62.655  22.647  1.00  0.00     0.247 C 
HETATM   24  C13 UNL     1      19.920  61.957  22.115  1.00  0.00     0.045 C 
HETATM   25  C14 UNL     1      19.348  61.060  23.219  1.00  0.00     0.079 C 
HETATM   26  C15 UNL     1      20.533  60.470  23.906  1.00  0.00     0.112 C 
HETATM   27  S1  UNL     1      20.286  59.813  25.375  1.00  0.00    -0.058 SA
HETATM   28  O1  UNL     1      21.803  60.482  23.311  1.00  0.00    -0.342 OA
HETATM   29  C16 UNL     1      22.269  61.602  22.573  1.00  0.00     0.212 C 
ENDBRANCH  20  23
ENDBRANCH   1  17
TORSDOF 6
ENDMDL
MODEL 5
REMARK VINA RESULT: -6.561091460      5.287      7.371
REMARK  6 active torsions:
REMARK  status: ('A' for Active; 'I' for Inactive)
REMARK    1  A    between atoms: C2_2  and  C3_3 
REMARK    2  A    between atoms: C3_3  and  C4_4 
REMARK    3  A    between atoms: C4_4  and  C5_5 
REMARK    4  A    between atoms: C4_4  and  N5_17 
REMARK    5  A    between atoms: N4_12  and  C6_13 
REMARK    6  A    between atoms: N6_20  and  C12_21 
ROOT
HETATM    1  C4  UNL     1      23.481  64.990  21.106  1.00  0.00     0.035 C 
ENDROOT
BRANCH   1   2
HETATM    2  C3  UNL     1      23.646  63.555  20.788  1.00  0.00     0.055 C 
BRANCH   2   3
HETATM    3  C2  UNL     1      24.976  62.970  21.122  1.00  0.00     0.001 C 
HETATM    4  C1  UNL     1      25.062  61.503  21.187  1.00  0.00     0.005 C 
ENDBRANCH   2   3
ENDBRANCH   1   2
BRANCH   1   5
HETATM    5  C5  UNL     1      24.626  65.844  21.310  1.00  0.00     0.157 A 
HETATM    6  N1  UNL     1      25.021  66.330  22.524  1.00  0.00    -0.267 N 
HETATM    7  N2  UNL     1      26.080  67.078  22.436  1.00  0.00    -0.226 N 
ATOM      8  H1  UNL     1      24.539  66.127  23.400  1.00  0.00     0.190 HD
HETATM    9  N3  UNL     1      26.364  67.069  21.152  1.00  0.00    -0.224 N 
ATOM     10  H2  UNL     1      26.574  67.559  23.187  1.00  0.00     0.210 HD
HETATM   11  N4  UNL     1      25.520  66.342  20.437  1.00  0.00    -0.250 N 
ATOM     12  H3  UNL     1      27.155  67.572  20.747  1.00  0.00     0.210 HD
BRANCH  11  13
HETATM   13  C6  UNL     1      25.625  66.195  19.033  1.00  0.00     0.046 C 
HETATM   14  C7  UNL     1      24.435  66.790  18.264  1.00  0.00     0.040 C 
HETATM   15  C8  UNL     1      26.742  67.208  18.602  1.00  0.00     0.040 C 
HETATM   16  C9  UNL     1      26.169  64.975  18.432  1.00  0.00     0.040 C 
ENDBRANCH  11  13
ENDBRANCH   1   5
BRANCH   1  17
HETATM   17  N5  UNL     1      22.298  65.282  21.933  1.00  0.00    -0.280 NA
HETATM   18  C10 UNL     1      21.570  64.085  22.253  1.00  0.00     0.125 C 
HETATM   19  C11 UNL     1      20.109  64.079  22.104  1.00  0.00     0.287 C 
HETATM   20  N6  UNL     1      19.489  65.374  22.047  1.00  0.00     0.097 N 
HETATM   21  C17 UNL     1      20.163  66.014  20.900  1.00  0.00     0.287 C 
HETATM   22  C18 UNL     1      21.506  66.358  21.473  1.00  0.00     0.125 C 
BRANCH  20  23
HETATM   23  C12 UNL     1      18.086  65.374  21.929  1.00  0.00     0.247 C 
HETATM   24  C13 UNL     1      17.554  66.528  22.794  1.00  0.00     0.045 C 
HETATM   25  C14 UNL     1      16.074  66.272  23.105  1.00  0.00     0.079 C 
HETATM   26  C15 UNL     1      15.502  65.687  21.857  1.00  0.00     0.112 C 
HETATM   27  S1  UNL     1      14.072  64.920  21.988  1.00  0.00    -0.058 SA
HETATM   28  O1  UNL     1      16.168  65.795  20.628  1.00  0.00    -0.342 OA
HETATM   29  C16 UNL     1      17.579  65.670  20.532  1.00  0.00     0.212 C 
ENDBRANCH  20  23
ENDBRANCH   1  17
TORSDOF 6
ENDMDL
