MODEL 1
REMARK VINA RESULT: -6.842297938      0.000      0.000
REMARK  5 active torsions:
REMARK  status: ('A' for Active; 'I' for Inactive)
REMARK    1  A    between atoms: O1_2  and  C2_3 
REMARK    2  A    between atoms: C9_11  and  C10_12 
REMARK    3  A    between atoms: C10_12  and  C11_13 
REMARK    4  A    between atoms: C11_13  and  C12_14 
REMARK    5  A    between atoms: C12_14  and  C13_15 
ROOT
HETATM    1  C2  UNL     1      27.068  68.022  18.369  1.00  0.00     0.324 C 
HETATM    2  O2  UNL     1      25.845  67.642  18.983  1.00  0.00    -0.347 OA
HETATM    3  C3  UNL     1      25.500  66.451  18.385  1.00  0.00     0.170 C 
HETATM    4  C4  UNL     1      23.967  66.323  18.386  1.00  0.00     0.014 C 
HETATM    5  C5  UNL     1      23.456  67.503  17.534  1.00  0.00     0.012 C 
HETATM    6  C6  UNL     1      23.510  65.087  17.674  1.00  0.00     0.007 C 
HETATM    7  C7  UNL     1      24.402  63.872  17.968  1.00  0.00     0.011 C 
HETATM    8  C8  UNL     1      25.171  64.209  19.195  1.00  0.00     0.059 C 
HETATM    9  C9  UNL     1      25.601  63.073  20.044  1.00  0.00     0.139 C 
HETATM   10  O3  UNL     1      26.007  63.623  21.297  1.00  0.00    -0.313 OA
HETATM   11  C16 UNL     1      26.382  64.991  21.260  1.00  0.00     0.291 C 
HETATM   12  O4  UNL     1      26.113  65.792  22.187  1.00  0.00    -0.262 OA
HETATM   13  C17 UNL     1      27.106  65.362  20.043  1.00  0.00     0.265 C 
HETATM   14  O5  UNL     1      27.753  66.553  19.995  1.00  0.00    -0.330 OA
HETATM   15  C18 UNL     1      27.994  66.829  18.650  1.00  0.00     0.244 C 
HETATM   16  C19 UNL     1      29.408  67.437  18.614  1.00  0.00     0.087 C 
HETATM   17  O6  UNL     1      27.961  65.841  17.772  1.00  0.00    -0.195 OA
HETATM   18  O7  UNL     1      27.093  64.871  17.839  1.00  0.00    -0.220 OA
HETATM   19  C20 UNL     1      26.203  65.235  18.859  1.00  0.00     0.164 C 
ENDROOT
BRANCH   9  20
HETATM   20  C10 UNL     1      26.537  62.106  19.446  1.00  0.00     0.033 C 
BRANCH  20  21
HETATM   21  C11 UNL     1      25.979  60.698  19.510  1.00  0.00     0.003 C 
BRANCH  21  22
HETATM   22  C12 UNL     1      24.748  60.616  20.350  1.00  0.00     0.005 C 
BRANCH  22  23
HETATM   23  C13 UNL     1      25.090  59.748  21.561  1.00  0.00    -0.014 A 
HETATM   24  C14 UNL     1      24.472  60.112  22.886  1.00  0.00     0.005 A 
HETATM   25  C15 UNL     1      25.919  60.341  22.667  1.00  0.00     0.005 A 
ENDBRANCH  22  23
ENDBRANCH  21  22
ENDBRANCH  20  21
ENDBRANCH   9  20
BRANCH   1  26
HETATM   26  O1  UNL     1      27.549  69.086  19.093  1.00  0.00    -0.361 OA
HETATM   27  C1  UNL     1      27.258  70.317  18.549  1.00  0.00     0.205 C 
ENDBRANCH   1  26
TORSDOF 5
ENDMDL
MODEL 2
REMARK VINA RESULT: -6.581402225      0.965      1.162
REMARK  5 active torsions:
REMARK  status: ('A' for Active; 'I' for Inactive)
REMARK    1  A    between atoms: O1_2  and  C2_3 
REMARK    2  A    between atoms: C9_11  and  C10_12 
REMARK    3  A    between atoms: C10_12  and  C11_13 
REMARK    4  A    between atoms: C11_13  and  C12_14 
REMARK    5  A    between atoms: C12_14  and  C13_15 
ROOT
HETATM    1  C2  UNL     1      27.759  67.782  18.687  1.00  0.00     0.324 C 
HETATM    2  O2  UNL     1      26.455  67.900  19.235  1.00  0.00    -0.347 OA
HETATM    3  C3  UNL     1      25.688  66.999  18.532  1.00  0.00     0.170 C 
HETATM    4  C4  UNL     1      24.239  67.514  18.483  1.00  0.00     0.014 C 
HETATM    5  C5  UNL     1      24.304  68.852  17.720  1.00  0.00     0.012 C 
HETATM    6  C6  UNL     1      23.359  66.625  17.659  1.00  0.00     0.007 C 
HETATM    7  C7  UNL     1      23.658  65.134  17.873  1.00  0.00     0.011 C 
HETATM    8  C8  UNL     1      24.426  65.043  19.143  1.00  0.00     0.059 C 
HETATM    9  C9  UNL     1      24.305  63.777  19.904  1.00  0.00     0.139 C 
HETATM   10  O3  UNL     1      24.828  64.028  21.209  1.00  0.00    -0.313 OA
HETATM   11  C16 UNL     1      25.731  65.120  21.296  1.00  0.00     0.291 C 
HETATM   12  O4  UNL     1      25.760  65.897  22.279  1.00  0.00    -0.262 OA
HETATM   13  C17 UNL     1      26.611  65.238  20.133  1.00  0.00     0.265 C 
HETATM   14  O5  UNL     1      27.690  66.058  20.201  1.00  0.00    -0.330 OA
HETATM   15  C18 UNL     1      28.099  66.298  18.890  1.00  0.00     0.244 C 
HETATM   16  C19 UNL     1      29.638  66.271  18.940  1.00  0.00     0.087 C 
HETATM   17  O6  UNL     1      27.716  65.471  17.932  1.00  0.00    -0.195 OA
HETATM   18  O7  UNL     1      26.525  64.943  17.896  1.00  0.00    -0.220 OA
HETATM   19  C20 UNL     1      25.804  65.573  18.920  1.00  0.00     0.164 C 
ENDROOT
BRANCH   9  20
HETATM   20  C10 UNL     1      24.797  62.553  19.252  1.00  0.00     0.033 C 
BRANCH  20  21
HETATM   21  C11 UNL     1      24.502  61.330  20.098  1.00  0.00     0.003 C 
BRANCH  21  22
HETATM   22  C12 UNL     1      25.741  60.573  20.445  1.00  0.00     0.005 C 
BRANCH  22  23
HETATM   23  C13 UNL     1      25.931  60.693  21.957  1.00  0.00    -0.014 A 
HETATM   24  C14 UNL     1      26.141  59.426  22.744  1.00  0.00     0.005 A 
HETATM   25  C15 UNL     1      24.860  60.159  22.867  1.00  0.00     0.005 A 
ENDBRANCH  22  23
ENDBRANCH  21  22
ENDBRANCH  20  21
ENDBRANCH   9  20
BRANCH   1  26
HETATM   26  O1  UNL     1      28.591  68.504  19.508  1.00  0.00    -0.361 OA
HETATM   27  C1  UNL     1      28.565  69.862  19.286  1.00  0.00     0.205 C 
ENDBRANCH   1  26
TORSDOF 5
ENDMDL
MODEL 3
REMARK VINA RESULT: -6.565865335      1.937      3.600
REMARK  5 active torsions:
REMARK  status: ('A' for Active; 'I' for Inactive)
REMARK    1  A    between atoms: O1_2  and  C2_3 
REMARK    2  A    between atoms: C9_11  and  C10_12 
REMARK    3  A    between atoms: C10_12  and  C11_13 
REMARK    4  A    between atoms: C11_13  and  C12_14 
REMARK    5  A    between atoms: C12_14  and  C13_15 
ROOT
HETATM    1  C2  UNL     1      24.185  67.500  20.644  1.00  0.00     0.324 C 
HETATM    2  O2  UNL     1      24.701  67.454  19.322  1.00  0.00    -0.347 OA
HETATM    3  C3  UNL     1      25.863  66.721  19.417  1.00  0.00     0.170 C 
HETATM    4  C4  UNL     1      26.839  67.196  18.327  1.00  0.00     0.014 C 
HETATM    5  C5  UNL     1      27.126  68.676  18.649  1.00  0.00     0.012 C 
HETATM    6  C6  UNL     1      28.162  66.500  18.421  1.00  0.00     0.007 C 
HETATM    7  C7  UNL     1      28.022  65.008  18.758  1.00  0.00     0.011 C 
HETATM    8  C8  UNL     1      26.612  64.645  18.459  1.00  0.00     0.059 C 
HETATM    9  C9  UNL     1      26.354  63.234  18.084  1.00  0.00     0.139 C 
HETATM   10  O3  UNL     1      25.041  63.189  17.524  1.00  0.00    -0.313 OA
HETATM   11  C16 UNL     1      24.186  64.253  17.910  1.00  0.00     0.291 C 
HETATM   12  O4  UNL     1      23.366  64.782  17.122  1.00  0.00    -0.262 OA
HETATM   13  C17 UNL     1      24.359  64.661  19.304  1.00  0.00     0.265 C 
HETATM   14  O5  UNL     1      23.434  65.470  19.878  1.00  0.00    -0.330 OA
HETATM   15  C18 UNL     1      24.024  66.018  21.016  1.00  0.00     0.244 C 
HETATM   16  C19 UNL     1      22.911  66.020  22.081  1.00  0.00     0.087 C 
HETATM   17  O6  UNL     1      25.082  65.426  21.544  1.00  0.00    -0.195 OA
HETATM   18  O7  UNL     1      26.021  64.890  20.816  1.00  0.00    -0.220 OA
HETATM   19  C20 UNL     1      25.721  65.247  19.494  1.00  0.00     0.164 C 
ENDROOT
BRANCH   9  20
HETATM   20  C10 UNL     1      26.643  62.208  19.098  1.00  0.00     0.033 C 
BRANCH  20  21
HETATM   21  C11 UNL     1      25.821  60.958  18.857  1.00  0.00     0.003 C 
BRANCH  21  22
HETATM   22  C12 UNL     1      25.193  60.445  20.111  1.00  0.00     0.005 C 
BRANCH  22  23
HETATM   23  C13 UNL     1      26.220  60.620  21.230  1.00  0.00    -0.014 A 
HETATM   24  C14 UNL     1      26.576  59.410  22.054  1.00  0.00     0.005 A 
HETATM   25  C15 UNL     1      25.765  60.492  22.657  1.00  0.00     0.005 A 
ENDBRANCH  22  23
ENDBRANCH  21  22
ENDBRANCH  20  21
ENDBRANCH   9  20
BRANCH   1  26
HETATM   26  O1  UNL     1      22.922  68.032  20.547  1.00  0.00    -0.361 OA
HETATM   27  C1  UNL     1      22.883  69.302  20.017  1.00  0.00     0.205 C 
ENDBRANCH   1  26
TORSDOF 5
ENDMDL
MODEL 4
REMARK VINA RESULT: -6.499632283      2.368      3.236
REMARK  5 active torsions:
REMARK  status: ('A' for Active; 'I' for Inactive)
REMARK    1  A    between atoms: O1_2  and  C2_3 
REMARK    2  A    between atoms: C9_11  and  C10_12 
REMARK    3  A    between atoms: C10_12  and  C11_13 
REMARK    4  A    between atoms: C11_13  and  C12_14 
REMARK    5  A    between atoms: C12_14  and  C13_15 
ROOT
HETATM    1  C2  UNL     1      22.670  67.868  19.471  1.00  0.00     0.324 C 
HETATM    2  O2  UNL     1      22.743  67.299  20.770  1.00  0.00    -0.347 OA
HETATM    3  C3  UNL     1      22.712  65.938  20.567  1.00  0.00     0.170 C 
HETATM    4  C4  UNL     1      22.063  65.269  21.792  1.00  0.00     0.014 C 
HETATM    5  C5  UNL     1      20.625  65.823  21.848  1.00  0.00     0.012 C 
HETATM    6  C6  UNL     1      21.917  63.790  21.608  1.00  0.00     0.007 C 
HETATM    7  C7  UNL     1      23.134  63.158  20.918  1.00  0.00     0.011 C 
HETATM    8  C8  UNL     1      24.241  64.142  21.043  1.00  0.00     0.059 C 
HETATM    9  C9  UNL     1      25.619  63.596  21.056  1.00  0.00     0.139 C 
HETATM   10  O3  UNL     1      26.474  64.643  21.516  1.00  0.00    -0.313 OA
HETATM   11  C16 UNL     1      25.962  65.955  21.348  1.00  0.00     0.291 C 
HETATM   12  O4  UNL     1      26.142  66.865  22.192  1.00  0.00    -0.262 OA
HETATM   13  C17 UNL     1      25.214  66.132  20.102  1.00  0.00     0.265 C 
HETATM   14  O5  UNL     1      24.904  67.386  19.688  1.00  0.00    -0.330 OA
HETATM   15  C18 UNL     1      23.882  67.261  18.748  1.00  0.00     0.244 C 
HETATM   16  C19 UNL     1      24.218  68.292  17.654  1.00  0.00     0.087 C 
HETATM   17  O6  UNL     1      23.690  66.096  18.154  1.00  0.00    -0.195 OA
HETATM   18  O7  UNL     1      23.804  64.960  18.783  1.00  0.00    -0.220 OA
HETATM   19  C20 UNL     1      23.976  65.296  20.133  1.00  0.00     0.164 C 
ENDROOT
BRANCH   9  20
HETATM   20  C10 UNL     1      26.073  62.896  19.844  1.00  0.00     0.033 C 
BRANCH  20  21
HETATM   21  C11 UNL     1      26.497  61.475  20.162  1.00  0.00     0.003 C 
BRANCH  21  22
HETATM   22  C12 UNL     1      25.338  60.535  20.193  1.00  0.00     0.005 C 
BRANCH  22  23
HETATM   23  C13 UNL     1      25.435  59.748  21.500  1.00  0.00    -0.014 A 
HETATM   24  C14 UNL     1      24.431  60.051  22.581  1.00  0.00     0.005 A 
HETATM   25  C15 UNL     1      25.841  60.472  22.754  1.00  0.00     0.005 A 
ENDBRANCH  22  23
ENDBRANCH  21  22
ENDBRANCH  20  21
ENDBRANCH   9  20
BRANCH   1  26
HETATM   26  O1  UNL     1      22.919  69.210  19.622  1.00  0.00    -0.361 OA
HETATM   27  C1  UNL     1      21.806  70.009  19.492  1.00  0.00     0.205 C 
ENDBRANCH   1  26
TORSDOF 5
ENDMDL
MODEL 5
REMARK VINA RESULT: -6.475891648      2.793      4.213
REMARK  5 active torsions:
REMARK  status: ('A' for Active; 'I' for Inactive)
REMARK    1  A    between atoms: O1_2  and  C2_3 
REMARK    2  A    between atoms: C9_11  and  C10_12 
REMARK    3  A    between atoms: C10_12  and  C11_13 
REMARK    4  A    between atoms: C11_13  and  C12_14 
REMARK    5  A    between atoms: C12_14  and  C13_15 
ROOT
HETATM    1  C2  UNL     1      27.649  65.421  18.699  1.00  0.00     0.324 C 
HETATM    2  O2  UNL     1      26.507  64.856  18.071  1.00  0.00    -0.347 OA
HETATM    3  C3  UNL     1      25.819  64.223  19.082  1.00  0.00     0.170 C 
HETATM    4  C4  UNL     1      25.051  63.030  18.486  1.00  0.00     0.014 C 
HETATM    5  C5  UNL     1      26.133  62.088  17.919  1.00  0.00     0.012 C 
HETATM    6  C6  UNL     1      24.344  62.239  19.543  1.00  0.00     0.007 C 
HETATM    7  C7  UNL     1      23.705  63.129  20.619  1.00  0.00     0.011 C 
HETATM    8  C8  UNL     1      23.627  64.494  20.036  1.00  0.00     0.059 C 
HETATM    9  C9  UNL     1      22.543  65.371  20.539  1.00  0.00     0.139 C 
HETATM   10  O3  UNL     1      22.445  66.468  19.630  1.00  0.00    -0.313 OA
HETATM   11  C16 UNL     1      23.614  66.725  18.869  1.00  0.00     0.291 C 
HETATM   12  O4  UNL     1      23.573  67.091  17.670  1.00  0.00    -0.262 OA
HETATM   13  C17 UNL     1      24.853  66.523  19.620  1.00  0.00     0.265 C 
HETATM   14  O5  UNL     1      26.021  66.986  19.109  1.00  0.00    -0.330 OA
HETATM   15  C18 UNL     1      27.048  66.328  19.783  1.00  0.00     0.244 C 
HETATM   16  C19 UNL     1      28.128  67.402  20.012  1.00  0.00     0.087 C 
HETATM   17  O6  UNL     1      26.794  65.760  20.951  1.00  0.00    -0.195 OA
HETATM   18  O7  UNL     1      25.678  65.135  21.199  1.00  0.00    -0.220 OA
HETATM   19  C20 UNL     1      25.000  65.078  19.973  1.00  0.00     0.164 C 
ENDROOT
BRANCH   9  20
HETATM   20  C10 UNL     1      22.582  65.734  21.965  1.00  0.00     0.033 C 
BRANCH  20  21
HETATM   21  C11 UNL     1      21.682  64.827  22.781  1.00  0.00     0.003 C 
BRANCH  21  22
HETATM   22  C12 UNL     1      20.330  64.671  22.167  1.00  0.00     0.005 C 
BRANCH  22  23
HETATM   23  C13 UNL     1      20.155  63.189  21.840  1.00  0.00    -0.014 A 
HETATM   24  C14 UNL     1      19.234  62.379  22.714  1.00  0.00     0.005 A 
HETATM   25  C15 UNL     1      20.697  62.166  22.800  1.00  0.00     0.005 A 
ENDBRANCH  22  23
ENDBRANCH  21  22
ENDBRANCH  20  21
ENDBRANCH   9  20
BRANCH   1  26
HETATM   26  O1  UNL     1      28.237  66.240  17.767  1.00  0.00    -0.361 OA
HETATM   27  C1  UNL     1      29.414  65.749  17.246  1.00  0.00     0.205 C 
ENDBRANCH   1  26
TORSDOF 5
ENDMDL
