MODEL 1
REMARK VINA RESULT: -7.805816001      0.000      0.000
REMARK  5 active torsions:
REMARK  status: ('A' for Active; 'I' for Inactive)
REMARK    1  A    between atoms: O1_2  and  C2_3 
REMARK    2  A    between atoms: C5_9  and  N2_10 
REMARK    3  A    between atoms: N2_10  and  C6_12 
REMARK    4  A    between atoms: C7_15  and  C8_16 
REMARK    5  A    between atoms: C12_22  and  N5_23 
ROOT
HETATM    1  C6  UNL     1      29.576  75.817  60.664  1.00  0.00     0.151 A 
HETATM    2  N3  UNL     1      29.144  74.847  59.852  1.00  0.00    -0.341 N 
ATOM      3  H3  UNL     1      29.793  74.453  59.172  1.00  0.00     0.167 HD
HETATM    4  C7  UNL     1      27.893  74.372  59.897  1.00  0.00     0.030 A 
HETATM    5  C11 UNL     1      27.049  74.942  60.843  1.00  0.00     0.115 A 
HETATM    6  N4  UNL     1      27.461  75.915  61.666  1.00  0.00    -0.348 N 
ATOM      7  H4  UNL     1      26.819  76.315  62.351  1.00  0.00     0.167 HD
HETATM    8  C12 UNL     1      28.719  76.357  61.583  1.00  0.00     0.143 A 
ENDROOT
BRANCH   1   9
HETATM    9  N2  UNL     1      30.772  76.274  60.625  1.00  0.00    -0.325 N 
ATOM     10  H2  UNL     1      31.083  76.655  59.731  1.00  0.00     0.169 HD
BRANCH   9  11
HETATM   11  C5  UNL     1      31.693  76.308  61.671  1.00  0.00     0.115 A 
HETATM   12  N1  UNL     1      31.843  75.206  62.429  1.00  0.00    -0.349 N 
HETATM   13  C4  UNL     1      32.703  75.137  63.459  1.00  0.00     0.135 A 
ATOM     14  H1  UNL     1      31.277  74.385  62.211  1.00  0.00     0.167 HD
HETATM   15  C3  UNL     1      33.496  76.208  63.804  1.00  0.00     0.165 A 
HETATM   16  C2  UNL     1      33.353  77.355  63.029  1.00  0.00     0.117 A 
HETATM   17  F1  UNL     1      34.376  76.182  64.833  1.00  0.00    -0.202 F 
HETATM   18  C13 UNL     1      32.464  77.418  61.969  1.00  0.00     0.019 A 
HETATM   19  C14 UNL     1      32.336  78.650  61.167  1.00  0.00     0.055 C 
BRANCH  16  20
HETATM   20  O1  UNL     1      34.109  78.462  63.314  1.00  0.00    -0.352 OA
HETATM   21  C1  UNL     1      33.925  79.344  64.376  1.00  0.00     0.210 C 
ENDBRANCH  16  20
ENDBRANCH   9  11
ENDBRANCH   1   9
BRANCH   8  22
HETATM   22  N5  UNL     1      29.090  77.305  62.400  1.00  0.00    -0.382 N 
ATOM     23  H52 UNL     1      29.541  77.035  63.274  1.00  0.00     0.157 HD
ATOM     24  H51 UNL     1      28.940  78.291  62.186  1.00  0.00     0.157 HD
ENDBRANCH   8  22
BRANCH   4  25
HETATM   25  C8  UNL     1      27.371  73.298  59.015  1.00  0.00     0.037 A 
HETATM   26  C9  UNL     1      28.261  72.591  58.069  1.00  0.00     0.011 A 
HETATM   27  C10 UNL     1      27.888  71.881  59.344  1.00  0.00     0.011 A 
ENDBRANCH   4  25
TORSDOF 5
ENDMDL
MODEL 2
REMARK VINA RESULT: -7.360752840      3.291      5.317
REMARK  5 active torsions:
REMARK  status: ('A' for Active; 'I' for Inactive)
REMARK    1  A    between atoms: O1_2  and  C2_3 
REMARK    2  A    between atoms: C5_9  and  N2_10 
REMARK    3  A    between atoms: N2_10  and  C6_12 
REMARK    4  A    between atoms: C7_15  and  C8_16 
REMARK    5  A    between atoms: C12_22  and  N5_23 
ROOT
HETATM    1  C6  UNL     1      33.254  76.870  64.022  1.00  0.00     0.151 A 
HETATM    2  N3  UNL     1      32.227  77.303  63.284  1.00  0.00    -0.341 N 
ATOM      3  H3  UNL     1      31.990  78.295  63.310  1.00  0.00     0.167 HD
HETATM    4  C7  UNL     1      31.497  76.488  62.512  1.00  0.00     0.030 A 
HETATM    5  C11 UNL     1      31.863  75.147  62.511  1.00  0.00     0.115 A 
HETATM    6  N4  UNL     1      32.888  74.691  63.242  1.00  0.00    -0.348 N 
ATOM      7  H4  UNL     1      33.133  73.701  63.222  1.00  0.00     0.167 HD
HETATM    8  C12 UNL     1      33.587  75.543  63.998  1.00  0.00     0.143 A 
ENDROOT
BRANCH   1   9
HETATM    9  N2  UNL     1      33.954  77.646  64.761  1.00  0.00    -0.325 N 
ATOM     10  H2  UNL     1      34.065  77.367  65.736  1.00  0.00     0.169 HD
BRANCH   9  11
HETATM   11  C5  UNL     1      34.583  78.830  64.378  1.00  0.00     0.115 A 
HETATM   12  N1  UNL     1      34.761  79.066  63.065  1.00  0.00    -0.349 N 
HETATM   13  C4  UNL     1      35.355  80.176  62.593  1.00  0.00     0.135 A 
ATOM     14  H1  UNL     1      34.430  78.370  62.396  1.00  0.00     0.167 HD
HETATM   15  C3  UNL     1      35.823  81.153  63.442  1.00  0.00     0.165 A 
HETATM   16  C2  UNL     1      35.646  80.925  64.804  1.00  0.00     0.117 A 
HETATM   17  F1  UNL     1      36.426  82.286  63.010  1.00  0.00    -0.202 F 
HETATM   18  C13 UNL     1      35.033  79.778  65.280  1.00  0.00     0.019 A 
HETATM   19  C14 UNL     1      34.861  79.566  66.731  1.00  0.00     0.055 C 
BRANCH  16  20
HETATM   20  O1  UNL     1      36.087  81.854  65.709  1.00  0.00    -0.352 OA
HETATM   21  C1  UNL     1      35.335  82.872  66.289  1.00  0.00     0.210 C 
ENDBRANCH  16  20
ENDBRANCH   9  11
ENDBRANCH   1   9
BRANCH   8  22
HETATM   22  N5  UNL     1      34.580  75.067  64.698  1.00  0.00    -0.382 N 
ATOM     23  H52 UNL     1      35.093  74.271  64.321  1.00  0.00     0.157 HD
ATOM     24  H51 UNL     1      34.847  75.468  65.597  1.00  0.00     0.157 HD
ENDBRANCH   8  22
BRANCH   4  25
HETATM   25  C8  UNL     1      30.350  76.926  61.678  1.00  0.00     0.037 A 
HETATM   26  C9  UNL     1      29.507  75.940  60.966  1.00  0.00     0.011 A 
HETATM   27  C10 UNL     1      28.961  76.544  62.234  1.00  0.00     0.011 A 
ENDBRANCH   4  25
TORSDOF 5
ENDMDL
MODEL 3
REMARK VINA RESULT: -7.284507950      1.550      2.124
REMARK  5 active torsions:
REMARK  status: ('A' for Active; 'I' for Inactive)
REMARK    1  A    between atoms: O1_2  and  C2_3 
REMARK    2  A    between atoms: C5_9  and  N2_10 
REMARK    3  A    between atoms: N2_10  and  C6_12 
REMARK    4  A    between atoms: C7_15  and  C8_16 
REMARK    5  A    between atoms: C12_22  and  N5_23 
ROOT
HETATM    1  C6  UNL     1      29.691  77.001  61.758  1.00  0.00     0.151 A 
HETATM    2  N3  UNL     1      28.638  76.188  61.890  1.00  0.00    -0.341 N 
ATOM      3  H3  UNL     1      28.291  75.985  62.827  1.00  0.00     0.167 HD
HETATM    4  C7  UNL     1      28.020  75.630  60.841  1.00  0.00     0.030 A 
HETATM    5  C11 UNL     1      28.532  75.940  59.586  1.00  0.00     0.115 A 
HETATM    6  N4  UNL     1      29.585  76.753  59.431  1.00  0.00    -0.348 N 
ATOM      7  H4  UNL     1      29.939  76.963  58.497  1.00  0.00     0.167 HD
HETATM    8  C12 UNL     1      30.169  77.286  60.508  1.00  0.00     0.143 A 
ENDROOT
BRANCH   1   9
HETATM    9  N2  UNL     1      30.284  77.537  62.758  1.00  0.00    -0.325 N 
ATOM     10  H2  UNL     1      29.806  78.321  63.202  1.00  0.00     0.169 HD
BRANCH   9  11
HETATM   11  C5  UNL     1      31.511  77.165  63.306  1.00  0.00     0.115 A 
HETATM   12  N1  UNL     1      31.781  75.853  63.442  1.00  0.00    -0.349 N 
HETATM   13  C4  UNL     1      32.934  75.392  63.958  1.00  0.00     0.135 A 
ATOM     14  H1  UNL     1      31.079  75.178  63.139  1.00  0.00     0.167 HD
HETATM   15  C3  UNL     1      33.922  76.250  64.384  1.00  0.00     0.165 A 
HETATM   16  C2  UNL     1      33.658  77.610  64.250  1.00  0.00     0.117 A 
HETATM   17  F1  UNL     1      35.097  75.829  64.909  1.00  0.00    -0.202 F 
HETATM   18  C13 UNL     1      32.468  78.077  63.718  1.00  0.00     0.019 A 
HETATM   19  C14 UNL     1      32.219  79.526  63.590  1.00  0.00     0.055 C 
BRANCH  16  20
HETATM   20  O1  UNL     1      34.595  78.524  64.654  1.00  0.00    -0.352 OA
HETATM   21  C1  UNL     1      35.746  78.896  63.964  1.00  0.00     0.210 C 
ENDBRANCH  16  20
ENDBRANCH   9  11
ENDBRANCH   1   9
BRANCH   8  22
HETATM   22  N5  UNL     1      31.192  78.074  60.323  1.00  0.00    -0.382 N 
ATOM     23  H52 UNL     1      31.332  78.467  59.393  1.00  0.00     0.157 HD
ATOM     24  H51 UNL     1      31.843  78.299  61.076  1.00  0.00     0.157 HD
ENDBRANCH   8  22
BRANCH   4  25
HETATM   25  C8  UNL     1      26.851  74.722  60.941  1.00  0.00     0.037 A 
HETATM   26  C9  UNL     1      25.783  74.741  59.917  1.00  0.00     0.011 A 
HETATM   27  C10 UNL     1      26.789  73.621  59.860  1.00  0.00     0.011 A 
ENDBRANCH   4  25
TORSDOF 5
ENDMDL
MODEL 4
REMARK VINA RESULT: -7.246613477      3.949      8.344
REMARK  5 active torsions:
REMARK  status: ('A' for Active; 'I' for Inactive)
REMARK    1  A    between atoms: O1_2  and  C2_3 
REMARK    2  A    between atoms: C5_9  and  N2_10 
REMARK    3  A    between atoms: N2_10  and  C6_12 
REMARK    4  A    between atoms: C7_15  and  C8_16 
REMARK    5  A    between atoms: C12_22  and  N5_23 
ROOT
HETATM    1  C6  UNL     1      35.048  79.926  62.828  1.00  0.00     0.151 A 
HETATM    2  N3  UNL     1      34.670  80.145  64.091  1.00  0.00    -0.341 N 
ATOM      3  H3  UNL     1      33.680  80.066  64.326  1.00  0.00     0.167 HD
HETATM    4  C7  UNL     1      35.537  80.464  65.060  1.00  0.00     0.030 A 
HETATM    5  C11 UNL     1      36.873  80.557  64.686  1.00  0.00     0.115 A 
HETATM    6  N4  UNL     1      37.274  80.341  63.427  1.00  0.00    -0.348 N 
ATOM      7  H4  UNL     1      38.262  80.417  63.182  1.00  0.00     0.167 HD
HETATM    8  C12 UNL     1      36.371  80.026  62.494  1.00  0.00     0.143 A 
ENDROOT
BRANCH   1   9
HETATM    9  N2  UNL     1      34.221  79.621  61.899  1.00  0.00    -0.325 N 
ATOM     10  H2  UNL     1      34.547  79.750  60.941  1.00  0.00     0.169 HD
BRANCH   9  11
HETATM   11  C5  UNL     1      32.925  79.130  62.055  1.00  0.00     0.115 A 
HETATM   12  N1  UNL     1      32.159  79.643  63.036  1.00  0.00    -0.349 N 
HETATM   13  C4  UNL     1      30.899  79.238  63.269  1.00  0.00     0.135 A 
ATOM     14  H1  UNL     1      32.554  80.372  63.631  1.00  0.00     0.167 HD
HETATM   15  C3  UNL     1      30.307  78.260  62.502  1.00  0.00     0.165 A 
HETATM   16  C2  UNL     1      31.086  77.720  61.482  1.00  0.00     0.117 A 
HETATM   17  F1  UNL     1      29.041  77.823  62.701  1.00  0.00    -0.202 F 
HETATM   18  C13 UNL     1      32.384  78.142  61.250  1.00  0.00     0.019 A 
HETATM   19  C14 UNL     1      33.184  77.549  60.161  1.00  0.00     0.055 C 
BRANCH  16  20
HETATM   20  O1  UNL     1      30.564  76.741  60.679  1.00  0.00    -0.352 OA
HETATM   21  C1  UNL     1      30.403  75.396  61.004  1.00  0.00     0.210 C 
ENDBRANCH  16  20
ENDBRANCH   9  11
ENDBRANCH   1   9
BRANCH   8  22
HETATM   22  N5  UNL     1      36.793  79.822  61.277  1.00  0.00    -0.382 N 
ATOM     23  H52 UNL     1      36.499  78.967  60.805  1.00  0.00     0.157 HD
ATOM     24  H51 UNL     1      37.400  80.486  60.798  1.00  0.00     0.157 HD
ENDBRANCH   8  22
BRANCH   4  25
HETATM   25  C8  UNL     1      35.162  80.716  66.474  1.00  0.00     0.037 A 
HETATM   26  C9  UNL     1      36.103  81.377  67.404  1.00  0.00     0.011 A 
HETATM   27  C10 UNL     1      34.979  82.205  66.840  1.00  0.00     0.011 A 
ENDBRANCH   4  25
TORSDOF 5
ENDMDL
MODEL 5
REMARK VINA RESULT: -7.142476634      1.307      1.999
REMARK  5 active torsions:
REMARK  status: ('A' for Active; 'I' for Inactive)
REMARK    1  A    between atoms: O1_2  and  C2_3 
REMARK    2  A    between atoms: C5_9  and  N2_10 
REMARK    3  A    between atoms: N2_10  and  C6_12 
REMARK    4  A    between atoms: C7_15  and  C8_16 
REMARK    5  A    between atoms: C12_22  and  N5_23 
ROOT
HETATM    1  C6  UNL     1      29.123  75.255  61.514  1.00  0.00     0.151 A 
HETATM    2  N3  UNL     1      28.878  74.373  60.540  1.00  0.00    -0.341 N 
ATOM      3  H3  UNL     1      29.618  73.727  60.267  1.00  0.00     0.167 HD
HETATM    4  C7  UNL     1      27.698  74.303  59.909  1.00  0.00     0.030 A 
HETATM    5  C11 UNL     1      26.724  75.205  60.321  1.00  0.00     0.115 A 
HETATM    6  N4  UNL     1      26.948  76.096  61.295  1.00  0.00    -0.348 N 
ATOM      7  H4  UNL     1      26.214  76.746  61.576  1.00  0.00     0.167 HD
HETATM    8  C12 UNL     1      28.142  76.128  61.895  1.00  0.00     0.143 A 
ENDROOT
BRANCH   1   9
HETATM    9  N2  UNL     1      30.250  75.324  62.120  1.00  0.00    -0.325 N 
ATOM     10  H2  UNL     1      30.471  74.558  62.756  1.00  0.00     0.169 HD
BRANCH   9  11
HETATM   11  C5  UNL     1      31.206  76.333  62.004  1.00  0.00     0.115 A 
HETATM   12  N1  UNL     1      31.157  77.142  60.929  1.00  0.00    -0.349 N 
HETATM   13  C4  UNL     1      32.031  78.143  60.726  1.00  0.00     0.135 A 
ATOM     14  H1  UNL     1      30.423  76.989  60.238  1.00  0.00     0.167 HD
HETATM   15  C3  UNL     1      33.044  78.402  61.620  1.00  0.00     0.165 A 
HETATM   16  C2  UNL     1      33.108  77.574  62.738  1.00  0.00     0.117 A 
HETATM   17  F1  UNL     1      33.946  79.399  61.455  1.00  0.00    -0.202 F 
HETATM   18  C13 UNL     1      32.203  76.545  62.940  1.00  0.00     0.019 A 
HETATM   19  C14 UNL     1      32.298  75.685  64.135  1.00  0.00     0.055 C 
BRANCH  16  20
HETATM   20  O1  UNL     1      34.091  77.772  63.672  1.00  0.00    -0.352 OA
HETATM   21  C1  UNL     1      34.219  78.865  64.525  1.00  0.00     0.210 C 
ENDBRANCH  16  20
ENDBRANCH   9  11
ENDBRANCH   1   9
BRANCH   8  22
HETATM   22  N5  UNL     1      28.329  77.008  62.840  1.00  0.00    -0.382 N 
ATOM     23  H52 UNL     1      28.913  76.742  63.633  1.00  0.00     0.157 HD
ATOM     24  H51 UNL     1      27.911  77.937  62.802  1.00  0.00     0.157 HD
ENDBRANCH   8  22
BRANCH   4  25
HETATM   25  C8  UNL     1      27.382  73.342  58.823  1.00  0.00     0.037 A 
HETATM   26  C9  UNL     1      28.451  72.555  58.170  1.00  0.00     0.011 A 
HETATM   27  C10 UNL     1      27.591  71.857  59.191  1.00  0.00     0.011 A 
ENDBRANCH   4  25
TORSDOF 5
ENDMDL
