MODEL 1
REMARK VINA RESULT: -8.170112001      0.000      0.000
REMARK  3 active torsions:
REMARK  status: ('A' for Active; 'I' for Inactive)
REMARK    1  A    between atoms: C7_7  and  N1_8 
REMARK    2  A    between atoms: C9_13  and  N3_14 
REMARK    3  A    between atoms: C11_21  and  N5_22 
ROOT
HETATM    1  N1  UNL     1      34.268  78.650  64.309  1.00  0.00    -0.369 N 
ATOM      2  H1  UNL     1      34.959  78.049  64.759  1.00  0.00     0.161 HD
HETATM    3  C8  UNL     1      33.439  77.924  63.768  1.00  0.00     0.153 A 
HETATM    4  N2  UNL     1      33.654  76.573  63.908  1.00  0.00    -0.175 N 
ATOM      5  H2  UNL     1      34.464  76.271  64.450  1.00  0.00     0.186 HD
HETATM    6  C9  UNL     1      32.872  75.637  63.382  1.00  0.00     0.678 A 
HETATM    7  N4  UNL     1      31.810  76.047  62.673  1.00  0.00    -0.179 N 
ATOM      8  H4  UNL     1      31.196  75.344  62.260  1.00  0.00     0.185 HD
HETATM    9  C10 UNL     1      31.526  77.334  62.488  1.00  0.00     0.156 A 
HETATM   10 CL1  UNL     1      30.129  77.860  61.556  1.00  0.00    -0.061 Cl
HETATM   11  C11 UNL     1      32.348  78.325  63.040  1.00  0.00     0.185 A 
ENDROOT
BRANCH   1  12
HETATM   12  C7  UNL     1      34.634  79.957  64.546  1.00  0.00     0.086 C 
HETATM   13  C2  UNL     1      36.026  80.164  63.920  1.00  0.00     0.004 C 
HETATM   14  C1  UNL     1      35.941  79.994  62.425  1.00  0.00     0.012 C 
HETATM   15  C3  UNL     1      36.395  81.591  64.270  1.00  0.00     0.006 C 
HETATM   16  C4  UNL     1      36.855  81.544  65.714  1.00  0.00     0.001 C 
HETATM   17  C5  UNL     1      35.913  80.764  66.586  1.00  0.00     0.002 C 
HETATM   18  C6  UNL     1      34.622  80.414  65.976  1.00  0.00     0.025 C 
ENDBRANCH   1  12
BRANCH  11  19
HETATM   19  N5  UNL     1      32.005  79.685  62.812  1.00  0.00    -0.108 N 
HETATM   20  O1  UNL     1      31.142  80.248  63.501  1.00  0.00    -0.532 OA
HETATM   21  O2  UNL     1      32.595  80.400  61.806  1.00  0.00    -0.532 OA
ENDBRANCH  11  19
BRANCH   6  22
HETATM   22  N3  UNL     1      33.132  74.366  63.551  1.00  0.00    -0.234 N 
ATOM     23  H32 UNL     1      33.716  74.039  64.321  1.00  0.00     0.174 HD
ATOM     24  H31 UNL     1      32.758  73.662  62.915  1.00  0.00     0.174 HD
ENDBRANCH   6  22
TORSDOF 3
ENDMDL
MODEL 2
REMARK VINA RESULT: -5.877619138      3.201      6.836
REMARK  3 active torsions:
REMARK  status: ('A' for Active; 'I' for Inactive)
REMARK    1  A    between atoms: C7_7  and  N1_8 
REMARK    2  A    between atoms: C9_13  and  N3_14 
REMARK    3  A    between atoms: C11_21  and  N5_22 
ROOT
HETATM    1  N1  UNL     1      30.636  75.371  61.754  1.00  0.00    -0.369 N 
ATOM      2  H1  UNL     1      30.776  74.365  61.851  1.00  0.00     0.161 HD
HETATM    3  C8  UNL     1      31.519  75.933  62.393  1.00  0.00     0.153 A 
HETATM    4  N2  UNL     1      32.408  75.101  63.033  1.00  0.00    -0.175 N 
ATOM      5  H2  UNL     1      32.283  74.094  62.926  1.00  0.00     0.186 HD
HETATM    6  C9  UNL     1      33.420  75.527  63.782  1.00  0.00     0.678 A 
HETATM    7  N4  UNL     1      33.574  76.852  63.914  1.00  0.00    -0.179 N 
ATOM      8  H4  UNL     1      34.345  77.202  64.484  1.00  0.00     0.185 HD
HETATM    9  C10 UNL     1      32.762  77.730  63.329  1.00  0.00     0.156 A 
HETATM   10 CL1  UNL     1      32.974  79.468  63.510  1.00  0.00    -0.061 Cl
HETATM   11  C11 UNL     1      31.693  77.286  62.540  1.00  0.00     0.185 A 
ENDROOT
BRANCH   1  12
HETATM   12  C7  UNL     1      29.530  75.563  60.956  1.00  0.00     0.086 C 
HETATM   13  C2  UNL     1      28.288  75.237  61.808  1.00  0.00     0.004 C 
HETATM   14  C1  UNL     1      28.184  76.215  62.950  1.00  0.00     0.012 C 
HETATM   15  C3  UNL     1      27.119  75.405  60.861  1.00  0.00     0.006 C 
HETATM   16  C4  UNL     1      27.095  74.141  60.024  1.00  0.00     0.001 C 
HETATM   17  C5  UNL     1      28.456  73.781  59.499  1.00  0.00     0.002 C 
HETATM   18  C6  UNL     1      29.492  74.813  59.657  1.00  0.00     0.025 C 
ENDBRANCH   1  12
BRANCH  11  19
HETATM   19  N5  UNL     1      30.852  78.260  61.940  1.00  0.00    -0.108 N 
HETATM   20  O1  UNL     1      30.942  78.523  60.731  1.00  0.00    -0.532 OA
HETATM   21  O2  UNL     1      29.940  78.958  62.684  1.00  0.00    -0.532 OA
ENDBRANCH  11  19
BRANCH   6  22
HETATM   22  N3  UNL     1      34.231  74.683  64.366  1.00  0.00    -0.234 N 
ATOM     23  H32 UNL     1      33.913  73.762  64.670  1.00  0.00     0.174 HD
ATOM     24  H31 UNL     1      35.208  74.921  64.534  1.00  0.00     0.174 HD
ENDBRANCH   6  22
TORSDOF 3
ENDMDL
MODEL 3
REMARK VINA RESULT: -5.792988821      2.739      6.190
REMARK  3 active torsions:
REMARK  status: ('A' for Active; 'I' for Inactive)
REMARK    1  A    between atoms: C7_7  and  N1_8 
REMARK    2  A    between atoms: C9_13  and  N3_14 
REMARK    3  A    between atoms: C11_21  and  N5_22 
ROOT
HETATM    1  N1  UNL     1      30.957  76.111  62.605  1.00  0.00    -0.369 N 
ATOM      2  H1  UNL     1      30.911  75.096  62.695  1.00  0.00     0.161 HD
HETATM    3  C8  UNL     1      32.002  76.484  63.127  1.00  0.00     0.153 A 
HETATM    4  N2  UNL     1      32.785  75.488  63.662  1.00  0.00    -0.175 N 
ATOM      5  H2  UNL     1      32.457  74.526  63.581  1.00  0.00     0.186 HD
HETATM    6  C9  UNL     1      33.943  75.701  64.279  1.00  0.00     0.678 A 
HETATM    7  N4  UNL     1      34.364  76.970  64.378  1.00  0.00    -0.179 N 
ATOM      8  H4  UNL     1      35.251  77.157  64.847  1.00  0.00     0.185 HD
HETATM    9  C10 UNL     1      33.671  77.996  63.888  1.00  0.00     0.156 A 
HETATM   10 CL1  UNL     1      34.235  79.658  64.025  1.00  0.00    -0.061 Cl
HETATM   11  C11 UNL     1      32.450  77.776  63.238  1.00  0.00     0.185 A 
ENDROOT
BRANCH   1  12
HETATM   12  C7  UNL     1      29.820  76.524  61.945  1.00  0.00     0.086 C 
HETATM   13  C2  UNL     1      28.775  75.400  62.086  1.00  0.00     0.004 C 
HETATM   14  C1  UNL     1      28.406  75.228  63.537  1.00  0.00     0.012 C 
HETATM   15  C3  UNL     1      27.582  75.885  61.291  1.00  0.00     0.006 C 
HETATM   16  C4  UNL     1      27.931  75.621  59.839  1.00  0.00     0.001 C 
HETATM   17  C5  UNL     1      29.318  76.086  59.495  1.00  0.00     0.002 C 
HETATM   18  C6  UNL     1      29.978  76.923  60.507  1.00  0.00     0.025 C 
ENDBRANCH   1  12
BRANCH  11  19
HETATM   19  N5  UNL     1      31.745  78.903  62.735  1.00  0.00    -0.108 N 
HETATM   20  O1  UNL     1      30.775  79.371  63.348  1.00  0.00    -0.532 OA
HETATM   21  O2  UNL     1      32.098  79.482  61.548  1.00  0.00    -0.532 OA
ENDBRANCH  11  19
BRANCH   6  22
HETATM   22  N3  UNL     1      34.641  74.709  64.768  1.00  0.00    -0.234 N 
ATOM     23  H32 UNL     1      34.235  73.780  64.890  1.00  0.00     0.174 HD
ATOM     24  H31 UNL     1      35.615  74.835  65.044  1.00  0.00     0.174 HD
ENDBRANCH   6  22
TORSDOF 3
ENDMDL
MODEL 4
REMARK VINA RESULT: -5.771695231      2.156      3.545
REMARK  3 active torsions:
REMARK  status: ('A' for Active; 'I' for Inactive)
REMARK    1  A    between atoms: C7_7  and  N1_8 
REMARK    2  A    between atoms: C9_13  and  N3_14 
REMARK    3  A    between atoms: C11_21  and  N5_22 
ROOT
HETATM    1  N1  UNL     1      33.005  79.571  63.348  1.00  0.00    -0.369 N 
ATOM      2  H1  UNL     1      32.957  80.439  63.882  1.00  0.00     0.161 HD
HETATM    3  C8  UNL     1      31.855  79.212  63.117  1.00  0.00     0.153 A 
HETATM    4  N2  UNL     1      30.868  80.030  63.615  1.00  0.00    -0.175 N 
ATOM      5  H2  UNL     1      31.152  80.869  64.121  1.00  0.00     0.186 HD
HETATM    6  C9  UNL     1      29.567  79.797  63.477  1.00  0.00     0.678 A 
HETATM    7  N4  UNL     1      29.206  78.692  62.808  1.00  0.00    -0.179 N 
ATOM      8  H4  UNL     1      28.213  78.492  62.690  1.00  0.00     0.185 HD
HETATM    9  C10 UNL     1      30.095  77.845  62.293  1.00  0.00     0.156 A 
HETATM   10 CL1  UNL     1      29.609  76.397  61.418  1.00  0.00    -0.061 Cl
HETATM   11  C11 UNL     1      31.467  78.086  62.436  1.00  0.00     0.185 A 
ENDROOT
BRANCH   1  12
HETATM   12  C7  UNL     1      34.336  79.264  63.169  1.00  0.00     0.086 C 
HETATM   13  C2  UNL     1      34.893  78.826  64.537  1.00  0.00     0.004 C 
HETATM   14  C1  UNL     1      34.204  77.562  64.985  1.00  0.00     0.012 C 
HETATM   15  C3  UNL     1      36.363  78.566  64.287  1.00  0.00     0.006 C 
HETATM   16  C4  UNL     1      37.015  79.935  64.261  1.00  0.00     0.001 C 
HETATM   17  C5  UNL     1      36.255  80.910  63.406  1.00  0.00     0.002 C 
HETATM   18  C6  UNL     1      35.202  80.329  62.561  1.00  0.00     0.025 C 
ENDBRANCH   1  12
BRANCH  11  19
HETATM   19  N5  UNL     1      32.375  77.151  61.872  1.00  0.00    -0.108 N 
HETATM   20  O1  UNL     1      32.928  77.377  60.785  1.00  0.00    -0.532 OA
HETATM   21  O2  UNL     1      32.642  75.964  62.495  1.00  0.00    -0.532 OA
ENDBRANCH  11  19
BRANCH   6  22
HETATM   22  N3  UNL     1      28.676  80.615  63.975  1.00  0.00    -0.234 N 
ATOM     23  H32 UNL     1      28.692  80.885  64.960  1.00  0.00     0.174 HD
ATOM     24  H31 UNL     1      27.937  81.009  63.393  1.00  0.00     0.174 HD
ENDBRANCH   6  22
TORSDOF 3
ENDMDL
MODEL 5
REMARK VINA RESULT: -5.675690246      2.173      3.422
REMARK  3 active torsions:
REMARK  status: ('A' for Active; 'I' for Inactive)
REMARK    1  A    between atoms: C7_7  and  N1_8 
REMARK    2  A    between atoms: C9_13  and  N3_14 
REMARK    3  A    between atoms: C11_21  and  N5_22 
ROOT
HETATM    1  N1  UNL     1      32.275  77.222  63.147  1.00  0.00    -0.369 N 
ATOM      2  H1  UNL     1      32.004  76.757  64.014  1.00  0.00     0.161 HD
HETATM    3  C8  UNL     1      31.338  77.120  62.362  1.00  0.00     0.153 A 
HETATM    4  N2  UNL     1      30.238  76.444  62.836  1.00  0.00    -0.175 N 
ATOM      5  H2  UNL     1      30.271  76.090  63.793  1.00  0.00     0.186 HD
HETATM    6  C9  UNL     1      29.137  76.222  62.127  1.00  0.00     0.678 A 
HETATM    7  N4  UNL     1      29.106  76.693  60.872  1.00  0.00    -0.179 N 
ATOM      8  H4  UNL     1      28.270  76.535  60.309  1.00  0.00     0.185 HD
HETATM    9  C10 UNL     1      30.125  77.360  60.332  1.00  0.00     0.156 A 
HETATM   10 CL1  UNL     1      30.073  77.973  58.683  1.00  0.00    -0.061 Cl
HETATM   11  C11 UNL     1      31.288  77.595  61.076  1.00  0.00     0.185 A 
ENDROOT
BRANCH   1  12
HETATM   12  C7  UNL     1      33.549  77.717  63.318  1.00  0.00     0.086 C 
HETATM   13  C2  UNL     1      34.059  77.209  64.681  1.00  0.00     0.004 C 
HETATM   14  C1  UNL     1      34.169  75.706  64.653  1.00  0.00     0.012 C 
HETATM   15  C3  UNL     1      35.428  77.836  64.836  1.00  0.00     0.006 C 
HETATM   16  C4  UNL     1      35.168  79.267  65.267  1.00  0.00     0.001 C 
HETATM   17  C5  UNL     1      34.114  79.931  64.427  1.00  0.00     0.002 C 
HETATM   18  C6  UNL     1      33.718  79.205  63.211  1.00  0.00     0.025 C 
ENDBRANCH   1  12
BRANCH  11  19
HETATM   19  N5  UNL     1      32.349  78.307  60.454  1.00  0.00    -0.108 N 
HETATM   20  O1  UNL     1      32.305  79.541  60.339  1.00  0.00    -0.532 OA
HETATM   21  O2  UNL     1      33.432  77.650  59.940  1.00  0.00    -0.532 OA
ENDBRANCH  11  19
BRANCH   6  22
HETATM   22  N3  UNL     1      28.124  75.570  62.637  1.00  0.00    -0.234 N 
ATOM     23  H32 UNL     1      27.512  75.996  63.334  1.00  0.00     0.174 HD
ATOM     24  H31 UNL     1      27.916  74.613  62.353  1.00  0.00     0.174 HD
ENDBRANCH   6  22
TORSDOF 3
ENDMDL
