MODEL 1
REMARK VINA RESULT: -8.089085638      0.000      0.000
REMARK  4 active torsions:
REMARK  status: ('A' for Active; 'I' for Inactive)
REMARK    1  A    between atoms: C4_4  and  N1_5 
REMARK    2  A    between atoms: C5_10  and  S1_11 
REMARK    3  A    between atoms: S1_11  and  C6_12 
REMARK    4  A    between atoms: C6_12  and  C7_13 
ROOT
HETATM    1  S1  UNL     1      30.631  75.774  61.010  1.00  0.00    -0.086 SA
ENDROOT
BRANCH   1   2
HETATM    2  C5  UNL     1      29.037  75.138  60.513  1.00  0.00     0.146 A 
HETATM    3  N2  UNL     1      27.905  75.816  60.769  1.00  0.00    -0.323 N 
HETATM    4  C4  UNL     1      26.688  75.358  60.404  1.00  0.00     0.102 A 
ATOM      5  H2  UNL     1      27.967  76.710  61.256  1.00  0.00     0.169 HD
HETATM    6  C3  UNL     1      26.648  74.148  59.749  1.00  0.00     0.072 A 
HETATM    7  C2  UNL     1      27.812  73.444  59.482  1.00  0.00     0.011 A 
HETATM    8  C1  UNL     1      27.725  72.135  58.771  1.00  0.00     0.068 C 
HETATM    9  N5  UNL     1      29.003  73.955  59.873  1.00  0.00    -0.341 N 
ATOM     10  H5  UNL     1      29.868  73.448  59.685  1.00  0.00     0.167 HD
BRANCH   4  11
HETATM   11  N1  UNL     1      25.608  76.033  60.662  1.00  0.00    -0.385 N 
ATOM     12  H12 UNL     1      25.004  75.787  61.447  1.00  0.00     0.157 HD
ATOM     13  H11 UNL     1      25.323  76.830  60.092  1.00  0.00     0.157 HD
ENDBRANCH   4  11
ENDBRANCH   1   2
BRANCH   1  14
HETATM   14  C6  UNL     1      30.526  77.548  61.382  1.00  0.00     0.158 C 
BRANCH  14  15
HETATM   15  C7  UNL     1      31.800  78.011  62.039  1.00  0.00     0.091 A 
HETATM   16  N3  UNL     1      32.561  79.048  61.649  1.00  0.00    -0.347 N 
HETATM   17  C8  UNL     1      33.626  79.169  62.462  1.00  0.00     0.036 A 
ATOM     18  H3  UNL     1      32.360  79.654  60.854  1.00  0.00     0.167 HD
HETATM   19  C9  UNL     1      33.509  78.159  63.390  1.00  0.00     0.067 A 
HETATM   20  C13 UNL     1      34.769  80.141  62.473  1.00  0.00     0.059 C 
HETATM   21  N4  UNL     1      32.403  77.480  63.109  1.00  0.00    -0.345 N 
HETATM   22  C10 UNL     1      34.561  78.006  64.467  1.00  0.00     0.221 C 
ATOM     23  H4  UNL     1      32.063  76.673  63.633  1.00  0.00     0.167 HD
HETATM   24  F1  UNL     1      34.013  77.272  65.483  1.00  0.00    -0.243 F 
HETATM   25  C11 UNL     1      34.889  79.422  64.893  1.00  0.00     0.044 C 
HETATM   26  C12 UNL     1      35.549  80.099  63.738  1.00  0.00     0.009 C 
ENDBRANCH  14  15
ENDBRANCH   1  14
TORSDOF 4
ENDMDL
MODEL 2
REMARK VINA RESULT: -7.732953381      2.927      8.527
REMARK  4 active torsions:
REMARK  status: ('A' for Active; 'I' for Inactive)
REMARK    1  A    between atoms: C4_4  and  N1_5 
REMARK    2  A    between atoms: C5_10  and  S1_11 
REMARK    3  A    between atoms: S1_11  and  C6_12 
REMARK    4  A    between atoms: C6_12  and  C7_13 
ROOT
HETATM    1  S1  UNL     1      32.397  78.941  62.391  1.00  0.00    -0.086 SA
ENDROOT
BRANCH   1   2
HETATM    2  C5  UNL     1      34.007  79.465  62.957  1.00  0.00     0.146 A 
HETATM    3  N2  UNL     1      35.063  79.497  62.125  1.00  0.00    -0.323 N 
HETATM    4  C4  UNL     1      36.291  79.890  62.527  1.00  0.00     0.102 A 
ATOM      5  H2  UNL     1      34.932  79.213  61.155  1.00  0.00     0.169 HD
HETATM    6  C3  UNL     1      36.426  80.264  63.845  1.00  0.00     0.072 A 
HETATM    7  C2  UNL     1      35.341  80.234  64.708  1.00  0.00     0.011 A 
HETATM    8  C1  UNL     1      35.529  80.647  66.130  1.00  0.00     0.068 C 
HETATM    9  N5  UNL     1      34.134  79.830  64.246  1.00  0.00    -0.341 N 
ATOM     10  H5  UNL     1      33.327  79.802  64.870  1.00  0.00     0.167 HD
BRANCH   4  11
HETATM   11  N1  UNL     1      37.296  79.911  61.703  1.00  0.00    -0.385 N 
ATOM     12  H12 UNL     1      38.253  80.027  62.038  1.00  0.00     0.157 HD
ATOM     13  H11 UNL     1      37.167  79.815  60.696  1.00  0.00     0.157 HD
ENDBRANCH   4  11
ENDBRANCH   1   2
BRANCH   1  14
HETATM   14  C6  UNL     1      32.534  77.462  61.346  1.00  0.00     0.158 C 
BRANCH  14  15
HETATM   15  C7  UNL     1      31.215  76.734  61.311  1.00  0.00     0.091 A 
HETATM   16  N3  UNL     1      30.217  76.861  62.202  1.00  0.00    -0.347 N 
HETATM   17  C8  UNL     1      29.192  76.058  61.863  1.00  0.00     0.036 A 
ATOM     18  H3  UNL     1      30.234  77.476  63.015  1.00  0.00     0.167 HD
HETATM   19  C9  UNL     1      29.584  75.411  60.713  1.00  0.00     0.067 A 
HETATM   20  C13 UNL     1      27.857  75.816  62.504  1.00  0.00     0.059 C 
HETATM   21  N4  UNL     1      30.804  75.838  60.406  1.00  0.00    -0.345 N 
HETATM   22  C10 UNL     1      28.651  74.418  60.056  1.00  0.00     0.221 C 
ATOM     23  H4  UNL     1      31.347  75.528  59.600  1.00  0.00     0.167 HD
HETATM   24  F1  UNL     1      29.048  74.268  58.756  1.00  0.00    -0.243 F 
HETATM   25  C11 UNL     1      27.277  75.044  60.169  1.00  0.00     0.044 C 
HETATM   26  C12 UNL     1      26.915  75.084  61.617  1.00  0.00     0.009 C 
ENDBRANCH  14  15
ENDBRANCH   1  14
TORSDOF 4
ENDMDL
MODEL 3
REMARK VINA RESULT: -7.639446558      2.706      8.182
REMARK  4 active torsions:
REMARK  status: ('A' for Active; 'I' for Inactive)
REMARK    1  A    between atoms: C4_4  and  N1_5 
REMARK    2  A    between atoms: C5_10  and  S1_11 
REMARK    3  A    between atoms: S1_11  and  C6_12 
REMARK    4  A    between atoms: C6_12  and  C7_13 
ROOT
HETATM    1  S1  UNL     1      30.764  78.161  62.465  1.00  0.00    -0.086 SA
ENDROOT
BRANCH   1   2
HETATM    2  C5  UNL     1      32.284  77.837  63.345  1.00  0.00     0.146 A 
HETATM    3  N2  UNL     1      32.695  76.581  63.588  1.00  0.00    -0.323 N 
HETATM    4  C4  UNL     1      33.840  76.308  64.251  1.00  0.00     0.102 A 
ATOM      5  H2  UNL     1      32.121  75.804  63.261  1.00  0.00     0.169 HD
HETATM    6  C3  UNL     1      34.586  77.385  64.676  1.00  0.00     0.072 A 
HETATM    7  C2  UNL     1      34.167  78.683  64.428  1.00  0.00     0.011 A 
HETATM    8  C1  UNL     1      35.004  79.822  64.907  1.00  0.00     0.068 C 
HETATM    9  N5  UNL     1      33.009  78.892  63.758  1.00  0.00    -0.341 N 
ATOM     10  H5  UNL     1      32.688  79.842  63.570  1.00  0.00     0.167 HD
BRANCH   4  11
HETATM   11  N1  UNL     1      34.216  75.085  64.474  1.00  0.00    -0.385 N 
ATOM     12  H12 UNL     1      35.162  74.871  64.793  1.00  0.00     0.157 HD
ATOM     13  H11 UNL     1      33.584  74.295  64.339  1.00  0.00     0.157 HD
ENDBRANCH   4  11
ENDBRANCH   1   2
BRANCH   1  14
HETATM   14  C6  UNL     1      30.802  77.401  60.816  1.00  0.00     0.158 C 
BRANCH  14  15
HETATM   15  C7  UNL     1      29.678  76.408  60.683  1.00  0.00     0.091 A 
HETATM   16  N3  UNL     1      28.522  76.422  61.369  1.00  0.00    -0.347 N 
HETATM   17  C8  UNL     1      27.753  75.382  60.999  1.00  0.00     0.036 A 
ATOM     18  H3  UNL     1      28.266  77.120  62.067  1.00  0.00     0.167 HD
HETATM   19  C9  UNL     1      28.474  74.702  60.044  1.00  0.00     0.067 A 
HETATM   20  C13 UNL     1      26.392  74.937  61.444  1.00  0.00     0.059 C 
HETATM   21  N4  UNL     1      29.626  75.341  59.876  1.00  0.00    -0.345 N 
HETATM   22  C10 UNL     1      27.890  73.458  59.409  1.00  0.00     0.221 C 
ATOM     23  H4  UNL     1      30.362  75.061  59.227  1.00  0.00     0.167 HD
HETATM   24  F1  UNL     1      28.549  73.243  58.230  1.00  0.00    -0.243 F 
HETATM   25  C11 UNL     1      26.426  73.782  59.198  1.00  0.00     0.044 C 
HETATM   26  C12 UNL     1      25.794  73.917  60.544  1.00  0.00     0.009 C 
ENDBRANCH  14  15
ENDBRANCH   1  14
TORSDOF 4
ENDMDL
MODEL 4
REMARK VINA RESULT: -7.625530537      2.930      8.529
REMARK  4 active torsions:
REMARK  status: ('A' for Active; 'I' for Inactive)
REMARK    1  A    between atoms: C4_4  and  N1_5 
REMARK    2  A    between atoms: C5_10  and  S1_11 
REMARK    3  A    between atoms: S1_11  and  C6_12 
REMARK    4  A    between atoms: C6_12  and  C7_13 
ROOT
HETATM    1  S1  UNL     1      32.780  78.663  63.633  1.00  0.00    -0.086 SA
ENDROOT
BRANCH   1   2
HETATM    2  C5  UNL     1      34.422  79.348  63.793  1.00  0.00     0.146 A 
HETATM    3  N2  UNL     1      35.277  79.360  62.756  1.00  0.00    -0.323 N 
HETATM    4  C4  UNL     1      36.523  79.873  62.850  1.00  0.00     0.102 A 
ATOM      5  H2  UNL     1      34.974  78.968  61.865  1.00  0.00     0.169 HD
HETATM    6  C3  UNL     1      36.893  80.392  64.071  1.00  0.00     0.072 A 
HETATM    7  C2  UNL     1      36.016  80.383  65.143  1.00  0.00     0.011 A 
HETATM    8  C1  UNL     1      36.456  80.955  66.450  1.00  0.00     0.068 C 
HETATM    9  N5  UNL     1      34.779  79.855  64.987  1.00  0.00    -0.341 N 
ATOM     10  H5  UNL     1      34.123  79.841  65.769  1.00  0.00     0.167 HD
BRANCH   4  11
HETATM   11  N1  UNL     1      37.332  79.873  61.833  1.00  0.00    -0.385 N 
ATOM     12  H12 UNL     1      38.041  79.148  61.720  1.00  0.00     0.157 HD
ATOM     13  H11 UNL     1      37.289  80.594  61.113  1.00  0.00     0.157 HD
ENDBRANCH   4  11
ENDBRANCH   1   2
BRANCH   1  14
HETATM   14  C6  UNL     1      32.843  77.024  62.854  1.00  0.00     0.158 C 
BRANCH  14  15
HETATM   15  C7  UNL     1      31.503  76.691  62.251  1.00  0.00     0.091 A 
HETATM   16  N3  UNL     1      31.172  76.791  60.952  1.00  0.00    -0.347 N 
HETATM   17  C8  UNL     1      29.893  76.416  60.772  1.00  0.00     0.036 A 
ATOM     18  H3  UNL     1      31.799  77.105  60.212  1.00  0.00     0.167 HD
HETATM   19  C9  UNL     1      29.422  76.072  62.019  1.00  0.00     0.067 A 
HETATM   20  C13 UNL     1      29.036  76.341  59.543  1.00  0.00     0.059 C 
HETATM   21  N4  UNL     1      30.412  76.248  62.887  1.00  0.00    -0.345 N 
HETATM   22  C10 UNL     1      27.993  75.599  62.177  1.00  0.00     0.221 C 
ATOM     23  H4  UNL     1      30.350  76.072  63.890  1.00  0.00     0.167 HD
HETATM   24  F1  UNL     1      27.908  74.914  63.358  1.00  0.00    -0.243 F 
HETATM   25  C11 UNL     1      27.745  74.710  60.977  1.00  0.00     0.044 C 
HETATM   26  C12 UNL     1      27.782  75.573  59.759  1.00  0.00     0.009 C 
ENDBRANCH  14  15
ENDBRANCH   1  14
TORSDOF 4
ENDMDL
MODEL 5
REMARK VINA RESULT: -7.568604460      2.642      8.189
REMARK  4 active torsions:
REMARK  status: ('A' for Active; 'I' for Inactive)
REMARK    1  A    between atoms: C4_4  and  N1_5 
REMARK    2  A    between atoms: C5_10  and  S1_11 
REMARK    3  A    between atoms: S1_11  and  C6_12 
REMARK    4  A    between atoms: C6_12  and  C7_13 
ROOT
HETATM    1  S1  UNL     1      30.715  77.795  62.343  1.00  0.00    -0.086 SA
ENDROOT
BRANCH   1   2
HETATM    2  C5  UNL     1      32.221  77.561  63.274  1.00  0.00     0.146 A 
HETATM    3  N2  UNL     1      32.681  76.330  63.559  1.00  0.00    -0.323 N 
HETATM    4  C4  UNL     1      33.816  76.125  64.261  1.00  0.00     0.102 A 
ATOM      5  H2  UNL     1      32.152  75.521  63.235  1.00  0.00     0.169 HD
HETATM    6  C3  UNL     1      34.500  77.244  64.682  1.00  0.00     0.072 A 
HETATM    7  C2  UNL     1      34.032  78.515  64.390  1.00  0.00     0.011 A 
HETATM    8  C1  UNL     1      34.802  79.702  64.866  1.00  0.00     0.068 C 
HETATM    9  N5  UNL     1      32.886  78.657  63.683  1.00  0.00    -0.341 N 
ATOM     10  H5  UNL     1      32.529  79.587  63.462  1.00  0.00     0.167 HD
BRANCH   4  11
HETATM   11  N1  UNL     1      34.240  74.925  64.524  1.00  0.00    -0.385 N 
ATOM     12  H12 UNL     1      35.228  74.682  64.446  1.00  0.00     0.157 HD
ATOM     13  H11 UNL     1      33.604  74.183  64.817  1.00  0.00     0.157 HD
ENDBRANCH   4  11
ENDBRANCH   1   2
BRANCH   1  14
HETATM   14  C6  UNL     1      30.895  77.145  60.657  1.00  0.00     0.158 C 
BRANCH  14  15
HETATM   15  C7  UNL     1      29.755  76.211  60.344  1.00  0.00     0.091 A 
HETATM   16  N3  UNL     1      29.865  74.930  59.955  1.00  0.00    -0.347 N 
HETATM   17  C8  UNL     1      28.644  74.401  59.758  1.00  0.00     0.036 A 
ATOM     18  H3  UNL     1      30.746  74.431  59.828  1.00  0.00     0.167 HD
HETATM   19  C9  UNL     1      27.748  75.407  60.039  1.00  0.00     0.067 A 
HETATM   20  C13 UNL     1      28.204  73.033  59.326  1.00  0.00     0.059 C 
HETATM   21  N4  UNL     1      28.445  76.483  60.388  1.00  0.00    -0.345 N 
HETATM   22  C10 UNL     1      26.263  75.145  59.914  1.00  0.00     0.221 C 
ATOM     23  H4  UNL     1      28.042  77.382  60.651  1.00  0.00     0.167 HD
HETATM   24  F1  UNL     1      25.608  76.093  60.652  1.00  0.00    -0.243 F 
HETATM   25  C11 UNL     1      26.067  73.749  60.468  1.00  0.00     0.044 C 
HETATM   26  C12 UNL     1      26.753  72.796  59.545  1.00  0.00     0.009 C 
ENDBRANCH  14  15
ENDBRANCH   1  14
TORSDOF 4
ENDMDL
