MODEL 1
REMARK VINA RESULT: -7.732854846      0.000      0.000
REMARK  4 active torsions:
REMARK  status: ('A' for Active; 'I' for Inactive)
REMARK    1  A    between atoms: N1_1  and  C1_4 
REMARK    2  A    between atoms: N4_14  and  C5_15 
REMARK    3  A    between atoms: C5_15  and  C6_16 
REMARK    4  A    between atoms: C6_16  and  C7_17 
ROOT
HETATM    1  C1  UNL     1      30.633  77.248  60.509  1.00  0.00     0.680 A 
HETATM    2  N2  UNL     1      30.674  75.903  60.468  1.00  0.00    -0.154 N 
ATOM      3  H2  UNL     1      30.162  75.412  59.736  1.00  0.00     0.187 HD
HETATM    4  C2  UNL     1      31.376  75.193  61.372  1.00  0.00     0.290 A 
HETATM    5  O1  UNL     1      31.409  73.935  61.326  1.00  0.00    -0.265 OA
HETATM    6  C3  UNL     1      32.049  75.912  62.341  1.00  0.00     0.149 A 
HETATM    7  N3  UNL     1      32.829  75.527  63.374  1.00  0.00    -0.325 N 
ATOM      8  H3  UNL     1      33.061  74.564  63.620  1.00  0.00     0.168 HD
HETATM    9  C4  UNL     1      33.247  76.626  64.023  1.00  0.00     0.183 A 
HETATM   10 CL1  UNL     1      34.277  76.596  65.423  1.00  0.00    -0.044 Cl
HETATM   11  N4  UNL     1      32.759  77.736  63.440  1.00  0.00    -0.307 N 
HETATM   12  C12 UNL     1      32.016  77.289  62.396  1.00  0.00     0.158 A 
HETATM   13  N5  UNL     1      31.295  77.929  61.460  1.00  0.00    -0.174 N 
ATOM     14  H5  UNL     1      31.250  78.948  61.471  1.00  0.00     0.186 HD
ENDROOT
BRANCH  11  15
HETATM   15  C5  UNL     1      32.950  79.126  63.800  1.00  0.00     0.133 C 
BRANCH  15  16
HETATM   16  C6  UNL     1      34.291  79.643  63.324  1.00  0.00     0.025 C 
BRANCH  16  17
HETATM   17  C7  UNL     1      35.281  79.559  64.459  1.00  0.00    -0.013 C 
HETATM   18  C8  UNL     1      34.892  80.435  65.613  1.00  0.00     0.005 C 
HETATM   19  C9  UNL     1      36.147  81.068  66.135  1.00  0.00     0.000 C 
HETATM   20  C10 UNL     1      37.243  80.814  65.142  1.00  0.00     0.000 C 
HETATM   21  C11 UNL     1      36.661  79.979  64.049  1.00  0.00     0.005 C 
ENDBRANCH  16  17
ENDBRANCH  15  16
ENDBRANCH  11  15
BRANCH   1  22
HETATM   22  N1  UNL     1      29.954  77.885  59.632  1.00  0.00    -0.234 N 
ATOM     23  H12 UNL     1      29.440  77.367  58.918  1.00  0.00     0.174 HD
ATOM     24  H11 UNL     1      29.934  78.904  59.654  1.00  0.00     0.174 HD
ENDBRANCH   1  22
TORSDOF 4
ENDMDL
MODEL 2
REMARK VINA RESULT: -7.393279991      1.056      1.078
REMARK  4 active torsions:
REMARK  status: ('A' for Active; 'I' for Inactive)
REMARK    1  A    between atoms: N1_1  and  C1_4 
REMARK    2  A    between atoms: N4_14  and  C5_15 
REMARK    3  A    between atoms: C5_15  and  C6_16 
REMARK    4  A    between atoms: C6_16  and  C7_17 
ROOT
HETATM    1  C1  UNL     1      30.366  77.539  60.297  1.00  0.00     0.680 A 
HETATM    2  N2  UNL     1      29.549  76.606  60.820  1.00  0.00    -0.154 N 
ATOM      3  H2  UNL     1      28.696  76.356  60.321  1.00  0.00     0.187 HD
HETATM    4  C2  UNL     1      29.833  75.996  61.987  1.00  0.00     0.290 A 
HETATM    5  O1  UNL     1      29.063  75.125  62.469  1.00  0.00    -0.265 OA
HETATM    6  C3  UNL     1      31.003  76.376  62.619  1.00  0.00     0.149 A 
HETATM    7  N3  UNL     1      31.577  75.976  63.773  1.00  0.00    -0.325 N 
ATOM      8  H3  UNL     1      31.205  75.273  64.412  1.00  0.00     0.168 HD
HETATM    9  C4  UNL     1      32.720  76.661  63.938  1.00  0.00     0.183 A 
HETATM   10 CL1  UNL     1      33.786  76.463  65.297  1.00  0.00    -0.044 Cl
HETATM   11  N4  UNL     1      32.918  77.509  62.912  1.00  0.00    -0.307 N 
HETATM   12  C12 UNL     1      31.849  77.329  62.095  1.00  0.00     0.158 A 
HETATM   13  N5  UNL     1      31.499  77.894  60.927  1.00  0.00    -0.174 N 
ATOM     14  H5  UNL     1      32.104  78.603  60.512  1.00  0.00     0.186 HD
ENDROOT
BRANCH  11  15
HETATM   15  C5  UNL     1      34.008  78.433  62.677  1.00  0.00     0.133 C 
BRANCH  15  16
HETATM   16  C6  UNL     1      33.952  79.608  63.631  1.00  0.00     0.025 C 
BRANCH  16  17
HETATM   17  C7  UNL     1      35.087  79.493  64.618  1.00  0.00    -0.013 C 
HETATM   18  C8  UNL     1      34.956  80.474  65.746  1.00  0.00     0.005 C 
HETATM   19  C9  UNL     1      36.328  81.006  66.035  1.00  0.00     0.000 C 
HETATM   20  C10 UNL     1      37.237  80.580  64.920  1.00  0.00     0.000 C 
HETATM   21  C11 UNL     1      36.424  79.743  63.986  1.00  0.00     0.005 C 
ENDBRANCH  16  17
ENDBRANCH  15  16
ENDBRANCH  11  15
BRANCH   1  22
HETATM   22  N1  UNL     1      30.060  78.095  59.186  1.00  0.00    -0.234 N 
ATOM     23  H12 UNL     1      29.520  77.574  58.494  1.00  0.00     0.174 HD
ATOM     24  H11 UNL     1      30.358  79.052  59.004  1.00  0.00     0.174 HD
ENDBRANCH   1  22
TORSDOF 4
ENDMDL
MODEL 3
REMARK VINA RESULT: -7.255514095      3.345      7.431
REMARK  4 active torsions:
REMARK  status: ('A' for Active; 'I' for Inactive)
REMARK    1  A    between atoms: N1_1  and  C1_4 
REMARK    2  A    between atoms: N4_14  and  C5_15 
REMARK    3  A    between atoms: C5_15  and  C6_16 
REMARK    4  A    between atoms: C6_16  and  C7_17 
ROOT
HETATM    1  C1  UNL     1      33.699  76.102  64.226  1.00  0.00     0.680 A 
HETATM    2  N2  UNL     1      34.208  77.347  64.187  1.00  0.00    -0.154 N 
ATOM      3  H2  UNL     1      34.934  77.610  64.853  1.00  0.00     0.187 HD
HETATM    4  C2  UNL     1      33.780  78.255  63.288  1.00  0.00     0.290 A 
HETATM    5  O1  UNL     1      34.261  79.418  63.259  1.00  0.00    -0.265 OA
HETATM    6  C3  UNL     1      32.795  77.844  62.410  1.00  0.00     0.149 A 
HETATM    7  N3  UNL     1      32.155  78.481  61.407  1.00  0.00    -0.325 N 
ATOM      8  H3  UNL     1      32.312  79.447  61.117  1.00  0.00     0.168 HD
HETATM    9  C4  UNL     1      31.275  77.629  60.856  1.00  0.00     0.183 A 
HETATM   10 CL1  UNL     1      30.232  78.034  59.525  1.00  0.00    -0.044 Cl
HETATM   11  N4  UNL     1      31.320  76.435  61.473  1.00  0.00    -0.307 N 
HETATM   12  C12 UNL     1      32.264  76.571  62.438  1.00  0.00     0.158 A 
HETATM   13  N5  UNL     1      32.741  75.722  63.363  1.00  0.00    -0.174 N 
ATOM     14  H5  UNL     1      32.371  74.773  63.411  1.00  0.00     0.186 HD
ENDROOT
BRANCH  11  15
HETATM   15  C5  UNL     1      30.554  75.233  61.213  1.00  0.00     0.133 C 
BRANCH  15  16
HETATM   16  C6  UNL     1      29.103  75.404  61.611  1.00  0.00     0.025 C 
BRANCH  16  17
HETATM   17  C7  UNL     1      28.237  75.257  60.385  1.00  0.00    -0.013 C 
HETATM   18  C8  UNL     1      26.775  75.318  60.716  1.00  0.00     0.005 C 
HETATM   19  C9  UNL     1      26.084  74.286  59.875  1.00  0.00     0.000 C 
HETATM   20  C10 UNL     1      27.135  73.412  59.255  1.00  0.00     0.000 C 
HETATM   21  C11 UNL     1      28.461  73.953  59.678  1.00  0.00     0.005 C 
ENDBRANCH  16  17
ENDBRANCH  15  16
ENDBRANCH  11  15
BRANCH   1  22
HETATM   22  N1  UNL     1      34.133  75.271  65.096  1.00  0.00    -0.234 N 
ATOM     23  H12 UNL     1      34.746  74.509  64.804  1.00  0.00     0.174 HD
ATOM     24  H11 UNL     1      33.862  75.378  66.073  1.00  0.00     0.174 HD
ENDBRANCH   1  22
TORSDOF 4
ENDMDL
MODEL 4
REMARK VINA RESULT: -7.225011668      1.117      1.477
REMARK  4 active torsions:
REMARK  status: ('A' for Active; 'I' for Inactive)
REMARK    1  A    between atoms: N1_1  and  C1_4 
REMARK    2  A    between atoms: N4_14  and  C5_15 
REMARK    3  A    between atoms: C5_15  and  C6_16 
REMARK    4  A    between atoms: C6_16  and  C7_17 
ROOT
HETATM    1  C1  UNL     1      32.030  78.055  60.492  1.00  0.00     0.680 A 
HETATM    2  N2  UNL     1      31.273  76.945  60.411  1.00  0.00    -0.154 N 
ATOM      3  H2  UNL     1      30.636  76.834  59.622  1.00  0.00     0.187 HD
HETATM    4  C2  UNL     1      31.338  75.979  61.347  1.00  0.00     0.290 A 
HETATM    5  O1  UNL     1      30.626  74.944  61.262  1.00  0.00    -0.265 OA
HETATM    6  C3  UNL     1      32.218  76.184  62.393  1.00  0.00     0.149 A 
HETATM    7  N3  UNL     1      32.526  75.437  63.474  1.00  0.00    -0.325 N 
ATOM      8  H3  UNL     1      32.124  74.529  63.706  1.00  0.00     0.168 HD
HETATM    9  C4  UNL     1      33.454  76.092  64.192  1.00  0.00     0.183 A 
HETATM   10 CL1  UNL     1      34.141  75.492  65.672  1.00  0.00    -0.044 Cl
HETATM   11  N4  UNL     1      33.769  77.261  63.607  1.00  0.00    -0.307 N 
HETATM   12  C12 UNL     1      33.000  77.315  62.489  1.00  0.00     0.158 A 
HETATM   13  N5  UNL     1      32.880  78.235  61.518  1.00  0.00    -0.174 N 
ATOM     14  H5  UNL     1      33.444  79.084  61.559  1.00  0.00     0.186 HD
ENDROOT
BRANCH  11  15
HETATM   15  C5  UNL     1      34.710  78.279  64.027  1.00  0.00     0.133 C 
BRANCH  15  16
HETATM   16  C6  UNL     1      34.000  79.538  64.477  1.00  0.00     0.025 C 
BRANCH  16  17
HETATM   17  C7  UNL     1      35.028  80.590  64.810  1.00  0.00    -0.013 C 
HETATM   18  C8  UNL     1      36.389  80.234  64.287  1.00  0.00     0.005 C 
HETATM   19  C9  UNL     1      37.386  80.620  65.339  1.00  0.00     0.000 C 
HETATM   20  C10 UNL     1      36.633  80.937  66.598  1.00  0.00     0.000 C 
HETATM   21  C11 UNL     1      35.179  80.797  66.288  1.00  0.00     0.005 C 
ENDBRANCH  16  17
ENDBRANCH  15  16
ENDBRANCH  11  15
BRANCH   1  22
HETATM   22  N1  UNL     1      31.938  78.949  59.582  1.00  0.00    -0.234 N 
ATOM     23  H12 UNL     1      32.731  79.124  58.965  1.00  0.00     0.174 HD
ATOM     24  H11 UNL     1      31.072  79.479  59.483  1.00  0.00     0.174 HD
ENDBRANCH   1  22
TORSDOF 4
ENDMDL
MODEL 5
REMARK VINA RESULT: -7.170897910      3.338      6.705
REMARK  4 active torsions:
REMARK  status: ('A' for Active; 'I' for Inactive)
REMARK    1  A    between atoms: N1_1  and  C1_4 
REMARK    2  A    between atoms: N4_14  and  C5_15 
REMARK    3  A    between atoms: C5_15  and  C6_16 
REMARK    4  A    between atoms: C6_16  and  C7_17 
ROOT
HETATM    1  C1  UNL     1      35.352  80.546  65.681  1.00  0.00     0.680 A 
HETATM    2  N2  UNL     1      36.043  81.311  64.816  1.00  0.00    -0.154 N 
ATOM      3  H2  UNL     1      36.702  82.000  65.178  1.00  0.00     0.187 HD
HETATM    4  C2  UNL     1      35.884  81.186  63.485  1.00  0.00     0.290 A 
HETATM    5  O1  UNL     1      36.535  81.906  62.683  1.00  0.00    -0.265 OA
HETATM    6  C3  UNL     1      34.978  80.236  63.052  1.00  0.00     0.149 A 
HETATM    7  N3  UNL     1      34.584  79.859  61.817  1.00  0.00    -0.325 N 
ATOM      8  H3  UNL     1      34.924  80.249  60.938  1.00  0.00     0.168 HD
HETATM    9  C4  UNL     1      33.670  78.882  61.943  1.00  0.00     0.183 A 
HETATM   10 CL1  UNL     1      32.892  78.099  60.600  1.00  0.00    -0.044 Cl
HETATM   11  N4  UNL     1      33.450  78.603  63.240  1.00  0.00    -0.307 N 
HETATM   12  C12 UNL     1      34.263  79.446  63.927  1.00  0.00     0.158 A 
HETATM   13  N5  UNL     1      34.475  79.627  65.241  1.00  0.00    -0.174 N 
ATOM     14  H5  UNL     1      33.963  79.058  65.915  1.00  0.00     0.186 HD
ENDROOT
BRANCH  11  15
HETATM   15  C5  UNL     1      32.555  77.631  63.835  1.00  0.00     0.133 C 
BRANCH  15  16
HETATM   16  C6  UNL     1      32.849  76.231  63.337  1.00  0.00     0.025 C 
BRANCH  16  17
HETATM   17  C7  UNL     1      31.564  75.597  62.867  1.00  0.00    -0.013 C 
HETATM   18  C8  UNL     1      31.714  74.945  61.524  1.00  0.00     0.005 C 
HETATM   19  C9  UNL     1      30.468  75.241  60.744  1.00  0.00     0.000 C 
HETATM   20  C10 UNL     1      29.695  76.293  61.483  1.00  0.00     0.000 C 
HETATM   21  C11 UNL     1      30.448  76.591  62.738  1.00  0.00     0.005 C 
ENDBRANCH  16  17
ENDBRANCH  15  16
ENDBRANCH  11  15
BRANCH   1  22
HETATM   22  N1  UNL     1      35.532  80.696  66.939  1.00  0.00    -0.234 N 
ATOM     23  H12 UNL     1      34.822  81.171  67.497  1.00  0.00     0.174 HD
ATOM     24  H11 UNL     1      36.384  80.338  67.371  1.00  0.00     0.174 HD
ENDBRANCH   1  22
TORSDOF 4
ENDMDL
