MODEL 1
REMARK VINA RESULT: -7.578037496      0.000      0.000
REMARK  4 active torsions:
REMARK  status: ('A' for Active; 'I' for Inactive)
REMARK    1  A    between atoms: N1_6  and  C6_7 
REMARK    2  A    between atoms: C6_7  and  C7_8 
REMARK    3  A    between atoms: C7_8  and  C8_9 
REMARK    4  A    between atoms: C8_9  and  N2_10 
ROOT
HETATM    1  C7  UNL     1      28.661  76.079  62.043  1.00  0.00     0.087 C 
ENDROOT
BRANCH   1   2
HETATM    2  C6  UNL     1      30.035  75.665  62.512  1.00  0.00     0.066 C 
BRANCH   2   3
HETATM    3  N1  UNL     1      31.004  76.680  62.542  1.00  0.00    -0.369 N 
HETATM    4  C5  UNL     1      32.267  76.420  63.087  1.00  0.00     0.100 C 
HETATM    5  C4  UNL     1      33.038  77.635  63.495  1.00  0.00    -0.002 C 
HETATM    6  C2  UNL     1      34.019  77.417  64.360  1.00  0.00    -0.077 C 
HETATM    7  C14 UNL     1      32.752  78.987  62.991  1.00  0.00     0.130 C 
HETATM    8  C1  UNL     1      34.894  78.484  64.887  1.00  0.00     0.044 C 
HETATM    9  C3  UNL     1      34.281  76.030  64.851  1.00  0.00     0.044 C 
HETATM   10  C13 UNL     1      31.715  78.855  61.896  1.00  0.00     0.068 C 
HETATM   11  C15 UNL     1      33.951  79.717  62.433  1.00  0.00     0.057 C 
HETATM   12  F1  UNL     1      32.235  79.772  64.004  1.00  0.00    -0.238 F 
HETATM   13  C12 UNL     1      30.581  78.032  62.522  1.00  0.00     0.131 C 
ENDBRANCH   2   3
ENDBRANCH   1   2
BRANCH   1  14
HETATM   14  C8  UNL     1      28.403  75.623  60.617  1.00  0.00     0.172 C 
HETATM   15  C9  UNL     1      28.917  74.220  60.381  1.00  0.00     0.275 C 
HETATM   16  N3  UNL     1      28.229  73.646  59.232  1.00  0.00    -0.052 N 
HETATM   17  C10 UNL     1      26.824  73.425  59.527  1.00  0.00     0.399 C 
ATOM     18  H32 UNL     1      28.353  74.216  58.394  1.00  0.00     0.279 HD
ATOM     19  H31 UNL     1      28.685  72.793  58.907  1.00  0.00     0.279 HD
HETATM   20  O1  UNL     1      26.397  74.302  60.505  1.00  0.00    -0.362 OA
HETATM   21  C11 UNL     1      26.909  75.581  60.379  1.00  0.00     0.210 C 
BRANCH  14  22
HETATM   22  N2  UNL     1      28.951  76.567  59.657  1.00  0.00    -0.066 N 
ATOM     23  H23 UNL     1      29.049  77.499  60.060  1.00  0.00     0.275 HD
ATOM     24  H22 UNL     1      29.934  76.377  59.462  1.00  0.00     0.275 HD
ATOM     25  H21 UNL     1      28.396  76.586  58.801  1.00  0.00     0.275 HD
ENDBRANCH  14  22
ENDBRANCH   1  14
TORSDOF 4
ENDMDL
MODEL 2
REMARK VINA RESULT: -7.552280525      4.399      8.000
REMARK  4 active torsions:
REMARK  status: ('A' for Active; 'I' for Inactive)
REMARK    1  A    between atoms: N1_6  and  C6_7 
REMARK    2  A    between atoms: C6_7  and  C7_8 
REMARK    3  A    between atoms: C7_8  and  C8_9 
REMARK    4  A    between atoms: C8_9  and  N2_10 
ROOT
HETATM    1  C7  UNL     1      36.188  79.861  63.778  1.00  0.00     0.087 C 
ENDROOT
BRANCH   1   2
HETATM    2  C6  UNL     1      35.380  78.717  64.342  1.00  0.00     0.066 C 
BRANCH   2   3
HETATM    3  N1  UNL     1      34.075  78.582  63.842  1.00  0.00    -0.369 N 
HETATM    4  C5  UNL     1      33.450  77.329  63.856  1.00  0.00     0.100 C 
HETATM    5  C4  UNL     1      32.300  77.191  62.912  1.00  0.00    -0.002 C 
HETATM    6  C2  UNL     1      31.965  75.943  62.609  1.00  0.00    -0.077 C 
HETATM    7  C14 UNL     1      31.573  78.335  62.340  1.00  0.00     0.130 C 
HETATM    8  C1  UNL     1      30.860  75.595  61.694  1.00  0.00     0.044 C 
HETATM    9  C3  UNL     1      32.725  74.805  63.208  1.00  0.00     0.044 C 
HETATM   10  C13 UNL     1      32.078  79.585  63.028  1.00  0.00     0.068 C 
HETATM   11  C15 UNL     1      30.073  78.271  62.501  1.00  0.00     0.057 C 
HETATM   12  F1  UNL     1      31.831  78.434  60.987  1.00  0.00    -0.238 F 
HETATM   13  C12 UNL     1      33.607  79.521  62.891  1.00  0.00     0.131 C 
ENDBRANCH   2   3
ENDBRANCH   1   2
BRANCH   1  14
HETATM   14  C8  UNL     1      36.554  80.864  64.858  1.00  0.00     0.172 C 
HETATM   15  C9  UNL     1      36.033  82.246  64.533  1.00  0.00     0.275 C 
HETATM   16  N3  UNL     1      35.946  83.026  65.761  1.00  0.00    -0.052 N 
HETATM   17  C10 UNL     1      34.917  82.496  66.639  1.00  0.00     0.399 C 
ATOM     18  H32 UNL     1      36.849  83.088  66.232  1.00  0.00     0.279 HD
ATOM     19  H31 UNL     1      35.804  84.017  65.568  1.00  0.00     0.279 HD
HETATM   20  O1  UNL     1      34.727  81.151  66.395  1.00  0.00    -0.362 OA
HETATM   21  C11 UNL     1      35.894  80.448  66.156  1.00  0.00     0.210 C 
BRANCH  14  22
HETATM   22  N2  UNL     1      37.987  80.872  65.104  1.00  0.00    -0.066 N 
ATOM     23  H23 UNL     1      38.258  80.144  65.764  1.00  0.00     0.275 HD
ATOM     24  H22 UNL     1      38.509  80.547  64.290  1.00  0.00     0.275 HD
ATOM     25  H21 UNL     1      38.303  81.793  65.410  1.00  0.00     0.275 HD
ENDBRANCH  14  22
ENDBRANCH   1  14
TORSDOF 4
ENDMDL
MODEL 3
REMARK VINA RESULT: -7.346003512      4.579      7.956
REMARK  4 active torsions:
REMARK  status: ('A' for Active; 'I' for Inactive)
REMARK    1  A    between atoms: N1_6  and  C6_7 
REMARK    2  A    between atoms: C6_7  and  C7_8 
REMARK    3  A    between atoms: C7_8  and  C8_9 
REMARK    4  A    between atoms: C8_9  and  N2_10 
ROOT
HETATM    1  C7  UNL     1      35.932  78.672  64.336  1.00  0.00     0.087 C 
ENDROOT
BRANCH   1   2
HETATM    2  C6  UNL     1      34.791  77.907  64.963  1.00  0.00     0.066 C 
BRANCH   2   3
HETATM    3  N1  UNL     1      33.982  77.178  64.078  1.00  0.00    -0.369 N 
HETATM    4  C5  UNL     1      33.541  77.771  62.889  1.00  0.00     0.100 C 
HETATM    5  C4  UNL     1      32.348  77.120  62.267  1.00  0.00    -0.002 C 
HETATM    6  C2  UNL     1      31.679  77.873  61.403  1.00  0.00    -0.077 C 
HETATM    7  C14 UNL     1      31.920  75.745  62.570  1.00  0.00     0.130 C 
HETATM    8  C1  UNL     1      30.473  77.415  60.685  1.00  0.00     0.044 C 
HETATM    9  C3  UNL     1      32.142  79.265  61.120  1.00  0.00     0.044 C 
HETATM   10  C13 UNL     1      32.993  75.114  63.432  1.00  0.00     0.068 C 
HETATM   11  C15 UNL     1      31.703  74.872  61.357  1.00  0.00     0.057 C 
HETATM   12  F1  UNL     1      30.732  75.762  63.274  1.00  0.00    -0.238 F 
HETATM   13  C12 UNL     1      33.207  76.106  64.585  1.00  0.00     0.131 C 
ENDBRANCH   2   3
ENDBRANCH   1   2
BRANCH   1  14
HETATM   14  C8  UNL     1      35.815  80.161  64.611  1.00  0.00     0.172 C 
HETATM   15  C9  UNL     1      34.626  80.473  65.492  1.00  0.00     0.275 C 
HETATM   16  N3  UNL     1      34.832  81.766  66.133  1.00  0.00    -0.052 N 
HETATM   17  C10 UNL     1      35.927  81.703  67.085  1.00  0.00     0.399 C 
ATOM     18  H32 UNL     1      34.970  82.509  65.447  1.00  0.00     0.279 HD
ATOM     19  H31 UNL     1      33.975  82.112  66.565  1.00  0.00     0.279 HD
HETATM   20  O1  UNL     1      36.815  80.709  66.728  1.00  0.00    -0.362 OA
HETATM   21  C11 UNL     1      37.045  80.618  65.367  1.00  0.00     0.210 C 
BRANCH  14  22
HETATM   22  N2  UNL     1      35.783  80.923  63.372  1.00  0.00    -0.066 N 
ATOM     23  H23 UNL     1      35.722  81.925  63.549  1.00  0.00     0.275 HD
ATOM     24  H22 UNL     1      36.684  80.902  62.896  1.00  0.00     0.275 HD
ATOM     25  H21 UNL     1      35.029  80.604  62.763  1.00  0.00     0.275 HD
ENDBRANCH  14  22
ENDBRANCH   1  14
TORSDOF 4
ENDMDL
MODEL 4
REMARK VINA RESULT: -7.231900226      4.184      7.343
REMARK  4 active torsions:
REMARK  status: ('A' for Active; 'I' for Inactive)
REMARK    1  A    between atoms: N1_6  and  C6_7 
REMARK    2  A    between atoms: C6_7  and  C7_8 
REMARK    3  A    between atoms: C7_8  and  C8_9 
REMARK    4  A    between atoms: C8_9  and  N2_10 
ROOT
HETATM    1  C7  UNL     1      34.980  80.197  65.136  1.00  0.00     0.087 C 
ENDROOT
BRANCH   1   2
HETATM    2  C6  UNL     1      34.525  78.760  65.048  1.00  0.00     0.066 C 
BRANCH   2   3
HETATM    3  N1  UNL     1      33.360  78.531  64.298  1.00  0.00    -0.369 N 
HETATM    4  C5  UNL     1      32.918  77.220  64.084  1.00  0.00     0.100 C 
HETATM    5  C4  UNL     1      31.984  77.053  62.929  1.00  0.00    -0.002 C 
HETATM    6  C2  UNL     1      31.879  75.815  62.461  1.00  0.00    -0.077 C 
HETATM    7  C14 UNL     1      31.223  78.161  62.330  1.00  0.00     0.130 C 
HETATM    8  C1  UNL     1      31.012  75.444  61.325  1.00  0.00     0.044 C 
HETATM    9  C3  UNL     1      32.667  74.715  63.094  1.00  0.00     0.044 C 
HETATM   10  C13 UNL     1      31.424  79.377  63.207  1.00  0.00     0.068 C 
HETATM   11  C15 UNL     1      29.741  77.905  62.195  1.00  0.00     0.057 C 
HETATM   12  F1  UNL     1      31.704  78.437  61.064  1.00  0.00    -0.238 F 
HETATM   13  C12 UNL     1      32.947  79.507  63.360  1.00  0.00     0.131 C 
ENDBRANCH   2   3
ENDBRANCH   1   2
BRANCH   1  14
HETATM   14  C8  UNL     1      36.265  80.418  64.358  1.00  0.00     0.172 C 
HETATM   15  C9  UNL     1      36.707  79.160  63.645  1.00  0.00     0.275 C 
HETATM   16  N3  UNL     1      37.597  79.519  62.548  1.00  0.00    -0.052 N 
HETATM   17  C10 UNL     1      36.877  80.238  61.511  1.00  0.00     0.399 C 
ATOM     18  H32 UNL     1      38.408  80.044  62.877  1.00  0.00     0.279 HD
ATOM     19  H31 UNL     1      38.082  78.703  62.175  1.00  0.00     0.279 HD
HETATM   20  O1  UNL     1      35.782  80.884  62.049  1.00  0.00    -0.362 OA
HETATM   21  C11 UNL     1      36.016  81.458  63.286  1.00  0.00     0.210 C 
BRANCH  14  22
HETATM   22  N2  UNL     1      37.313  80.948  65.215  1.00  0.00    -0.066 N 
ATOM     23  H23 UNL     1      37.132  80.749  66.198  1.00  0.00     0.275 HD
ATOM     24  H22 UNL     1      38.184  80.428  65.108  1.00  0.00     0.275 HD
ATOM     25  H21 UNL     1      37.450  81.947  65.054  1.00  0.00     0.275 HD
ENDBRANCH  14  22
ENDBRANCH   1  14
TORSDOF 4
ENDMDL
MODEL 5
REMARK VINA RESULT: -7.162886915      1.734      2.907
REMARK  4 active torsions:
REMARK  status: ('A' for Active; 'I' for Inactive)
REMARK    1  A    between atoms: N1_6  and  C6_7 
REMARK    2  A    between atoms: C6_7  and  C7_8 
REMARK    3  A    between atoms: C7_8  and  C8_9 
REMARK    4  A    between atoms: C8_9  and  N2_10 
ROOT
HETATM    1  C7  UNL     1      31.366  75.768  61.537  1.00  0.00     0.087 C 
ENDROOT
BRANCH   1   2
HETATM    2  C6  UNL     1      31.465  75.760  63.043  1.00  0.00     0.066 C 
BRANCH   2   3
HETATM    3  N1  UNL     1      32.371  76.676  63.603  1.00  0.00    -0.369 N 
HETATM    4  C5  UNL     1      32.427  77.986  63.113  1.00  0.00     0.100 C 
HETATM    5  C4  UNL     1      33.691  78.720  63.428  1.00  0.00    -0.002 C 
HETATM    6  C2  UNL     1      33.941  79.770  62.657  1.00  0.00    -0.077 C 
HETATM    7  C14 UNL     1      34.613  78.329  64.506  1.00  0.00     0.130 C 
HETATM    8  C1  UNL     1      35.137  80.624  62.804  1.00  0.00     0.044 C 
HETATM    9  C3  UNL     1      32.983  80.138  61.571  1.00  0.00     0.044 C 
HETATM   10  C13 UNL     1      33.946  77.225  65.297  1.00  0.00     0.068 C 
HETATM   11  C15 UNL     1      34.982  79.446  65.453  1.00  0.00     0.057 C 
HETATM   12  F1  UNL     1      35.792  77.846  63.971  1.00  0.00    -0.238 F 
HETATM   13  C12 UNL     1      33.530  76.183  64.250  1.00  0.00     0.131 C 
ENDBRANCH   2   3
ENDBRANCH   1   2
BRANCH   1  14
HETATM   14  C8  UNL     1      30.018  76.292  61.074  1.00  0.00     0.172 C 
HETATM   15  C9  UNL     1      29.312  75.299  60.178  1.00  0.00     0.275 C 
HETATM   16  N3  UNL     1      27.884  75.586  60.178  1.00  0.00    -0.052 N 
HETATM   17  C10 UNL     1      27.300  75.312  61.480  1.00  0.00     0.399 C 
ATOM     18  H32 UNL     1      27.691  76.540  59.872  1.00  0.00     0.279 HD
ATOM     19  H31 UNL     1      27.399  75.084  59.434  1.00  0.00     0.279 HD
HETATM   20  O1  UNL     1      28.257  75.433  62.468  1.00  0.00    -0.362 OA
HETATM   21  C11 UNL     1      29.129  76.491  62.283  1.00  0.00     0.210 C 
BRANCH  14  22
HETATM   22  N2  UNL     1      30.151  77.593  60.438  1.00  0.00    -0.066 N 
ATOM     23  H23 UNL     1      30.451  77.507  59.467  1.00  0.00     0.275 HD
ATOM     24  H22 UNL     1      29.242  78.029  60.282  1.00  0.00     0.275 HD
ATOM     25  H21 UNL     1      30.774  78.201  60.970  1.00  0.00     0.275 HD
ENDBRANCH  14  22
ENDBRANCH   1  14
TORSDOF 4
ENDMDL
