MODEL 1
REMARK VINA RESULT: -9.500888234      0.000      0.000
REMARK  6 active torsions:
REMARK  status: ('A' for Active; 'I' for Inactive)
REMARK    1  A    between atoms: C2_2  and  O2_4 
REMARK    2  A    between atoms: O2_4  and  C3_5 
REMARK    3  A    between atoms: C10_12  and  O3_13 
REMARK    4  A    between atoms: O3_13  and  C11_14 
REMARK    5  A    between atoms: C24_29  and  C26_31 
REMARK    6  A    between atoms: C26_31  and  O5_32 
ROOT
HETATM    1  C3  UNL     1      36.995 -31.186  -0.462  1.00  0.00     0.060 C 
HETATM    2  C4  UNL     1      37.298 -31.102   0.820  1.00  0.00    -0.038 C 
HETATM    3  C5  UNL     1      36.299 -31.725   1.738  1.00  0.00     0.038 C 
HETATM    4  C6  UNL     1      36.518 -31.210   3.111  1.00  0.00     0.010 C 
HETATM    5  C7  UNL     1      36.841 -29.742   3.052  1.00  0.00    -0.004 C 
HETATM    6  C8  UNL     1      36.613 -29.165   4.405  1.00  0.00     0.001 C 
HETATM    7  C9  UNL     1      36.681 -30.157   5.545  1.00  0.00     0.038 C 
HETATM    8  C10 UNL     1      37.143 -29.355   6.763  1.00  0.00     0.133 C 
HETATM    9  C13 UNL     1      37.245 -27.944   6.297  1.00  0.00     0.042 C 
HETATM   10  C14 UNL     1      37.634 -28.143   4.826  1.00  0.00    -0.038 C 
HETATM   11  C15 UNL     1      37.539 -26.846   4.127  1.00  0.00     0.015 C 
HETATM   12  C16 UNL     1      38.972 -28.793   4.691  1.00  0.00     0.010 C 
HETATM   13  C17 UNL     1      39.269 -28.976   3.227  1.00  0.00     0.007 C 
HETATM   14  C18 UNL     1      38.125 -29.382   2.391  1.00  0.00     0.006 C 
HETATM   15  C19 UNL     1      38.537 -30.444   1.352  1.00  0.00     0.022 C 
HETATM   16  C20 UNL     1      39.370 -31.548   1.953  1.00  0.00     0.024 C 
HETATM   17  C21 UNL     1      39.270 -29.908   0.201  1.00  0.00     0.120 C 
HETATM   18  F1  UNL     1      40.062 -30.922  -0.366  1.00  0.00    -0.241 F 
HETATM   19  C22 UNL     1      40.188 -28.751   0.407  1.00  0.00     0.046 C 
HETATM   20  C23 UNL     1      40.743 -28.637  -1.030  1.00  0.00     0.015 C 
HETATM   21  C24 UNL     1      39.416 -28.669  -1.798  1.00  0.00    -0.015 C 
HETATM   22  C25 UNL     1      39.589 -29.271  -3.163  1.00  0.00     0.018 C 
HETATM   23  C27 UNL     1      38.425 -29.372  -0.938  1.00  0.00     0.043 C 
HETATM   24  C28 UNL     1      37.844 -30.632  -1.561  1.00  0.00     0.074 C 
ENDROOT
BRANCH   1  25
HETATM   25  O2  UNL     1      35.815 -31.819  -0.899  1.00  0.00    -0.283 OA
BRANCH  25  26
HETATM   26  C2  UNL     1      35.897 -33.120  -1.352  1.00  0.00     0.259 C 
HETATM   27  C1  UNL     1      36.757 -33.519  -2.505  1.00  0.00     0.126 C 
HETATM   28  O1  UNL     1      35.223 -33.998  -0.774  1.00  0.00    -0.265 OA
ENDBRANCH  25  26
ENDBRANCH   1  25
BRANCH  21  29
HETATM   29  C26 UNL     1      38.995 -27.222  -1.988  1.00  0.00     0.173 C 
BRANCH  29  30
HETATM   30  O5  UNL     1      37.693 -27.124  -2.456  1.00  0.00    -0.400 OA
ATOM     31  H5  UNL     1      37.298 -26.291  -2.226  1.00  0.00     0.209 HD
ENDBRANCH  29  30
ENDBRANCH  21  29
BRANCH   8  32
HETATM   32  O3  UNL     1      36.332 -29.551   7.876  1.00  0.00    -0.316 OA
BRANCH  32  33
HETATM   33  C11 UNL     1      36.804 -29.760   9.159  1.00  0.00     0.255 C 
HETATM   34  C12 UNL     1      36.185 -30.835   9.962  1.00  0.00     0.126 C 
HETATM   35  O4  UNL     1      37.719 -29.019   9.544  1.00  0.00    -0.266 OA
ENDBRANCH  32  33
ENDBRANCH   8  32
TORSDOF 6
ENDMDL
MODEL 2
REMARK VINA RESULT: -9.302957169      1.289      1.612
REMARK  6 active torsions:
REMARK  status: ('A' for Active; 'I' for Inactive)
REMARK    1  A    between atoms: C2_2  and  O2_4 
REMARK    2  A    between atoms: O2_4  and  C3_5 
REMARK    3  A    between atoms: C10_12  and  O3_13 
REMARK    4  A    between atoms: O3_13  and  C11_14 
REMARK    5  A    between atoms: C24_29  and  C26_31 
REMARK    6  A    between atoms: C26_31  and  O5_32 
ROOT
HETATM    1  C3  UNL     1      36.089 -31.807   0.535  1.00  0.00     0.060 C 
HETATM    2  C4  UNL     1      36.649 -31.543   1.700  1.00  0.00    -0.038 C 
HETATM    3  C5  UNL     1      35.863 -31.993   2.887  1.00  0.00     0.038 C 
HETATM    4  C6  UNL     1      36.359 -31.286   4.092  1.00  0.00     0.010 C 
HETATM    5  C7  UNL     1      36.659 -29.853   3.746  1.00  0.00    -0.004 C 
HETATM    6  C8  UNL     1      36.714 -29.074   5.014  1.00  0.00     0.001 C 
HETATM    7  C9  UNL     1      37.018 -29.887   6.253  1.00  0.00     0.038 C 
HETATM    8  C10 UNL     1      37.719 -28.926   7.214  1.00  0.00     0.133 C 
HETATM    9  C13 UNL     1      37.718 -27.603   6.529  1.00  0.00     0.042 C 
HETATM   10  C14 UNL     1      37.796 -28.030   5.057  1.00  0.00    -0.038 C 
HETATM   11  C15 UNL     1      37.555 -26.850   4.204  1.00  0.00     0.015 C 
HETATM   12  C16 UNL     1      39.079 -28.731   4.752  1.00  0.00     0.010 C 
HETATM   13  C17 UNL     1      39.069 -29.138   3.303  1.00  0.00     0.007 C 
HETATM   14  C18 UNL     1      37.777 -29.632   2.790  1.00  0.00     0.006 C 
HETATM   15  C19 UNL     1      37.970 -30.847   1.862  1.00  0.00     0.022 C 
HETATM   16  C20 UNL     1      38.912 -31.873   2.441  1.00  0.00     0.024 C 
HETATM   17  C21 UNL     1      38.448 -30.510   0.517  1.00  0.00     0.120 C 
HETATM   18  F1  UNL     1      39.109 -31.619  -0.038  1.00  0.00    -0.241 F 
HETATM   19  C22 UNL     1      39.385 -29.362   0.354  1.00  0.00     0.046 C 
HETATM   20  C23 UNL     1      39.632 -29.480  -1.166  1.00  0.00     0.015 C 
HETATM   21  C24 UNL     1      38.175 -29.588  -1.634  1.00  0.00    -0.015 C 
HETATM   22  C25 UNL     1      38.064 -30.391  -2.898  1.00  0.00     0.018 C 
HETATM   23  C27 UNL     1      37.384 -30.126  -0.492  1.00  0.00     0.043 C 
HETATM   24  C28 UNL     1      36.691 -31.448  -0.785  1.00  0.00     0.074 C 
ENDROOT
BRANCH   1  25
HETATM   25  O2  UNL     1      34.846 -32.465   0.450  1.00  0.00    -0.283 OA
BRANCH  25  26
HETATM   26  C2  UNL     1      33.752 -31.747   0.012  1.00  0.00     0.259 C 
HETATM   27  C1  UNL     1      33.219 -30.562   0.748  1.00  0.00     0.126 C 
HETATM   28  O1  UNL     1      33.184 -32.103  -1.041  1.00  0.00    -0.265 OA
ENDBRANCH  25  26
ENDBRANCH   1  25
BRANCH  21  29
HETATM   29  C26 UNL     1      37.719 -28.174  -1.950  1.00  0.00     0.173 C 
BRANCH  29  30
HETATM   30  O5  UNL     1      38.592 -27.535  -2.817  1.00  0.00    -0.400 OA
ATOM     31  H5  UNL     1      38.730 -26.627  -2.573  1.00  0.00     0.209 HD
ENDBRANCH  29  30
ENDBRANCH  21  29
BRANCH   8  32
HETATM   32  O3  UNL     1      37.156 -28.931   8.486  1.00  0.00    -0.316 OA
BRANCH  32  33
HETATM   33  C11 UNL     1      36.660 -30.058   9.117  1.00  0.00     0.255 C 
HETATM   34  C12 UNL     1      35.368 -30.603   8.652  1.00  0.00     0.126 C 
HETATM   35  O4  UNL     1      37.344 -30.528  10.036  1.00  0.00    -0.266 OA
ENDBRANCH  32  33
ENDBRANCH   8  32
TORSDOF 6
ENDMDL
MODEL 3
REMARK VINA RESULT: -9.161490118      2.616      7.415
REMARK  6 active torsions:
REMARK  status: ('A' for Active; 'I' for Inactive)
REMARK    1  A    between atoms: C2_2  and  O2_4 
REMARK    2  A    between atoms: O2_4  and  C3_5 
REMARK    3  A    between atoms: C10_12  and  O3_13 
REMARK    4  A    between atoms: O3_13  and  C11_14 
REMARK    5  A    between atoms: C24_29  and  C26_31 
REMARK    6  A    between atoms: C26_31  and  O5_32 
ROOT
HETATM    1  C3  UNL     1      36.281 -29.757   4.208  1.00  0.00     0.060 C 
HETATM    2  C4  UNL     1      37.313 -29.809   3.387  1.00  0.00    -0.038 C 
HETATM    3  C5  UNL     1      38.512 -29.044   3.843  1.00  0.00     0.038 C 
HETATM    4  C6  UNL     1      39.415 -28.826   2.687  1.00  0.00     0.010 C 
HETATM    5  C7  UNL     1      38.598 -28.506   1.465  1.00  0.00    -0.004 C 
HETATM    6  C8  UNL     1      39.496 -27.864   0.466  1.00  0.00     0.001 C 
HETATM    7  C9  UNL     1      40.966 -28.179   0.630  1.00  0.00     0.038 C 
HETATM    8  C10 UNL     1      41.568 -28.081  -0.773  1.00  0.00     0.133 C 
HETATM    9  C13 UNL     1      40.451 -27.644  -1.657  1.00  0.00     0.042 C 
HETATM   10  C14 UNL     1      39.247 -28.287  -0.956  1.00  0.00    -0.038 C 
HETATM   11  C15 UNL     1      38.007 -27.756  -1.555  1.00  0.00     0.015 C 
HETATM   12  C16 UNL     1      39.326 -29.778  -0.980  1.00  0.00     0.010 C 
HETATM   13  C17 UNL     1      38.129 -30.332  -0.255  1.00  0.00     0.007 C 
HETATM   14  C18 UNL     1      37.724 -29.599   0.958  1.00  0.00     0.006 C 
HETATM   15  C19 UNL     1      37.322 -30.564   2.090  1.00  0.00     0.022 C 
HETATM   16  C20 UNL     1      38.310 -31.689   2.270  1.00  0.00     0.024 C 
HETATM   17  C21 UNL     1      35.991 -31.160   1.929  1.00  0.00     0.120 C 
HETATM   18  F1  UNL     1      35.934 -32.378   2.630  1.00  0.00    -0.241 F 
HETATM   19  C22 UNL     1      35.501 -31.466   0.554  1.00  0.00     0.046 C 
HETATM   20  C23 UNL     1      34.154 -32.121   0.930  1.00  0.00     0.015 C 
HETATM   21  C24 UNL     1      33.637 -31.057   1.906  1.00  0.00    -0.015 C 
HETATM   22  C25 UNL     1      32.747 -31.662   2.954  1.00  0.00     0.018 C 
HETATM   23  C27 UNL     1      34.826 -30.342   2.448  1.00  0.00     0.043 C 
HETATM   24  C28 UNL     1      34.976 -30.442   3.958  1.00  0.00     0.074 C 
ENDROOT
BRANCH   1  25
HETATM   25  O2  UNL     1      36.337 -29.030   5.413  1.00  0.00    -0.283 OA
BRANCH  25  26
HETATM   26  C2  UNL     1      36.463 -29.729   6.597  1.00  0.00     0.259 C 
HETATM   27  C1  UNL     1      35.342 -30.517   7.190  1.00  0.00     0.126 C 
HETATM   28  O1  UNL     1      37.557 -29.698   7.196  1.00  0.00    -0.265 OA
ENDBRANCH  25  26
ENDBRANCH   1  25
BRANCH  21  29
HETATM   29  C26 UNL     1      32.792 -30.097   1.087  1.00  0.00     0.173 C 
BRANCH  29  30
HETATM   30  O5  UNL     1      32.454 -30.635  -0.146  1.00  0.00    -0.400 OA
ATOM     31  H5  UNL     1      33.082 -31.288  -0.429  1.00  0.00     0.209 HD
ENDBRANCH  29  30
ENDBRANCH  21  29
BRANCH   8  32
HETATM   32  O3  UNL     1      42.703 -27.277  -0.817  1.00  0.00    -0.316 OA
BRANCH  32  33
HETATM   33  C11 UNL     1      43.807 -27.526  -1.611  1.00  0.00     0.255 C 
HETATM   34  C12 UNL     1      43.952 -26.754  -2.863  1.00  0.00     0.126 C 
HETATM   35  O4  UNL     1      44.599 -28.389  -1.209  1.00  0.00    -0.266 OA
ENDBRANCH  32  33
ENDBRANCH   8  32
TORSDOF 6
ENDMDL
MODEL 4
REMARK VINA RESULT: -9.047375199      2.588      8.165
REMARK  6 active torsions:
REMARK  status: ('A' for Active; 'I' for Inactive)
REMARK    1  A    between atoms: C2_2  and  O2_4 
REMARK    2  A    between atoms: O2_4  and  C3_5 
REMARK    3  A    between atoms: C10_12  and  O3_13 
REMARK    4  A    between atoms: O3_13  and  C11_14 
REMARK    5  A    between atoms: C24_29  and  C26_31 
REMARK    6  A    between atoms: C26_31  and  O5_32 
ROOT
HETATM    1  C3  UNL     1      36.845 -28.900   4.394  1.00  0.00     0.060 C 
HETATM    2  C4  UNL     1      37.452 -29.358   3.315  1.00  0.00    -0.038 C 
HETATM    3  C5  UNL     1      38.433 -28.412   2.704  1.00  0.00     0.038 C 
HETATM    4  C6  UNL     1      38.717 -28.843   1.313  1.00  0.00     0.010 C 
HETATM    5  C7  UNL     1      37.444 -29.310   0.662  1.00  0.00    -0.004 C 
HETATM    6  C8  UNL     1      37.652 -29.304  -0.812  1.00  0.00     0.001 C 
HETATM    7  C9  UNL     1      39.095 -29.399  -1.257  1.00  0.00     0.038 C 
HETATM    8  C10 UNL     1      39.060 -30.082  -2.625  1.00  0.00     0.133 C 
HETATM    9  C13 UNL     1      37.617 -30.277  -2.938  1.00  0.00     0.042 C 
HETATM   10  C14 UNL     1      37.030 -30.469  -1.533  1.00  0.00    -0.038 C 
HETATM   11  C15 UNL     1      35.558 -30.431  -1.621  1.00  0.00     0.015 C 
HETATM   12  C16 UNL     1      37.554 -31.706  -0.880  1.00  0.00     0.010 C 
HETATM   13  C17 UNL     1      36.954 -31.810   0.497  1.00  0.00     0.007 C 
HETATM   14  C18 UNL     1      36.830 -30.539   1.234  1.00  0.00     0.006 C 
HETATM   15  C19 UNL     1      37.205 -30.713   2.719  1.00  0.00     0.022 C 
HETATM   16  C20 UNL     1      38.485 -31.488   2.906  1.00  0.00     0.024 C 
HETATM   17  C21 UNL     1      36.169 -31.359   3.531  1.00  0.00     0.120 C 
HETATM   18  F1  UNL     1      36.761 -31.968   4.651  1.00  0.00    -0.241 F 
HETATM   19  C22 UNL     1      35.318 -32.412   2.906  1.00  0.00     0.046 C 
HETATM   20  C23 UNL     1      34.487 -32.805   4.148  1.00  0.00     0.015 C 
HETATM   21  C24 UNL     1      34.074 -31.401   4.609  1.00  0.00    -0.015 C 
HETATM   22  C25 UNL     1      33.880 -31.350   6.097  1.00  0.00     0.018 C 
HETATM   23  C27 UNL     1      35.093 -30.448   4.089  1.00  0.00     0.043 C 
HETATM   24  C28 UNL     1      35.825 -29.669   5.171  1.00  0.00     0.074 C 
ENDROOT
BRANCH   1  25
HETATM   25  O2  UNL     1      37.121 -27.617   4.905  1.00  0.00    -0.283 OA
BRANCH  25  26
HETATM   26  C2  UNL     1      37.985 -27.509   5.977  1.00  0.00     0.259 C 
HETATM   27  C1  UNL     1      38.052 -28.531   7.063  1.00  0.00     0.126 C 
HETATM   28  O1  UNL     1      38.738 -26.516   6.040  1.00  0.00    -0.265 OA
ENDBRANCH  25  26
ENDBRANCH   1  25
BRANCH  21  29
HETATM   29  C26 UNL     1      32.729 -31.116   3.963  1.00  0.00     0.173 C 
BRANCH  29  30
HETATM   30  O5  UNL     1      31.813 -32.126   4.216  1.00  0.00    -0.400 OA
ATOM     31  H5  UNL     1      32.185 -32.986   4.060  1.00  0.00     0.209 HD
ENDBRANCH  29  30
ENDBRANCH  21  29
BRANCH   8  32
HETATM   32  O3  UNL     1      39.785 -29.390  -3.590  1.00  0.00    -0.316 OA
BRANCH  32  33
HETATM   33  C11 UNL     1      41.045 -28.858  -3.390  1.00  0.00     0.255 C 
HETATM   34  C12 UNL     1      41.182 -27.386  -3.360  1.00  0.00     0.126 C 
HETATM   35  O4  UNL     1      41.975 -29.663  -3.249  1.00  0.00    -0.266 OA
ENDBRANCH  32  33
ENDBRANCH   8  32
TORSDOF 6
ENDMDL
MODEL 5
REMARK VINA RESULT: -8.901715404      2.458      3.632
REMARK  6 active torsions:
REMARK  status: ('A' for Active; 'I' for Inactive)
REMARK    1  A    between atoms: C2_2  and  O2_4 
REMARK    2  A    between atoms: O2_4  and  C3_5 
REMARK    3  A    between atoms: C10_12  and  O3_13 
REMARK    4  A    between atoms: O3_13  and  C11_14 
REMARK    5  A    between atoms: C24_29  and  C26_31 
REMARK    6  A    between atoms: C26_31  and  O5_32 
ROOT
HETATM    1  C3  UNL     1      34.345 -31.592   1.761  1.00  0.00     0.060 C 
HETATM    2  C4  UNL     1      35.250 -31.199   2.639  1.00  0.00    -0.038 C 
HETATM    3  C5  UNL     1      34.694 -30.777   3.960  1.00  0.00     0.038 C 
HETATM    4  C6  UNL     1      35.716 -29.980   4.681  1.00  0.00     0.010 C 
HETATM    5  C7  UNL     1      36.424 -29.075   3.711  1.00  0.00    -0.004 C 
HETATM    6  C8  UNL     1      37.096 -27.999   4.491  1.00  0.00     0.001 C 
HETATM    7  C9  UNL     1      37.390 -28.343   5.934  1.00  0.00     0.038 C 
HETATM    8  C10 UNL     1      38.625 -27.521   6.309  1.00  0.00     0.133 C 
HETATM    9  C13 UNL     1      38.935 -26.695   5.109  1.00  0.00     0.042 C 
HETATM   10  C14 UNL     1      38.459 -27.618   3.980  1.00  0.00    -0.038 C 
HETATM   11  C15 UNL     1      38.458 -26.862   2.713  1.00  0.00     0.015 C 
HETATM   12  C16 UNL     1      39.261 -28.877   3.921  1.00  0.00     0.010 C 
HETATM   13  C17 UNL     1      38.719 -29.737   2.810  1.00  0.00     0.007 C 
HETATM   14  C18 UNL     1      37.251 -29.748   2.673  1.00  0.00     0.006 C 
HETATM   15  C19 UNL     1      36.726 -31.166   2.371  1.00  0.00     0.022 C 
HETATM   16  C20 UNL     1      37.336 -32.211   3.271  1.00  0.00     0.024 C 
HETATM   17  C21 UNL     1      36.923 -31.600   0.984  1.00  0.00     0.120 C 
HETATM   18  F1  UNL     1      36.953 -33.004   0.931  1.00  0.00    -0.241 F 
HETATM   19  C22 UNL     1      38.142 -31.145   0.254  1.00  0.00     0.046 C 
HETATM   20  C23 UNL     1      37.917 -31.910  -1.068  1.00  0.00     0.015 C 
HETATM   21  C24 UNL     1      36.457 -31.517  -1.324  1.00  0.00    -0.015 C 
HETATM   22  C25 UNL     1      35.728 -32.586  -2.085  1.00  0.00     0.018 C 
HETATM   23  C27 UNL     1      35.853 -31.181  -0.005  1.00  0.00     0.043 C 
HETATM   24  C28 UNL     1      34.668 -32.055   0.377  1.00  0.00     0.074 C 
ENDROOT
BRANCH   1  25
HETATM   25  O2  UNL     1      32.972 -31.601   2.074  1.00  0.00    -0.283 OA
BRANCH  25  26
HETATM   26  C2  UNL     1      32.475 -32.652   2.818  1.00  0.00     0.259 C 
HETATM   27  C1  UNL     1      31.914 -32.473   4.190  1.00  0.00     0.126 C 
HETATM   28  O1  UNL     1      32.497 -33.798   2.324  1.00  0.00    -0.265 OA
ENDBRANCH  25  26
ENDBRANCH   1  25
BRANCH  21  29
HETATM   29  C26 UNL     1      36.493 -30.277  -2.200  1.00  0.00     0.173 C 
BRANCH  29  30
HETATM   30  O5  UNL     1      37.256 -30.476  -3.341  1.00  0.00    -0.400 OA
ATOM     31  H5  UNL     1      36.714 -30.655  -4.100  1.00  0.00     0.209 HD
ENDBRANCH  29  30
ENDBRANCH  21  29
BRANCH   8  32
HETATM   32  O3  UNL     1      38.456 -26.805   7.490  1.00  0.00    -0.316 OA
BRANCH  32  33
HETATM   33  C11 UNL     1      39.492 -26.271   8.235  1.00  0.00     0.255 C 
HETATM   34  C12 UNL     1      39.721 -24.813   8.163  1.00  0.00     0.126 C 
HETATM   35  O4  UNL     1      40.157 -27.065   8.914  1.00  0.00    -0.266 OA
ENDBRANCH  32  33
ENDBRANCH   8  32
TORSDOF 6
ENDMDL
