MODEL 1
REMARK VINA RESULT: -9.321433702      0.000      0.000
REMARK  4 active torsions:
REMARK  status: ('A' for Active; 'I' for Inactive)
REMARK    1  A    between atoms: C2_2  and  C3_4 
REMARK    2  A    between atoms: C3_4  and  O2_5 
REMARK    3  A    between atoms: C15_18  and  C17_20 
REMARK    4  A    between atoms: C17_20  and  C18_21 
ROOT
HETATM    1  C3  UNL     1      34.072 -31.629   1.480  1.00  0.00     0.206 C 
HETATM    2  C4  UNL     1      35.613 -31.519   1.530  1.00  0.00     0.071 C 
HETATM    3  C5  UNL     1      36.017 -30.708   0.347  1.00  0.00     0.091 C 
HETATM    4  C6  UNL     1      35.448 -31.379  -0.850  1.00  0.00     0.064 C 
HETATM    5  C7  UNL     1      35.830 -30.937  -2.037  1.00  0.00     0.034 C 
HETATM    6  C8  UNL     1      36.807 -29.875  -2.131  1.00  0.00     0.009 C 
HETATM    7  C9  UNL     1      37.428 -29.339  -1.074  1.00  0.00    -0.035 C 
HETATM    8  C10 UNL     1      38.326 -28.215  -1.421  1.00  0.00     0.027 C 
HETATM    9  C11 UNL     1      37.939 -26.963  -0.669  1.00  0.00     0.010 C 
HETATM   10  C12 UNL     1      38.986 -25.960  -0.446  1.00  0.00     0.005 C 
HETATM   11  C13 UNL     1      40.151 -26.030  -1.386  1.00  0.00    -0.010 C 
HETATM   12  C14 UNL     1      39.840 -25.011  -2.470  1.00  0.00     0.011 C 
HETATM   13  C15 UNL     1      40.636 -27.340  -1.825  1.00  0.00    -0.032 C 
HETATM   14  C16 UNL     1      40.502 -27.283  -3.372  1.00  0.00     0.016 C 
HETATM   15  C22 UNL     1      39.742 -28.562  -1.473  1.00  0.00    -0.029 C 
HETATM   16  C23 UNL     1      39.881 -29.523  -2.656  1.00  0.00     0.016 C 
HETATM   17  C24 UNL     1      40.165 -29.363  -0.313  1.00  0.00     0.011 C 
HETATM   18  C25 UNL     1      39.527 -29.230   0.989  1.00  0.00     0.009 C 
HETATM   19  C26 UNL     1      38.196 -29.794   1.281  1.00  0.00     0.026 C 
HETATM   20  C27 UNL     1      38.395 -31.011   2.213  1.00  0.00     0.014 C 
HETATM   21  C28 UNL     1      37.340 -30.225   0.150  1.00  0.00     0.140 C 
HETATM   22  F1  UNL     1      38.014 -31.467  -0.253  1.00  0.00    -0.237 F 
HETATM   23  O3  UNL     1      34.538 -32.444  -0.771  1.00  0.00    -0.280 OA
HETATM   24  C29 UNL     1      33.767 -32.555   0.367  1.00  0.00     0.306 C 
HETATM   25  O4  UNL     1      32.856 -33.413   0.427  1.00  0.00    -0.261 OA
ENDROOT
BRANCH  13  26
HETATM   26  C17 UNL     1      42.025 -27.686  -1.464  1.00  0.00     0.018 C 
BRANCH  26  27
HETATM   27  C18 UNL     1      43.146 -26.777  -1.377  1.00  0.00    -0.051 C 
HETATM   28  C19 UNL     1      43.220 -25.721  -0.325  1.00  0.00     0.014 C 
HETATM   29  C20 UNL     1      44.342 -27.702  -0.971  1.00  0.00     0.014 C 
HETATM   30  C21 UNL     1      43.649 -26.160  -2.655  1.00  0.00     0.014 C 
ENDBRANCH  26  27
ENDBRANCH  13  26
BRANCH   1  31
HETATM   31  C2  UNL     1      33.640 -32.197   2.793  1.00  0.00     0.167 C 
HETATM   32  C1  UNL     1      32.323 -31.963   3.393  1.00  0.00     0.095 C 
HETATM   33  O1  UNL     1      34.445 -32.894   3.384  1.00  0.00    -0.294 OA
ENDBRANCH   1  31
BRANCH   1  34
HETATM   34  O2  UNL     1      33.526 -30.367   1.273  1.00  0.00    -0.373 OA
ATOM     35  H2  UNL     1      33.263 -30.250   0.368  1.00  0.00     0.211 HD
ENDBRANCH   1  34
TORSDOF 4
ENDMDL
MODEL 2
REMARK VINA RESULT: -8.758342135      1.247      1.435
REMARK  4 active torsions:
REMARK  status: ('A' for Active; 'I' for Inactive)
REMARK    1  A    between atoms: C2_2  and  C3_4 
REMARK    2  A    between atoms: C3_4  and  O2_5 
REMARK    3  A    between atoms: C15_18  and  C17_20 
REMARK    4  A    between atoms: C17_20  and  C18_21 
ROOT
HETATM    1  C3  UNL     1      34.938 -31.348   0.432  1.00  0.00     0.206 C 
HETATM    2  C4  UNL     1      36.367 -30.915   0.834  1.00  0.00     0.071 C 
HETATM    3  C5  UNL     1      36.990 -30.330  -0.386  1.00  0.00     0.091 C 
HETATM    4  C6  UNL     1      36.894 -31.359  -1.454  1.00  0.00     0.064 C 
HETATM    5  C7  UNL     1      37.547 -31.130  -2.582  1.00  0.00     0.034 C 
HETATM    6  C8  UNL     1      38.358 -29.941  -2.718  1.00  0.00     0.009 C 
HETATM    7  C9  UNL     1      38.561 -29.062  -1.730  1.00  0.00    -0.035 C 
HETATM    8  C10 UNL     1      39.363 -27.886  -2.138  1.00  0.00     0.027 C 
HETATM    9  C11 UNL     1      38.607 -26.603  -1.884  1.00  0.00     0.010 C 
HETATM   10  C12 UNL     1      39.398 -25.382  -1.692  1.00  0.00     0.005 C 
HETATM   11  C13 UNL     1      40.787 -25.424  -2.253  1.00  0.00    -0.010 C 
HETATM   12  C14 UNL     1      40.677 -24.765  -3.619  1.00  0.00     0.011 C 
HETATM   13  C15 UNL     1      41.551 -26.671  -2.177  1.00  0.00    -0.032 C 
HETATM   14  C16 UNL     1      41.873 -26.997  -3.662  1.00  0.00     0.016 C 
HETATM   15  C22 UNL     1      40.764 -27.937  -1.736  1.00  0.00    -0.029 C 
HETATM   16  C23 UNL     1      41.373 -29.093  -2.533  1.00  0.00     0.016 C 
HETATM   17  C24 UNL     1      40.929 -28.348  -0.332  1.00  0.00     0.011 C 
HETATM   18  C25 UNL     1      39.923 -28.055   0.679  1.00  0.00     0.009 C 
HETATM   19  C26 UNL     1      38.653 -28.799   0.773  1.00  0.00     0.026 C 
HETATM   20  C27 UNL     1      38.730 -29.704   2.024  1.00  0.00     0.014 C 
HETATM   21  C28 UNL     1      38.235 -29.643  -0.372  1.00  0.00     0.140 C 
HETATM   22  F1  UNL     1      39.157 -30.778  -0.233  1.00  0.00    -0.237 F 
HETATM   23  O3  UNL     1      36.152 -32.541  -1.314  1.00  0.00    -0.280 OA
HETATM   24  C29 UNL     1      35.102 -32.546  -0.420  1.00  0.00     0.306 C 
HETATM   25  O4  UNL     1      34.337 -33.536  -0.356  1.00  0.00    -0.261 OA
ENDROOT
BRANCH  13  26
HETATM   26  C17 UNL     1      42.804 -26.632  -1.398  1.00  0.00     0.018 C 
BRANCH  26  27
HETATM   27  C18 UNL     1      43.583 -25.457  -1.073  1.00  0.00    -0.051 C 
HETATM   28  C19 UNL     1      43.207 -24.556   0.056  1.00  0.00     0.014 C 
HETATM   29  C20 UNL     1      44.941 -26.043  -0.562  1.00  0.00     0.014 C 
HETATM   30  C21 UNL     1      44.030 -24.577  -2.209  1.00  0.00     0.014 C 
ENDBRANCH  26  27
ENDBRANCH  13  26
BRANCH   1  31
HETATM   31  C2  UNL     1      34.218 -31.678   1.699  1.00  0.00     0.167 C 
HETATM   32  C1  UNL     1      32.847 -31.251   1.997  1.00  0.00     0.095 C 
HETATM   33  O1  UNL     1      34.823 -32.342   2.521  1.00  0.00    -0.294 OA
ENDBRANCH   1  31
BRANCH   1  34
HETATM   34  O2  UNL     1      34.314 -30.307  -0.246  1.00  0.00    -0.373 OA
ATOM     35  H2  UNL     1      34.253 -30.489  -1.176  1.00  0.00     0.211 HD
ENDBRANCH   1  34
TORSDOF 4
ENDMDL
MODEL 3
REMARK VINA RESULT: -8.506809139      1.628      2.603
REMARK  4 active torsions:
REMARK  status: ('A' for Active; 'I' for Inactive)
REMARK    1  A    between atoms: C2_2  and  C3_4 
REMARK    2  A    between atoms: C3_4  and  O2_5 
REMARK    3  A    between atoms: C15_18  and  C17_20 
REMARK    4  A    between atoms: C17_20  and  C18_21 
ROOT
HETATM    1  C3  UNL     1      35.364 -31.679  -0.800  1.00  0.00     0.206 C 
HETATM    2  C4  UNL     1      36.443 -30.957   0.039  1.00  0.00     0.071 C 
HETATM    3  C5  UNL     1      37.325 -30.244  -0.928  1.00  0.00     0.091 C 
HETATM    4  C6  UNL     1      37.819 -31.262  -1.892  1.00  0.00     0.064 C 
HETATM    5  C7  UNL     1      38.766 -30.892  -2.738  1.00  0.00     0.034 C 
HETATM    6  C8  UNL     1      39.316 -29.557  -2.666  1.00  0.00     0.009 C 
HETATM    7  C9  UNL     1      38.979 -28.662  -1.731  1.00  0.00    -0.035 C 
HETATM    8  C10 UNL     1      39.620 -27.341  -1.915  1.00  0.00     0.027 C 
HETATM    9  C11 UNL     1      38.582 -26.249  -2.024  1.00  0.00     0.010 C 
HETATM   10  C12 UNL     1      38.993 -24.890  -1.654  1.00  0.00     0.005 C 
HETATM   11  C13 UNL     1      40.469 -24.632  -1.698  1.00  0.00    -0.010 C 
HETATM   12  C14 UNL     1      40.716 -24.002  -3.059  1.00  0.00     0.011 C 
HETATM   13  C15 UNL     1      41.391 -25.690  -1.279  1.00  0.00    -0.032 C 
HETATM   14  C16 UNL     1      42.273 -25.930  -2.536  1.00  0.00     0.016 C 
HETATM   15  C22 UNL     1      40.770 -27.097  -1.052  1.00  0.00    -0.029 C 
HETATM   16  C23 UNL     1      41.839 -28.093  -1.510  1.00  0.00     0.016 C 
HETATM   17  C24 UNL     1      40.511 -27.474   0.347  1.00  0.00     0.011 C 
HETATM   18  C25 UNL     1      39.177 -27.409   0.927  1.00  0.00     0.009 C 
HETATM   19  C26 UNL     1      38.132 -28.405   0.627  1.00  0.00     0.026 C 
HETATM   20  C27 UNL     1      37.943 -29.282   1.886  1.00  0.00     0.014 C 
HETATM   21  C28 UNL     1      38.321 -29.309  -0.532  1.00  0.00     0.140 C 
HETATM   22  F1  UNL     1      39.343 -30.225  -0.007  1.00  0.00    -0.237 F 
HETATM   23  O3  UNL     1      37.328 -32.576  -1.936  1.00  0.00    -0.280 OA
HETATM   24  C29 UNL     1      36.055 -32.809  -1.461  1.00  0.00     0.306 C 
HETATM   25  O4  UNL     1      35.531 -33.939  -1.598  1.00  0.00    -0.261 OA
ENDROOT
BRANCH  13  26
HETATM   26  C17 UNL     1      42.256 -25.393  -0.121  1.00  0.00     0.018 C 
BRANCH  26  27
HETATM   27  C18 UNL     1      42.187 -24.226   0.731  1.00  0.00    -0.051 C 
HETATM   28  C19 UNL     1      41.225 -24.141   1.868  1.00  0.00     0.014 C 
HETATM   29  C20 UNL     1      43.558 -24.238   1.486  1.00  0.00     0.014 C 
HETATM   30  C21 UNL     1      42.208 -22.874   0.069  1.00  0.00     0.014 C 
ENDBRANCH  26  27
ENDBRANCH  13  26
BRANCH   1  31
HETATM   31  C2  UNL     1      34.327 -32.163   0.159  1.00  0.00     0.167 C 
HETATM   32  C1  UNL     1      34.491 -32.155   1.616  1.00  0.00     0.095 C 
HETATM   33  O1  UNL     1      33.289 -32.587  -0.317  1.00  0.00    -0.294 OA
ENDBRANCH   1  31
BRANCH   1  34
HETATM   34  O2  UNL     1      34.823 -30.788  -1.721  1.00  0.00    -0.373 OA
ATOM     35  H2  UNL     1      35.468 -30.527  -2.368  1.00  0.00     0.211 HD
ENDBRANCH   1  34
TORSDOF 4
ENDMDL
MODEL 4
REMARK VINA RESULT: -8.222880504      2.091      3.328
REMARK  4 active torsions:
REMARK  status: ('A' for Active; 'I' for Inactive)
REMARK    1  A    between atoms: C2_2  and  C3_4 
REMARK    2  A    between atoms: C3_4  and  O2_5 
REMARK    3  A    between atoms: C15_18  and  C17_20 
REMARK    4  A    between atoms: C17_20  and  C18_21 
ROOT
HETATM    1  C3  UNL     1      36.136 -31.954  -1.355  1.00  0.00     0.206 C 
HETATM    2  C4  UNL     1      37.020 -31.216  -0.323  1.00  0.00     0.071 C 
HETATM    3  C5  UNL     1      37.836 -30.234  -1.092  1.00  0.00     0.091 C 
HETATM    4  C6  UNL     1      38.557 -31.001  -2.142  1.00  0.00     0.064 C 
HETATM    5  C7  UNL     1      39.486 -30.362  -2.834  1.00  0.00     0.034 C 
HETATM    6  C8  UNL     1      39.801 -28.986  -2.520  1.00  0.00     0.009 C 
HETATM    7  C9  UNL     1      39.257 -28.311  -1.501  1.00  0.00    -0.035 C 
HETATM    8  C10 UNL     1      39.682 -26.895  -1.434  1.00  0.00     0.027 C 
HETATM    9  C11 UNL     1      38.488 -25.971  -1.481  1.00  0.00     0.010 C 
HETATM   10  C12 UNL     1      38.642 -24.640  -0.882  1.00  0.00     0.005 C 
HETATM   11  C13 UNL     1      40.054 -24.156  -0.751  1.00  0.00    -0.010 C 
HETATM   12  C14 UNL     1      40.286 -23.290  -1.979  1.00  0.00     0.011 C 
HETATM   13  C15 UNL     1      41.107 -25.113  -0.405  1.00  0.00    -0.032 C 
HETATM   14  C16 UNL     1      42.101 -25.014  -1.596  1.00  0.00     0.016 C 
HETATM   15  C22 UNL     1      40.714 -26.616  -0.441  1.00  0.00    -0.029 C 
HETATM   16  C23 UNL     1      41.962 -27.352  -0.936  1.00  0.00     0.016 C 
HETATM   17  C24 UNL     1      40.425 -27.243   0.859  1.00  0.00     0.011 C 
HETATM   18  C25 UNL     1      39.062 -27.474   1.316  1.00  0.00     0.009 C 
HETATM   19  C26 UNL     1      38.219 -28.559   0.779  1.00  0.00     0.026 C 
HETATM   20  C27 UNL     1      38.092 -29.642   1.876  1.00  0.00     0.014 C 
HETATM   21  C28 UNL     1      38.634 -29.231  -0.474  1.00  0.00     0.140 C 
HETATM   22  F1  UNL     1      39.756 -30.050   0.006  1.00  0.00    -0.237 F 
HETATM   23  O3  UNL     1      38.295 -32.350  -2.420  1.00  0.00    -0.280 OA
HETATM   24  C29 UNL     1      37.048 -32.847  -2.104  1.00  0.00     0.306 C 
HETATM   25  O4  UNL     1      36.729 -34.009  -2.449  1.00  0.00    -0.261 OA
ENDROOT
BRANCH  13  26
HETATM   26  C17 UNL     1      41.829 -24.872   0.859  1.00  0.00     0.018 C 
BRANCH  26  27
HETATM   27  C18 UNL     1      41.506 -23.882   1.864  1.00  0.00    -0.051 C 
HETATM   28  C19 UNL     1      40.257 -23.968   2.676  1.00  0.00     0.014 C 
HETATM   29  C20 UNL     1      42.602 -24.095   2.960  1.00  0.00     0.014 C 
HETATM   30  C21 UNL     1      41.699 -22.432   1.506  1.00  0.00     0.014 C 
ENDBRANCH  26  27
ENDBRANCH  13  26
BRANCH   1  31
HETATM   31  C2  UNL     1      35.130 -32.736  -0.575  1.00  0.00     0.167 C 
HETATM   32  C1  UNL     1      34.048 -32.129   0.206  1.00  0.00     0.095 C 
HETATM   33  O1  UNL     1      35.232 -33.949  -0.603  1.00  0.00    -0.294 OA
ENDBRANCH   1  31
BRANCH   1  34
HETATM   34  O2  UNL     1      35.520 -31.024  -2.184  1.00  0.00    -0.373 OA
ATOM     35  H2  UNL     1      36.147 -30.395  -2.521  1.00  0.00     0.211 HD
ENDBRANCH   1  34
TORSDOF 4
ENDMDL
MODEL 5
REMARK VINA RESULT: -8.148742191      2.289      3.956
REMARK  4 active torsions:
REMARK  status: ('A' for Active; 'I' for Inactive)
REMARK    1  A    between atoms: C2_2  and  C3_4 
REMARK    2  A    between atoms: C3_4  and  O2_5 
REMARK    3  A    between atoms: C15_18  and  C17_20 
REMARK    4  A    between atoms: C17_20  and  C18_21 
ROOT
HETATM    1  C3  UNL     1      36.632 -31.078  -1.734  1.00  0.00     0.206 C 
HETATM    2  C4  UNL     1      37.477 -30.352  -0.662  1.00  0.00     0.071 C 
HETATM    3  C5  UNL     1      38.369 -29.410  -1.395  1.00  0.00     0.091 C 
HETATM    4  C6  UNL     1      39.126 -30.217  -2.388  1.00  0.00     0.064 C 
HETATM    5  C7  UNL     1      40.115 -29.621  -3.032  1.00  0.00     0.034 C 
HETATM    6  C8  UNL     1      40.457 -28.251  -2.720  1.00  0.00     0.009 C 
HETATM    7  C9  UNL     1      39.876 -27.542  -1.747  1.00  0.00    -0.035 C 
HETATM    8  C10 UNL     1      40.343 -26.139  -1.675  1.00  0.00     0.027 C 
HETATM    9  C11 UNL     1      39.185 -25.178  -1.807  1.00  0.00     0.010 C 
HETATM   10  C12 UNL     1      39.347 -23.842  -1.221  1.00  0.00     0.005 C 
HETATM   11  C13 UNL     1      40.765 -23.402  -1.012  1.00  0.00    -0.010 C 
HETATM   12  C14 UNL     1      41.099 -22.565  -2.237  1.00  0.00     0.011 C 
HETATM   13  C15 UNL     1      41.763 -24.387  -0.589  1.00  0.00    -0.032 C 
HETATM   14  C16 UNL     1      42.828 -24.341  -1.719  1.00  0.00     0.016 C 
HETATM   15  C22 UNL     1      41.323 -25.877  -0.626  1.00  0.00    -0.029 C 
HETATM   16  C23 UNL     1      42.572 -26.661  -1.034  1.00  0.00     0.016 C 
HETATM   17  C24 UNL     1      40.935 -26.472   0.663  1.00  0.00     0.011 C 
HETATM   18  C25 UNL     1      39.541 -26.651   1.041  1.00  0.00     0.009 C 
HETATM   19  C26 UNL     1      38.695 -27.717   0.471  1.00  0.00     0.026 C 
HETATM   20  C27 UNL     1      38.468 -28.776   1.574  1.00  0.00     0.014 C 
HETATM   21  C28 UNL     1      39.162 -28.424  -0.745  1.00  0.00     0.140 C 
HETATM   22  F1  UNL     1      40.225 -29.270  -0.186  1.00  0.00    -0.237 F 
HETATM   23  O3  UNL     1      38.835 -31.562  -2.661  1.00  0.00    -0.280 OA
HETATM   24  C29 UNL     1      37.556 -32.013  -2.413  1.00  0.00     0.306 C 
HETATM   25  O4  UNL     1      37.219 -33.169  -2.760  1.00  0.00    -0.261 OA
ENDROOT
BRANCH  13  26
HETATM   26  C17 UNL     1      42.416 -24.148   0.713  1.00  0.00     0.018 C 
BRANCH  26  27
HETATM   27  C18 UNL     1      42.011 -23.192   1.720  1.00  0.00    -0.051 C 
HETATM   28  C19 UNL     1      40.615 -23.150   2.245  1.00  0.00     0.014 C 
HETATM   29  C20 UNL     1      42.806 -23.635   2.992  1.00  0.00     0.014 C 
HETATM   30  C21 UNL     1      42.461 -21.765   1.551  1.00  0.00     0.014 C 
ENDBRANCH  26  27
ENDBRANCH  13  26
BRANCH   1  31
HETATM   31  C2  UNL     1      35.555 -31.814  -1.004  1.00  0.00     0.167 C 
HETATM   32  C1  UNL     1      35.694 -32.326   0.362  1.00  0.00     0.095 C 
HETATM   33  O1  UNL     1      34.506 -31.988  -1.598  1.00  0.00    -0.294 OA
ENDBRANCH   1  31
BRANCH   1  34
HETATM   34  O2  UNL     1      36.097 -30.142  -2.612  1.00  0.00    -0.373 OA
ATOM     35  H2  UNL     1      36.513 -29.295  -2.507  1.00  0.00     0.211 HD
ENDBRANCH   1  34
TORSDOF 4
ENDMDL
