MODEL 1
REMARK VINA RESULT: -9.128070734      0.000      0.000
REMARK  5 active torsions:
REMARK  status: ('A' for Active; 'I' for Inactive)
REMARK    1  A    between atoms: C2_2  and  C3_3 
REMARK    2  A    between atoms: C3_3  and  C4_4 
REMARK    3  A    between atoms: C6_6  and  N1_7 
REMARK    4  A    between atoms: C9_10  and  C10_11 
REMARK    5  A    between atoms: N2_21  and  O1_23 
ROOT
HETATM    1  C4  UNL     1      37.398 -28.851   6.591  1.00  0.00     0.005 C 
HETATM    2  C5  UNL     1      36.640 -29.603   5.646  1.00  0.00     0.049 C 
HETATM    3  C6  UNL     1      36.835 -29.695   4.332  1.00  0.00     0.044 C 
HETATM    4  C13 UNL     1      37.774 -28.875   3.626  1.00  0.00     0.029 A 
HETATM    5  C14 UNL     1      38.137 -28.910   2.323  1.00  0.00    -0.036 A 
HETATM    6  C15 UNL     1      38.127 -29.387   0.967  1.00  0.00     0.036 C 
HETATM    7  C16 UNL     1      39.678 -29.553   0.795  1.00  0.00     0.010 C 
HETATM    8  C17 UNL     1      39.731 -29.648  -0.696  1.00  0.00     0.061 C 
HETATM    9  C18 UNL     1      38.585 -30.558  -0.921  1.00  0.00     0.019 C 
HETATM   10  N2  UNL     1      38.300 -31.143  -2.021  1.00  0.00    -0.277 N 
ATOM     11  H2  UNL     1      37.482 -31.750  -2.052  1.00  0.00     0.193 HD
HETATM   12  C19 UNL     1      37.801 -30.678   0.424  1.00  0.00     0.001 C 
HETATM   13  C20 UNL     1      36.414 -30.930  -0.121  1.00  0.00     0.022 C 
HETATM   14  C21 UNL     1      38.442 -31.903   1.024  1.00  0.00     0.022 C 
HETATM   15  C22 UNL     1      40.291 -28.423   1.431  1.00  0.00    -0.019 C 
HETATM   16  C23 UNL     1      41.415 -28.868   2.352  1.00  0.00     0.018 C 
HETATM   17  C24 UNL     1      40.946 -27.425   0.473  1.00  0.00     0.018 C 
HETATM   18  C25 UNL     1      39.167 -27.786   2.161  1.00  0.00     0.121 A 
HETATM   19  N3  UNL     1      39.359 -27.278   3.406  1.00  0.00    -0.374 N 
ATOM     20  H3  UNL     1      40.024 -26.541   3.642  1.00  0.00     0.161 HD
HETATM   21  C26 UNL     1      38.591 -27.853   4.230  1.00  0.00     0.084 A 
HETATM   22  S1  UNL     1      38.401 -27.522   5.999  1.00  0.00    -0.072 SA
ENDROOT
BRANCH   3  23
HETATM   23  N1  UNL     1      35.896 -30.537   3.676  1.00  0.00    -0.380 N 
HETATM   24  C7  UNL     1      34.759 -29.813   3.093  1.00  0.00     0.123 C 
HETATM   25  C8  UNL     1      33.600 -30.748   2.851  1.00  0.00     0.025 C 
HETATM   26  C9  UNL     1      33.453 -31.624   4.079  1.00  0.00     0.002 C 
HETATM   27  C11 UNL     1      34.641 -32.525   4.310  1.00  0.00     0.025 C 
HETATM   28  C12 UNL     1      35.893 -31.957   3.636  1.00  0.00     0.123 C 
BRANCH  26  29
HETATM   29  C10 UNL     1      32.158 -32.372   3.962  1.00  0.00     0.119 C 
HETATM   30 CL1  UNL     1      32.324 -33.483   2.560  1.00  0.00    -0.130 Cl
ENDBRANCH  26  29
ENDBRANCH   3  23
BRANCH   1  31
HETATM   31  C3  UNL     1      37.385 -29.109   7.850  1.00  0.00    -0.008 C 
BRANCH  31  32
HETATM   32  C2  UNL     1      36.396 -30.003   8.472  1.00  0.00     0.024 C 
HETATM   33  C1  UNL     1      36.869 -30.282   9.896  1.00  0.00     0.009 C 
ENDBRANCH  31  32
ENDBRANCH   1  31
BRANCH  10  34
HETATM   34  O1  UNL     1      39.044 -30.991  -3.153  1.00  0.00    -0.290 OA
ATOM     35  H1  UNL     1      39.902 -31.385  -3.263  1.00  0.00     0.244 HD
ENDBRANCH  10  34
TORSDOF 5
ENDMDL
MODEL 2
REMARK VINA RESULT: -9.031252131      1.236      1.362
REMARK  5 active torsions:
REMARK  status: ('A' for Active; 'I' for Inactive)
REMARK    1  A    between atoms: C2_2  and  C3_3 
REMARK    2  A    between atoms: C3_3  and  C4_4 
REMARK    3  A    between atoms: C6_6  and  N1_7 
REMARK    4  A    between atoms: C9_10  and  C10_11 
REMARK    5  A    between atoms: N2_21  and  O1_23 
ROOT
HETATM    1  C4  UNL     1      37.755 -28.629   5.687  1.00  0.00     0.005 C 
HETATM    2  C5  UNL     1      36.852 -29.501   5.012  1.00  0.00     0.049 C 
HETATM    3  C6  UNL     1      36.835 -29.815   3.718  1.00  0.00     0.044 C 
HETATM    4  C13 UNL     1      37.655 -29.154   2.746  1.00  0.00     0.029 A 
HETATM    5  C14 UNL     1      37.806 -29.416   1.428  1.00  0.00    -0.036 A 
HETATM    6  C15 UNL     1      37.578 -30.109   0.189  1.00  0.00     0.036 C 
HETATM    7  C16 UNL     1      39.080 -30.353  -0.192  1.00  0.00     0.010 C 
HETATM    8  C17 UNL     1      38.895 -30.694  -1.636  1.00  0.00     0.061 C 
HETATM    9  C18 UNL     1      37.722 -31.590  -1.523  1.00  0.00     0.019 C 
HETATM   10  N2  UNL     1      37.262 -32.339  -2.451  1.00  0.00    -0.277 N 
ATOM     11  H2  UNL     1      36.445 -32.916  -2.252  1.00  0.00     0.193 HD
HETATM   12  C19 UNL     1      37.161 -31.460  -0.072  1.00  0.00     0.001 C 
HETATM   13  C20 UNL     1      35.703 -31.753  -0.344  1.00  0.00     0.022 C 
HETATM   14  C21 UNL     1      37.882 -32.591   0.619  1.00  0.00     0.022 C 
HETATM   15  C22 UNL     1      39.794 -29.154   0.142  1.00  0.00    -0.019 C 
HETATM   16  C23 UNL     1      41.047 -29.478   0.938  1.00  0.00     0.018 C 
HETATM   17  C24 UNL     1      40.295 -28.350  -1.060  1.00  0.00     0.018 C 
HETATM   18  C25 UNL     1      38.805 -28.369   0.920  1.00  0.00     0.121 A 
HETATM   19  N3  UNL     1      39.195 -27.668   2.017  1.00  0.00    -0.374 N 
ATOM     20  H3  UNL     1      39.894 -26.926   2.019  1.00  0.00     0.161 HD
HETATM   21  C26 UNL     1      38.564 -28.074   3.036  1.00  0.00     0.084 A 
HETATM   22  S1  UNL     1      38.660 -27.450   4.731  1.00  0.00    -0.072 SA
ENDROOT
BRANCH   3  23
HETATM   23  N1  UNL     1      35.798 -30.722   3.366  1.00  0.00    -0.380 N 
HETATM   24  C7  UNL     1      34.630 -30.076   2.753  1.00  0.00     0.123 C 
HETATM   25  C8  UNL     1      33.418 -30.970   2.847  1.00  0.00     0.025 C 
HETATM   26  C9  UNL     1      33.377 -31.543   4.250  1.00  0.00     0.002 C 
HETATM   27  C11 UNL     1      34.550 -32.442   4.556  1.00  0.00     0.025 C 
HETATM   28  C12 UNL     1      35.739 -32.113   3.648  1.00  0.00     0.123 C 
BRANCH  26  29
HETATM   29  C10 UNL     1      32.051 -32.219   4.435  1.00  0.00     0.119 C 
HETATM   30 CL1  UNL     1      31.462 -31.767   6.071  1.00  0.00    -0.130 Cl
ENDBRANCH  26  29
ENDBRANCH   3  23
BRANCH   1  31
HETATM   31  C3  UNL     1      37.940 -28.675   6.958  1.00  0.00    -0.008 C 
BRANCH  31  32
HETATM   32  C2  UNL     1      37.319 -29.693   7.820  1.00  0.00     0.024 C 
HETATM   33  C1  UNL     1      37.308 -29.138   9.241  1.00  0.00     0.009 C 
ENDBRANCH  31  32
ENDBRANCH   1  31
BRANCH  10  34
HETATM   34  O1  UNL     1      37.818 -32.400  -3.694  1.00  0.00    -0.290 OA
ATOM     35  H1  UNL     1      37.309 -32.576  -4.478  1.00  0.00     0.244 HD
ENDBRANCH  10  34
TORSDOF 5
ENDMDL
MODEL 3
REMARK VINA RESULT: -8.879884744      1.800      2.056
REMARK  5 active torsions:
REMARK  status: ('A' for Active; 'I' for Inactive)
REMARK    1  A    between atoms: C2_2  and  C3_3 
REMARK    2  A    between atoms: C3_3  and  C4_4 
REMARK    3  A    between atoms: C6_6  and  N1_7 
REMARK    4  A    between atoms: C9_10  and  C10_11 
REMARK    5  A    between atoms: N2_21  and  O1_23 
ROOT
HETATM    1  C4  UNL     1      38.115 -27.548   5.849  1.00  0.00     0.005 C 
HETATM    2  C5  UNL     1      37.173 -28.571   5.537  1.00  0.00     0.049 C 
HETATM    3  C6  UNL     1      37.018 -29.213   4.381  1.00  0.00     0.044 C 
HETATM    4  C13 UNL     1      37.696 -28.825   3.179  1.00  0.00     0.029 A 
HETATM    5  C14 UNL     1      37.704 -29.422   1.966  1.00  0.00    -0.036 A 
HETATM    6  C15 UNL     1      37.360 -30.417   0.986  1.00  0.00     0.036 C 
HETATM    7  C16 UNL     1      38.816 -30.744   0.503  1.00  0.00     0.010 C 
HETATM    8  C17 UNL     1      38.478 -31.452  -0.770  1.00  0.00     0.061 C 
HETATM    9  C18 UNL     1      37.359 -32.293  -0.288  1.00  0.00     0.019 C 
HETATM   10  N2  UNL     1      36.823 -33.261  -0.927  1.00  0.00    -0.277 N 
ATOM     11  H2  UNL     1      36.056 -33.770  -0.489  1.00  0.00     0.193 HD
HETATM   12  C19 UNL     1      36.965 -31.791   1.136  1.00  0.00     0.001 C 
HETATM   13  C20 UNL     1      35.497 -32.152   1.127  1.00  0.00     0.022 C 
HETATM   14  C21 UNL     1      37.801 -32.698   2.004  1.00  0.00     0.022 C 
HETATM   15  C22 UNL     1      39.520 -29.496   0.425  1.00  0.00    -0.019 C 
HETATM   16  C23 UNL     1      40.867 -29.594   1.121  1.00  0.00     0.018 C 
HETATM   17  C24 UNL     1      39.848 -29.033  -0.995  1.00  0.00     0.018 C 
HETATM   18  C25 UNL     1      38.598 -28.539   1.087  1.00  0.00     0.121 A 
HETATM   19  N3  UNL     1      39.087 -27.574   1.909  1.00  0.00    -0.374 N 
ATOM     20  H3  UNL     1      39.754 -26.853   1.634  1.00  0.00     0.161 HD
HETATM   21  C26 UNL     1      38.593 -27.702   3.067  1.00  0.00     0.084 A 
HETATM   22  S1  UNL     1      38.861 -26.656   4.518  1.00  0.00    -0.072 SA
ENDROOT
BRANCH   3  23
HETATM   23  N1  UNL     1      35.981 -30.185   4.404  1.00  0.00    -0.380 N 
HETATM   24  C7  UNL     1      34.714 -29.713   3.832  1.00  0.00     0.123 C 
HETATM   25  C8  UNL     1      33.564 -30.567   4.305  1.00  0.00     0.025 C 
HETATM   26  C9  UNL     1      33.742 -30.792   5.794  1.00  0.00     0.002 C 
HETATM   27  C11 UNL     1      34.982 -31.583   6.130  1.00  0.00     0.025 C 
HETATM   28  C12 UNL     1      36.020 -31.470   5.010  1.00  0.00     0.123 C 
BRANCH  26  29
HETATM   29  C10 UNL     1      32.483 -31.414   6.322  1.00  0.00     0.119 C 
HETATM   30 CL1  UNL     1      32.921 -32.265   7.842  1.00  0.00    -0.130 Cl
ENDBRANCH  26  29
ENDBRANCH   3  23
BRANCH   1  31
HETATM   31  C3  UNL     1      38.448 -27.259   7.057  1.00  0.00    -0.008 C 
BRANCH  31  32
HETATM   32  C2  UNL     1      38.942 -28.263   8.011  1.00  0.00     0.024 C 
HETATM   33  C1  UNL     1      37.725 -28.848   8.725  1.00  0.00     0.009 C 
ENDBRANCH  31  32
ENDBRANCH   1  31
BRANCH  10  34
HETATM   34  O1  UNL     1      37.233 -33.643  -2.170  1.00  0.00    -0.290 OA
ATOM     35  H1  UNL     1      36.908 -34.424  -2.603  1.00  0.00     0.244 HD
ENDBRANCH  10  34
TORSDOF 5
ENDMDL
MODEL 4
REMARK VINA RESULT: -8.551936094      3.156      6.391
REMARK  5 active torsions:
REMARK  status: ('A' for Active; 'I' for Inactive)
REMARK    1  A    between atoms: C2_2  and  C3_3 
REMARK    2  A    between atoms: C3_3  and  C4_4 
REMARK    3  A    between atoms: C6_6  and  N1_7 
REMARK    4  A    between atoms: C9_10  and  C10_11 
REMARK    5  A    between atoms: N2_21  and  O1_23 
ROOT
HETATM    1  C4  UNL     1      39.365 -27.971  -0.133  1.00  0.00     0.005 C 
HETATM    2  C5  UNL     1      38.424 -29.039  -0.076  1.00  0.00     0.049 C 
HETATM    3  C6  UNL     1      37.854 -29.568   1.006  1.00  0.00     0.044 C 
HETATM    4  C13 UNL     1      38.259 -29.234   2.339  1.00  0.00     0.029 A 
HETATM    5  C14 UNL     1      37.727 -29.621   3.521  1.00  0.00    -0.036 A 
HETATM    6  C15 UNL     1      36.809 -30.307   4.389  1.00  0.00     0.036 C 
HETATM    7  C16 UNL     1      36.413 -29.080   5.284  1.00  0.00     0.010 C 
HETATM    8  C17 UNL     1      35.795 -29.822   6.425  1.00  0.00     0.061 C 
HETATM    9  C18 UNL     1      35.005 -30.818   5.667  1.00  0.00     0.019 C 
HETATM   10  N2  UNL     1      34.109 -31.588   6.153  1.00  0.00    -0.277 N 
ATOM     11  H2  UNL     1      33.630 -32.235   5.527  1.00  0.00     0.193 HD
HETATM   12  C19 UNL     1      35.458 -30.748   4.174  1.00  0.00     0.001 C 
HETATM   13  C20 UNL     1      35.195 -32.180   3.769  1.00  0.00     0.022 C 
HETATM   14  C21 UNL     1      34.454 -29.771   3.614  1.00  0.00     0.022 C 
HETATM   15  C22 UNL     1      37.614 -28.333   5.523  1.00  0.00    -0.019 C 
HETATM   16  C23 UNL     1      37.392 -26.855   5.250  1.00  0.00     0.018 C 
HETATM   17  C24 UNL     1      38.129 -28.390   6.962  1.00  0.00     0.018 C 
HETATM   18  C25 UNL     1      38.594 -28.949   4.593  1.00  0.00     0.121 A 
HETATM   19  N3  UNL     1      39.480 -28.172   3.918  1.00  0.00    -0.374 N 
ATOM     20  H3  UNL     1      40.170 -27.558   4.352  1.00  0.00     0.161 HD
HETATM   21  C26 UNL     1      39.325 -28.323   2.671  1.00  0.00     0.084 A 
HETATM   22  S1  UNL     1      40.275 -27.570   1.328  1.00  0.00    -0.072 SA
ENDROOT
BRANCH   3  23
HETATM   23  N1  UNL     1      36.952 -30.627   0.713  1.00  0.00    -0.380 N 
HETATM   24  C7  UNL     1      37.527 -31.964   0.905  1.00  0.00     0.123 C 
HETATM   25  C8  UNL     1      36.733 -32.999   0.147  1.00  0.00     0.025 C 
HETATM   26  C9  UNL     1      36.443 -32.437  -1.231  1.00  0.00     0.002 C 
HETATM   27  C11 UNL     1      35.560 -31.213  -1.197  1.00  0.00     0.025 C 
HETATM   28  C12 UNL     1      35.646 -30.518   0.165  1.00  0.00     0.123 C 
BRANCH  26  29
HETATM   29  C10 UNL     1      35.886 -33.544  -2.075  1.00  0.00     0.119 C 
HETATM   30 CL1  UNL     1      37.194 -34.050  -3.198  1.00  0.00    -0.130 Cl
ENDBRANCH  26  29
ENDBRANCH   3  23
BRANCH   1  31
HETATM   31  C3  UNL     1      39.568 -27.285  -1.201  1.00  0.00    -0.008 C 
BRANCH  31  32
HETATM   32  C2  UNL     1      38.571 -26.358  -1.757  1.00  0.00     0.024 C 
HETATM   33  C1  UNL     1      38.714 -25.035  -1.008  1.00  0.00     0.009 C 
ENDBRANCH  31  32
ENDBRANCH   1  31
BRANCH  10  34
HETATM   34  O1  UNL     1      33.767 -31.582   7.473  1.00  0.00    -0.290 OA
ATOM     35  H1  UNL     1      32.954 -31.954   7.796  1.00  0.00     0.244 HD
ENDBRANCH  10  34
TORSDOF 5
ENDMDL
MODEL 5
REMARK VINA RESULT: -8.512700214      2.941      5.937
REMARK  5 active torsions:
REMARK  status: ('A' for Active; 'I' for Inactive)
REMARK    1  A    between atoms: C2_2  and  C3_3 
REMARK    2  A    between atoms: C3_3  and  C4_4 
REMARK    3  A    between atoms: C6_6  and  N1_7 
REMARK    4  A    between atoms: C9_10  and  C10_11 
REMARK    5  A    between atoms: N2_21  and  O1_23 
ROOT
HETATM    1  C4  UNL     1      38.588 -26.744   5.113  1.00  0.00     0.005 C 
HETATM    2  C5  UNL     1      39.044 -27.258   3.864  1.00  0.00     0.049 C 
HETATM    3  C6  UNL     1      38.611 -28.340   3.220  1.00  0.00     0.044 C 
HETATM    4  C13 UNL     1      37.701 -29.281   3.804  1.00  0.00     0.029 A 
HETATM    5  C14 UNL     1      37.115 -30.367   3.251  1.00  0.00    -0.036 A 
HETATM    6  C15 UNL     1      36.814 -31.314   2.212  1.00  0.00     0.036 C 
HETATM    7  C16 UNL     1      35.250 -31.261   2.330  1.00  0.00     0.010 C 
HETATM    8  C17 UNL     1      34.923 -32.507   1.571  1.00  0.00     0.061 C 
HETATM    9  C18 UNL     1      35.858 -32.349   0.434  1.00  0.00     0.019 C 
HETATM   10  N2  UNL     1      35.853 -33.041  -0.640  1.00  0.00    -0.277 N 
ATOM     11  H2  UNL     1      36.549 -32.836  -1.356  1.00  0.00     0.193 HD
HETATM   12  C19 UNL     1      36.837 -31.183   0.781  1.00  0.00     0.001 C 
HETATM   13  C20 UNL     1      38.052 -31.642   0.008  1.00  0.00     0.022 C 
HETATM   14  C21 UNL     1      36.129 -30.012   0.146  1.00  0.00     0.022 C 
HETATM   15  C22 UNL     1      34.939 -31.212   3.730  1.00  0.00    -0.019 C 
HETATM   16  C23 UNL     1      33.939 -30.106   4.020  1.00  0.00     0.018 C 
HETATM   17  C24 UNL     1      34.290 -32.480   4.287  1.00  0.00     0.018 C 
HETATM   18  C25 UNL     1      36.259 -30.976   4.368  1.00  0.00     0.121 A 
HETATM   19  N3  UNL     1      36.368 -30.127   5.422  1.00  0.00    -0.374 N 
ATOM     20  H3  UNL     1      35.876 -30.229   6.310  1.00  0.00     0.161 HD
HETATM   21  C26 UNL     1      37.170 -29.190   5.141  1.00  0.00     0.084 A 
HETATM   22  S1  UNL     1      37.715 -27.829   6.201  1.00  0.00    -0.072 SA
ENDROOT
BRANCH   3  23
HETATM   23  N1  UNL     1      39.279 -28.574   1.987  1.00  0.00    -0.380 N 
HETATM   24  C7  UNL     1      40.506 -29.370   2.121  1.00  0.00     0.123 C 
HETATM   25  C8  UNL     1      41.397 -29.181   0.918  1.00  0.00     0.025 C 
HETATM   26  C9  UNL     1      41.429 -27.700   0.599  1.00  0.00     0.002 C 
HETATM   27  C11 UNL     1      40.086 -27.155   0.180  1.00  0.00     0.025 C 
HETATM   28  C12 UNL     1      38.952 -28.034   0.714  1.00  0.00     0.123 C 
BRANCH  26  29
HETATM   29  C10 UNL     1      42.504 -27.470  -0.421  1.00  0.00     0.119 C 
HETATM   30 CL1  UNL     1      41.889 -28.116  -1.980  1.00  0.00    -0.130 Cl
ENDBRANCH  26  29
ENDBRANCH   3  23
BRANCH   1  31
HETATM   31  C3  UNL     1      38.781 -25.525   5.471  1.00  0.00    -0.008 C 
BRANCH  31  32
HETATM   32  C2  UNL     1      38.815 -25.102   6.879  1.00  0.00     0.024 C 
HETATM   33  C1  UNL     1      38.844 -23.576   6.894  1.00  0.00     0.009 C 
ENDBRANCH  31  32
ENDBRANCH   1  31
BRANCH  10  34
HETATM   34  O1  UNL     1      34.955 -34.041  -0.869  1.00  0.00    -0.290 OA
ATOM     35  H1  UNL     1      34.242 -33.960  -1.492  1.00  0.00     0.244 HD
ENDBRANCH  10  34
TORSDOF 5
ENDMDL
