MODEL 1
REMARK VINA RESULT: -9.160201237      0.000      0.000
REMARK  6 active torsions:
REMARK  status: ('A' for Active; 'I' for Inactive)
REMARK    1  A    between atoms: N1_2  and  C2_4 
REMARK    2  A    between atoms: C3_7  and  C4_8 
REMARK    3  A    between atoms: C4_8  and  C6_10 
REMARK    4  A    between atoms: C8_13  and  N3_14 
REMARK    5  A    between atoms: N3_14  and  C9_15 
REMARK    6  A    between atoms: C12_18  and  C13_19 
ROOT
HETATM    1  C6  UNL     1      34.659 -32.458   0.618  1.00  0.00     0.120 C 
HETATM    2  C7  UNL     1      33.238 -32.734   0.881  1.00  0.00     0.110 C 
HETATM    3  S1  UNL     1      32.855 -31.441   2.129  1.00  0.00    -0.076 SA
HETATM    4  C8  UNL     1      34.571 -31.324   2.710  1.00  0.00     0.227 C 
HETATM    5  N4  UNL     1      35.354 -31.908   1.686  1.00  0.00    -0.273 N 
HETATM    6  S2  UNL     1      37.090 -31.921   1.786  1.00  0.00     0.048 SA
ENDROOT
BRANCH   1   7
HETATM    7  C4  UNL     1      34.747 -31.612  -0.663  1.00  0.00     0.057 C 
HETATM    8  C5  UNL     1      34.806 -30.153  -0.356  1.00  0.00     0.018 C 
BRANCH   7   9
HETATM    9  C3  UNL     1      36.020 -31.999  -1.410  1.00  0.00     0.023 A 
HETATM   10  N2  UNL     1      36.931 -31.123  -1.780  1.00  0.00    -0.340 N 
HETATM   11  C2  UNL     1      38.005 -31.563  -2.427  1.00  0.00     0.144 A 
ATOM     12  H2  UNL     1      36.814 -30.130  -1.574  1.00  0.00     0.168 HD
HETATM   13  S3  UNL     1      37.750 -33.239  -2.530  1.00  0.00    -0.064 SA
HETATM   14  C18 UNL     1      36.255 -33.321  -1.729  1.00  0.00     0.078 A 
BRANCH  11  15
HETATM   15  N1  UNL     1      39.009 -30.840  -2.869  1.00  0.00    -0.375 N 
HETATM   16  C1  UNL     1      39.145 -29.452  -2.480  1.00  0.00     0.148 C 
ATOM     17  H1  UNL     1      39.699 -31.261  -3.491  1.00  0.00     0.161 HD
ENDBRANCH  11  15
ENDBRANCH   7   9
ENDBRANCH   1   7
BRANCH   4  18
HETATM   18  N3  UNL     1      34.929 -30.859   3.726  1.00  0.00    -0.379 NA
BRANCH  18  19
HETATM   19  C9  UNL     1      35.397 -30.480   4.898  1.00  0.00     0.127 A 
HETATM   20  C10 UNL     1      36.560 -29.680   4.922  1.00  0.00     0.047 A 
HETATM   21  C11 UNL     1      37.137 -29.230   6.071  1.00  0.00     0.011 A 
HETATM   22  C12 UNL     1      36.572 -29.563   7.279  1.00  0.00    -0.053 A 
HETATM   23  C16 UNL     1      35.440 -30.342   7.296  1.00  0.00     0.030 A 
HETATM   24  C17 UNL     1      34.860 -30.793   6.147  1.00  0.00     0.052 A 
HETATM   25 BR1  UNL     1      33.291 -31.873   6.131  1.00  0.00    -0.048 Br
BRANCH  22  26
HETATM   26  C13 UNL     1      37.195 -29.076   8.513  1.00  0.00     0.010 C 
HETATM   27  C14 UNL     1      37.188 -30.173   9.557  1.00  0.00     0.015 C 
HETATM   28  C15 UNL     1      38.631 -28.617   8.263  1.00  0.00     0.015 C 
ENDBRANCH  22  26
ENDBRANCH  18  19
ENDBRANCH   4  18
TORSDOF 6
ENDMDL
MODEL 2
REMARK VINA RESULT: -9.081893836      1.269      1.719
REMARK  6 active torsions:
REMARK  status: ('A' for Active; 'I' for Inactive)
REMARK    1  A    between atoms: N1_2  and  C2_4 
REMARK    2  A    between atoms: C3_7  and  C4_8 
REMARK    3  A    between atoms: C4_8  and  C6_10 
REMARK    4  A    between atoms: C8_13  and  N3_14 
REMARK    5  A    between atoms: N3_14  and  C9_15 
REMARK    6  A    between atoms: C12_18  and  C13_19 
ROOT
HETATM    1  C6  UNL     1      34.702 -32.422   0.641  1.00  0.00     0.120 C 
HETATM    2  C7  UNL     1      33.257 -32.660   0.784  1.00  0.00     0.110 C 
HETATM    3  S1  UNL     1      32.844 -31.500   2.149  1.00  0.00    -0.076 SA
HETATM    4  C8  UNL     1      34.522 -31.531   2.842  1.00  0.00     0.227 C 
HETATM    5  N4  UNL     1      35.346 -32.030   1.806  1.00  0.00    -0.273 N 
HETATM    6  S2  UNL     1      37.070 -32.137   2.009  1.00  0.00     0.048 SA
ENDROOT
BRANCH   1   7
HETATM    7  C4  UNL     1      34.907 -31.442  -0.524  1.00  0.00     0.057 C 
HETATM    8  C5  UNL     1      35.159 -30.054  -0.038  1.00  0.00     0.018 C 
BRANCH   7   9
HETATM    9  C3  UNL     1      36.119 -31.898  -1.331  1.00  0.00     0.023 A 
HETATM   10  N2  UNL     1      37.066 -31.075  -1.733  1.00  0.00    -0.340 N 
HETATM   11  C2  UNL     1      38.081 -31.573  -2.431  1.00  0.00     0.144 A 
ATOM     12  H2  UNL     1      37.020 -30.080  -1.514  1.00  0.00     0.168 HD
HETATM   13  S3  UNL     1      37.719 -33.228  -2.537  1.00  0.00    -0.064 SA
HETATM   14  C18 UNL     1      36.258 -33.228  -1.671  1.00  0.00     0.078 A 
BRANCH  11  15
HETATM   15  N1  UNL     1      39.108 -30.908  -2.910  1.00  0.00    -0.375 N 
HETATM   16  C1  UNL     1      39.197 -29.473  -2.747  1.00  0.00     0.148 C 
ATOM     17  H1  UNL     1      39.848 -31.408  -3.402  1.00  0.00     0.161 HD
ENDBRANCH  11  15
ENDBRANCH   7   9
ENDBRANCH   1   7
BRANCH   4  18
HETATM   18  N3  UNL     1      34.831 -31.201   3.925  1.00  0.00    -0.379 NA
BRANCH  18  19
HETATM   19  C9  UNL     1      35.059 -30.927   5.194  1.00  0.00     0.127 A 
HETATM   20  C10 UNL     1      34.209 -31.506   6.161  1.00  0.00     0.047 A 
HETATM   21  C11 UNL     1      34.344 -31.295   7.499  1.00  0.00     0.011 A 
HETATM   22  C12 UNL     1      35.355 -30.481   7.951  1.00  0.00    -0.053 A 
HETATM   23  C16 UNL     1      36.203 -29.899   7.039  1.00  0.00     0.030 A 
HETATM   24  C17 UNL     1      36.069 -30.108   5.698  1.00  0.00     0.052 A 
HETATM   25 BR1  UNL     1      37.225 -29.320   4.405  1.00  0.00    -0.048 Br
BRANCH  22  26
HETATM   26  C13 UNL     1      35.498 -30.258   9.393  1.00  0.00     0.010 C 
HETATM   27  C14 UNL     1      34.781 -31.353  10.153  1.00  0.00     0.015 C 
HETATM   28  C15 UNL     1      36.969 -30.229   9.804  1.00  0.00     0.015 C 
ENDBRANCH  22  26
ENDBRANCH  18  19
ENDBRANCH   4  18
TORSDOF 6
ENDMDL
MODEL 3
REMARK VINA RESULT: -8.817170892      1.596      2.043
REMARK  6 active torsions:
REMARK  status: ('A' for Active; 'I' for Inactive)
REMARK    1  A    between atoms: N1_2  and  C2_4 
REMARK    2  A    between atoms: C3_7  and  C4_8 
REMARK    3  A    between atoms: C4_8  and  C6_10 
REMARK    4  A    between atoms: C8_13  and  N3_14 
REMARK    5  A    between atoms: N3_14  and  C9_15 
REMARK    6  A    between atoms: C12_18  and  C13_19 
ROOT
HETATM    1  C6  UNL     1      33.789 -32.534   1.792  1.00  0.00     0.120 C 
HETATM    2  C7  UNL     1      32.561 -33.142   2.328  1.00  0.00     0.110 C 
HETATM    3  S1  UNL     1      32.265 -32.090   3.806  1.00  0.00    -0.076 SA
HETATM    4  C8  UNL     1      34.018 -31.653   3.992  1.00  0.00     0.227 C 
HETATM    5  N4  UNL     1      34.612 -31.949   2.743  1.00  0.00    -0.273 N 
HETATM    6  S2  UNL     1      36.287 -31.587   2.443  1.00  0.00     0.048 SA
ENDROOT
BRANCH   1   7
HETATM    7  C4  UNL     1      33.387 -31.572   0.664  1.00  0.00     0.057 C 
HETATM    8  C5  UNL     1      33.102 -30.203   1.183  1.00  0.00     0.018 C 
BRANCH   7   9
HETATM    9  C3  UNL     1      34.543 -31.481  -0.328  1.00  0.00     0.023 A 
HETATM   10  N2  UNL     1      35.085 -32.538  -0.897  1.00  0.00    -0.340 N 
HETATM   11  C2  UNL     1      36.089 -32.352  -1.748  1.00  0.00     0.144 A 
ATOM     12  H2  UNL     1      34.743 -33.477  -0.690  1.00  0.00     0.168 HD
HETATM   13  S3  UNL     1      36.292 -30.666  -1.762  1.00  0.00    -0.064 SA
HETATM   14  C18 UNL     1      35.068 -30.250  -0.663  1.00  0.00     0.078 A 
BRANCH  11  15
HETATM   15  N1  UNL     1      36.747 -33.280  -2.405  1.00  0.00    -0.375 N 
HETATM   16  C1  UNL     1      38.037 -32.992  -2.994  1.00  0.00     0.148 C 
ATOM     17  H1  UNL     1      36.345 -34.213  -2.501  1.00  0.00     0.161 HD
ENDBRANCH  11  15
ENDBRANCH   7   9
ENDBRANCH   1   7
BRANCH   4  18
HETATM   18  N3  UNL     1      34.525 -31.219   4.957  1.00  0.00    -0.379 NA
BRANCH  18  19
HETATM   19  C9  UNL     1      35.236 -30.762   5.969  1.00  0.00     0.127 A 
HETATM   20  C10 UNL     1      36.433 -30.071   5.681  1.00  0.00     0.047 A 
HETATM   21  C11 UNL     1      37.250 -29.557   6.641  1.00  0.00     0.011 A 
HETATM   22  C12 UNL     1      36.909 -29.707   7.964  1.00  0.00    -0.053 A 
HETATM   23  C16 UNL     1      35.751 -30.375   8.283  1.00  0.00     0.030 A 
HETATM   24  C17 UNL     1      34.931 -30.892   7.323  1.00  0.00     0.052 A 
HETATM   25 BR1  UNL     1      33.318 -31.822   7.728  1.00  0.00    -0.048 Br
BRANCH  22  26
HETATM   26  C13 UNL     1      37.791 -29.151   8.993  1.00  0.00     0.010 C 
HETATM   27  C14 UNL     1      38.473 -27.907   8.465  1.00  0.00     0.015 C 
HETATM   28  C15 UNL     1      37.012 -28.808  10.262  1.00  0.00     0.015 C 
ENDBRANCH  22  26
ENDBRANCH  18  19
ENDBRANCH   4  18
TORSDOF 6
ENDMDL
MODEL 4
REMARK VINA RESULT: -8.781250280      3.034      4.243
REMARK  6 active torsions:
REMARK  status: ('A' for Active; 'I' for Inactive)
REMARK    1  A    between atoms: N1_2  and  C2_4 
REMARK    2  A    between atoms: C3_7  and  C4_8 
REMARK    3  A    between atoms: C4_8  and  C6_10 
REMARK    4  A    between atoms: C8_13  and  N3_14 
REMARK    5  A    between atoms: N3_14  and  C9_15 
REMARK    6  A    between atoms: C12_18  and  C13_19 
ROOT
HETATM    1  C6  UNL     1      38.439 -28.780   1.496  1.00  0.00     0.120 C 
HETATM    2  C7  UNL     1      38.846 -27.404   1.820  1.00  0.00     0.110 C 
HETATM    3  S1  UNL     1      39.112 -27.535   3.634  1.00  0.00    -0.076 SA
HETATM    4  C8  UNL     1      37.955 -28.922   3.823  1.00  0.00     0.227 C 
HETATM    5  N4  UNL     1      37.792 -29.454   2.522  1.00  0.00    -0.273 N 
HETATM    6  S2  UNL     1      36.828 -30.876   2.253  1.00  0.00     0.048 SA
ENDROOT
BRANCH   1   7
HETATM    7  C4  UNL     1      39.673 -29.526   0.964  1.00  0.00     0.057 C 
HETATM    8  C5  UNL     1      39.844 -30.851   1.628  1.00  0.00     0.018 C 
BRANCH   7   9
HETATM    9  C3  UNL     1      39.490 -29.756  -0.533  1.00  0.00     0.023 A 
HETATM   10  N2  UNL     1      38.653 -30.646  -1.025  1.00  0.00    -0.340 N 
HETATM   11  C2  UNL     1      38.567 -30.769  -2.346  1.00  0.00     0.144 A 
ATOM     12  H2  UNL     1      38.084 -31.226  -0.408  1.00  0.00     0.168 HD
HETATM   13  S3  UNL     1      39.677 -29.623  -2.927  1.00  0.00    -0.064 SA
HETATM   14  C18 UNL     1      40.221 -29.014  -1.438  1.00  0.00     0.078 A 
BRANCH  11  15
HETATM   15  N1  UNL     1      37.793 -31.597  -3.011  1.00  0.00    -0.375 N 
HETATM   16  C1  UNL     1      38.093 -33.012  -3.055  1.00  0.00     0.148 C 
ATOM     17  H1  UNL     1      36.973 -31.239  -3.500  1.00  0.00     0.161 HD
ENDBRANCH  11  15
ENDBRANCH   7   9
ENDBRANCH   1   7
BRANCH   4  18
HETATM   18  N3  UNL     1      37.461 -29.281   4.825  1.00  0.00    -0.379 NA
BRANCH  18  19
HETATM   19  C9  UNL     1      36.764 -29.651   5.880  1.00  0.00     0.127 A 
HETATM   20  C10 UNL     1      35.611 -30.439   5.672  1.00  0.00     0.047 A 
HETATM   21  C11 UNL     1      34.811 -30.878   6.683  1.00  0.00     0.011 A 
HETATM   22  C12 UNL     1      35.127 -30.548   7.979  1.00  0.00    -0.053 A 
HETATM   23  C16 UNL     1      36.241 -29.782   8.222  1.00  0.00     0.030 A 
HETATM   24  C17 UNL     1      37.044 -29.340   7.211  1.00  0.00     0.052 A 
HETATM   25 BR1  UNL     1      38.597 -28.277   7.509  1.00  0.00    -0.048 Br
BRANCH  22  26
HETATM   26  C13 UNL     1      34.264 -31.024   9.064  1.00  0.00     0.010 C 
HETATM   27  C14 UNL     1      33.297 -32.060   8.531  1.00  0.00     0.015 C 
HETATM   28  C15 UNL     1      35.087 -31.630  10.200  1.00  0.00     0.015 C 
ENDBRANCH  22  26
ENDBRANCH  18  19
ENDBRANCH   4  18
TORSDOF 6
ENDMDL
MODEL 5
REMARK VINA RESULT: -8.589652452      1.575      2.190
REMARK  6 active torsions:
REMARK  status: ('A' for Active; 'I' for Inactive)
REMARK    1  A    between atoms: N1_2  and  C2_4 
REMARK    2  A    between atoms: C3_7  and  C4_8 
REMARK    3  A    between atoms: C4_8  and  C6_10 
REMARK    4  A    between atoms: C8_13  and  N3_14 
REMARK    5  A    between atoms: N3_14  and  C9_15 
REMARK    6  A    between atoms: C12_18  and  C13_19 
ROOT
HETATM    1  C6  UNL     1      35.885 -31.098   0.636  1.00  0.00     0.120 C 
HETATM    2  C7  UNL     1      34.455 -31.166   0.298  1.00  0.00     0.110 C 
HETATM    3  S1  UNL     1      33.704 -30.426   1.803  1.00  0.00    -0.076 SA
HETATM    4  C8  UNL     1      35.095 -30.895   2.872  1.00  0.00     0.227 C 
HETATM    5  N4  UNL     1      36.168 -31.168   1.993  1.00  0.00    -0.273 N 
HETATM    6  S2  UNL     1      37.746 -31.567   2.605  1.00  0.00     0.048 SA
ENDROOT
BRANCH   1   7
HETATM    7  C4  UNL     1      36.473 -29.850  -0.042  1.00  0.00     0.057 C 
HETATM    8  C5  UNL     1      37.283 -29.036   0.909  1.00  0.00     0.018 C 
BRANCH   7   9
HETATM    9  C3  UNL     1      37.379 -30.303  -1.184  1.00  0.00     0.023 A 
HETATM   10  N2  UNL     1      37.228 -31.454  -1.807  1.00  0.00    -0.340 N 
HETATM   11  C2  UNL     1      38.072 -31.755  -2.789  1.00  0.00     0.144 A 
ATOM     12  H2  UNL     1      36.483 -32.098  -1.541  1.00  0.00     0.168 HD
HETATM   13  S3  UNL     1      39.105 -30.409  -2.855  1.00  0.00    -0.064 SA
HETATM   14  C18 UNL     1      38.413 -29.492  -1.605  1.00  0.00     0.078 A 
BRANCH  11  15
HETATM   15  N1  UNL     1      38.074 -32.848  -3.517  1.00  0.00    -0.375 N 
HETATM   16  C1  UNL     1      38.026 -34.152  -2.889  1.00  0.00     0.148 C 
ATOM     17  H1  UNL     1      38.110 -32.779  -4.534  1.00  0.00     0.161 HD
ENDBRANCH  11  15
ENDBRANCH   7   9
ENDBRANCH   1   7
BRANCH   4  18
HETATM   18  N3  UNL     1      35.079 -30.952   4.044  1.00  0.00    -0.379 NA
BRANCH  18  19
HETATM   19  C9  UNL     1      35.109 -30.861   5.359  1.00  0.00     0.127 A 
HETATM   20  C10 UNL     1      36.296 -30.396   5.966  1.00  0.00     0.047 A 
HETATM   21  C11 UNL     1      36.445 -30.262   7.313  1.00  0.00     0.011 A 
HETATM   22  C12 UNL     1      35.398 -30.592   8.140  1.00  0.00    -0.053 A 
HETATM   23  C16 UNL     1      34.227 -31.049   7.586  1.00  0.00     0.030 A 
HETATM   24  C17 UNL     1      34.075 -31.184   6.237  1.00  0.00     0.052 A 
HETATM   25 BR1  UNL     1      32.466 -31.814   5.432  1.00  0.00    -0.048 Br
BRANCH  22  26
HETATM   26  C13 UNL     1      35.563 -30.445   9.589  1.00  0.00     0.010 C 
HETATM   27  C14 UNL     1      35.079 -31.697  10.289  1.00  0.00     0.015 C 
HETATM   28  C15 UNL     1      37.023 -30.186   9.956  1.00  0.00     0.015 C 
ENDBRANCH  22  26
ENDBRANCH  18  19
ENDBRANCH   4  18
TORSDOF 6
ENDMDL
