MODEL 1
REMARK VINA RESULT: -6.199700246      0.000      0.000
REMARK  8 active torsions:
REMARK  status: ('A' for Active; 'I' for Inactive)
REMARK    1  A    between atoms: C2_2  and  C3_3 
REMARK    2  A    between atoms: C3_3  and  O1_4 
REMARK    3  A    between atoms: O1_4  and  C4_5 
REMARK    4  A    between atoms: C4_5  and  O3_7 
REMARK    5  A    between atoms: O3_7  and  C5_8 
REMARK    6  A    between atoms: C7_11  and  O5_12 
REMARK    7  A    between atoms: C16_24  and  C17_25 
REMARK    8  A    between atoms: C24_32  and  O7_33 
ROOT
HETATM    1  C5  UNL     1      24.365  -0.300   8.376  1.00  0.00     0.306 C 
HETATM    2  O4  UNL     1      24.278   0.033   7.012  1.00  0.00    -0.316 OA
HETATM    3  C6  UNL     1      23.303   0.835   6.275  1.00  0.00     0.112 C 
HETATM    4  C7  UNL     1      22.043   0.497   6.313  1.00  0.00     0.216 C 
HETATM    5  O6  UNL     1      21.608  -0.721   6.936  1.00  0.00    -0.260 OA
HETATM    6  C8  UNL     1      21.851  -2.000   6.220  1.00  0.00     0.203 C 
HETATM    7  N1  UNL     1      22.318  -2.184   5.126  1.00  0.00    -0.396 NA
HETATM    8  C9  UNL     1      22.861  -2.067   3.894  1.00  0.00     0.191 C 
HETATM    9  C10 UNL     1      23.584  -1.074   3.301  1.00  0.00    -0.037 C 
HETATM   10  C11 UNL     1      24.081  -1.173   1.926  1.00  0.00     0.050 C 
HETATM   11  C12 UNL     1      23.781   0.066   4.136  1.00  0.00    -0.017 C 
HETATM   12  C13 UNL     1      24.650   1.207   4.224  1.00  0.00     0.038 C 
HETATM   13  C14 UNL     1      24.085   1.890   5.575  1.00  0.00     0.047 C 
HETATM   14  C15 UNL     1      23.464   3.120   5.061  1.00  0.00     0.017 C 
HETATM   15  C16 UNL     1      21.357  -3.079   7.234  1.00  0.00     0.079 C 
HETATM   16  C20 UNL     1      22.178  -2.749   8.389  1.00  0.00     0.018 C 
HETATM   17  C21 UNL     1      22.988  -3.504   9.304  1.00  0.00    -0.015 C 
HETATM   18  C22 UNL     1      22.219  -3.878  10.558  1.00  0.00     0.010 C 
HETATM   19  C23 UNL     1      23.992  -2.401   9.807  1.00  0.00     0.041 C 
HETATM   20  C24 UNL     1      24.742  -1.694   8.738  1.00  0.00     0.174 C 
ENDROOT
BRANCH   1  21
HETATM   21  O3  UNL     1      23.275   0.255   9.064  1.00  0.00    -0.263 OA
BRANCH  21  22
HETATM   22  C4  UNL     1      23.341   1.190  10.085  1.00  0.00     0.408 C 
HETATM   23  O2  UNL     1      23.359   0.716  11.246  1.00  0.00    -0.229 OA
BRANCH  22  24
HETATM   24  O1  UNL     1      23.383   2.546   9.880  1.00  0.00    -0.298 OA
BRANCH  24  25
HETATM   25  C3  UNL     1      22.405   3.419  10.349  1.00  0.00     0.180 C 
BRANCH  25  26
HETATM   26  C2  UNL     1      21.848   4.373   9.347  1.00  0.00     0.022 C 
HETATM   27  C1  UNL     1      21.444   3.641   8.065  1.00  0.00     0.007 C 
ENDBRANCH  25  26
ENDBRANCH  24  25
ENDBRANCH  22  24
ENDBRANCH  21  22
ENDBRANCH   1  21
BRANCH  20  28
HETATM   28  O7  UNL     1      26.069  -1.626   9.295  1.00  0.00    -0.391 OA
ATOM     29  H7  UNL     1      25.964  -1.633  10.239  1.00  0.00     0.210 HD
ENDBRANCH  20  28
BRANCH   4  30
HETATM   30  O5  UNL     1      20.831   1.015   5.812  1.00  0.00    -0.339 OA
ATOM     31  H5  UNL     1      19.909   0.935   6.024  1.00  0.00     0.220 HD
ENDBRANCH   4  30
BRANCH  15  32
HETATM   32  C17 UNL     1      19.879  -2.842   7.357  1.00  0.00    -0.010 C 
HETATM   33  C18 UNL     1      19.196  -3.417   6.125  1.00  0.00     0.010 C 
HETATM   34  C19 UNL     1      19.311  -3.580   8.550  1.00  0.00     0.010 C 
ENDBRANCH  15  32
TORSDOF 8
ENDMDL
MODEL 2
REMARK VINA RESULT: -6.009262822      7.476     10.455
REMARK  8 active torsions:
REMARK  status: ('A' for Active; 'I' for Inactive)
REMARK    1  A    between atoms: C2_2  and  C3_3 
REMARK    2  A    between atoms: C3_3  and  O1_4 
REMARK    3  A    between atoms: O1_4  and  C4_5 
REMARK    4  A    between atoms: C4_5  and  O3_7 
REMARK    5  A    between atoms: O3_7  and  C5_8 
REMARK    6  A    between atoms: C7_11  and  O5_12 
REMARK    7  A    between atoms: C16_24  and  C17_25 
REMARK    8  A    between atoms: C24_32  and  O7_33 
ROOT
HETATM    1  C5  UNL     1      18.595  -6.629   9.576  1.00  0.00     0.306 C 
HETATM    2  O4  UNL     1      19.645  -7.411  10.091  1.00  0.00    -0.316 OA
HETATM    3  C6  UNL     1      19.633  -8.631  10.896  1.00  0.00     0.112 C 
HETATM    4  C7  UNL     1      19.018  -8.627  12.048  1.00  0.00     0.216 C 
HETATM    5  O6  UNL     1      18.480  -7.421  12.610  1.00  0.00    -0.260 OA
HETATM    6  C8  UNL     1      19.427  -6.439  13.199  1.00  0.00     0.203 C 
HETATM    7  N1  UNL     1      20.620  -6.522  13.343  1.00  0.00    -0.396 NA
HETATM    8  C9  UNL     1      21.915  -6.906  13.367  1.00  0.00     0.191 C 
HETATM    9  C10 UNL     1      22.613  -7.825  12.640  1.00  0.00    -0.037 C 
HETATM   10  C11 UNL     1      24.043  -8.072  12.845  1.00  0.00     0.050 C 
HETATM   11  C12 UNL     1      21.813  -8.531  11.693  1.00  0.00    -0.017 C 
HETATM   12  C13 UNL     1      21.985  -9.319  10.504  1.00  0.00     0.038 C 
HETATM   13  C14 UNL     1      20.441  -9.628  10.141  1.00  0.00     0.047 C 
HETATM   14  C15 UNL     1      20.347 -11.073  10.398  1.00  0.00     0.017 C 
HETATM   15  C16 UNL     1      18.506  -5.243  13.594  1.00  0.00     0.079 C 
HETATM   16  C20 UNL     1      17.892  -4.949  12.308  1.00  0.00     0.018 C 
HETATM   17  C21 UNL     1      17.661  -3.754  11.545  1.00  0.00    -0.015 C 
HETATM   18  C22 UNL     1      16.276  -3.186  11.797  1.00  0.00     0.010 C 
HETATM   19  C23 UNL     1      17.558  -4.334  10.086  1.00  0.00     0.041 C 
HETATM   20  C24 UNL     1      18.720  -5.147   9.646  1.00  0.00     0.174 C 
ENDROOT
BRANCH   1  21
HETATM   21  O3  UNL     1      17.365  -7.175   9.973  1.00  0.00    -0.263 OA
BRANCH  21  22
HETATM   22  C4  UNL     1      16.477  -7.869   9.165  1.00  0.00     0.408 C 
HETATM   23  O2  UNL     1      16.612  -9.115   9.165  1.00  0.00    -0.229 OA
BRANCH  22  24
HETATM   24  O1  UNL     1      15.507  -7.268   8.404  1.00  0.00    -0.298 OA
BRANCH  24  25
HETATM   25  C3  UNL     1      15.791  -6.417   7.338  1.00  0.00     0.180 C 
BRANCH  25  26
HETATM   26  C2  UNL     1      16.664  -6.980   6.269  1.00  0.00     0.022 C 
HETATM   27  C1  UNL     1      15.897  -7.996   5.419  1.00  0.00     0.007 C 
ENDBRANCH  25  26
ENDBRANCH  24  25
ENDBRANCH  22  24
ENDBRANCH  21  22
ENDBRANCH   1  21
BRANCH  20  28
HETATM   28  O7  UNL     1      18.914  -4.689   8.294  1.00  0.00    -0.391 OA
ATOM     29  H7  UNL     1      19.572  -5.256   7.911  1.00  0.00     0.210 HD
ENDBRANCH  20  28
BRANCH   4  30
HETATM   30  O5  UNL     1      18.736  -9.570  13.057  1.00  0.00    -0.339 OA
ATOM     31  H5  UNL     1      18.543  -9.545  13.987  1.00  0.00     0.220 HD
ENDBRANCH   4  30
BRANCH  15  32
HETATM   32  C17 UNL     1      17.610  -5.788  14.668  1.00  0.00    -0.010 C 
HETATM   33  C18 UNL     1      18.329  -5.663  16.003  1.00  0.00     0.010 C 
HETATM   34  C19 UNL     1      16.343  -4.967  14.784  1.00  0.00     0.010 C 
ENDBRANCH  15  32
TORSDOF 8
ENDMDL
MODEL 3
REMARK VINA RESULT: -5.683761029      7.628     10.966
REMARK  8 active torsions:
REMARK  status: ('A' for Active; 'I' for Inactive)
REMARK    1  A    between atoms: C2_2  and  C3_3 
REMARK    2  A    between atoms: C3_3  and  O1_4 
REMARK    3  A    between atoms: O1_4  and  C4_5 
REMARK    4  A    between atoms: C4_5  and  O3_7 
REMARK    5  A    between atoms: O3_7  and  C5_8 
REMARK    6  A    between atoms: C7_11  and  O5_12 
REMARK    7  A    between atoms: C16_24  and  C17_25 
REMARK    8  A    between atoms: C24_32  and  O7_33 
ROOT
HETATM    1  C5  UNL     1      18.480  -6.691   9.753  1.00  0.00     0.306 C 
HETATM    2  O4  UNL     1      19.593  -7.417  10.215  1.00  0.00    -0.316 OA
HETATM    3  C6  UNL     1      19.686  -8.601  11.067  1.00  0.00     0.112 C 
HETATM    4  C7  UNL     1      19.162  -8.567  12.263  1.00  0.00     0.216 C 
HETATM    5  O6  UNL     1      18.628  -7.356  12.817  1.00  0.00    -0.260 OA
HETATM    6  C8  UNL     1      19.583  -6.320  13.289  1.00  0.00     0.203 C 
HETATM    7  N1  UNL     1      20.785  -6.360  13.342  1.00  0.00    -0.396 NA
HETATM    8  C9  UNL     1      22.091  -6.701  13.279  1.00  0.00     0.191 C 
HETATM    9  C10 UNL     1      22.762  -7.628  12.536  1.00  0.00    -0.037 C 
HETATM   10  C11 UNL     1      24.212  -7.821  12.638  1.00  0.00     0.050 C 
HETATM   11  C12 UNL     1      21.916  -8.398  11.685  1.00  0.00    -0.017 C 
HETATM   12  C13 UNL     1      22.023  -9.231  10.519  1.00  0.00     0.038 C 
HETATM   13  C14 UNL     1      20.467  -9.604  10.292  1.00  0.00     0.047 C 
HETATM   14  C15 UNL     1      20.444 -11.038  10.614  1.00  0.00     0.017 C 
HETATM   15  C16 UNL     1      18.654  -5.138  13.707  1.00  0.00     0.079 C 
HETATM   16  C20 UNL     1      17.932  -4.918  12.462  1.00  0.00     0.018 C 
HETATM   17  C21 UNL     1      17.602  -3.765  11.673  1.00  0.00    -0.015 C 
HETATM   18  C22 UNL     1      16.222  -3.231  12.010  1.00  0.00     0.010 C 
HETATM   19  C23 UNL     1      17.407  -4.410  10.251  1.00  0.00     0.041 C 
HETATM   20  C24 UNL     1      18.559  -5.204   9.754  1.00  0.00     0.174 C 
ENDROOT
BRANCH   1  21
HETATM   21  O3  UNL     1      17.304  -7.259  10.268  1.00  0.00    -0.263 OA
BRANCH  21  22
HETATM   22  C4  UNL     1      16.430  -8.091   9.587  1.00  0.00     0.408 C 
HETATM   23  O2  UNL     1      15.872  -7.581   8.587  1.00  0.00    -0.229 OA
BRANCH  22  24
HETATM   24  O1  UNL     1      16.166  -9.386   9.952  1.00  0.00    -0.298 OA
BRANCH  24  25
HETATM   25  C3  UNL     1      16.875 -10.478   9.457  1.00  0.00     0.180 C 
BRANCH  25  26
HETATM   26  C2  UNL     1      16.758 -11.742  10.240  1.00  0.00     0.022 C 
HETATM   27  C1  UNL     1      16.863 -12.962   9.322  1.00  0.00     0.007 C 
ENDBRANCH  25  26
ENDBRANCH  24  25
ENDBRANCH  22  24
ENDBRANCH  21  22
ENDBRANCH   1  21
BRANCH  20  28
HETATM   28  O7  UNL     1      18.631  -4.799   8.373  1.00  0.00    -0.391 OA
ATOM     29  H7  UNL     1      17.744  -4.840   8.035  1.00  0.00     0.210 HD
ENDBRANCH  20  28
BRANCH   4  30
HETATM   30  O5  UNL     1      18.992  -9.474  13.329  1.00  0.00    -0.339 OA
ATOM     31  H5  UNL     1      18.434  -9.539  14.094  1.00  0.00     0.220 HD
ENDBRANCH   4  30
BRANCH  15  32
HETATM   32  C17 UNL     1      17.863  -5.664  14.870  1.00  0.00    -0.010 C 
HETATM   33  C18 UNL     1      18.768  -5.689  16.093  1.00  0.00     0.010 C 
HETATM   34  C19 UNL     1      16.713  -4.739  15.204  1.00  0.00     0.010 C 
ENDBRANCH  15  32
TORSDOF 8
ENDMDL
MODEL 4
REMARK VINA RESULT: -5.658982464      2.661      6.491
REMARK  8 active torsions:
REMARK  status: ('A' for Active; 'I' for Inactive)
REMARK    1  A    between atoms: C2_2  and  C3_3 
REMARK    2  A    between atoms: C3_3  and  O1_4 
REMARK    3  A    between atoms: O1_4  and  C4_5 
REMARK    4  A    between atoms: C4_5  and  O3_7 
REMARK    5  A    between atoms: O3_7  and  C5_8 
REMARK    6  A    between atoms: C7_11  and  O5_12 
REMARK    7  A    between atoms: C16_24  and  C17_25 
REMARK    8  A    between atoms: C24_32  and  O7_33 
ROOT
HETATM    1  C5  UNL     1      22.795  -0.312   6.061  1.00  0.00     0.306 C 
HETATM    2  O4  UNL     1      23.238   0.753   6.866  1.00  0.00    -0.316 OA
HETATM    3  C6  UNL     1      22.925   2.180   6.836  1.00  0.00     0.112 C 
HETATM    4  C7  UNL     1      23.155   2.859   5.745  1.00  0.00     0.216 C 
HETATM    5  O6  UNL     1      23.841   2.277   4.626  1.00  0.00    -0.260 OA
HETATM    6  C8  UNL     1      25.311   2.086   4.727  1.00  0.00     0.203 C 
HETATM    7  N1  UNL     1      26.063   2.412   5.610  1.00  0.00    -0.396 NA
HETATM    8  C9  UNL     1      26.636   2.892   6.735  1.00  0.00     0.191 C 
HETATM    9  C10 UNL     1      26.133   3.177   7.970  1.00  0.00    -0.037 C 
HETATM   10  C11 UNL     1      26.963   3.698   9.060  1.00  0.00     0.050 C 
HETATM   11  C12 UNL     1      24.729   2.948   8.082  1.00  0.00    -0.017 C 
HETATM   12  C13 UNL     1      23.742   2.755   9.108  1.00  0.00     0.038 C 
HETATM   13  C14 UNL     1      22.428   2.520   8.198  1.00  0.00     0.047 C 
HETATM   14  C15 UNL     1      21.644   3.734   8.469  1.00  0.00     0.017 C 
HETATM   15  C16 UNL     1      25.669   1.345   3.402  1.00  0.00     0.079 C 
HETATM   16  C20 UNL     1      24.798   0.184   3.506  1.00  0.00     0.018 C 
HETATM   17  C21 UNL     1      24.971  -1.232   3.333  1.00  0.00    -0.015 C 
HETATM   18  C22 UNL     1      24.597  -1.675   1.931  1.00  0.00     0.010 C 
HETATM   19  C23 UNL     1      23.798  -1.796   4.219  1.00  0.00     0.041 C 
HETATM   20  C24 UNL     1      23.792  -1.330   5.628  1.00  0.00     0.174 C 
ENDROOT
BRANCH   1  21
HETATM   21  O3  UNL     1      21.928   0.179   5.072  1.00  0.00    -0.263 OA
BRANCH  21  22
HETATM   22  C4  UNL     1      20.562  -0.043   4.997  1.00  0.00     0.408 C 
HETATM   23  O2  UNL     1      19.877   0.943   4.638  1.00  0.00    -0.229 OA
BRANCH  22  24
HETATM   24  O1  UNL     1      19.965  -1.243   5.289  1.00  0.00    -0.298 OA
BRANCH  24  25
HETATM   25  C3  UNL     1      20.127  -2.386   4.510  1.00  0.00     0.180 C 
BRANCH  25  26
HETATM   26  C2  UNL     1      19.428  -3.611   4.995  1.00  0.00     0.022 C 
HETATM   27  C1  UNL     1      19.103  -3.497   6.486  1.00  0.00     0.007 C 
ENDBRANCH  25  26
ENDBRANCH  24  25
ENDBRANCH  22  24
ENDBRANCH  21  22
ENDBRANCH   1  21
BRANCH  20  28
HETATM   28  O7  UNL     1      23.475  -2.540   6.344  1.00  0.00    -0.391 OA
ATOM     29  H7  UNL     1      24.181  -3.150   6.166  1.00  0.00     0.210 HD
ENDBRANCH  20  28
BRANCH   4  30
HETATM   30  O5  UNL     1      22.950   4.182   5.303  1.00  0.00    -0.339 OA
ATOM     31  H5  UNL     1      23.137   5.053   5.631  1.00  0.00     0.220 HD
ENDBRANCH   4  30
BRANCH  15  32
HETATM   32  C17 UNL     1      25.361   2.333   2.314  1.00  0.00    -0.010 C 
HETATM   33  C18 UNL     1      26.412   3.432   2.353  1.00  0.00     0.010 C 
HETATM   34  C19 UNL     1      25.465   1.685   0.950  1.00  0.00     0.010 C 
ENDBRANCH  15  32
TORSDOF 8
ENDMDL
MODEL 5
REMARK VINA RESULT: -5.602030449      2.315      6.352
REMARK  8 active torsions:
REMARK  status: ('A' for Active; 'I' for Inactive)
REMARK    1  A    between atoms: C2_2  and  C3_3 
REMARK    2  A    between atoms: C3_3  and  O1_4 
REMARK    3  A    between atoms: O1_4  and  C4_5 
REMARK    4  A    between atoms: C4_5  and  O3_7 
REMARK    5  A    between atoms: O3_7  and  C5_8 
REMARK    6  A    between atoms: C7_11  and  O5_12 
REMARK    7  A    between atoms: C16_24  and  C17_25 
REMARK    8  A    between atoms: C24_32  and  O7_33 
ROOT
HETATM    1  C5  UNL     1      22.183  -3.064   6.748  1.00  0.00     0.306 C 
HETATM    2  O4  UNL     1      23.446  -3.113   7.366  1.00  0.00    -0.316 OA
HETATM    3  C6  UNL     1      23.855  -2.863   8.746  1.00  0.00     0.112 C 
HETATM    4  C7  UNL     1      23.593  -1.703   9.287  1.00  0.00     0.216 C 
HETATM    5  O6  UNL     1      23.047  -0.620   8.519  1.00  0.00    -0.260 OA
HETATM    6  C8  UNL     1      23.951   0.103   7.587  1.00  0.00     0.203 C 
HETATM    7  N1  UNL     1      25.134  -0.037   7.410  1.00  0.00    -0.396 NA
HETATM    8  C9  UNL     1      26.428  -0.422   7.439  1.00  0.00     0.191 C 
HETATM    9  C10 UNL     1      27.034  -1.573   7.851  1.00  0.00    -0.037 C 
HETATM   10  C11 UNL     1      28.485  -1.770   7.783  1.00  0.00     0.050 C 
HETATM   11  C12 UNL     1      26.125  -2.541   8.374  1.00  0.00    -0.017 C 
HETATM   12  C13 UNL     1      26.083  -3.951   8.644  1.00  0.00     0.038 C 
HETATM   13  C14 UNL     1      24.570  -4.091   9.193  1.00  0.00     0.047 C 
HETATM   14  C15 UNL     1      24.784  -4.404  10.613  1.00  0.00     0.017 C 
HETATM   15  C16 UNL     1      22.997   1.108   6.869  1.00  0.00     0.079 C 
HETATM   16  C20 UNL     1      22.010   0.188   6.323  1.00  0.00     0.018 C 
HETATM   17  C21 UNL     1      21.388   0.013   5.040  1.00  0.00    -0.015 C 
HETATM   18  C22 UNL     1      20.056   0.736   4.960  1.00  0.00     0.010 C 
HETATM   19  C23 UNL     1      20.977  -1.505   5.101  1.00  0.00     0.041 C 
HETATM   20  C24 UNL     1      22.084  -2.447   5.396  1.00  0.00     0.174 C 
ENDROOT
BRANCH   1  21
HETATM   21  O3  UNL     1      21.217  -2.675   7.688  1.00  0.00    -0.263 OA
BRANCH  21  22
HETATM   22  C4  UNL     1      20.099  -3.403   8.063  1.00  0.00     0.408 C 
HETATM   23  O2  UNL     1      20.269  -4.198   9.017  1.00  0.00    -0.229 OA
BRANCH  22  24
HETATM   24  O1  UNL     1      18.874  -3.290   7.455  1.00  0.00    -0.298 OA
BRANCH  24  25
HETATM   25  C3  UNL     1      18.536  -3.971   6.288  1.00  0.00     0.180 C 
BRANCH  25  26
HETATM   26  C2  UNL     1      17.192  -4.616   6.276  1.00  0.00     0.022 C 
HETATM   27  C1  UNL     1      17.311  -6.115   5.991  1.00  0.00     0.007 C 
ENDBRANCH  25  26
ENDBRANCH  24  25
ENDBRANCH  22  24
ENDBRANCH  21  22
ENDBRANCH   1  21
BRANCH  20  28
HETATM   28  O7  UNL     1      21.817  -3.524   4.476  1.00  0.00    -0.391 OA
ATOM     29  H7  UNL     1      21.213  -4.109   4.916  1.00  0.00     0.210 HD
ENDBRANCH  20  28
BRANCH   4  30
HETATM   30  O5  UNL     1      23.758  -1.107  10.553  1.00  0.00    -0.339 OA
ATOM     31  H5  UNL     1      24.412  -0.564  10.978  1.00  0.00     0.220 HD
ENDBRANCH   4  30
BRANCH  15  32
HETATM   32  C17 UNL     1      22.535   2.040   7.951  1.00  0.00    -0.010 C 
HETATM   33  C18 UNL     1      23.710   2.913   8.366  1.00  0.00     0.010 C 
HETATM   34  C19 UNL     1      21.462   2.976   7.438  1.00  0.00     0.010 C 
ENDBRANCH  15  32
TORSDOF 8
ENDMDL
