MODEL 1
REMARK VINA RESULT: -7.633961537      0.000      0.000
REMARK  9 active torsions:
REMARK  status: ('A' for Active; 'I' for Inactive)
REMARK    1  A    between atoms: O1_2  and  C2_3 
REMARK    2  A    between atoms: C5_6  and  C6_7 
REMARK    3  A    between atoms: N1_9  and  O2_11 
REMARK    4  A    between atoms: C14_19  and  C16_21 
REMARK    5  A    between atoms: C16_21  and  C17_22 
REMARK    6  A    between atoms: C18_23  and  O3_24 
REMARK    7  A    between atoms: C20_29  and  N3_30 
REMARK    8  A    between atoms: C21_33  and  N4_34 
REMARK    9  A    between atoms: N4_34  and  N5_35 
ROOT
HETATM    1  C2  UNL     1      17.737  -7.256  11.162  1.00  0.00     0.130 C 
HETATM    2  C3  UNL     1      17.768  -6.405  12.445  1.00  0.00     0.021 C 
HETATM    3  C4  UNL     1      17.771  -7.309  13.653  1.00  0.00     0.013 C 
HETATM    4  C5  UNL     1      19.117  -5.714  12.272  1.00  0.00     0.048 C 
HETATM    5  C8  UNL     1      19.403  -5.575  10.818  1.00  0.00    -0.029 C 
HETATM    6  C9  UNL     1      20.690  -6.294  10.541  1.00  0.00     0.016 C 
HETATM    7  C10 UNL     1      19.521  -4.188  10.264  1.00  0.00     0.011 C 
HETATM    8  C11 UNL     1      19.586  -4.329   8.733  1.00  0.00     0.006 C 
HETATM    9  C12 UNL     1      18.193  -4.233   8.102  1.00  0.00    -0.007 C 
HETATM   10  C13 UNL     1      18.411  -3.470   6.815  1.00  0.00     0.011 C 
HETATM   11  C14 UNL     1      17.654  -5.577   7.806  1.00  0.00    -0.021 C 
HETATM   12  C15 UNL     1      18.293  -5.986   6.464  1.00  0.00     0.020 C 
HETATM   13  C22 UNL     1      18.256  -6.632   8.795  1.00  0.00     0.021 C 
HETATM   14  C23 UNL     1      18.195  -6.178  10.184  1.00  0.00     0.025 C 
ENDROOT
BRANCH  11  15
HETATM   15  C16 UNL     1      16.222  -5.841   7.776  1.00  0.00     0.002 C 
BRANCH  15  16
HETATM   16  C17 UNL     1      15.510  -6.437   6.677  1.00  0.00     0.057 A 
HETATM   17  C18 UNL     1      15.409  -7.782   6.439  1.00  0.00     0.153 A 
HETATM   18  N2  UNL     1      14.703  -8.263   5.374  1.00  0.00    -0.344 N 
HETATM   19  C19 UNL     1      14.070  -7.481   4.500  1.00  0.00     0.130 A 
ATOM     20  H2  UNL     1      14.658  -9.273   5.241  1.00  0.00     0.167 HD
HETATM   21  C20 UNL     1      14.135  -6.093   4.684  1.00  0.00     0.161 A 
HETATM   22  C21 UNL     1      14.842  -5.616   5.749  1.00  0.00     0.179 A 
BRANCH  17  23
HETATM   23  O3  UNL     1      15.996  -8.762   7.220  1.00  0.00    -0.345 OA
ATOM     24  H3  UNL     1      15.580  -9.583   7.456  1.00  0.00     0.219 HD
ENDBRANCH  17  23
BRANCH  21  25
HETATM   25  N3  UNL     1      13.458  -5.261   3.752  1.00  0.00    -0.111 N 
HETATM   26  O4  UNL     1      13.308  -4.050   3.821  1.00  0.00    -0.532 OA
HETATM   27  O5  UNL     1      12.908  -5.887   2.634  1.00  0.00    -0.532 OA
ENDBRANCH  21  25
BRANCH  22  28
HETATM   28  N4  UNL     1      14.895  -4.223   5.852  1.00  0.00    -0.329 NA
BRANCH  28  29
HETATM   29  N5  UNL     1      14.963  -3.088   5.942  1.00  0.00    -0.280 N 
ATOM     30  H52 UNL     1      15.654  -3.796   5.693  1.00  0.00     0.191 HD
ATOM     31  H51 UNL     1      15.002  -2.073   6.028  1.00  0.00     0.191 HD
ENDBRANCH  28  29
ENDBRANCH  22  28
ENDBRANCH  15  16
ENDBRANCH  11  15
BRANCH   1  32
HETATM   32  O1  UNL     1      18.649  -8.294  11.239  1.00  0.00    -0.390 OA
HETATM   33  C1  UNL     1      18.044  -9.475  10.833  1.00  0.00     0.202 C 
ENDBRANCH   1  32
BRANCH   4  34
HETATM   34  C6  UNL     1      19.278  -4.552  13.134  1.00  0.00     0.011 C 
HETATM   35  C7  UNL     1      18.057  -3.725  13.485  1.00  0.00     0.066 C 
HETATM   36  N1  UNL     1      20.359  -4.111  13.652  1.00  0.00    -0.277 N 
ATOM     37  H1  UNL     1      21.232  -4.602  13.463  1.00  0.00     0.193 HD
BRANCH  36  38
HETATM   38  O2  UNL     1      20.384  -3.007  14.447  1.00  0.00    -0.290 OA
ATOM     39  H2  UNL     1      20.768  -3.017  15.316  1.00  0.00     0.244 HD
ENDBRANCH  36  38
ENDBRANCH   4  34
TORSDOF 9
ENDMDL
MODEL 2
REMARK VINA RESULT: -7.305137576      3.096      5.150
REMARK  9 active torsions:
REMARK  status: ('A' for Active; 'I' for Inactive)
REMARK    1  A    between atoms: O1_2  and  C2_3 
REMARK    2  A    between atoms: C5_6  and  C6_7 
REMARK    3  A    between atoms: N1_9  and  O2_11 
REMARK    4  A    between atoms: C14_19  and  C16_21 
REMARK    5  A    between atoms: C16_21  and  C17_22 
REMARK    6  A    between atoms: C18_23  and  O3_24 
REMARK    7  A    between atoms: C20_29  and  N3_30 
REMARK    8  A    between atoms: C21_33  and  N4_34 
REMARK    9  A    between atoms: N4_34  and  N5_35 
ROOT
HETATM    1  C2  UNL     1      18.941  -6.754  12.178  1.00  0.00     0.130 C 
HETATM    2  C3  UNL     1      20.361  -7.340  12.282  1.00  0.00     0.021 C 
HETATM    3  C4  UNL     1      20.760  -7.444  13.734  1.00  0.00     0.013 C 
HETATM    4  C5  UNL     1      20.123  -8.720  11.677  1.00  0.00     0.048 C 
HETATM    5  C8  UNL     1      19.010  -8.629  10.694  1.00  0.00    -0.029 C 
HETATM    6  C9  UNL     1      17.934  -9.573  11.142  1.00  0.00     0.016 C 
HETATM    7  C10 UNL     1      19.323  -8.933   9.261  1.00  0.00     0.011 C 
HETATM    8  C11 UNL     1      18.078  -8.546   8.445  1.00  0.00     0.006 C 
HETATM    9  C12 UNL     1      18.168  -7.104   7.936  1.00  0.00    -0.007 C 
HETATM   10  C13 UNL     1      17.551  -7.149   6.556  1.00  0.00     0.011 C 
HETATM   11  C14 UNL     1      17.396  -6.189   8.803  1.00  0.00    -0.021 C 
HETATM   12  C15 UNL     1      15.933  -6.320   8.335  1.00  0.00     0.020 C 
HETATM   13  C22 UNL     1      17.329  -6.754  10.263  1.00  0.00     0.021 C 
HETATM   14  C23 UNL     1      18.641  -7.185  10.744  1.00  0.00     0.025 C 
ENDROOT
BRANCH  11  15
HETATM   15  C16 UNL     1      17.750  -4.782   8.943  1.00  0.00     0.002 C 
BRANCH  15  16
HETATM   16  C17 UNL     1      18.900  -4.153   8.353  1.00  0.00     0.057 A 
HETATM   17  C18 UNL     1      20.117  -4.002   8.964  1.00  0.00     0.153 A 
HETATM   18  N2  UNL     1      21.162  -3.399   8.324  1.00  0.00    -0.344 N 
HETATM   19  C19 UNL     1      21.085  -2.919   7.083  1.00  0.00     0.130 A 
ATOM     20  H2  UNL     1      22.048  -3.312   8.822  1.00  0.00     0.167 HD
HETATM   21  C20 UNL     1      19.866  -3.039   6.401  1.00  0.00     0.161 A 
HETATM   22  C21 UNL     1      18.824  -3.642   7.044  1.00  0.00     0.179 A 
BRANCH  17  23
HETATM   23  O3  UNL     1      20.407  -4.424  10.250  1.00  0.00    -0.345 OA
ATOM     24  H3  UNL     1      20.564  -3.842  10.984  1.00  0.00     0.219 HD
ENDBRANCH  17  23
BRANCH  21  25
HETATM   25  N3  UNL     1      19.785  -2.529   5.078  1.00  0.00    -0.111 N 
HETATM   26  O4  UNL     1      19.244  -3.057   4.118  1.00  0.00    -0.532 OA
HETATM   27  O5  UNL     1      20.381  -1.290   4.845  1.00  0.00    -0.532 OA
ENDBRANCH  21  25
BRANCH  22  28
HETATM   28  N4  UNL     1      17.629  -3.696   6.320  1.00  0.00    -0.329 NA
BRANCH  28  29
HETATM   29  N5  UNL     1      16.652  -3.762   5.737  1.00  0.00    -0.280 N 
ATOM     30  H52 UNL     1      16.893  -3.305   6.616  1.00  0.00     0.191 HD
ATOM     31  H51 UNL     1      15.788  -3.834   5.200  1.00  0.00     0.191 HD
ENDBRANCH  28  29
ENDBRANCH  22  28
ENDBRANCH  15  16
ENDBRANCH  11  15
BRANCH   1  32
HETATM   32  O1  UNL     1      18.088  -7.366  13.080  1.00  0.00    -0.390 OA
HETATM   33  C1  UNL     1      17.513  -6.406  13.900  1.00  0.00     0.202 C 
ENDBRANCH   1  32
BRANCH   4  34
HETATM   34  C6  UNL     1      21.354  -9.391  11.285  1.00  0.00     0.011 C 
HETATM   35  C7  UNL     1      21.415 -10.905  11.341  1.00  0.00     0.066 C 
HETATM   36  N1  UNL     1      22.442  -8.852  10.889  1.00  0.00    -0.277 N 
ATOM     37  H1  UNL     1      22.494  -7.835  10.828  1.00  0.00     0.193 HD
BRANCH  36  38
HETATM   38  O2  UNL     1      23.534  -9.588  10.548  1.00  0.00    -0.290 OA
ATOM     39  H2  UNL     1      24.313  -9.194  10.171  1.00  0.00     0.244 HD
ENDBRANCH  36  38
ENDBRANCH   4  34
TORSDOF 9
ENDMDL
MODEL 3
REMARK VINA RESULT: -7.201977363      3.575      5.977
REMARK  9 active torsions:
REMARK  status: ('A' for Active; 'I' for Inactive)
REMARK    1  A    between atoms: O1_2  and  C2_3 
REMARK    2  A    between atoms: C5_6  and  C6_7 
REMARK    3  A    between atoms: N1_9  and  O2_11 
REMARK    4  A    between atoms: C14_19  and  C16_21 
REMARK    5  A    between atoms: C16_21  and  C17_22 
REMARK    6  A    between atoms: C18_23  and  O3_24 
REMARK    7  A    between atoms: C20_29  and  N3_30 
REMARK    8  A    between atoms: C21_33  and  N4_34 
REMARK    9  A    between atoms: N4_34  and  N5_35 
ROOT
HETATM    1  C2  UNL     1      18.625  -5.085  10.988  1.00  0.00     0.130 C 
HETATM    2  C3  UNL     1      19.678  -6.150  11.344  1.00  0.00     0.021 C 
HETATM    3  C4  UNL     1      19.945  -6.123  12.828  1.00  0.00     0.013 C 
HETATM    4  C5  UNL     1      18.921  -7.414  10.945  1.00  0.00     0.048 C 
HETATM    5  C8  UNL     1      17.979  -7.082   9.841  1.00  0.00    -0.029 C 
HETATM    6  C9  UNL     1      16.596  -7.421  10.312  1.00  0.00     0.016 C 
HETATM    7  C10 UNL     1      18.196  -7.754   8.520  1.00  0.00     0.011 C 
HETATM    8  C11 UNL     1      17.248  -7.072   7.518  1.00  0.00     0.006 C 
HETATM    9  C12 UNL     1      17.937  -5.909   6.798  1.00  0.00    -0.007 C 
HETATM   10  C13 UNL     1      17.407  -5.971   5.383  1.00  0.00     0.011 C 
HETATM   11  C14 UNL     1      17.573  -4.616   7.415  1.00  0.00    -0.021 C 
HETATM   12  C15 UNL     1      16.201  -4.248   6.814  1.00  0.00     0.020 C 
HETATM   13  C22 UNL     1      17.227  -4.817   8.930  1.00  0.00     0.021 C 
HETATM   14  C23 UNL     1      18.230  -5.629   9.617  1.00  0.00     0.025 C 
ENDROOT
BRANCH  11  15
HETATM   15  C16 UNL     1      18.463  -3.464   7.366  1.00  0.00     0.002 C 
BRANCH  15  16
HETATM   16  C17 UNL     1      19.592  -3.325   6.487  1.00  0.00     0.057 A 
HETATM   17  C18 UNL     1      19.520  -3.155   5.129  1.00  0.00     0.153 A 
HETATM   18  N2  UNL     1      20.646  -3.020   4.370  1.00  0.00    -0.344 N 
HETATM   19  C19 UNL     1      21.880  -3.043   4.875  1.00  0.00     0.130 A 
ATOM     20  H2  UNL     1      20.538  -2.896   3.364  1.00  0.00     0.167 HD
HETATM   21  C20 UNL     1      22.025  -3.215   6.258  1.00  0.00     0.161 A 
HETATM   22  C21 UNL     1      20.897  -3.350   7.015  1.00  0.00     0.179 A 
BRANCH  17  23
HETATM   23  O3  UNL     1      18.340  -3.110   4.407  1.00  0.00    -0.345 OA
ATOM     24  H3  UNL     1      17.984  -3.838   3.912  1.00  0.00     0.219 HD
ENDBRANCH  17  23
BRANCH  21  25
HETATM   25  N3  UNL     1      23.340  -3.237   6.797  1.00  0.00    -0.111 N 
HETATM   26  O4  UNL     1      23.750  -2.611   7.762  1.00  0.00    -0.532 OA
HETATM   27  O5  UNL     1      24.265  -4.064   6.160  1.00  0.00    -0.532 OA
ENDBRANCH  21  25
BRANCH  22  28
HETATM   28  N4  UNL     1      21.117  -3.554   8.380  1.00  0.00    -0.329 NA
BRANCH  28  29
HETATM   29  N5  UNL     1      21.320  -3.717   9.490  1.00  0.00    -0.280 N 
ATOM     30  H52 UNL     1      21.926  -3.762   8.671  1.00  0.00     0.191 HD
ATOM     31  H51 UNL     1      21.480  -3.858  10.487  1.00  0.00     0.191 HD
ENDBRANCH  28  29
ENDBRANCH  22  28
ENDBRANCH  15  16
ENDBRANCH  11  15
BRANCH   1  32
HETATM   32  O1  UNL     1      17.564  -5.126  11.876  1.00  0.00    -0.390 OA
HETATM   33  C1  UNL     1      17.226  -3.835  12.256  1.00  0.00     0.202 C 
ENDBRANCH   1  32
BRANCH   4  34
HETATM   34  C6  UNL     1      19.786  -8.577  10.805  1.00  0.00     0.011 C 
HETATM   35  C7  UNL     1      19.252  -9.939  11.202  1.00  0.00     0.066 C 
HETATM   36  N1  UNL     1      20.990  -8.605  10.382  1.00  0.00    -0.277 N 
ATOM     37  H1  UNL     1      21.433  -7.731  10.099  1.00  0.00     0.193 HD
BRANCH  36  38
HETATM   38  O2  UNL     1      21.702  -9.761  10.296  1.00  0.00    -0.290 OA
ATOM     39  H2  UNL     1      21.284 -10.605  10.174  1.00  0.00     0.244 HD
ENDBRANCH  36  38
ENDBRANCH   4  34
TORSDOF 9
ENDMDL
MODEL 4
REMARK VINA RESULT: -7.111441654      3.314      5.409
REMARK  9 active torsions:
REMARK  status: ('A' for Active; 'I' for Inactive)
REMARK    1  A    between atoms: O1_2  and  C2_3 
REMARK    2  A    between atoms: C5_6  and  C6_7 
REMARK    3  A    between atoms: N1_9  and  O2_11 
REMARK    4  A    between atoms: C14_19  and  C16_21 
REMARK    5  A    between atoms: C16_21  and  C17_22 
REMARK    6  A    between atoms: C18_23  and  O3_24 
REMARK    7  A    between atoms: C20_29  and  N3_30 
REMARK    8  A    between atoms: C21_33  and  N4_34 
REMARK    9  A    between atoms: N4_34  and  N5_35 
ROOT
HETATM    1  C2  UNL     1      18.504  -6.026  11.439  1.00  0.00     0.130 C 
HETATM    2  C3  UNL     1      19.891  -6.656  11.657  1.00  0.00     0.021 C 
HETATM    3  C4  UNL     1      20.269  -6.560  13.115  1.00  0.00     0.013 C 
HETATM    4  C5  UNL     1      19.591  -8.100  11.262  1.00  0.00     0.048 C 
HETATM    5  C8  UNL     1      18.495  -8.105  10.256  1.00  0.00    -0.029 C 
HETATM    6  C9  UNL     1      17.368  -8.918  10.821  1.00  0.00     0.016 C 
HETATM    7  C10 UNL     1      18.809  -8.636   8.890  1.00  0.00     0.011 C 
HETATM    8  C11 UNL     1      17.594  -8.317   8.003  1.00  0.00     0.006 C 
HETATM    9  C12 UNL     1      17.761  -6.974   7.285  1.00  0.00    -0.007 C 
HETATM   10  C13 UNL     1      17.157  -7.197   5.917  1.00  0.00     0.011 C 
HETATM   11  C14 UNL     1      17.027  -5.903   7.991  1.00  0.00    -0.021 C 
HETATM   12  C15 UNL     1      15.563  -6.033   7.521  1.00  0.00     0.020 C 
HETATM   13  C22 UNL     1      16.915  -6.238   9.517  1.00  0.00     0.021 C 
HETATM   14  C23 UNL     1      18.199  -6.653  10.081  1.00  0.00     0.025 C 
ENDROOT
BRANCH  11  15
HETATM   15  C16 UNL     1      17.448  -4.510   7.924  1.00  0.00     0.002 C 
BRANCH  15  16
HETATM   16  C17 UNL     1      18.316  -3.953   6.922  1.00  0.00     0.057 A 
HETATM   17  C18 UNL     1      17.959  -3.688   5.627  1.00  0.00     0.153 A 
HETATM   18  N2  UNL     1      18.847  -3.147   4.742  1.00  0.00    -0.344 N 
HETATM   19  C19 UNL     1      20.105  -2.841   5.059  1.00  0.00     0.130 A 
ATOM     20  H2  UNL     1      18.532  -2.968   3.789  1.00  0.00     0.167 HD
HETATM   21  C20 UNL     1      20.537  -3.089   6.369  1.00  0.00     0.161 A 
HETATM   22  C21 UNL     1      19.646  -3.630   7.251  1.00  0.00     0.179 A 
BRANCH  17  23
HETATM   23  O3  UNL     1      16.706  -3.936   5.093  1.00  0.00    -0.345 OA
ATOM     24  H3  UNL     1      16.536  -4.095   4.172  1.00  0.00     0.219 HD
ENDBRANCH  17  23
BRANCH  21  25
HETATM   25  N3  UNL     1      21.877  -2.760   6.707  1.00  0.00    -0.111 N 
HETATM   26  O4  UNL     1      22.251  -2.053   7.630  1.00  0.00    -0.532 OA
HETATM   27  O5  UNL     1      22.879  -3.306   5.904  1.00  0.00    -0.532 OA
ENDBRANCH  21  25
BRANCH  22  28
HETATM   28  N4  UNL     1      20.154  -3.885   8.528  1.00  0.00    -0.329 NA
BRANCH  28  29
HETATM   29  N5  UNL     1      20.578  -4.070   9.570  1.00  0.00    -0.280 N 
ATOM     30  H52 UNL     1      21.023  -3.829   8.685  1.00  0.00     0.191 HD
ATOM     31  H51 UNL     1      20.936  -4.240  10.509  1.00  0.00     0.191 HD
ENDBRANCH  28  29
ENDBRANCH  22  28
ENDBRANCH  15  16
ENDBRANCH  11  15
BRANCH   1  32
HETATM   32  O1  UNL     1      17.612  -6.453  12.408  1.00  0.00    -0.390 OA
HETATM   33  C1  UNL     1      16.985  -5.355  12.978  1.00  0.00     0.202 C 
ENDBRANCH   1  32
BRANCH   4  34
HETATM   34  C6  UNL     1      20.792  -8.880  10.997  1.00  0.00     0.011 C 
HETATM   35  C7  UNL     1      20.746 -10.383  11.186  1.00  0.00     0.066 C 
HETATM   36  N1  UNL     1      21.933  -8.449  10.618  1.00  0.00    -0.277 N 
ATOM     37  H1  UNL     1      22.057  -7.447  10.472  1.00  0.00     0.193 HD
BRANCH  36  38
HETATM   38  O2  UNL     1      22.987  -9.281  10.402  1.00  0.00    -0.290 OA
ATOM     39  H2  UNL     1      22.898 -10.227  10.420  1.00  0.00     0.244 HD
ENDBRANCH  36  38
ENDBRANCH   4  34
TORSDOF 9
ENDMDL
MODEL 5
REMARK VINA RESULT: -6.865873745      3.743      7.385
REMARK  9 active torsions:
REMARK  status: ('A' for Active; 'I' for Inactive)
REMARK    1  A    between atoms: O1_2  and  C2_3 
REMARK    2  A    between atoms: C5_6  and  C6_7 
REMARK    3  A    between atoms: N1_9  and  O2_11 
REMARK    4  A    between atoms: C14_19  and  C16_21 
REMARK    5  A    between atoms: C16_21  and  C17_22 
REMARK    6  A    between atoms: C18_23  and  O3_24 
REMARK    7  A    between atoms: C20_29  and  N3_30 
REMARK    8  A    between atoms: C21_33  and  N4_34 
REMARK    9  A    between atoms: N4_34  and  N5_35 
ROOT
HETATM    1  C2  UNL     1      17.604  -5.701   7.305  1.00  0.00     0.130 C 
HETATM    2  C3  UNL     1      18.412  -4.744   6.409  1.00  0.00     0.021 C 
HETATM    3  C4  UNL     1      17.546  -4.264   5.271  1.00  0.00     0.013 C 
HETATM    4  C5  UNL     1      18.687  -3.619   7.403  1.00  0.00     0.048 C 
HETATM    5  C8  UNL     1      18.737  -4.192   8.776  1.00  0.00    -0.029 C 
HETATM    6  C9  UNL     1      17.679  -3.506   9.589  1.00  0.00     0.016 C 
HETATM    7  C10 UNL     1      20.032  -4.091   9.523  1.00  0.00     0.011 C 
HETATM    8  C11 UNL     1      19.877  -4.946  10.791  1.00  0.00     0.006 C 
HETATM    9  C12 UNL     1      20.367  -6.380  10.563  1.00  0.00    -0.007 C 
HETATM   10  C13 UNL     1      21.034  -6.765  11.864  1.00  0.00     0.011 C 
HETATM   11  C14 UNL     1      19.233  -7.288  10.291  1.00  0.00    -0.021 C 
HETATM   12  C15 UNL     1      18.656  -7.648  11.676  1.00  0.00     0.020 C 
HETATM   13  C22 UNL     1      18.050  -6.497   9.635  1.00  0.00     0.021 C 
HETATM   14  C23 UNL     1      18.505  -5.646   8.537  1.00  0.00     0.025 C 
ENDROOT
BRANCH  11  15
HETATM   15  C16 UNL     1      19.391  -8.494   9.489  1.00  0.00     0.002 C 
BRANCH  15  16
HETATM   16  C17 UNL     1      19.120  -9.832   9.941  1.00  0.00     0.057 A 
HETATM   17  C18 UNL     1      17.884 -10.425   9.958  1.00  0.00     0.153 A 
HETATM   18  N2  UNL     1      17.720 -11.708  10.395  1.00  0.00    -0.344 N 
HETATM   19  C19 UNL     1      18.722 -12.470  10.831  1.00  0.00     0.130 A 
ATOM     20  H2  UNL     1      16.780 -12.104  10.388  1.00  0.00     0.167 HD
HETATM   21  C20 UNL     1      20.013 -11.924  10.842  1.00  0.00     0.161 A 
HETATM   22  C21 UNL     1      20.175 -10.641  10.404  1.00  0.00     0.179 A 
BRANCH  17  23
HETATM   23  O3  UNL     1      16.713  -9.808   9.555  1.00  0.00    -0.345 OA
ATOM     24  H3  UNL     1      15.843 -10.165   9.689  1.00  0.00     0.219 HD
ENDBRANCH  17  23
BRANCH  21  25
HETATM   25  N3  UNL     1      21.082 -12.738  11.304  1.00  0.00    -0.111 N 
HETATM   26  O4  UNL     1      21.424 -13.823  10.861  1.00  0.00    -0.532 OA
HETATM   27  O5  UNL     1      21.827 -12.246  12.376  1.00  0.00    -0.532 OA
ENDBRANCH  21  25
BRANCH  22  28
HETATM   28  N4  UNL     1      21.480 -10.148  10.476  1.00  0.00    -0.329 NA
BRANCH  28  29
HETATM   29  N5  UNL     1      22.539  -9.730  10.552  1.00  0.00    -0.280 N 
ATOM     30  H52 UNL     1      21.904  -9.844   9.762  1.00  0.00     0.191 HD
ATOM     31  H51 UNL     1      23.485  -9.360  10.641  1.00  0.00     0.191 HD
ENDBRANCH  28  29
ENDBRANCH  22  28
ENDBRANCH  15  16
ENDBRANCH  11  15
BRANCH   1  32
HETATM   32  O1  UNL     1      16.348  -5.182   7.571  1.00  0.00    -0.390 OA
HETATM   33  C1  UNL     1      15.380  -6.119   7.241  1.00  0.00     0.202 C 
ENDBRANCH   1  32
BRANCH   4  34
HETATM   34  C6  UNL     1      19.755  -2.728   6.974  1.00  0.00     0.011 C 
HETATM   35  C7  UNL     1      21.033  -3.328   6.420  1.00  0.00     0.066 C 
HETATM   36  N1  UNL     1      19.765  -1.451   7.009  1.00  0.00    -0.277 N 
ATOM     37  H1  UNL     1      18.948  -0.962   7.374  1.00  0.00     0.193 HD
BRANCH  36  38
HETATM   38  O2  UNL     1      20.830  -0.722   6.577  1.00  0.00    -0.290 OA
ATOM     39  H2  UNL     1      20.801   0.226   6.511  1.00  0.00     0.244 HD
ENDBRANCH  36  38
ENDBRANCH   4  34
TORSDOF 9
ENDMDL
