MODEL 1
REMARK VINA RESULT: -7.804401717      0.000      0.000
REMARK  7 active torsions:
REMARK  status: ('A' for Active; 'I' for Inactive)
REMARK    1  A    between atoms: O1_2  and  C2_3 
REMARK    2  A    between atoms: C3_7  and  N2_8 
REMARK    3  A    between atoms: N2_8  and  C4_10 
REMARK    4  A    between atoms: C4_10  and  C5_14 
REMARK    5  A    between atoms: C10_20  and  C12_22 
REMARK    6  A    between atoms: C12_22  and  O3_24 
REMARK    7  A    between atoms: O3_24  and  C13_25 
ROOT
HETATM    1  C5  UNL     1      18.118  -8.397  10.230  1.00  0.00     0.114 C 
HETATM    2  C6  UNL     1      17.142  -9.492  10.064  1.00  0.00     0.078 C 
HETATM    3  N4  UNL     1      16.351 -10.351   9.916  1.00  0.00    -0.196 NA
HETATM    4  C7  UNL     1      19.064  -8.564   9.018  1.00  0.00     0.034 C 
HETATM    5  C8  UNL     1      18.552  -7.446   8.069  1.00  0.00     0.009 C 
HETATM    6  C9  UNL     1      18.427  -6.378   9.103  1.00  0.00     0.014 C 
HETATM    7  C10 UNL     1      18.164  -5.009   8.734  1.00  0.00     0.049 C 
HETATM    8  C11 UNL     1      19.551  -4.315   8.578  1.00  0.00     0.026 C 
HETATM    9  C19 UNL     1      17.440  -4.193   9.779  1.00  0.00     0.020 C 
HETATM   10  C20 UNL     1      17.347  -4.767  11.117  1.00  0.00     0.002 C 
HETATM   11  C21 UNL     1      17.536  -6.211  11.311  1.00  0.00     0.012 C 
HETATM   12  C22 UNL     1      17.482  -7.048  10.089  1.00  0.00    -0.011 C 
HETATM   13  C23 UNL     1      16.078  -7.171   9.555  1.00  0.00     0.018 C 
ENDROOT
BRANCH   1  14
HETATM   14  C4  UNL     1      18.857  -8.636  11.482  1.00  0.00     0.100 C 
HETATM   15  N3  UNL     1      18.278  -9.356  12.396  1.00  0.00    -0.387 N 
ATOM     16  H32 UNL     1      18.789  -9.521  13.262  1.00  0.00     0.157 HD
ATOM     17  H31 UNL     1      17.344  -9.708  12.185  1.00  0.00     0.157 HD
BRANCH  14  18
HETATM   18  N2  UNL     1      20.149  -8.149  11.774  1.00  0.00    -0.324 N 
ATOM     19  H2  UNL     1      20.265  -7.224  12.188  1.00  0.00     0.169 HD
BRANCH  18  20
HETATM   20  C3  UNL     1      21.306  -8.960  11.489  1.00  0.00     0.169 A 
HETATM   21  S1  UNL     1      21.515 -10.650  11.541  1.00  0.00     0.026 SA
HETATM   22  N1  UNL     1      23.133 -10.710  11.078  1.00  0.00    -0.289 N 
HETATM   23  C2  UNL     1      23.437  -9.420  10.903  1.00  0.00     0.231 A 
ATOM     24  H1  UNL     1      23.732 -11.527  10.960  1.00  0.00     0.178 HD
HETATM   25  N5  UNL     1      22.506  -8.541  11.114  1.00  0.00    -0.301 N 
ATOM     26  H5  UNL     1      22.694  -7.545  10.994  1.00  0.00     0.171 HD
BRANCH  23  27
HETATM   27  O1  UNL     1      24.742  -9.041  10.502  1.00  0.00    -0.327 OA
HETATM   28  C1  UNL     1      25.198  -7.716  10.610  1.00  0.00     0.213 C 
ENDBRANCH  23  27
ENDBRANCH  18  20
ENDBRANCH  14  18
ENDBRANCH   1  14
BRANCH   7  29
HETATM   29  C12 UNL     1      17.550  -4.827   7.398  1.00  0.00     0.268 C 
HETATM   30  O2  UNL     1      18.205  -4.483   6.423  1.00  0.00    -0.264 OA
BRANCH  29  31
HETATM   31  O3  UNL     1      16.192  -5.037   7.176  1.00  0.00    -0.315 OA
BRANCH  31  32
HETATM   32  C13 UNL     1      15.591  -5.353   5.973  1.00  0.00     0.132 C 
HETATM   33  C14 UNL     1      14.274  -4.567   5.918  1.00  0.00     0.032 C 
HETATM   34  C15 UNL     1      13.664  -4.570   4.560  1.00  0.00     0.002 C 
HETATM   35  C16 UNL     1      13.984  -5.849   3.840  1.00  0.00     0.000 C 
HETATM   36  C17 UNL     1      14.085  -6.946   4.871  1.00  0.00     0.002 C 
HETATM   37  C18 UNL     1      15.313  -6.807   5.750  1.00  0.00     0.032 C 
ENDBRANCH  31  32
ENDBRANCH  29  31
ENDBRANCH   7  29
TORSDOF 7
ENDMDL
MODEL 2
REMARK VINA RESULT: -7.648980793      1.911      2.216
REMARK  7 active torsions:
REMARK  status: ('A' for Active; 'I' for Inactive)
REMARK    1  A    between atoms: O1_2  and  C2_3 
REMARK    2  A    between atoms: C3_7  and  N2_8 
REMARK    3  A    between atoms: N2_8  and  C4_10 
REMARK    4  A    between atoms: C4_10  and  C5_14 
REMARK    5  A    between atoms: C10_20  and  C12_22 
REMARK    6  A    between atoms: C12_22  and  O3_24 
REMARK    7  A    between atoms: O3_24  and  C13_25 
ROOT
HETATM    1  C5  UNL     1      18.072  -8.379  10.183  1.00  0.00     0.114 C 
HETATM    2  C6  UNL     1      17.081  -9.459  10.017  1.00  0.00     0.078 C 
HETATM    3  N4  UNL     1      16.277 -10.306   9.870  1.00  0.00    -0.196 NA
HETATM    4  C7  UNL     1      19.006  -8.550   8.962  1.00  0.00     0.034 C 
HETATM    5  C8  UNL     1      18.502  -7.418   8.025  1.00  0.00     0.009 C 
HETATM    6  C9  UNL     1      18.401  -6.356   9.067  1.00  0.00     0.014 C 
HETATM    7  C10 UNL     1      18.153  -4.981   8.710  1.00  0.00     0.049 C 
HETATM    8  C11 UNL     1      19.548  -4.305   8.547  1.00  0.00     0.026 C 
HETATM    9  C19 UNL     1      17.449  -4.162   9.766  1.00  0.00     0.020 C 
HETATM   10  C20 UNL     1      17.358  -4.745  11.101  1.00  0.00     0.002 C 
HETATM   11  C21 UNL     1      17.529  -6.193  11.284  1.00  0.00     0.012 C 
HETATM   12  C22 UNL     1      17.455  -7.020  10.057  1.00  0.00    -0.011 C 
HETATM   13  C23 UNL     1      16.044  -7.121   9.533  1.00  0.00     0.018 C 
ENDROOT
BRANCH   1  14
HETATM   14  C4  UNL     1      18.818  -8.636  11.427  1.00  0.00     0.100 C 
HETATM   15  N3  UNL     1      18.166  -9.156  12.425  1.00  0.00    -0.387 N 
ATOM     16  H32 UNL     1      18.682  -9.334  13.286  1.00  0.00     0.157 HD
ATOM     17  H31 UNL     1      17.175  -9.349  12.279  1.00  0.00     0.157 HD
BRANCH  14  18
HETATM   18  N2  UNL     1      20.190  -8.369  11.630  1.00  0.00    -0.324 N 
ATOM     19  H2  UNL     1      20.883  -9.095  11.450  1.00  0.00     0.169 HD
BRANCH  18  20
HETATM   20  C3  UNL     1      20.610  -7.068  12.089  1.00  0.00     0.169 A 
HETATM   21  S1  UNL     1      20.619  -6.396  13.654  1.00  0.00     0.026 SA
HETATM   22  N1  UNL     1      21.244  -4.882  13.265  1.00  0.00    -0.289 N 
HETATM   23  C2  UNL     1      21.416  -4.966  11.942  1.00  0.00     0.231 A 
ATOM     24  H1  UNL     1      21.441  -4.096  13.885  1.00  0.00     0.178 HD
HETATM   25  N5  UNL     1      21.092  -6.076  11.355  1.00  0.00    -0.301 N 
ATOM     26  H5  UNL     1      21.206  -6.184  10.347  1.00  0.00     0.171 HD
BRANCH  23  27
HETATM   27  O1  UNL     1      21.938  -3.865  11.218  1.00  0.00    -0.327 OA
HETATM   28  C1  UNL     1      23.231  -3.882  10.668  1.00  0.00     0.213 C 
ENDBRANCH  23  27
ENDBRANCH  18  20
ENDBRANCH  14  18
ENDBRANCH   1  14
BRANCH   7  29
HETATM   29  C12 UNL     1      17.531  -4.782   7.380  1.00  0.00     0.268 C 
HETATM   30  O2  UNL     1      18.182  -4.435   6.403  1.00  0.00    -0.264 OA
BRANCH  29  31
HETATM   31  O3  UNL     1      16.169  -4.977   7.167  1.00  0.00    -0.315 OA
BRANCH  31  32
HETATM   32  C13 UNL     1      15.562  -5.317   5.974  1.00  0.00     0.132 C 
HETATM   33  C14 UNL     1      14.284  -4.471   5.874  1.00  0.00     0.032 C 
HETATM   34  C15 UNL     1      13.683  -4.505   4.512  1.00  0.00     0.002 C 
HETATM   35  C16 UNL     1      13.945  -5.828   3.852  1.00  0.00     0.000 C 
HETATM   36  C17 UNL     1      13.987  -6.882   4.930  1.00  0.00     0.002 C 
HETATM   37  C18 UNL     1      15.215  -6.764   5.812  1.00  0.00     0.032 C 
ENDBRANCH  31  32
ENDBRANCH  29  31
ENDBRANCH   7  29
TORSDOF 7
ENDMDL
MODEL 3
REMARK VINA RESULT: -7.635051444      1.344      1.649
REMARK  7 active torsions:
REMARK  status: ('A' for Active; 'I' for Inactive)
REMARK    1  A    between atoms: O1_2  and  C2_3 
REMARK    2  A    between atoms: C3_7  and  N2_8 
REMARK    3  A    between atoms: N2_8  and  C4_10 
REMARK    4  A    between atoms: C4_10  and  C5_14 
REMARK    5  A    between atoms: C10_20  and  C12_22 
REMARK    6  A    between atoms: C12_22  and  O3_24 
REMARK    7  A    between atoms: O3_24  and  C13_25 
ROOT
HETATM    1  C5  UNL     1      18.092  -8.326  10.216  1.00  0.00     0.114 C 
HETATM    2  C6  UNL     1      17.104  -9.411  10.061  1.00  0.00     0.078 C 
HETATM    3  N4  UNL     1      16.303 -10.262   9.923  1.00  0.00    -0.196 NA
HETATM    4  C7  UNL     1      19.030  -8.509   9.000  1.00  0.00     0.034 C 
HETATM    5  C8  UNL     1      18.525  -7.392   8.048  1.00  0.00     0.009 C 
HETATM    6  C9  UNL     1      18.417  -6.316   9.076  1.00  0.00     0.014 C 
HETATM    7  C10 UNL     1      18.166  -4.947   8.700  1.00  0.00     0.049 C 
HETATM    8  C11 UNL     1      19.559  -4.269   8.533  1.00  0.00     0.026 C 
HETATM    9  C19 UNL     1      17.456  -4.117   9.744  1.00  0.00     0.020 C 
HETATM   10  C20 UNL     1      17.363  -4.683  11.086  1.00  0.00     0.002 C 
HETATM   11  C21 UNL     1      17.538  -6.127  11.288  1.00  0.00     0.012 C 
HETATM   12  C22 UNL     1      17.470  -6.971  10.071  1.00  0.00    -0.011 C 
HETATM   13  C23 UNL     1      16.061  -7.083   9.544  1.00  0.00     0.018 C 
ENDROOT
BRANCH   1  14
HETATM   14  C4  UNL     1      18.834  -8.564  11.466  1.00  0.00     0.100 C 
HETATM   15  N3  UNL     1      18.200  -9.141  12.444  1.00  0.00    -0.387 N 
ATOM     16  H32 UNL     1      18.715  -9.306  13.308  1.00  0.00     0.157 HD
ATOM     17  H31 UNL     1      17.225  -9.388  12.280  1.00  0.00     0.157 HD
BRANCH  14  18
HETATM   18  N2  UNL     1      20.185  -8.222  11.693  1.00  0.00    -0.324 N 
ATOM     19  H2  UNL     1      20.432  -7.271  11.968  1.00  0.00     0.169 HD
BRANCH  18  20
HETATM   20  C3  UNL     1      21.217  -9.217  11.535  1.00  0.00     0.169 A 
HETATM   21  S1  UNL     1      22.842  -9.062  11.051  1.00  0.00     0.026 SA
HETATM   22  N1  UNL     1      23.279 -10.685  11.140  1.00  0.00    -0.289 N 
HETATM   23  C2  UNL     1      22.147 -11.273  11.540  1.00  0.00     0.231 A 
ATOM     24  H1  UNL     1      24.183 -11.113  10.938  1.00  0.00     0.178 HD
HETATM   25  N5  UNL     1      21.108 -10.522  11.737  1.00  0.00    -0.301 N 
ATOM     26  H5  UNL     1      20.223 -10.929  12.042  1.00  0.00     0.171 HD
BRANCH  23  27
HETATM   27  O1  UNL     1      22.101 -12.676  11.737  1.00  0.00    -0.327 OA
HETATM   28  C1  UNL     1      21.342 -13.519  10.908  1.00  0.00     0.213 C 
ENDBRANCH  23  27
ENDBRANCH  18  20
ENDBRANCH  14  18
ENDBRANCH   1  14
BRANCH   7  29
HETATM   29  C12 UNL     1      17.546  -4.766   7.366  1.00  0.00     0.268 C 
HETATM   30  O2  UNL     1      18.204  -4.452   6.381  1.00  0.00    -0.264 OA
BRANCH  29  31
HETATM   31  O3  UNL     1      16.182  -4.944   7.157  1.00  0.00    -0.315 OA
BRANCH  31  32
HETATM   32  C13 UNL     1      15.567  -5.291   5.969  1.00  0.00     0.132 C 
HETATM   33  C14 UNL     1      14.286  -4.451   5.874  1.00  0.00     0.032 C 
HETATM   34  C15 UNL     1      13.676  -4.494   4.516  1.00  0.00     0.002 C 
HETATM   35  C16 UNL     1      13.939  -5.819   3.861  1.00  0.00     0.000 C 
HETATM   36  C17 UNL     1      13.992  -6.868   4.943  1.00  0.00     0.002 C 
HETATM   37  C18 UNL     1      15.226  -6.741   5.816  1.00  0.00     0.032 C 
ENDBRANCH  31  32
ENDBRANCH  29  31
ENDBRANCH   7  29
TORSDOF 7
ENDMDL
MODEL 4
REMARK VINA RESULT: -7.468572800      2.249      2.897
REMARK  7 active torsions:
REMARK  status: ('A' for Active; 'I' for Inactive)
REMARK    1  A    between atoms: O1_2  and  C2_3 
REMARK    2  A    between atoms: C3_7  and  N2_8 
REMARK    3  A    between atoms: N2_8  and  C4_10 
REMARK    4  A    between atoms: C4_10  and  C5_14 
REMARK    5  A    between atoms: C10_20  and  C12_22 
REMARK    6  A    between atoms: C12_22  and  O3_24 
REMARK    7  A    between atoms: O3_24  and  C13_25 
ROOT
HETATM    1  C5  UNL     1      18.065  -8.296  10.241  1.00  0.00     0.114 C 
HETATM    2  C6  UNL     1      17.114  -9.410  10.062  1.00  0.00     0.078 C 
HETATM    3  N4  UNL     1      16.344 -10.285   9.904  1.00  0.00    -0.196 NA
HETATM    4  C7  UNL     1      19.060  -8.472   9.070  1.00  0.00     0.034 C 
HETATM    5  C8  UNL     1      18.567  -7.383   8.079  1.00  0.00     0.009 C 
HETATM    6  C9  UNL     1      18.385  -6.295   9.084  1.00  0.00     0.014 C 
HETATM    7  C10 UNL     1      18.114  -4.939   8.675  1.00  0.00     0.049 C 
HETATM    8  C11 UNL     1      19.494  -4.225   8.557  1.00  0.00     0.026 C 
HETATM    9  C19 UNL     1      17.337  -4.114   9.674  1.00  0.00     0.020 C 
HETATM   10  C20 UNL     1      17.201  -4.661  11.020  1.00  0.00     0.002 C 
HETATM   11  C21 UNL     1      17.406  -6.097  11.252  1.00  0.00     0.012 C 
HETATM   12  C22 UNL     1      17.414  -6.961  10.048  1.00  0.00    -0.011 C 
HETATM   13  C23 UNL     1      16.033  -7.119   9.463  1.00  0.00     0.018 C 
ENDROOT
BRANCH   1  14
HETATM   14  C4  UNL     1      18.759  -8.495  11.526  1.00  0.00     0.100 C 
HETATM   15  N3  UNL     1      18.088  -9.044  12.495  1.00  0.00    -0.387 N 
ATOM     16  H32 UNL     1      18.569  -9.182  13.384  1.00  0.00     0.157 HD
ATOM     17  H31 UNL     1      17.120  -9.299  12.301  1.00  0.00     0.157 HD
BRANCH  14  18
HETATM   18  N2  UNL     1      20.099  -8.142  11.795  1.00  0.00    -0.324 N 
ATOM     19  H2  UNL     1      20.845  -8.824  11.655  1.00  0.00     0.169 HD
BRANCH  18  20
HETATM   20  C3  UNL     1      20.414  -6.817  12.268  1.00  0.00     0.169 A 
HETATM   21  S1  UNL     1      21.336  -5.576  11.554  1.00  0.00     0.026 SA
HETATM   22  N1  UNL     1      21.182  -4.425  12.774  1.00  0.00    -0.289 N 
HETATM   23  C2  UNL     1      20.424  -5.055  13.677  1.00  0.00     0.231 A 
ATOM     24  H1  UNL     1      21.570  -3.483  12.813  1.00  0.00     0.178 HD
HETATM   25  N5  UNL     1      20.041  -6.265  13.413  1.00  0.00    -0.301 N 
ATOM     26  H5  UNL     1      19.462  -6.784  14.075  1.00  0.00     0.171 HD
BRANCH  23  27
HETATM   27  O1  UNL     1      20.061  -4.404  14.883  1.00  0.00    -0.327 OA
HETATM   28  C1  UNL     1      18.987  -3.501  14.946  1.00  0.00     0.213 C 
ENDBRANCH  23  27
ENDBRANCH  18  20
ENDBRANCH  14  18
ENDBRANCH   1  14
BRANCH   7  29
HETATM   29  C12 UNL     1      17.548  -4.796   7.313  1.00  0.00     0.268 C 
HETATM   30  O2  UNL     1      18.256  -4.596   6.334  1.00  0.00    -0.264 OA
BRANCH  29  31
HETATM   31  O3  UNL     1      16.181  -4.881   7.070  1.00  0.00    -0.315 OA
BRANCH  31  32
HETATM   32  C13 UNL     1      15.575  -5.290   5.898  1.00  0.00     0.132 C 
HETATM   33  C14 UNL     1      14.252  -4.518   5.793  1.00  0.00     0.032 C 
HETATM   34  C15 UNL     1      13.633  -4.626   4.443  1.00  0.00     0.002 C 
HETATM   35  C16 UNL     1      13.957  -5.954   3.820  1.00  0.00     0.000 C 
HETATM   36  C17 UNL     1      14.072  -6.970   4.929  1.00  0.00     0.002 C 
HETATM   37  C18 UNL     1      15.305  -6.758   5.786  1.00  0.00     0.032 C 
ENDBRANCH  31  32
ENDBRANCH  29  31
ENDBRANCH   7  29
TORSDOF 7
ENDMDL
MODEL 5
REMARK VINA RESULT: -7.443111186      2.475      3.526
REMARK  7 active torsions:
REMARK  status: ('A' for Active; 'I' for Inactive)
REMARK    1  A    between atoms: O1_2  and  C2_3 
REMARK    2  A    between atoms: C3_7  and  N2_8 
REMARK    3  A    between atoms: N2_8  and  C4_10 
REMARK    4  A    between atoms: C4_10  and  C5_14 
REMARK    5  A    between atoms: C10_20  and  C12_22 
REMARK    6  A    between atoms: C12_22  and  O3_24 
REMARK    7  A    between atoms: O3_24  and  C13_25 
ROOT
HETATM    1  C5  UNL     1      18.132  -8.245  10.348  1.00  0.00     0.114 C 
HETATM    2  C6  UNL     1      17.168  -9.351  10.192  1.00  0.00     0.078 C 
HETATM    3  N4  UNL     1      16.387 -10.220  10.053  1.00  0.00    -0.196 NA
HETATM    4  C7  UNL     1      19.097  -8.430   9.154  1.00  0.00     0.034 C 
HETATM    5  C8  UNL     1      18.590  -7.337   8.173  1.00  0.00     0.009 C 
HETATM    6  C9  UNL     1      18.441  -6.248   9.182  1.00  0.00     0.014 C 
HETATM    7  C10 UNL     1      18.172  -4.890   8.779  1.00  0.00     0.049 C 
HETATM    8  C11 UNL     1      19.555  -4.188   8.627  1.00  0.00     0.026 C 
HETATM    9  C19 UNL     1      17.426  -4.057   9.795  1.00  0.00     0.020 C 
HETATM   10  C20 UNL     1      17.318  -4.603  11.144  1.00  0.00     0.002 C 
HETATM   11  C21 UNL     1      17.516  -6.041  11.373  1.00  0.00     0.012 C 
HETATM   12  C22 UNL     1      17.488  -6.905  10.169  1.00  0.00    -0.011 C 
HETATM   13  C23 UNL     1      16.092  -7.052   9.617  1.00  0.00     0.018 C 
ENDROOT
BRANCH   1  14
HETATM   14  C4  UNL     1      18.855  -8.449  11.616  1.00  0.00     0.100 C 
HETATM   15  N3  UNL     1      20.046  -7.939  11.720  1.00  0.00    -0.387 N 
ATOM     16  H32 UNL     1      20.545  -8.080  12.598  1.00  0.00     0.157 HD
ATOM     17  H31 UNL     1      20.404  -7.431  10.912  1.00  0.00     0.157 HD
BRANCH  14  18
HETATM   18  N2  UNL     1      18.360  -9.153  12.735  1.00  0.00    -0.324 N 
ATOM     19  H2  UNL     1      17.954 -10.081  12.616  1.00  0.00     0.169 HD
BRANCH  18  20
HETATM   20  C3  UNL     1      18.428  -8.560  14.047  1.00  0.00     0.169 A 
HETATM   21  S1  UNL     1      19.329  -9.009  15.421  1.00  0.00     0.026 SA
HETATM   22  N1  UNL     1      18.801  -7.798  16.465  1.00  0.00    -0.289 N 
HETATM   23  C2  UNL     1      17.952  -7.102  15.703  1.00  0.00     0.231 A 
ATOM     24  H1  UNL     1      19.063  -7.637  17.438  1.00  0.00     0.178 HD
HETATM   25  N5  UNL     1      17.769  -7.495  14.480  1.00  0.00    -0.301 N 
ATOM     26  H5  UNL     1      17.130  -6.993  13.863  1.00  0.00     0.171 HD
BRANCH  23  27
HETATM   27  O1  UNL     1      17.280  -5.971  16.230  1.00  0.00    -0.327 OA
HETATM   28  C1  UNL     1      16.773  -4.954  15.403  1.00  0.00     0.213 C 
ENDBRANCH  23  27
ENDBRANCH  18  20
ENDBRANCH  14  18
ENDBRANCH   1  14
BRANCH   7  29
HETATM   29  C12 UNL     1      17.575  -4.743   7.431  1.00  0.00     0.268 C 
HETATM   30  O2  UNL     1      18.247  -4.439   6.452  1.00  0.00    -0.264 OA
BRANCH  29  31
HETATM   31  O3  UNL     1      16.217  -4.942   7.199  1.00  0.00    -0.315 OA
BRANCH  31  32
HETATM   32  C13 UNL     1      15.626  -5.281   5.998  1.00  0.00     0.132 C 
HETATM   33  C14 UNL     1      14.332  -4.462   5.897  1.00  0.00     0.032 C 
HETATM   34  C15 UNL     1      13.741  -4.493   4.531  1.00  0.00     0.002 C 
HETATM   35  C16 UNL     1      14.036  -5.803   3.858  1.00  0.00     0.000 C 
HETATM   36  C17 UNL     1      14.092  -6.868   4.926  1.00  0.00     0.002 C 
HETATM   37  C18 UNL     1      15.311  -6.734   5.818  1.00  0.00     0.032 C 
ENDBRANCH  31  32
ENDBRANCH  29  31
ENDBRANCH   7  29
TORSDOF 7
ENDMDL
