MODEL 1
REMARK VINA RESULT: -7.809073520      0.000      0.000
REMARK  7 active torsions:
REMARK  status: ('A' for Active; 'I' for Inactive)
REMARK    1  A    between atoms: O1_2  and  N1_3 
REMARK    2  A    between atoms: N1_3  and  C2_5 
REMARK    3  A    between atoms: C3_9  and  N3_10 
REMARK    4  A    between atoms: C4_12  and  C5_13 
REMARK    5  A    between atoms: C5_13  and  C6_14 
REMARK    6  A    between atoms: C9_17  and  O2_18 
REMARK    7  A    between atoms: C10_20  and  C11_21 
ROOT
HETATM    1  C2  UNL     1      20.180  -3.876   8.671  1.00  0.00     0.123 A 
HETATM    2  S1  UNL     1      18.748  -4.605   9.206  1.00  0.00     0.008 SA
HETATM    3  N2  UNL     1      17.521  -4.537   8.052  1.00  0.00    -0.308 N 
ATOM      4  H2  UNL     1      16.590  -4.927   8.201  1.00  0.00     0.176 HD
HETATM    5  C3  UNL     1      17.891  -3.918   6.911  1.00  0.00     0.145 A 
HETATM    6  C9  UNL     1      19.099  -3.376   6.628  1.00  0.00     0.122 A 
HETATM    7  C10 UNL     1      20.228  -3.308   7.389  1.00  0.00     0.044 A 
ENDROOT
BRANCH   7   8
HETATM    8  C11 UNL     1      21.518  -2.714   7.014  1.00  0.00     0.066 C 
HETATM    9  C12 UNL     1      22.661  -2.713   7.960  1.00  0.00     0.068 C 
HETATM   10  C13 UNL     1      23.543  -2.700   6.687  1.00  0.00     0.130 C 
HETATM   11  C14 UNL     1      22.384  -3.501   6.071  1.00  0.00     0.068 C 
HETATM   12  O3  UNL     1      23.687  -1.474   6.140  1.00  0.00    -0.355 OA
HETATM   13  C15 UNL     1      22.515  -0.725   6.024  1.00  0.00     0.139 C 
HETATM   14  C16 UNL     1      22.448  -0.388   4.519  1.00  0.00     0.094 C 
HETATM   15  C23 UNL     1      22.800   0.597   6.705  1.00  0.00     0.049 C 
HETATM   16  N4  UNL     1      21.356  -1.393   6.468  1.00  0.00    -0.378 N 
HETATM   17  C17 UNL     1      23.828  -0.029   4.130  1.00  0.00    -0.082 C 
HETATM   18  C18 UNL     1      24.540  -0.682   3.024  1.00  0.00     0.043 C 
HETATM   19  C19 UNL     1      24.421   0.927   4.828  1.00  0.00    -0.015 C 
HETATM   20  C20 UNL     1      23.640   1.544   5.931  1.00  0.00    -0.022 C 
HETATM   21  C21 UNL     1      22.875   2.693   5.320  1.00  0.00     0.019 C 
HETATM   22  C22 UNL     1      24.682   2.189   6.862  1.00  0.00     0.019 C 
HETATM   23  C24 UNL     1      21.548   1.246   7.263  1.00  0.00     0.016 C 
ATOM     24  H4  UNL     1      20.436  -0.956   6.404  1.00  0.00     0.157 HD
ENDBRANCH   7   8
BRANCH   1  25
HETATM   25  N1  UNL     1      21.221  -3.846   9.444  1.00  0.00    -0.258 N 
ATOM     26  H1  UNL     1      22.117  -3.515   9.084  1.00  0.00     0.195 HD
BRANCH  25  27
HETATM   27  O1  UNL     1      21.113  -4.257  10.741  1.00  0.00    -0.284 OA
HETATM   28  C1  UNL     1      22.184  -4.597  11.574  1.00  0.00     0.237 C 
ENDBRANCH  25  27
ENDBRANCH   1  25
BRANCH   6  29
HETATM   29  O2  UNL     1      19.211  -2.792   5.350  1.00  0.00    -0.356 OA
ATOM     30  H2  UNL     1      20.062  -2.425   5.145  1.00  0.00     0.218 HD
ENDBRANCH   6  29
BRANCH   5  31
HETATM   31  N3  UNL     1      16.812  -3.877   5.938  1.00  0.00    -0.353 N 
HETATM   32  C4  UNL     1      15.762  -4.571   6.197  1.00  0.00     0.063 C 
ATOM     33  H3  UNL     1      16.884  -3.320   5.085  1.00  0.00     0.166 HD
BRANCH  32  34
HETATM   34  C5  UNL     1      14.608  -4.590   5.261  1.00  0.00     0.048 C 
BRANCH  34  35
HETATM   35  C6  UNL     1      14.004  -5.975   5.225  1.00  0.00    -0.018 C 
HETATM   36  C7  UNL     1      15.085  -6.946   5.661  1.00  0.00     0.010 C 
HETATM   37  C8  UNL     1      13.586  -6.324   3.821  1.00  0.00     0.010 C 
ENDBRANCH  34  35
ENDBRANCH  32  34
ENDBRANCH   5  31
TORSDOF 7
ENDMDL
MODEL 2
REMARK VINA RESULT: -7.422637984      3.756      7.374
REMARK  7 active torsions:
REMARK  status: ('A' for Active; 'I' for Inactive)
REMARK    1  A    between atoms: O1_2  and  N1_3 
REMARK    2  A    between atoms: N1_3  and  C2_5 
REMARK    3  A    between atoms: C3_9  and  N3_10 
REMARK    4  A    between atoms: C4_12  and  C5_13 
REMARK    5  A    between atoms: C5_13  and  C6_14 
REMARK    6  A    between atoms: C9_17  and  O2_18 
REMARK    7  A    between atoms: C10_20  and  C11_21 
ROOT
HETATM    1  C2  UNL     1      18.871  -4.197   7.929  1.00  0.00     0.123 A 
HETATM    2  S1  UNL     1      18.835  -3.468   6.401  1.00  0.00     0.008 SA
HETATM    3  N2  UNL     1      17.467  -3.898   5.515  1.00  0.00    -0.308 N 
ATOM      4  H2  UNL     1      17.279  -3.554   4.573  1.00  0.00     0.176 HD
HETATM    5  C3  UNL     1      16.645  -4.743   6.173  1.00  0.00     0.145 A 
HETATM    6  C9  UNL     1      16.814  -5.247   7.418  1.00  0.00     0.122 A 
HETATM    7  C10 UNL     1      17.824  -5.050   8.313  1.00  0.00     0.044 A 
ENDROOT
BRANCH   7   8
HETATM    8  C11 UNL     1      17.942  -5.621   9.660  1.00  0.00     0.066 C 
HETATM    9  C12 UNL     1      16.957  -6.614  10.156  1.00  0.00     0.068 C 
HETATM   10  C13 UNL     1      18.121  -7.127  11.040  1.00  0.00     0.130 C 
HETATM   11  C14 UNL     1      19.003  -6.666   9.869  1.00  0.00     0.068 C 
HETATM   12  O3  UNL     1      18.309  -6.400  12.163  1.00  0.00    -0.355 OA
HETATM   13  C15 UNL     1      18.297  -5.015  11.992  1.00  0.00     0.139 C 
HETATM   14  C16 UNL     1      19.658  -4.567  12.566  1.00  0.00     0.094 C 
HETATM   15  C23 UNL     1      17.271  -4.487  12.972  1.00  0.00     0.049 C 
HETATM   16  N4  UNL     1      18.124  -4.599  10.656  1.00  0.00    -0.378 N 
HETATM   17  C17 UNL     1      19.846  -5.354  13.803  1.00  0.00    -0.082 C 
HETATM   18  C18 UNL     1      21.038  -6.176  14.052  1.00  0.00     0.043 C 
HETATM   19  C19 UNL     1      18.881  -5.294  14.708  1.00  0.00    -0.015 C 
HETATM   20  C20 UNL     1      17.706  -4.442  14.388  1.00  0.00    -0.022 C 
HETATM   21  C21 UNL     1      18.036  -3.057  14.892  1.00  0.00     0.019 C 
HETATM   22  C22 UNL     1      16.571  -4.951  15.294  1.00  0.00     0.019 C 
HETATM   23  C24 UNL     1      16.643  -3.186  12.510  1.00  0.00     0.016 C 
ATOM     24  H4  UNL     1      18.129  -3.611  10.406  1.00  0.00     0.157 HD
ENDBRANCH   7   8
BRANCH   1  25
HETATM   25  N1  UNL     1      19.861  -3.967   8.735  1.00  0.00    -0.258 N 
ATOM     26  H1  UNL     1      19.755  -4.133   9.736  1.00  0.00     0.195 HD
BRANCH  25  27
HETATM   27  O1  UNL     1      21.044  -3.502   8.238  1.00  0.00    -0.284 OA
HETATM   28  C1  UNL     1      22.155  -3.133   9.004  1.00  0.00     0.237 C 
ENDBRANCH  25  27
ENDBRANCH   1  25
BRANCH   6  29
HETATM   29  O2  UNL     1      15.791  -6.109   7.862  1.00  0.00    -0.356 OA
ATOM     30  H2  UNL     1      16.073  -6.984   8.100  1.00  0.00     0.218 HD
ENDBRANCH   6  29
BRANCH   5  31
HETATM   31  N3  UNL     1      15.476  -5.094   5.382  1.00  0.00    -0.353 N 
HETATM   32  C4  UNL     1      14.819  -4.126   4.848  1.00  0.00     0.063 C 
ATOM     33  H3  UNL     1      15.190  -6.065   5.257  1.00  0.00     0.166 HD
BRANCH  32  34
HETATM   34  C5  UNL     1      13.611  -4.388   4.023  1.00  0.00     0.048 C 
BRANCH  34  35
HETATM   35  C6  UNL     1      13.556  -3.407   2.875  1.00  0.00    -0.018 C 
HETATM   36  C7  UNL     1      13.407  -4.218   1.601  1.00  0.00     0.010 C 
HETATM   37  C8  UNL     1      14.840  -2.624   2.798  1.00  0.00     0.010 C 
ENDBRANCH  34  35
ENDBRANCH  32  34
ENDBRANCH   5  31
TORSDOF 7
ENDMDL
MODEL 3
REMARK VINA RESULT: -7.373791081      3.558      8.261
REMARK  7 active torsions:
REMARK  status: ('A' for Active; 'I' for Inactive)
REMARK    1  A    between atoms: O1_2  and  N1_3 
REMARK    2  A    between atoms: N1_3  and  C2_5 
REMARK    3  A    between atoms: C3_9  and  N3_10 
REMARK    4  A    between atoms: C4_12  and  C5_13 
REMARK    5  A    between atoms: C5_13  and  C6_14 
REMARK    6  A    between atoms: C9_17  and  O2_18 
REMARK    7  A    between atoms: C10_20  and  C11_21 
ROOT
HETATM    1  C2  UNL     1      16.679  -5.500   7.532  1.00  0.00     0.123 A 
HETATM    2  S1  UNL     1      16.444  -4.908   5.963  1.00  0.00     0.008 SA
HETATM    3  N2  UNL     1      17.629  -3.799   5.508  1.00  0.00    -0.308 N 
ATOM      4  H2  UNL     1      17.647  -3.340   4.598  1.00  0.00     0.176 HD
HETATM    5  C3  UNL     1      18.553  -3.578   6.468  1.00  0.00     0.145 A 
HETATM    6  C9  UNL     1      18.608  -4.141   7.698  1.00  0.00     0.122 A 
HETATM    7  C10 UNL     1      17.775  -5.049   8.283  1.00  0.00     0.044 A 
ENDROOT
BRANCH   7   8
HETATM    8  C11 UNL     1      17.899  -5.632   9.625  1.00  0.00     0.066 C 
HETATM    9  C12 UNL     1      16.905  -6.615  10.123  1.00  0.00     0.068 C 
HETATM   10  C13 UNL     1      18.071  -7.153  10.991  1.00  0.00     0.130 C 
HETATM   11  C14 UNL     1      18.946  -6.695   9.813  1.00  0.00     0.068 C 
HETATM   12  O3  UNL     1      18.283  -6.438  12.117  1.00  0.00    -0.355 OA
HETATM   13  C15 UNL     1      18.290  -5.051  11.957  1.00  0.00     0.139 C 
HETATM   14  C16 UNL     1      19.664  -4.629  12.519  1.00  0.00     0.094 C 
HETATM   15  C23 UNL     1      17.283  -4.516  12.953  1.00  0.00     0.049 C 
HETATM   16  N4  UNL     1      18.108  -4.622  10.627  1.00  0.00    -0.378 N 
HETATM   17  C17 UNL     1      19.854  -5.429  13.747  1.00  0.00    -0.082 C 
HETATM   18  C18 UNL     1      21.036  -6.270  13.976  1.00  0.00     0.043 C 
HETATM   19  C19 UNL     1      18.900  -5.361  14.663  1.00  0.00    -0.015 C 
HETATM   20  C20 UNL     1      17.735  -4.489  14.364  1.00  0.00    -0.022 C 
HETATM   21  C21 UNL     1      18.092  -3.114  14.875  1.00  0.00     0.019 C 
HETATM   22  C22 UNL     1      16.602  -4.988  15.279  1.00  0.00     0.019 C 
HETATM   23  C24 UNL     1      16.669  -3.201  12.509  1.00  0.00     0.016 C 
ATOM     24  H4  UNL     1      18.125  -3.632  10.384  1.00  0.00     0.157 HD
ENDBRANCH   7   8
BRANCH   1  25
HETATM   25  N1  UNL     1      15.851  -6.364   8.031  1.00  0.00    -0.258 N 
ATOM     26  H1  UNL     1      15.500  -6.248   8.982  1.00  0.00     0.195 HD
BRANCH  25  27
HETATM   27  O1  UNL     1      15.450  -7.431   7.278  1.00  0.00    -0.284 OA
HETATM   28  C1  UNL     1      16.267  -8.493   6.880  1.00  0.00     0.237 C 
ENDBRANCH  25  27
ENDBRANCH   1  25
BRANCH   6  29
HETATM   29  O2  UNL     1      19.691  -3.729   8.500  1.00  0.00    -0.356 OA
ATOM     30  H2  UNL     1      19.502  -3.020   9.103  1.00  0.00     0.218 HD
ENDBRANCH   6  29
BRANCH   5  31
HETATM   31  N3  UNL     1      19.561  -2.619   6.045  1.00  0.00    -0.353 N 
HETATM   32  C4  UNL     1      19.947  -2.677   4.820  1.00  0.00     0.063 C 
ATOM     33  H3  UNL     1      19.944  -1.929   6.692  1.00  0.00     0.166 HD
BRANCH  32  34
HETATM   34  C5  UNL     1      20.973  -1.737   4.298  1.00  0.00     0.048 C 
BRANCH  34  35
HETATM   35  C6  UNL     1      21.303  -0.705   5.353  1.00  0.00    -0.018 C 
HETATM   36  C7  UNL     1      20.482   0.532   5.041  1.00  0.00     0.010 C 
HETATM   37  C8  UNL     1      22.763  -0.342   5.286  1.00  0.00     0.010 C 
ENDBRANCH  34  35
ENDBRANCH  32  34
ENDBRANCH   5  31
TORSDOF 7
ENDMDL
MODEL 4
REMARK VINA RESULT: -7.143858384      2.132      3.372
REMARK  7 active torsions:
REMARK  status: ('A' for Active; 'I' for Inactive)
REMARK    1  A    between atoms: O1_2  and  N1_3 
REMARK    2  A    between atoms: N1_3  and  C2_5 
REMARK    3  A    between atoms: C3_9  and  N3_10 
REMARK    4  A    between atoms: C4_12  and  C5_13 
REMARK    5  A    between atoms: C5_13  and  C6_14 
REMARK    6  A    between atoms: C9_17  and  O2_18 
REMARK    7  A    between atoms: C10_20  and  C11_21 
ROOT
HETATM    1  C2  UNL     1      17.596  -5.682   8.216  1.00  0.00     0.123 A 
HETATM    2  S1  UNL     1      16.204  -6.632   8.047  1.00  0.00     0.008 SA
HETATM    3  N2  UNL     1      15.346  -6.274   6.641  1.00  0.00    -0.308 N 
ATOM      4  H2  UNL     1      14.483  -6.747   6.375  1.00  0.00     0.176 HD
HETATM    5  C3  UNL     1      15.915  -5.299   5.899  1.00  0.00     0.145 A 
HETATM    6  C9  UNL     1      17.054  -4.620   6.173  1.00  0.00     0.122 A 
HETATM    7  C10 UNL     1      17.906  -4.730   7.232  1.00  0.00     0.044 A 
ENDROOT
BRANCH   7   8
HETATM    8  C11 UNL     1      19.139  -3.968   7.463  1.00  0.00     0.066 C 
HETATM    9  C12 UNL     1      19.147  -2.782   8.355  1.00  0.00     0.068 C 
HETATM   10  C13 UNL     1      20.636  -3.136   8.592  1.00  0.00     0.130 C 
HETATM   11  C14 UNL     1      20.160  -4.583   8.380  1.00  0.00     0.068 C 
HETATM   12  O3  UNL     1      21.459  -2.702   7.613  1.00  0.00    -0.355 OA
HETATM   13  C15 UNL     1      21.021  -2.940   6.309  1.00  0.00     0.139 C 
HETATM   14  C16 UNL     1      22.182  -3.738   5.678  1.00  0.00     0.094 C 
HETATM   15  C23 UNL     1      21.050  -1.597   5.612  1.00  0.00     0.049 C 
HETATM   16  N4  UNL     1      19.797  -3.635   6.229  1.00  0.00    -0.378 N 
HETATM   17  C17 UNL     1      23.419  -3.075   6.142  1.00  0.00    -0.082 C 
HETATM   18  C18 UNL     1      24.501  -3.795   6.827  1.00  0.00     0.043 C 
HETATM   19  C19 UNL     1      23.527  -1.775   5.913  1.00  0.00    -0.015 C 
HETATM   20  C20 UNL     1      22.395  -1.114   5.214  1.00  0.00    -0.022 C 
HETATM   21  C21 UNL     1      22.683  -1.228   3.737  1.00  0.00     0.019 C 
HETATM   22  C22 UNL     1      22.525   0.383   5.546  1.00  0.00     0.019 C 
HETATM   23  C24 UNL     1      20.038  -1.505   4.486  1.00  0.00     0.016 C 
ATOM     24  H4  UNL     1      19.394  -3.892   5.328  1.00  0.00     0.157 HD
ENDBRANCH   7   8
BRANCH   1  25
HETATM   25  N1  UNL     1      18.366  -5.836   9.247  1.00  0.00    -0.258 N 
ATOM     26  H1  UNL     1      19.363  -6.014   9.121  1.00  0.00     0.195 HD
BRANCH  25  27
HETATM   27  O1  UNL     1      17.837  -5.760  10.504  1.00  0.00    -0.284 OA
HETATM   28  C1  UNL     1      17.371  -4.593  11.117  1.00  0.00     0.237 C 
ENDBRANCH  25  27
ENDBRANCH   1  25
BRANCH   6  29
HETATM   29  O2  UNL     1      17.420  -3.651   5.217  1.00  0.00    -0.356 OA
ATOM     30  H2  UNL     1      18.084  -3.034   5.500  1.00  0.00     0.218 HD
ENDBRANCH   6  29
BRANCH   5  31
HETATM   31  N3  UNL     1      15.152  -5.014   4.694  1.00  0.00    -0.353 N 
HETATM   32  C4  UNL     1      13.971  -4.530   4.849  1.00  0.00     0.063 C 
ATOM     33  H3  UNL     1      15.538  -5.190   3.766  1.00  0.00     0.166 HD
BRANCH  32  34
HETATM   34  C5  UNL     1      13.118  -4.209   3.676  1.00  0.00     0.048 C 
BRANCH  34  35
HETATM   35  C6  UNL     1      13.990  -3.942   2.470  1.00  0.00    -0.018 C 
HETATM   36  C7  UNL     1      14.260  -2.449   2.435  1.00  0.00     0.010 C 
HETATM   37  C8  UNL     1      13.264  -4.327   1.208  1.00  0.00     0.010 C 
ENDBRANCH  34  35
ENDBRANCH  32  34
ENDBRANCH   5  31
TORSDOF 7
ENDMDL
MODEL 5
REMARK VINA RESULT: -7.120442802      1.409      2.233
REMARK  7 active torsions:
REMARK  status: ('A' for Active; 'I' for Inactive)
REMARK    1  A    between atoms: O1_2  and  N1_3 
REMARK    2  A    between atoms: N1_3  and  C2_5 
REMARK    3  A    between atoms: C3_9  and  N3_10 
REMARK    4  A    between atoms: C4_12  and  C5_13 
REMARK    5  A    between atoms: C5_13  and  C6_14 
REMARK    6  A    between atoms: C9_17  and  O2_18 
REMARK    7  A    between atoms: C10_20  and  C11_21 
ROOT
HETATM    1  C2  UNL     1      20.368  -3.862   8.729  1.00  0.00     0.123 A 
HETATM    2  S1  UNL     1      18.981  -4.772   9.066  1.00  0.00     0.008 SA
HETATM    3  N2  UNL     1      17.827  -4.665   7.842  1.00  0.00    -0.308 N 
ATOM      4  H2  UNL     1      16.929  -5.148   7.875  1.00  0.00     0.176 HD
HETATM    5  C3  UNL     1      18.207  -3.877   6.813  1.00  0.00     0.145 A 
HETATM    6  C9  UNL     1      19.374  -3.203   6.686  1.00  0.00     0.122 A 
HETATM    7  C10 UNL     1      20.442  -3.135   7.531  1.00  0.00     0.044 A 
ENDROOT
BRANCH   7   8
HETATM    8  C11 UNL     1      21.691  -2.390   7.325  1.00  0.00     0.066 C 
HETATM    9  C12 UNL     1      21.773  -0.940   7.631  1.00  0.00     0.068 C 
HETATM   10  C13 UNL     1      23.276  -1.213   7.883  1.00  0.00     0.130 C 
HETATM   11  C14 UNL     1      22.784  -2.597   8.337  1.00  0.00     0.068 C 
HETATM   12  O3  UNL     1      24.015  -1.260   6.754  1.00  0.00    -0.355 OA
HETATM   13  C15 UNL     1      23.471  -2.009   5.708  1.00  0.00     0.139 C 
HETATM   14  C16 UNL     1      24.576  -3.038   5.388  1.00  0.00     0.094 C 
HETATM   15  C23 UNL     1      23.443  -1.085   4.510  1.00  0.00     0.049 C 
HETATM   16  N4  UNL     1      22.245  -2.629   6.020  1.00  0.00    -0.378 N 
HETATM   17  C17 UNL     1      25.847  -2.286   5.434  1.00  0.00    -0.082 C 
HETATM   18  C18 UNL     1      26.982  -2.688   6.276  1.00  0.00     0.043 C 
HETATM   19  C19 UNL     1      25.936  -1.207   4.671  1.00  0.00    -0.015 C 
HETATM   20  C20 UNL     1      24.750  -0.862   3.846  1.00  0.00    -0.022 C 
HETATM   21  C21 UNL     1      24.914  -1.596   2.537  1.00  0.00     0.019 C 
HETATM   22  C22 UNL     1      24.907   0.631   3.504  1.00  0.00     0.019 C 
HETATM   23  C24 UNL     1      22.341  -1.440   3.529  1.00  0.00     0.016 C 
ATOM     24  H4  UNL     1      21.768  -3.227   5.345  1.00  0.00     0.157 HD
ENDBRANCH   7   8
BRANCH   1  25
HETATM   25  N1  UNL     1      21.351  -3.840   9.574  1.00  0.00    -0.258 N 
ATOM     26  H1  UNL     1      22.268  -3.499   9.284  1.00  0.00     0.195 HD
BRANCH  25  27
HETATM   27  O1  UNL     1      21.155  -4.275  10.853  1.00  0.00    -0.284 OA
HETATM   28  C1  UNL     1      22.141  -4.812  11.686  1.00  0.00     0.237 C 
ENDBRANCH  25  27
ENDBRANCH   1  25
BRANCH   6  29
HETATM   29  O2  UNL     1      19.509  -2.455   5.499  1.00  0.00    -0.356 OA
ATOM     30  H2  UNL     1      18.751  -2.461   4.927  1.00  0.00     0.218 HD
ENDBRANCH   6  29
BRANCH   5  31
HETATM   31  N3  UNL     1      17.191  -3.807   5.775  1.00  0.00    -0.353 N 
HETATM   32  C4  UNL     1      15.998  -4.158   6.099  1.00  0.00     0.063 C 
ATOM     33  H3  UNL     1      17.416  -3.492   4.831  1.00  0.00     0.166 HD
BRANCH  32  34
HETATM   34  C5  UNL     1      14.894  -4.118   5.104  1.00  0.00     0.048 C 
BRANCH  34  35
HETATM   35  C6  UNL     1      13.979  -5.303   5.312  1.00  0.00    -0.018 C 
HETATM   36  C7  UNL     1      14.558  -6.122   6.450  1.00  0.00     0.010 C 
HETATM   37  C8  UNL     1      13.947  -6.159   4.073  1.00  0.00     0.010 C 
ENDBRANCH  34  35
ENDBRANCH  32  34
ENDBRANCH   5  31
TORSDOF 7
ENDMDL
