MODEL 1
REMARK VINA RESULT: -8.203948623      0.000      0.000
REMARK  7 active torsions:
REMARK  status: ('A' for Active; 'I' for Inactive)
REMARK    1  A    between atoms: C2_2  and  C3_3 
REMARK    2  A    between atoms: C3_3  and  C5_5 
REMARK    3  A    between atoms: C5_5  and  O2_7 
REMARK    4  A    between atoms: O2_7  and  C6_8 
REMARK    5  A    between atoms: C6_8  and  C7_9 
REMARK    6  A    between atoms: N1_23  and  O5_25 
REMARK    7  A    between atoms: C24_32  and  O6_33 
ROOT
HETATM    1  C7  UNL     1      16.544  -6.871   7.690  1.00  0.00     0.256 C 
HETATM    2  O3  UNL     1      15.894  -6.554   8.875  1.00  0.00    -0.194 OA
HETATM    3  O4  UNL     1      15.554  -7.851   8.917  1.00  0.00    -0.221 OA
HETATM    4  C8  UNL     1      16.863  -8.118   8.532  1.00  0.00     0.157 C 
HETATM    5  C9  UNL     1      17.128  -9.354   7.775  1.00  0.00     0.056 C 
HETATM    6  C10 UNL     1      17.832  -7.764   9.646  1.00  0.00     0.074 C 
HETATM    7  C11 UNL     1      19.221  -8.091   9.318  1.00  0.00    -0.023 C 
HETATM    8  C12 UNL     1      20.328  -7.843  10.206  1.00  0.00    -0.002 C 
HETATM    9  C13 UNL     1      20.654  -6.969  11.118  1.00  0.00    -0.084 C 
HETATM   10  C14 UNL     1      22.006  -7.131  11.827  1.00  0.00     0.043 C 
HETATM   11  C15 UNL     1      19.909  -5.787  11.616  1.00  0.00     0.034 C 
HETATM   12  C16 UNL     1      20.429  -4.463  11.086  1.00  0.00     0.015 C 
HETATM   13  C17 UNL     1      20.396  -4.354   9.625  1.00  0.00     0.038 C 
HETATM   14  C18 UNL     1      19.062  -4.180   9.004  1.00  0.00     0.023 C 
HETATM   15  N1  UNL     1      18.019  -3.785   9.531  1.00  0.00    -0.277 N 
ATOM     16  H1  UNL     1      17.236  -3.760   8.878  1.00  0.00     0.193 HD
HETATM   17  C19 UNL     1      19.109  -4.530   7.550  1.00  0.00     0.089 C 
HETATM   18  C20 UNL     1      19.748  -3.329   6.919  1.00  0.00     0.016 C 
HETATM   19  C21 UNL     1      21.045  -2.995   7.594  1.00  0.00     0.006 C 
HETATM   20  C22 UNL     1      21.182  -3.198   9.041  1.00  0.00    -0.009 C 
HETATM   21  C23 UNL     1      22.646  -3.458   9.388  1.00  0.00     0.011 C 
HETATM   22  C24 UNL     1      17.783  -4.954   7.092  1.00  0.00     0.270 C 
HETATM   23  O7  UNL     1      17.690  -6.298   7.344  1.00  0.00    -0.317 OA
ENDROOT
BRANCH   1  24
HETATM   24  C6  UNL     1      15.512  -7.126   6.626  1.00  0.00     0.253 C 
BRANCH  24  25
HETATM   25  O2  UNL     1      14.742  -5.978   6.331  1.00  0.00    -0.316 OA
BRANCH  25  26
HETATM   26  C5  UNL     1      14.028  -5.914   5.144  1.00  0.00     0.262 C 
HETATM   27  O1  UNL     1      13.716  -7.007   4.605  1.00  0.00    -0.265 OA
BRANCH  26  28
HETATM   28  C3  UNL     1      13.643  -4.602   4.526  1.00  0.00     0.081 C 
HETATM   29  C4  UNL     1      14.790  -3.659   4.704  1.00  0.00     0.020 C 
BRANCH  28  30
HETATM   30  C2  UNL     1      13.256  -4.783   3.075  1.00  0.00     0.010 C 
HETATM   31  C1  UNL     1      13.601  -3.476   2.372  1.00  0.00     0.006 C 
ENDBRANCH  28  30
ENDBRANCH  26  28
ENDBRANCH  25  26
ENDBRANCH  24  25
ENDBRANCH   1  24
BRANCH  22  32
HETATM   32  O6  UNL     1      16.700  -4.221   7.524  1.00  0.00    -0.370 OA
ATOM     33  H6  UNL     1      16.000  -4.694   7.960  1.00  0.00     0.212 HD
ENDBRANCH  22  32
BRANCH  15  34
HETATM   34  O5  UNL     1      17.678  -3.384  10.758  1.00  0.00    -0.290 OA
ATOM     35  H5  UNL     1      17.246  -2.617  11.116  1.00  0.00     0.244 HD
ENDBRANCH  15  34
TORSDOF 7
ENDMDL
MODEL 2
REMARK VINA RESULT: -7.952839006      1.096      1.442
REMARK  7 active torsions:
REMARK  status: ('A' for Active; 'I' for Inactive)
REMARK    1  A    between atoms: C2_2  and  C3_3 
REMARK    2  A    between atoms: C3_3  and  C5_5 
REMARK    3  A    between atoms: C5_5  and  O2_7 
REMARK    4  A    between atoms: O2_7  and  C6_8 
REMARK    5  A    between atoms: C6_8  and  C7_9 
REMARK    6  A    between atoms: N1_23  and  O5_25 
REMARK    7  A    between atoms: C24_32  and  O6_33 
ROOT
HETATM    1  C7  UNL     1      16.364  -6.249   6.681  1.00  0.00     0.256 C 
HETATM    2  O3  UNL     1      15.565  -6.063   7.801  1.00  0.00    -0.194 OA
HETATM    3  O4  UNL     1      15.091  -7.290   7.541  1.00  0.00    -0.221 OA
HETATM    4  C8  UNL     1      16.411  -7.656   7.300  1.00  0.00     0.157 C 
HETATM    5  C9  UNL     1      16.667  -8.763   6.363  1.00  0.00     0.056 C 
HETATM    6  C10 UNL     1      17.215  -7.635   8.588  1.00  0.00     0.074 C 
HETATM    7  C11 UNL     1      18.598  -8.080   8.402  1.00  0.00    -0.023 C 
HETATM    8  C12 UNL     1      19.563  -8.142   9.470  1.00  0.00    -0.002 C 
HETATM    9  C13 UNL     1      19.824  -7.493  10.572  1.00  0.00    -0.084 C 
HETATM   10  C14 UNL     1      21.018  -7.954  11.419  1.00  0.00     0.043 C 
HETATM   11  C15 UNL     1      19.134  -6.329  11.179  1.00  0.00     0.034 C 
HETATM   12  C16 UNL     1      19.867  -5.013  10.996  1.00  0.00     0.015 C 
HETATM   13  C17 UNL     1      20.086  -4.644   9.595  1.00  0.00     0.038 C 
HETATM   14  C18 UNL     1      18.897  -4.189   8.837  1.00  0.00     0.023 C 
HETATM   15  N1  UNL     1      17.828  -3.759   9.277  1.00  0.00    -0.277 N 
ATOM     16  H1  UNL     1      17.169  -3.516   8.538  1.00  0.00     0.193 HD
HETATM   17  C19 UNL     1      19.145  -4.280   7.364  1.00  0.00     0.089 C 
HETATM   18  C20 UNL     1      20.000  -3.082   7.076  1.00  0.00     0.016 C 
HETATM   19  C21 UNL     1      21.196  -3.046   7.980  1.00  0.00     0.006 C 
HETATM   20  C22 UNL     1      21.073  -3.518   9.365  1.00  0.00    -0.009 C 
HETATM   21  C23 UNL     1      22.425  -4.027   9.858  1.00  0.00     0.011 C 
HETATM   22  C24 UNL     1      17.876  -4.438   6.649  1.00  0.00     0.270 C 
HETATM   23  O7  UNL     1      17.604  -5.781   6.618  1.00  0.00    -0.317 OA
ENDROOT
BRANCH   1  24
HETATM   24  C6  UNL     1      15.500  -6.174   5.452  1.00  0.00     0.253 C 
BRANCH  24  25
HETATM   25  O2  UNL     1      14.458  -5.228   5.579  1.00  0.00    -0.316 OA
BRANCH  25  26
HETATM   26  C5  UNL     1      14.494  -4.060   4.831  1.00  0.00     0.262 C 
HETATM   27  O1  UNL     1      14.707  -2.989   5.455  1.00  0.00    -0.265 OA
BRANCH  26  28
HETATM   28  C3  UNL     1      14.289  -4.070   3.345  1.00  0.00     0.081 C 
HETATM   29  C4  UNL     1      13.147  -4.990   3.047  1.00  0.00     0.020 C 
BRANCH  28  30
HETATM   30  C2  UNL     1      14.060  -2.669   2.823  1.00  0.00     0.010 C 
HETATM   31  C1  UNL     1      15.377  -2.221   2.202  1.00  0.00     0.006 C 
ENDBRANCH  28  30
ENDBRANCH  26  28
ENDBRANCH  25  26
ENDBRANCH  24  25
ENDBRANCH   1  24
BRANCH  22  32
HETATM   32  O6  UNL     1      16.818  -3.656   7.058  1.00  0.00    -0.370 OA
ATOM     33  H6  UNL     1      16.439  -3.846   7.908  1.00  0.00     0.212 HD
ENDBRANCH  22  32
BRANCH  15  34
HETATM   34  O5  UNL     1      17.334  -3.539  10.498  1.00  0.00    -0.290 OA
ATOM     35  H5  UNL     1      16.834  -2.839  10.902  1.00  0.00     0.244 HD
ENDBRANCH  15  34
TORSDOF 7
ENDMDL
MODEL 3
REMARK VINA RESULT: -7.739586229      1.148      1.412
REMARK  7 active torsions:
REMARK  status: ('A' for Active; 'I' for Inactive)
REMARK    1  A    between atoms: C2_2  and  C3_3 
REMARK    2  A    between atoms: C3_3  and  C5_5 
REMARK    3  A    between atoms: C5_5  and  O2_7 
REMARK    4  A    between atoms: O2_7  and  C6_8 
REMARK    5  A    between atoms: C6_8  and  C7_9 
REMARK    6  A    between atoms: N1_23  and  O5_25 
REMARK    7  A    between atoms: C24_32  and  O6_33 
ROOT
HETATM    1  C7  UNL     1      16.709  -6.895   8.573  1.00  0.00     0.256 C 
HETATM    2  O3  UNL     1      16.213  -6.812   9.867  1.00  0.00    -0.194 OA
HETATM    3  O4  UNL     1      15.807  -8.077   9.683  1.00  0.00    -0.221 OA
HETATM    4  C8  UNL     1      17.049  -8.300   9.098  1.00  0.00     0.157 C 
HETATM    5  C9  UNL     1      17.158  -9.358   8.079  1.00  0.00     0.056 C 
HETATM    6  C10 UNL     1      18.153  -8.218  10.137  1.00  0.00     0.074 C 
HETATM    7  C11 UNL     1      19.477  -8.514   9.585  1.00  0.00    -0.023 C 
HETATM    8  C12 UNL     1      20.686  -8.493  10.367  1.00  0.00    -0.002 C 
HETATM    9  C13 UNL     1      21.160  -7.840  11.392  1.00  0.00    -0.084 C 
HETATM   10  C14 UNL     1      22.571  -8.189  11.886  1.00  0.00     0.043 C 
HETATM   11  C15 UNL     1      20.542  -6.764  12.206  1.00  0.00     0.034 C 
HETATM   12  C16 UNL     1      21.074  -5.376  11.899  1.00  0.00     0.015 C 
HETATM   13  C17 UNL     1      20.886  -4.963  10.505  1.00  0.00     0.038 C 
HETATM   14  C18 UNL     1      19.504  -4.621  10.097  1.00  0.00     0.023 C 
HETATM   15  N1  UNL     1      18.549  -4.311  10.814  1.00  0.00    -0.277 N 
ATOM     16  H1  UNL     1      17.701  -4.125  10.278  1.00  0.00     0.193 HD
HETATM   17  C19 UNL     1      19.370  -4.660   8.606  1.00  0.00     0.089 C 
HETATM   18  C20 UNL     1      20.002  -3.375   8.162  1.00  0.00     0.016 C 
HETATM   19  C21 UNL     1      21.382  -3.231   8.731  1.00  0.00     0.006 C 
HETATM   20  C22 UNL     1      21.667  -3.737  10.079  1.00  0.00    -0.009 C 
HETATM   21  C23 UNL     1      23.143  -4.110  10.188  1.00  0.00     0.011 C 
HETATM   22  C24 UNL     1      17.980  -4.936   8.234  1.00  0.00     0.270 C 
HETATM   23  O7  UNL     1      17.840  -6.300   8.216  1.00  0.00    -0.317 OA
ENDROOT
BRANCH   1  24
HETATM   24  C6  UNL     1      15.553  -6.889   7.610  1.00  0.00     0.253 C 
BRANCH  24  25
HETATM   25  O2  UNL     1      15.928  -6.466   6.316  1.00  0.00    -0.316 OA
BRANCH  25  26
HETATM   26  C5  UNL     1      15.236  -5.433   5.701  1.00  0.00     0.262 C 
HETATM   27  O1  UNL     1      15.246  -4.316   6.278  1.00  0.00    -0.265 OA
BRANCH  26  28
HETATM   28  C3  UNL     1      14.508  -5.635   4.405  1.00  0.00     0.081 C 
HETATM   29  C4  UNL     1      13.801  -6.951   4.477  1.00  0.00     0.020 C 
BRANCH  28  30
HETATM   30  C2  UNL     1      13.567  -4.482   4.130  1.00  0.00     0.010 C 
HETATM   31  C1  UNL     1      13.173  -4.589   2.662  1.00  0.00     0.006 C 
ENDBRANCH  28  30
ENDBRANCH  26  28
ENDBRANCH  25  26
ENDBRANCH  24  25
ENDBRANCH   1  24
BRANCH  22  32
HETATM   32  O6  UNL     1      16.994  -4.276   8.933  1.00  0.00    -0.370 OA
ATOM     33  H6  UNL     1      16.439  -3.679   8.445  1.00  0.00     0.212 HD
ENDBRANCH  22  32
BRANCH  15  34
HETATM   34  O5  UNL     1      18.369  -4.164  12.129  1.00  0.00    -0.290 OA
ATOM     35  H5  UNL     1      18.029  -4.716  12.824  1.00  0.00     0.244 HD
ENDBRANCH  15  34
TORSDOF 7
ENDMDL
MODEL 4
REMARK VINA RESULT: -7.468552655      1.324      1.777
REMARK  7 active torsions:
REMARK  status: ('A' for Active; 'I' for Inactive)
REMARK    1  A    between atoms: C2_2  and  C3_3 
REMARK    2  A    between atoms: C3_3  and  C5_5 
REMARK    3  A    between atoms: C5_5  and  O2_7 
REMARK    4  A    between atoms: O2_7  and  C6_8 
REMARK    5  A    between atoms: C6_8  and  C7_9 
REMARK    6  A    between atoms: N1_23  and  O5_25 
REMARK    7  A    between atoms: C24_32  and  O6_33 
ROOT
HETATM    1  C7  UNL     1      16.936  -6.570   7.592  1.00  0.00     0.256 C 
HETATM    2  O3  UNL     1      15.832  -6.108   8.296  1.00  0.00    -0.194 OA
HETATM    3  O4  UNL     1      15.267  -7.283   7.978  1.00  0.00    -0.221 OA
HETATM    4  C8  UNL     1      16.490  -7.860   8.299  1.00  0.00     0.157 C 
HETATM    5  C9  UNL     1      16.862  -9.120   7.632  1.00  0.00     0.056 C 
HETATM    6  C10 UNL     1      16.756  -7.759   9.791  1.00  0.00     0.074 C 
HETATM    7  C11 UNL     1      18.002  -8.415  10.193  1.00  0.00    -0.023 C 
HETATM    8  C12 UNL     1      18.479  -8.449  11.552  1.00  0.00    -0.002 C 
HETATM    9  C13 UNL     1      18.433  -7.685  12.609  1.00  0.00    -0.084 C 
HETATM   10  C14 UNL     1      19.125  -8.176  13.889  1.00  0.00     0.043 C 
HETATM   11  C15 UNL     1      17.797  -6.359  12.800  1.00  0.00     0.034 C 
HETATM   12  C16 UNL     1      18.778  -5.200  12.803  1.00  0.00     0.015 C 
HETATM   13  C17 UNL     1      19.560  -5.080  11.569  1.00  0.00     0.038 C 
HETATM   14  C18 UNL     1      18.838  -4.582  10.375  1.00  0.00     0.023 C 
HETATM   15  N1  UNL     1      17.782  -3.947  10.329  1.00  0.00    -0.277 N 
ATOM     16  H1  UNL     1      17.498  -3.728   9.374  1.00  0.00     0.193 HD
HETATM   17  C19 UNL     1      19.587  -4.927   9.126  1.00  0.00     0.089 C 
HETATM   18  C20 UNL     1      20.694  -3.916   9.090  1.00  0.00     0.016 C 
HETATM   19  C21 UNL     1      21.460  -3.912  10.379  1.00  0.00     0.006 C 
HETATM   20  C22 UNL     1      20.752  -4.149  11.643  1.00  0.00    -0.009 C 
HETATM   21  C23 UNL     1      21.710  -4.761  12.663  1.00  0.00     0.011 C 
HETATM   22  C24 UNL     1      18.662  -5.012   7.992  1.00  0.00     0.270 C 
HETATM   23  O7  UNL     1      18.177  -6.293   7.974  1.00  0.00    -0.317 OA
ENDROOT
BRANCH   1  24
HETATM   24  C6  UNL     1      16.613  -6.560   6.123  1.00  0.00     0.253 C 
BRANCH  24  25
HETATM   25  O2  UNL     1      15.817  -5.454   5.751  1.00  0.00    -0.316 OA
BRANCH  25  26
HETATM   26  C5  UNL     1      14.669  -5.654   4.999  1.00  0.00     0.262 C 
HETATM   27  O1  UNL     1      14.315  -6.845   4.802  1.00  0.00    -0.265 OA
BRANCH  26  28
HETATM   28  C3  UNL     1      13.881  -4.504   4.444  1.00  0.00     0.081 C 
HETATM   29  C4  UNL     1      14.812  -3.345   4.285  1.00  0.00     0.020 C 
BRANCH  28  30
HETATM   30  C2  UNL     1      13.204  -4.891   3.147  1.00  0.00     0.010 C 
HETATM   31  C1  UNL     1      13.568  -3.812   2.134  1.00  0.00     0.006 C 
ENDBRANCH  28  30
ENDBRANCH  26  28
ENDBRANCH  25  26
ENDBRANCH  24  25
ENDBRANCH   1  24
BRANCH  22  32
HETATM   32  O6  UNL     1      17.694  -4.038   7.892  1.00  0.00    -0.370 OA
ATOM     33  H6  UNL     1      16.868  -4.285   7.493  1.00  0.00     0.212 HD
ENDBRANCH  22  32
BRANCH  15  34
HETATM   34  O5  UNL     1      16.925  -3.479  11.240  1.00  0.00    -0.290 OA
ATOM     35  H5  UNL     1      16.985  -2.867  11.964  1.00  0.00     0.244 HD
ENDBRANCH  15  34
TORSDOF 7
ENDMDL
MODEL 5
REMARK VINA RESULT: -7.308177570      1.323      1.530
REMARK  7 active torsions:
REMARK  status: ('A' for Active; 'I' for Inactive)
REMARK    1  A    between atoms: C2_2  and  C3_3 
REMARK    2  A    between atoms: C3_3  and  C5_5 
REMARK    3  A    between atoms: C5_5  and  O2_7 
REMARK    4  A    between atoms: O2_7  and  C6_8 
REMARK    5  A    between atoms: C6_8  and  C7_9 
REMARK    6  A    between atoms: N1_23  and  O5_25 
REMARK    7  A    between atoms: C24_32  and  O6_33 
ROOT
HETATM    1  C7  UNL     1      16.940  -7.329   8.854  1.00  0.00     0.256 C 
HETATM    2  O3  UNL     1      16.153  -7.004   9.950  1.00  0.00    -0.194 OA
HETATM    3  O4  UNL     1      15.780  -8.293   9.936  1.00  0.00    -0.221 OA
HETATM    4  C8  UNL     1      17.121  -8.589   9.718  1.00  0.00     0.157 C 
HETATM    5  C9  UNL     1      17.452  -9.826   8.989  1.00  0.00     0.056 C 
HETATM    6  C10 UNL     1      17.949  -8.265  10.949  1.00  0.00     0.074 C 
HETATM    7  C11 UNL     1      19.360  -8.624  10.797  1.00  0.00    -0.023 C 
HETATM    8  C12 UNL     1      20.349  -8.408  11.822  1.00  0.00    -0.002 C 
HETATM    9  C13 UNL     1      20.577  -7.548  12.776  1.00  0.00    -0.084 C 
HETATM   10  C14 UNL     1      21.824  -7.746  13.649  1.00  0.00     0.043 C 
HETATM   11  C15 UNL     1      19.802  -6.351  13.186  1.00  0.00     0.034 C 
HETATM   12  C16 UNL     1      20.416  -5.037  12.739  1.00  0.00     0.015 C 
HETATM   13  C17 UNL     1      20.572  -4.918  11.286  1.00  0.00     0.038 C 
HETATM   14  C18 UNL     1      19.332  -4.708  10.503  1.00  0.00     0.023 C 
HETATM   15  N1  UNL     1      18.240  -4.292  10.896  1.00  0.00    -0.277 N 
ATOM     16  H1  UNL     1      17.547  -4.243  10.149  1.00  0.00     0.193 HD
HETATM   17  C19 UNL     1      19.556  -5.050   9.062  1.00  0.00     0.089 C 
HETATM   18  C20 UNL     1      20.297  -3.861   8.530  1.00  0.00     0.016 C 
HETATM   19  C21 UNL     1      21.505  -3.562   9.367  1.00  0.00     0.006 C 
HETATM   20  C22 UNL     1      21.453  -3.778  10.818  1.00  0.00    -0.009 C 
HETATM   21  C23 UNL     1      22.854  -4.075  11.346  1.00  0.00     0.011 C 
HETATM   22  C24 UNL     1      18.289  -5.439   8.436  1.00  0.00     0.270 C 
HETATM   23  O7  UNL     1      18.134  -6.782   8.661  1.00  0.00    -0.317 OA
ENDROOT
BRANCH   1  24
HETATM   24  C6  UNL     1      16.047  -7.552   7.664  1.00  0.00     0.253 C 
BRANCH  24  25
HETATM   25  O2  UNL     1      15.399  -6.370   7.244  1.00  0.00    -0.316 OA
BRANCH  25  26
HETATM   26  C5  UNL     1      15.028  -6.223   5.915  1.00  0.00     0.262 C 
HETATM   27  O1  UNL     1      15.496  -7.055   5.096  1.00  0.00    -0.265 OA
BRANCH  26  28
HETATM   28  C3  UNL     1      14.109  -5.124   5.471  1.00  0.00     0.081 C 
HETATM   29  C4  UNL     1      14.809  -3.822   5.700  1.00  0.00     0.020 C 
BRANCH  28  30
HETATM   30  C2  UNL     1      13.694  -5.317   4.029  1.00  0.00     0.010 C 
HETATM   31  C1  UNL     1      13.455  -3.924   3.460  1.00  0.00     0.006 C 
ENDBRANCH  28  30
ENDBRANCH  26  28
ENDBRANCH  25  26
ENDBRANCH  24  25
ENDBRANCH   1  24
BRANCH  22  32
HETATM   32  O6  UNL     1      17.178  -4.683   8.734  1.00  0.00    -0.370 OA
ATOM     33  H6  UNL     1      16.591  -4.469   8.018  1.00  0.00     0.212 HD
ENDBRANCH  22  32
BRANCH  15  34
HETATM   34  O5  UNL     1      17.755  -3.890  12.073  1.00  0.00    -0.290 OA
ATOM     35  H5  UNL     1      17.528  -3.048  12.452  1.00  0.00     0.244 HD
ENDBRANCH  15  34
TORSDOF 7
ENDMDL
