MODEL 1
REMARK VINA RESULT: -7.748695190      0.000      0.000
REMARK  8 active torsions:
REMARK  status: ('A' for Active; 'I' for Inactive)
REMARK    1  A    between atoms: C8_8  and  C9_9 
REMARK    2  A    between atoms: C8_8  and  C20_28 
REMARK    3  A    between atoms: C9_9  and  O1_10 
REMARK    4  A    between atoms: C9_9  and  N1_12 
REMARK    5  A    between atoms: C10_13  and  O2_14 
REMARK    6  A    between atoms: C12_17  and  N2_18 
REMARK    7  A    between atoms: C19_25  and  O3_26 
REMARK    8  A    between atoms: C23_31  and  N3_32 
ROOT
HETATM    1  C9  UNL     1      20.374  -2.178   6.970  1.00  0.00     0.141 C 
ENDROOT
BRANCH   1   2
HETATM    2  C8  UNL     1      21.810  -2.118   6.787  1.00  0.00     0.065 C 
HETATM    3  C2  UNL     1      22.382  -1.977   8.243  1.00  0.00     0.003 C 
HETATM    4  C1  UNL     1      22.454  -3.245   8.993  1.00  0.00     0.011 C 
HETATM    5  C3  UNL     1      23.782  -1.439   8.076  1.00  0.00     0.006 C 
HETATM    6  C4  UNL     1      24.633  -2.396   7.338  1.00  0.00     0.001 C 
HETATM    7  C5  UNL     1      23.994  -3.309   6.376  1.00  0.00     0.006 C 
HETATM    8  C6  UNL     1      22.493  -3.319   6.296  1.00  0.00     0.003 C 
HETATM    9  C7  UNL     1      22.140  -3.882   4.965  1.00  0.00     0.011 C 
BRANCH   2  10
HETATM   10  C20 UNL     1      22.202  -0.814   6.204  1.00  0.00     0.002 A 
HETATM   11  C21 UNL     1      22.639  -0.354   5.018  1.00  0.00     0.019 A 
HETATM   12  C22 UNL     1      22.891   0.957   4.881  1.00  0.00     0.045 A 
HETATM   13  C23 UNL     1      22.682   1.754   5.979  1.00  0.00     0.144 A 
HETATM   14  S1  UNL     1      22.145   0.623   7.143  1.00  0.00    -0.070 SA
BRANCH  13  15
HETATM   15  N3  UNL     1      22.876   3.179   6.091  1.00  0.00    -0.108 N 
HETATM   16  O4  UNL     1      23.610   3.655   6.947  1.00  0.00    -0.531 OA
HETATM   17  O5  UNL     1      22.223   4.010   5.220  1.00  0.00    -0.531 OA
ENDBRANCH  13  15
ENDBRANCH   2  10
ENDBRANCH   1   2
BRANCH   1  18
HETATM   18  O1  UNL     1      19.819  -0.982   6.877  1.00  0.00    -0.348 OA
ATOM     19  H1  UNL     1      18.878  -1.040   6.752  1.00  0.00     0.219 HD
ENDBRANCH   1  18
BRANCH   1  20
HETATM   20  N1  UNL     1      19.439  -3.177   7.219  1.00  0.00    -0.252 N 
HETATM   21  C10 UNL     1      19.110  -3.810   8.335  1.00  0.00     0.152 A 
HETATM   22  C11 UNL     1      18.071  -4.744   8.120  1.00  0.00     0.090 A 
HETATM   23  C12 UNL     1      17.778  -4.648   6.798  1.00  0.00     0.086 A 
HETATM   24  C19 UNL     1      18.614  -3.697   6.271  1.00  0.00     0.177 A 
BRANCH  21  25
HETATM   25  O2  UNL     1      19.597  -3.714   9.622  1.00  0.00    -0.346 OA
ATOM     26  H2  UNL     1      19.612  -4.336  10.340  1.00  0.00     0.219 HD
ENDBRANCH  21  25
BRANCH  23  27
HETATM   27  N2  UNL     1      16.790  -5.399   6.110  1.00  0.00    -0.377 N 
HETATM   28  C13 UNL     1      17.109  -6.771   5.885  1.00  0.00     0.123 C 
HETATM   29  C14 UNL     1      15.911  -7.611   5.510  1.00  0.00     0.020 C 
HETATM   30  C15 UNL     1      15.045  -6.950   4.478  1.00  0.00     0.002 C 
HETATM   31  C16 UNL     1      13.879  -6.210   5.052  1.00  0.00     0.002 C 
HETATM   32  C17 UNL     1      14.341  -5.342   6.188  1.00  0.00     0.020 C 
HETATM   33  C18 UNL     1      15.616  -4.632   5.751  1.00  0.00     0.123 C 
ENDBRANCH  23  27
BRANCH  24  34
HETATM   34  O3  UNL     1      18.582  -3.351   4.946  1.00  0.00    -0.344 OA
ATOM     35  H3  UNL     1      18.810  -3.911   4.214  1.00  0.00     0.219 HD
ENDBRANCH  24  34
ENDBRANCH   1  20
TORSDOF 8
ENDMDL
MODEL 2
REMARK VINA RESULT: -7.695512810      3.058      8.395
REMARK  8 active torsions:
REMARK  status: ('A' for Active; 'I' for Inactive)
REMARK    1  A    between atoms: C8_8  and  C9_9 
REMARK    2  A    between atoms: C8_8  and  C20_28 
REMARK    3  A    between atoms: C9_9  and  O1_10 
REMARK    4  A    between atoms: C9_9  and  N1_12 
REMARK    5  A    between atoms: C10_13  and  O2_14 
REMARK    6  A    between atoms: C12_17  and  N2_18 
REMARK    7  A    between atoms: C19_25  and  O3_26 
REMARK    8  A    between atoms: C23_31  and  N3_32 
ROOT
HETATM    1  C9  UNL     1      18.483  -4.792   6.892  1.00  0.00     0.141 C 
ENDROOT
BRANCH   1   2
HETATM    2  C8  UNL     1      17.464  -5.508   7.633  1.00  0.00     0.065 C 
HETATM    3  C2  UNL     1      17.901  -7.014   7.540  1.00  0.00     0.003 C 
HETATM    4  C1  UNL     1      18.965  -7.398   8.487  1.00  0.00     0.011 C 
HETATM    5  C3  UNL     1      16.662  -7.814   7.863  1.00  0.00     0.006 C 
HETATM    6  C4  UNL     1      16.207  -7.551   9.245  1.00  0.00     0.001 C 
HETATM    7  C5  UNL     1      16.508  -6.243   9.848  1.00  0.00     0.006 C 
HETATM    8  C6  UNL     1      17.385  -5.293   9.082  1.00  0.00     0.003 C 
HETATM    9  C7  UNL     1      17.110  -3.932   9.616  1.00  0.00     0.011 C 
BRANCH   2  10
HETATM   10  C20 UNL     1      16.195  -5.537   6.870  1.00  0.00     0.002 A 
HETATM   11  C21 UNL     1      15.030  -4.864   6.865  1.00  0.00     0.019 A 
HETATM   12  C22 UNL     1      14.086  -5.202   5.973  1.00  0.00     0.045 A 
HETATM   13  C23 UNL     1      14.378  -6.230   5.112  1.00  0.00     0.144 A 
HETATM   14  S1  UNL     1      15.958  -6.666   5.598  1.00  0.00    -0.070 SA
BRANCH  13  15
HETATM   15  N3  UNL     1      13.543  -6.780   4.071  1.00  0.00    -0.108 N 
HETATM   16  O4  UNL     1      13.181  -7.949   4.098  1.00  0.00    -0.531 OA
HETATM   17  O5  UNL     1      13.152  -5.973   3.036  1.00  0.00    -0.531 OA
ENDBRANCH  13  15
ENDBRANCH   2  10
ENDBRANCH   1   2
BRANCH   1  18
HETATM   18  O1  UNL     1      18.405  -5.035   5.595  1.00  0.00    -0.348 OA
ATOM     19  H1  UNL     1      19.107  -4.610   5.116  1.00  0.00     0.219 HD
ENDBRANCH   1  18
BRANCH   1  20
HETATM   20  N1  UNL     1      19.517  -3.919   7.206  1.00  0.00    -0.252 N 
HETATM   21  C10 UNL     1      20.335  -3.866   8.248  1.00  0.00     0.152 A 
HETATM   22  C11 UNL     1      21.265  -2.808   8.130  1.00  0.00     0.090 A 
HETATM   23  C12 UNL     1      20.971  -2.209   6.948  1.00  0.00     0.086 A 
HETATM   24  C19 UNL     1      19.913  -2.893   6.405  1.00  0.00     0.177 A 
BRANCH  21  25
HETATM   25  O2  UNL     1      20.422  -4.642   9.385  1.00  0.00    -0.346 OA
ATOM     26  H2  UNL     1      20.618  -5.564   9.507  1.00  0.00     0.219 HD
ENDBRANCH  21  25
BRANCH  23  27
HETATM   27  N2  UNL     1      21.642  -1.087   6.396  1.00  0.00    -0.377 N 
HETATM   28  C13 UNL     1      22.819  -1.385   5.646  1.00  0.00     0.123 C 
HETATM   29  C14 UNL     1      23.277  -0.242   4.771  1.00  0.00     0.020 C 
HETATM   30  C15 UNL     1      23.259   1.075   5.489  1.00  0.00     0.002 C 
HETATM   31  C16 UNL     1      22.020   1.878   5.249  1.00  0.00     0.002 C 
HETATM   32  C17 UNL     1      20.810   1.005   5.428  1.00  0.00     0.020 C 
HETATM   33  C18 UNL     1      21.007   0.179   6.693  1.00  0.00     0.123 C 
ENDBRANCH  23  27
BRANCH  24  34
HETATM   34  O3  UNL     1      19.361  -2.545   5.201  1.00  0.00    -0.344 OA
ATOM     35  H3  UNL     1      18.434  -2.482   5.006  1.00  0.00     0.219 HD
ENDBRANCH  24  34
ENDBRANCH   1  20
TORSDOF 8
ENDMDL
MODEL 3
REMARK VINA RESULT: -7.689939547      1.845      2.855
REMARK  8 active torsions:
REMARK  status: ('A' for Active; 'I' for Inactive)
REMARK    1  A    between atoms: C8_8  and  C9_9 
REMARK    2  A    between atoms: C8_8  and  C20_28 
REMARK    3  A    between atoms: C9_9  and  O1_10 
REMARK    4  A    between atoms: C9_9  and  N1_12 
REMARK    5  A    between atoms: C10_13  and  O2_14 
REMARK    6  A    between atoms: C12_17  and  N2_18 
REMARK    7  A    between atoms: C19_25  and  O3_26 
REMARK    8  A    between atoms: C23_31  and  N3_32 
ROOT
HETATM    1  C9  UNL     1      20.379  -2.045   6.797  1.00  0.00     0.141 C 
ENDROOT
BRANCH   1   2
HETATM    2  C8  UNL     1      21.800  -1.905   6.549  1.00  0.00     0.065 C 
HETATM    3  C2  UNL     1      22.266  -3.347   6.132  1.00  0.00     0.003 C 
HETATM    4  C1  UNL     1      21.978  -3.696   4.728  1.00  0.00     0.011 C 
HETATM    5  C3  UNL     1      23.762  -3.360   6.332  1.00  0.00     0.006 C 
HETATM    6  C4  UNL     1      24.425  -2.386   5.438  1.00  0.00     0.001 C 
HETATM    7  C5  UNL     1      23.673  -1.193   5.018  1.00  0.00     0.006 C 
HETATM    8  C6  UNL     1      22.223  -1.095   5.402  1.00  0.00     0.003 C 
HETATM    9  C7  UNL     1      21.860   0.347   5.337  1.00  0.00     0.011 C 
BRANCH   2  10
HETATM   10  C20 UNL     1      22.533  -1.731   7.824  1.00  0.00     0.002 A 
HETATM   11  C21 UNL     1      22.908  -2.502   8.861  1.00  0.00     0.019 A 
HETATM   12  C22 UNL     1      23.596  -1.946   9.870  1.00  0.00     0.045 A 
HETATM   13  C23 UNL     1      23.876  -0.605   9.774  1.00  0.00     0.144 A 
HETATM   14  S1  UNL     1      23.160  -0.198   8.276  1.00  0.00    -0.070 SA
BRANCH  13  15
HETATM   15  N3  UNL     1      24.595   0.220  10.714  1.00  0.00    -0.108 N 
HETATM   16  O4  UNL     1      24.995  -0.231  11.779  1.00  0.00    -0.531 OA
HETATM   17  O5  UNL     1      24.831   1.533  10.401  1.00  0.00    -0.531 OA
ENDBRANCH  13  15
ENDBRANCH   2  10
ENDBRANCH   1   2
BRANCH   1  18
HETATM   18  O1  UNL     1      19.756  -0.881   6.743  1.00  0.00    -0.348 OA
ATOM     19  H1  UNL     1      19.167  -0.763   7.479  1.00  0.00     0.219 HD
ENDBRANCH   1  18
BRANCH   1  20
HETATM   20  N1  UNL     1      19.513  -3.096   7.078  1.00  0.00    -0.252 N 
HETATM   21  C10 UNL     1      19.319  -3.799   8.185  1.00  0.00     0.152 A 
HETATM   22  C11 UNL     1      18.301  -4.766   8.017  1.00  0.00     0.090 A 
HETATM   23  C12 UNL     1      17.878  -4.616   6.736  1.00  0.00     0.086 A 
HETATM   24  C19 UNL     1      18.622  -3.604   6.185  1.00  0.00     0.177 A 
BRANCH  21  25
HETATM   25  O2  UNL     1      19.924  -3.746   9.423  1.00  0.00    -0.346 OA
ATOM     26  H2  UNL     1      19.563  -3.735  10.302  1.00  0.00     0.219 HD
ENDBRANCH  21  25
BRANCH  23  27
HETATM   27  N2  UNL     1      16.859  -5.374   6.104  1.00  0.00    -0.377 N 
HETATM   28  C13 UNL     1      17.149  -6.758   5.920  1.00  0.00     0.123 C 
HETATM   29  C14 UNL     1      15.927  -7.591   5.610  1.00  0.00     0.020 C 
HETATM   30  C15 UNL     1      15.042  -6.952   4.581  1.00  0.00     0.002 C 
HETATM   31  C16 UNL     1      13.905  -6.172   5.161  1.00  0.00     0.002 C 
HETATM   32  C17 UNL     1      14.414  -5.273   6.252  1.00  0.00     0.020 C 
HETATM   33  C18 UNL     1      15.687  -4.600   5.753  1.00  0.00     0.123 C 
ENDBRANCH  23  27
BRANCH  24  34
HETATM   34  O3  UNL     1      18.448  -3.193   4.891  1.00  0.00    -0.344 OA
ATOM     35  H3  UNL     1      17.647  -3.258   4.383  1.00  0.00     0.219 HD
ENDBRANCH  24  34
ENDBRANCH   1  20
TORSDOF 8
ENDMDL
MODEL 4
REMARK VINA RESULT: -7.430366167      1.774      2.577
REMARK  8 active torsions:
REMARK  status: ('A' for Active; 'I' for Inactive)
REMARK    1  A    between atoms: C8_8  and  C9_9 
REMARK    2  A    between atoms: C8_8  and  C20_28 
REMARK    3  A    between atoms: C9_9  and  O1_10 
REMARK    4  A    between atoms: C9_9  and  N1_12 
REMARK    5  A    between atoms: C10_13  and  O2_14 
REMARK    6  A    between atoms: C12_17  and  N2_18 
REMARK    7  A    between atoms: C19_25  and  O3_26 
REMARK    8  A    between atoms: C23_31  and  N3_32 
ROOT
HETATM    1  C9  UNL     1      21.004  -1.823   6.671  1.00  0.00     0.141 C 
ENDROOT
BRANCH   1   2
HETATM    2  C8  UNL     1      22.441  -1.910   6.838  1.00  0.00     0.065 C 
HETATM    3  C2  UNL     1      22.668  -1.680   8.376  1.00  0.00     0.003 C 
HETATM    4  C1  UNL     1      22.422  -2.871   9.211  1.00  0.00     0.011 C 
HETATM    5  C3  UNL     1      24.119  -1.289   8.514  1.00  0.00     0.006 C 
HETATM    6  C4  UNL     1      25.008  -2.387   8.077  1.00  0.00     0.001 C 
HETATM    7  C5  UNL     1      24.515  -3.327   7.058  1.00  0.00     0.006 C 
HETATM    8  C6  UNL     1      23.083  -3.210   6.617  1.00  0.00     0.003 C 
HETATM    9  C7  UNL     1      22.991  -3.866   5.284  1.00  0.00     0.011 C 
BRANCH   2  10
HETATM   10  C20 UNL     1      23.101  -0.710   6.275  1.00  0.00     0.002 A 
HETATM   11  C21 UNL     1      23.444   0.520   6.699  1.00  0.00     0.019 A 
HETATM   12  C22 UNL     1      24.061   1.354   5.848  1.00  0.00     0.045 A 
HETATM   13  C23 UNL     1      24.306   0.888   4.580  1.00  0.00     0.144 A 
HETATM   14  S1  UNL     1      23.657  -0.692   4.650  1.00  0.00    -0.070 SA
BRANCH  13  15
HETATM   15  N3  UNL     1      24.949   1.579   3.489  1.00  0.00    -0.108 N 
HETATM   16  O4  UNL     1      25.172   1.017   2.425  1.00  0.00    -0.531 OA
HETATM   17  O5  UNL     1      25.313   2.889   3.654  1.00  0.00    -0.531 OA
ENDBRANCH  13  15
ENDBRANCH   2  10
ENDBRANCH   1   2
BRANCH   1  18
HETATM   18  O1  UNL     1      20.508  -0.747   7.258  1.00  0.00    -0.348 OA
ATOM     19  H1  UNL     1      21.194  -0.192   7.611  1.00  0.00     0.219 HD
ENDBRANCH   1  18
BRANCH   1  20
HETATM   20  N1  UNL     1      20.023  -2.586   6.050  1.00  0.00    -0.252 N 
HETATM   21  C10 UNL     1      19.730  -2.763   4.769  1.00  0.00     0.152 A 
HETATM   22  C11 UNL     1      18.652  -3.662   4.599  1.00  0.00     0.090 A 
HETATM   23  C12 UNL     1      18.296  -4.030   5.856  1.00  0.00     0.086 A 
HETATM   24  C19 UNL     1      19.134  -3.370   6.718  1.00  0.00     0.177 A 
BRANCH  21  25
HETATM   25  O2  UNL     1      20.280  -2.234   3.621  1.00  0.00    -0.346 OA
ATOM     26  H2  UNL     1      20.221  -1.368   3.234  1.00  0.00     0.219 HD
ENDBRANCH  21  25
BRANCH  23  27
HETATM   27  N2  UNL     1      17.251  -4.929   6.194  1.00  0.00    -0.377 N 
HETATM   28  C13 UNL     1      15.983  -4.326   6.445  1.00  0.00     0.123 C 
HETATM   29  C14 UNL     1      14.837  -5.311   6.419  1.00  0.00     0.020 C 
HETATM   30  C15 UNL     1      15.141  -6.568   7.180  1.00  0.00     0.002 C 
HETATM   31  C16 UNL     1      15.635  -7.689   6.321  1.00  0.00     0.002 C 
HETATM   32  C17 UNL     1      16.715  -7.187   5.406  1.00  0.00     0.020 C 
HETATM   33  C18 UNL     1      17.660  -6.317   6.225  1.00  0.00     0.123 C 
ENDBRANCH  23  27
BRANCH  24  34
HETATM   34  O3  UNL     1      19.047  -3.518   8.077  1.00  0.00    -0.344 OA
ATOM     35  H3  UNL     1      18.248  -3.523   8.591  1.00  0.00     0.219 HD
ENDBRANCH  24  34
ENDBRANCH   1  20
TORSDOF 8
ENDMDL
MODEL 5
REMARK VINA RESULT: -7.368618590      1.144      2.098
REMARK  8 active torsions:
REMARK  status: ('A' for Active; 'I' for Inactive)
REMARK    1  A    between atoms: C8_8  and  C9_9 
REMARK    2  A    between atoms: C8_8  and  C20_28 
REMARK    3  A    between atoms: C9_9  and  O1_10 
REMARK    4  A    between atoms: C9_9  and  N1_12 
REMARK    5  A    between atoms: C10_13  and  O2_14 
REMARK    6  A    between atoms: C12_17  and  N2_18 
REMARK    7  A    between atoms: C19_25  and  O3_26 
REMARK    8  A    between atoms: C23_31  and  N3_32 
ROOT
HETATM    1  C9  UNL     1      21.061  -2.110   6.866  1.00  0.00     0.141 C 
ENDROOT
BRANCH   1   2
HETATM    2  C8  UNL     1      22.504  -2.020   6.775  1.00  0.00     0.065 C 
HETATM    3  C2  UNL     1      22.960  -1.621   8.224  1.00  0.00     0.003 C 
HETATM    4  C1  UNL     1      23.015  -2.746   9.176  1.00  0.00     0.011 C 
HETATM    5  C3  UNL     1      24.353  -1.059   8.066  1.00  0.00     0.006 C 
HETATM    6  C4  UNL     1      25.285  -2.087   7.557  1.00  0.00     0.001 C 
HETATM    7  C5  UNL     1      24.748  -3.170   6.718  1.00  0.00     0.006 C 
HETATM    8  C6  UNL     1      23.258  -3.256   6.538  1.00  0.00     0.003 C 
HETATM    9  C7  UNL     1      23.022  -4.042   5.296  1.00  0.00     0.011 C 
BRANCH   2  10
HETATM   10  C20 UNL     1      22.900  -0.814   6.013  1.00  0.00     0.002 A 
HETATM   11  C21 UNL     1      23.567  -0.537   4.878  1.00  0.00     0.019 A 
HETATM   12  C22 UNL     1      23.717   0.744   4.507  1.00  0.00     0.045 A 
HETATM   13  C23 UNL     1      23.172   1.702   5.325  1.00  0.00     0.144 A 
HETATM   14  S1  UNL     1      22.478   0.756   6.568  1.00  0.00    -0.070 SA
BRANCH  13  15
HETATM   15  N3  UNL     1      23.194   3.134   5.153  1.00  0.00    -0.108 N 
HETATM   16  O4  UNL     1      22.301   3.842   5.600  1.00  0.00    -0.531 OA
HETATM   17  O5  UNL     1      24.238   3.707   4.475  1.00  0.00    -0.531 OA
ENDBRANCH  13  15
ENDBRANCH   2  10
ENDBRANCH   1   2
BRANCH   1  18
HETATM   18  O1  UNL     1      20.587  -1.380   7.861  1.00  0.00    -0.348 OA
ATOM     19  H1  UNL     1      20.751  -1.787   8.704  1.00  0.00     0.219 HD
ENDBRANCH   1  18
BRANCH   1  20
HETATM   20  N1  UNL     1      20.055  -2.771   6.170  1.00  0.00    -0.252 N 
HETATM   21  C10 UNL     1      19.790  -2.846   4.874  1.00  0.00     0.152 A 
HETATM   22  C11 UNL     1      18.667  -3.666   4.617  1.00  0.00     0.090 A 
HETATM   23  C12 UNL     1      18.254  -4.093   5.837  1.00  0.00     0.086 A 
HETATM   24  C19 UNL     1      19.103  -3.542   6.762  1.00  0.00     0.177 A 
BRANCH  21  25
HETATM   25  O2  UNL     1      20.404  -2.277   3.778  1.00  0.00    -0.346 OA
ATOM     26  H2  UNL     1      20.399  -2.514   2.857  1.00  0.00     0.219 HD
ENDBRANCH  21  25
BRANCH  23  27
HETATM   27  N2  UNL     1      17.149  -4.947   6.087  1.00  0.00    -0.377 N 
HETATM   28  C13 UNL     1      15.883  -4.297   6.189  1.00  0.00     0.123 C 
HETATM   29  C14 UNL     1      14.712  -5.244   6.069  1.00  0.00     0.020 C 
HETATM   30  C15 UNL     1      14.891  -6.487   6.890  1.00  0.00     0.002 C 
HETATM   31  C16 UNL     1      15.431  -7.648   6.117  1.00  0.00     0.002 C 
HETATM   32  C17 UNL     1      16.617  -7.208   5.306  1.00  0.00     0.020 C 
HETATM   33  C18 UNL     1      17.503  -6.346   6.196  1.00  0.00     0.123 C 
ENDBRANCH  23  27
BRANCH  24  34
HETATM   34  O3  UNL     1      18.967  -3.772   8.105  1.00  0.00    -0.344 OA
ATOM     35  H3  UNL     1      18.153  -3.773   8.595  1.00  0.00     0.219 HD
ENDBRANCH  24  34
ENDBRANCH   1  20
TORSDOF 8
ENDMDL
