MODEL 1
REMARK VINA RESULT: -6.945326489      0.000      0.000
REMARK  11 active torsions:
REMARK  status: ('A' for Active; 'I' for Inactive)
REMARK    1  A    between atoms: C2_2  and  C5_5 
REMARK    2  A    between atoms: C5_5  and  O1_6 
REMARK    3  A    between atoms: C5_5  and  N1_8 
REMARK    4  A    between atoms: N1_8  and  C6_10 
REMARK    5  A    between atoms: C6_10  and  O2_11 
REMARK    6  A    between atoms: C6_10  and  N2_13 
REMARK    7  A    between atoms: N2_13  and  C7_15 
REMARK    8  A    between atoms: C10_18  and  C11_19 
REMARK    9  A    between atoms: C13_22  and  N3_23 
REMARK   10  A    between atoms: N3_23  and  C14_25 
REMARK   11  A    between atoms: C17_28  and  N4_29 
ROOT
HETATM    1  C7  UNL     1      23.804  -2.127   6.920  1.00  0.00     0.077 A 
HETATM    2  C8  UNL     1      23.721  -2.190   8.280  1.00  0.00     0.039 A 
HETATM    3  C9  UNL     1      22.597  -2.688   8.812  1.00  0.00     0.023 A 
HETATM    4  C10 UNL     1      21.617  -3.093   7.949  1.00  0.00     0.024 A 
HETATM    5  S3  UNL     1      22.295  -2.769   6.422  1.00  0.00    -0.071 SA
ENDROOT
BRANCH   4   6
HETATM    6  C11 UNL     1      20.302  -3.682   8.254  1.00  0.00     0.031 A 
HETATM    7  C12 UNL     1      19.994  -4.167   9.518  1.00  0.00     0.072 A 
HETATM    8  S1  UNL     1      18.410  -4.758   9.604  1.00  0.00    -0.075 SA
HETATM    9  C13 UNL     1      17.665  -4.567   8.061  1.00  0.00     0.117 A 
HETATM   10  S2  UNL     1      18.939  -3.865   7.223  1.00  0.00    -0.063 SA
BRANCH   9  11
HETATM   11  N3  UNL     1      16.525  -4.878   7.775  1.00  0.00    -0.345 N 
ATOM     12  H3  UNL     1      16.003  -5.101   8.622  1.00  0.00     0.167 HD
BRANCH  11  13
HETATM   13  C14 UNL     1      15.718  -5.025   6.679  1.00  0.00     0.033 A 
HETATM   14  C15 UNL     1      15.153  -3.964   6.007  1.00  0.00     0.032 A 
HETATM   15  C16 UNL     1      14.350  -4.116   4.874  1.00  0.00     0.038 A 
HETATM   16  C17 UNL     1      14.085  -5.369   4.365  1.00  0.00     0.103 A 
HETATM   17  C18 UNL     1      14.643  -6.448   5.025  1.00  0.00     0.038 A 
HETATM   18  C19 UNL     1      15.430  -6.298   6.139  1.00  0.00     0.032 A 
BRANCH  16  19
HETATM   19  N4  UNL     1      13.271  -5.568   3.212  1.00  0.00    -0.116 N 
HETATM   20  O3  UNL     1      12.843  -4.617   2.524  1.00  0.00    -0.532 OA
HETATM   21  O4  UNL     1      12.922  -6.834   2.820  1.00  0.00    -0.532 OA
ENDBRANCH  16  19
ENDBRANCH  11  13
ENDBRANCH   9  11
ENDBRANCH   4   6
BRANCH   1  22
HETATM   22  N2  UNL     1      24.933  -1.659   6.094  1.00  0.00    -0.316 N 
ATOM     23  H2  UNL     1      25.893  -1.672   6.436  1.00  0.00     0.170 HD
BRANCH  22  24
HETATM   24  C6  UNL     1      24.613  -1.200   4.829  1.00  0.00     0.223 C 
BRANCH  24  25
HETATM   25  N1  UNL     1      23.876  -0.120   4.391  1.00  0.00    -0.306 N 
ATOM     26  H1  UNL     1      23.633  -0.210   3.405  1.00  0.00     0.171 HD
BRANCH  25  27
HETATM   27  C5  UNL     1      23.384   1.041   4.926  1.00  0.00     0.126 C 
BRANCH  27  28
HETATM   28  C2  UNL     1      22.173   1.324   5.671  1.00  0.00     0.014 C 
HETATM   29  C1  UNL     1      20.985   0.560   5.185  1.00  0.00     0.023 C 
HETATM   30  C3  UNL     1      22.350   1.102   7.171  1.00  0.00     0.023 C 
HETATM   31  C4  UNL     1      21.804   2.822   5.482  1.00  0.00     0.023 C 
ENDBRANCH  27  28
BRANCH  27  32
HETATM   32  O1  UNL     1      24.149   2.095   4.726  1.00  0.00    -0.349 OA
ATOM     33  H1  UNL     1      25.078   1.923   4.827  1.00  0.00     0.219 HD
ENDBRANCH  27  32
ENDBRANCH  25  27
ENDBRANCH  24  25
BRANCH  24  34
HETATM   34  O2  UNL     1      25.099  -1.929   3.833  1.00  0.00    -0.332 OA
ATOM     35  H2  UNL     1      26.041  -1.851   3.745  1.00  0.00     0.221 HD
ENDBRANCH  24  34
ENDBRANCH  22  24
ENDBRANCH   1  22
TORSDOF 11
ENDMDL
MODEL 2
REMARK VINA RESULT: -6.908852256      2.361      3.486
REMARK  11 active torsions:
REMARK  status: ('A' for Active; 'I' for Inactive)
REMARK    1  A    between atoms: C2_2  and  C5_5 
REMARK    2  A    between atoms: C5_5  and  O1_6 
REMARK    3  A    between atoms: C5_5  and  N1_8 
REMARK    4  A    between atoms: N1_8  and  C6_10 
REMARK    5  A    between atoms: C6_10  and  O2_11 
REMARK    6  A    between atoms: C6_10  and  N2_13 
REMARK    7  A    between atoms: N2_13  and  C7_15 
REMARK    8  A    between atoms: C10_18  and  C11_19 
REMARK    9  A    between atoms: C13_22  and  N3_23 
REMARK   10  A    between atoms: N3_23  and  C14_25 
REMARK   11  A    between atoms: C17_28  and  N4_29 
ROOT
HETATM    1  C7  UNL     1      23.882  -0.974   5.580  1.00  0.00     0.077 A 
HETATM    2  C8  UNL     1      23.388  -0.328   6.674  1.00  0.00     0.039 A 
HETATM    3  C9  UNL     1      22.342  -0.880   7.303  1.00  0.00     0.023 A 
HETATM    4  C10 UNL     1      21.849  -2.051   6.795  1.00  0.00     0.024 A 
HETATM    5  S3  UNL     1      22.861  -2.344   5.459  1.00  0.00    -0.071 SA
ENDROOT
BRANCH   4   6
HETATM    6  C11 UNL     1      20.730  -2.873   7.286  1.00  0.00     0.031 A 
HETATM    7  C12 UNL     1      20.778  -3.513   8.517  1.00  0.00     0.072 A 
HETATM    8  S1  UNL     1      19.350  -4.360   8.850  1.00  0.00    -0.075 SA
HETATM    9  C13 UNL     1      18.266  -4.156   7.526  1.00  0.00     0.117 A 
HETATM   10  S2  UNL     1      19.213  -3.181   6.539  1.00  0.00    -0.063 SA
BRANCH   9  11
HETATM   11  N3  UNL     1      17.145  -4.622   7.441  1.00  0.00    -0.345 N 
ATOM     12  H3  UNL     1      16.734  -4.705   8.371  1.00  0.00     0.167 HD
BRANCH  11  13
HETATM   13  C14 UNL     1      16.261  -5.069   6.498  1.00  0.00     0.033 A 
HETATM   14  C15 UNL     1      16.278  -6.349   5.990  1.00  0.00     0.032 A 
HETATM   15  C16 UNL     1      15.358  -6.810   5.046  1.00  0.00     0.038 A 
HETATM   16  C17 UNL     1      14.364  -5.982   4.572  1.00  0.00     0.103 A 
HETATM   17  C18 UNL     1      14.329  -4.693   5.070  1.00  0.00     0.038 A 
HETATM   18  C19 UNL     1      15.234  -4.240   5.995  1.00  0.00     0.032 A 
BRANCH  16  19
HETATM   19  N4  UNL     1      13.406  -6.413   3.609  1.00  0.00    -0.116 N 
HETATM   20  O3  UNL     1      13.031  -7.602   3.525  1.00  0.00    -0.532 OA
HETATM   21  O4  UNL     1      12.861  -5.518   2.725  1.00  0.00    -0.532 OA
ENDBRANCH  16  19
ENDBRANCH  11  13
ENDBRANCH   9  11
ENDBRANCH   4   6
BRANCH   1  22
HETATM   22  N2  UNL     1      25.035  -0.597   4.740  1.00  0.00    -0.316 N 
ATOM     23  H2  UNL     1      25.400   0.355   4.721  1.00  0.00     0.170 HD
BRANCH  22  24
HETATM   24  C6  UNL     1      25.592  -1.609   3.980  1.00  0.00     0.223 C 
BRANCH  24  25
HETATM   25  N1  UNL     1      25.548  -1.890   2.631  1.00  0.00    -0.306 N 
ATOM     26  H1  UNL     1      26.406  -2.342   2.315  1.00  0.00     0.171 HD
BRANCH  25  27
HETATM   27  C5  UNL     1      24.660  -1.725   1.600  1.00  0.00     0.126 C 
BRANCH  27  28
HETATM   28  C2  UNL     1      24.796  -1.907   0.169  1.00  0.00     0.014 C 
HETATM   29  C1  UNL     1      24.223  -3.197  -0.323  1.00  0.00     0.023 C 
HETATM   30  C3  UNL     1      24.203  -0.746  -0.624  1.00  0.00     0.023 C 
HETATM   31  C4  UNL     1      26.307  -1.966  -0.189  1.00  0.00     0.023 C 
ENDBRANCH  27  28
BRANCH  27  32
HETATM   32  O1  UNL     1      23.463  -1.327   1.977  1.00  0.00    -0.349 OA
ATOM     33  H1  UNL     1      23.288  -0.409   1.805  1.00  0.00     0.219 HD
ENDBRANCH  27  32
ENDBRANCH  25  27
ENDBRANCH  24  25
BRANCH  24  34
HETATM   34  O2  UNL     1      26.309  -2.491   4.665  1.00  0.00    -0.332 OA
ATOM     35  H2  UNL     1      27.232  -2.468   4.441  1.00  0.00     0.221 HD
ENDBRANCH  24  34
ENDBRANCH  22  24
ENDBRANCH   1  22
TORSDOF 11
ENDMDL
MODEL 3
REMARK VINA RESULT: -6.886835888      1.220      1.730
REMARK  11 active torsions:
REMARK  status: ('A' for Active; 'I' for Inactive)
REMARK    1  A    between atoms: C2_2  and  C5_5 
REMARK    2  A    between atoms: C5_5  and  O1_6 
REMARK    3  A    between atoms: C5_5  and  N1_8 
REMARK    4  A    between atoms: N1_8  and  C6_10 
REMARK    5  A    between atoms: C6_10  and  O2_11 
REMARK    6  A    between atoms: C6_10  and  N2_13 
REMARK    7  A    between atoms: N2_13  and  C7_15 
REMARK    8  A    between atoms: C10_18  and  C11_19 
REMARK    9  A    between atoms: C13_22  and  N3_23 
REMARK   10  A    between atoms: N3_23  and  C14_25 
REMARK   11  A    between atoms: C17_28  and  N4_29 
ROOT
HETATM    1  C7  UNL     1      23.845  -1.265   6.006  1.00  0.00     0.077 A 
HETATM    2  C8  UNL     1      23.951  -1.455   7.352  1.00  0.00     0.039 A 
HETATM    3  C9  UNL     1      22.939  -2.075   7.974  1.00  0.00     0.023 A 
HETATM    4  C10 UNL     1      21.877  -2.469   7.209  1.00  0.00     0.024 A 
HETATM    5  S3  UNL     1      22.322  -1.963   5.647  1.00  0.00    -0.071 SA
ENDROOT
BRANCH   4   6
HETATM    6  C11 UNL     1      20.651  -3.174   7.623  1.00  0.00     0.031 A 
HETATM    7  C12 UNL     1      20.554  -3.812   8.852  1.00  0.00     0.072 A 
HETATM    8  S1  UNL     1      19.031  -4.512   9.087  1.00  0.00    -0.075 SA
HETATM    9  C13 UNL     1      18.062  -4.205   7.695  1.00  0.00     0.117 A 
HETATM   10  S2  UNL     1      19.164  -3.333   6.776  1.00  0.00    -0.063 SA
BRANCH   9  11
HETATM   11  N3  UNL     1      16.908  -4.557   7.535  1.00  0.00    -0.345 N 
ATOM     12  H3  UNL     1      16.402  -4.499   8.419  1.00  0.00     0.167 HD
BRANCH  11  13
HETATM   13  C14 UNL     1      16.072  -5.007   6.549  1.00  0.00     0.033 A 
HETATM   14  C15 UNL     1      16.116  -6.287   6.045  1.00  0.00     0.032 A 
HETATM   15  C16 UNL     1      15.245  -6.750   5.056  1.00  0.00     0.038 A 
HETATM   16  C17 UNL     1      14.276  -5.922   4.531  1.00  0.00     0.103 A 
HETATM   17  C18 UNL     1      14.215  -4.632   5.024  1.00  0.00     0.038 A 
HETATM   18  C19 UNL     1      15.072  -4.178   5.994  1.00  0.00     0.032 A 
BRANCH  16  19
HETATM   19  N4  UNL     1      13.367  -6.354   3.521  1.00  0.00    -0.116 N 
HETATM   20  O3  UNL     1      13.020  -7.549   3.401  1.00  0.00    -0.532 OA
HETATM   21  O4  UNL     1      12.843  -5.455   2.630  1.00  0.00    -0.532 OA
ENDBRANCH  16  19
ENDBRANCH  11  13
ENDBRANCH   9  11
ENDBRANCH   4   6
BRANCH   1  22
HETATM   22  N2  UNL     1      24.823  -0.647   5.090  1.00  0.00    -0.316 N 
ATOM     23  H2  UNL     1      25.600  -1.175   4.695  1.00  0.00     0.170 HD
BRANCH  22  24
HETATM   24  C6  UNL     1      24.625   0.691   4.800  1.00  0.00     0.223 C 
BRANCH  24  25
HETATM   25  N1  UNL     1      24.441   1.798   5.601  1.00  0.00    -0.306 N 
ATOM     26  H1  UNL     1      25.228   2.442   5.534  1.00  0.00     0.171 HD
BRANCH  25  27
HETATM   27  C5  UNL     1      23.483   2.265   6.463  1.00  0.00     0.126 C 
BRANCH  27  28
HETATM   28  C2  UNL     1      22.162   2.814   6.233  1.00  0.00     0.014 C 
HETATM   29  C1  UNL     1      21.246   1.875   5.517  1.00  0.00     0.023 C 
HETATM   30  C3  UNL     1      21.500   3.295   7.522  1.00  0.00     0.023 C 
HETATM   31  C4  UNL     1      22.287   4.054   5.306  1.00  0.00     0.023 C 
ENDBRANCH  27  28
BRANCH  27  32
HETATM   32  O1  UNL     1      23.824   2.205   7.734  1.00  0.00    -0.349 OA
ATOM     33  H1  UNL     1      23.165   1.811   8.293  1.00  0.00     0.219 HD
ENDBRANCH  27  32
ENDBRANCH  25  27
ENDBRANCH  24  25
BRANCH  24  34
HETATM   34  O2  UNL     1      24.602   0.983   3.506  1.00  0.00    -0.332 OA
ATOM     35  H2  UNL     1      23.903   0.540   3.041  1.00  0.00     0.221 HD
ENDBRANCH  24  34
ENDBRANCH  22  24
ENDBRANCH   1  22
TORSDOF 11
ENDMDL
MODEL 4
REMARK VINA RESULT: -6.851751944      6.160      7.855
REMARK  11 active torsions:
REMARK  status: ('A' for Active; 'I' for Inactive)
REMARK    1  A    between atoms: C2_2  and  C5_5 
REMARK    2  A    between atoms: C5_5  and  O1_6 
REMARK    3  A    between atoms: C5_5  and  N1_8 
REMARK    4  A    between atoms: N1_8  and  C6_10 
REMARK    5  A    between atoms: C6_10  and  O2_11 
REMARK    6  A    between atoms: C6_10  and  N2_13 
REMARK    7  A    between atoms: N2_13  and  C7_15 
REMARK    8  A    between atoms: C10_18  and  C11_19 
REMARK    9  A    between atoms: C13_22  and  N3_23 
REMARK   10  A    between atoms: N3_23  and  C14_25 
REMARK   11  A    between atoms: C17_28  and  N4_29 
ROOT
HETATM    1  C7  UNL     1      19.231  -3.372   6.077  1.00  0.00     0.077 A 
HETATM    2  C8  UNL     1      20.138  -3.084   7.054  1.00  0.00     0.039 A 
HETATM    3  C9  UNL     1      19.862  -3.495   8.299  1.00  0.00     0.023 A 
HETATM    4  C10 UNL     1      18.689  -4.171   8.493  1.00  0.00     0.024 A 
HETATM    5  S3  UNL     1      18.009  -4.213   6.934  1.00  0.00    -0.071 SA
ENDROOT
BRANCH   4   6
HETATM    6  C11 UNL     1      18.147  -4.741   9.739  1.00  0.00     0.031 A 
HETATM    7  C12 UNL     1      18.324  -6.077  10.069  1.00  0.00     0.072 A 
HETATM    8  S1  UNL     1      17.630  -6.460  11.565  1.00  0.00    -0.075 SA
HETATM    9  C13 UNL     1      16.907  -5.039  12.218  1.00  0.00     0.117 A 
HETATM   10  S2  UNL     1      17.272  -3.952  10.991  1.00  0.00    -0.063 SA
BRANCH   9  11
HETATM   11  N3  UNL     1      16.330  -4.956  13.286  1.00  0.00    -0.345 N 
ATOM     12  H3  UNL     1      15.450  -5.471  13.245  1.00  0.00     0.167 HD
BRANCH  11  13
HETATM   13  C14 UNL     1      16.482  -4.393  14.524  1.00  0.00     0.033 A 
HETATM   14  C15 UNL     1      16.643  -5.130  15.676  1.00  0.00     0.032 A 
HETATM   15  C16 UNL     1      16.823  -4.552  16.935  1.00  0.00     0.038 A 
HETATM   16  C17 UNL     1      16.853  -3.182  17.080  1.00  0.00     0.103 A 
HETATM   17  C18 UNL     1      16.694  -2.424  15.935  1.00  0.00     0.038 A 
HETATM   18  C19 UNL     1      16.515  -2.992  14.699  1.00  0.00     0.032 A 
BRANCH  16  19
HETATM   19  N4  UNL     1      17.034  -2.552  18.346  1.00  0.00    -0.116 N 
HETATM   20  O3  UNL     1      17.266  -3.201  19.388  1.00  0.00    -0.532 OA
HETATM   21  O4  UNL     1      16.952  -1.189  18.460  1.00  0.00    -0.532 OA
ENDBRANCH  16  19
ENDBRANCH  11  13
ENDBRANCH   9  11
ENDBRANCH   4   6
BRANCH   1  22
HETATM   22  N2  UNL     1      19.312  -3.065   4.636  1.00  0.00    -0.316 N 
ATOM     23  H2  UNL     1      18.575  -3.334   3.985  1.00  0.00     0.170 HD
BRANCH  22  24
HETATM   24  C6  UNL     1      20.446  -2.391   4.220  1.00  0.00     0.223 C 
BRANCH  24  25
HETATM   25  N1  UNL     1      20.715  -1.052   4.032  1.00  0.00    -0.306 N 
ATOM     26  H1  UNL     1      21.062  -0.869   3.091  1.00  0.00     0.171 HD
BRANCH  25  27
HETATM   27  C5  UNL     1      20.639   0.099   4.771  1.00  0.00     0.126 C 
BRANCH  27  28
HETATM   28  C2  UNL     1      21.630   0.811   5.555  1.00  0.00     0.014 C 
HETATM   29  C1  UNL     1      21.448   2.294   5.538  1.00  0.00     0.023 C 
HETATM   30  C3  UNL     1      21.693   0.317   6.997  1.00  0.00     0.023 C 
HETATM   31  C4  UNL     1      23.034   0.562   4.936  1.00  0.00     0.023 C 
ENDBRANCH  27  28
BRANCH  27  32
HETATM   32  O1  UNL     1      19.450   0.664   4.772  1.00  0.00    -0.349 OA
ATOM     33  H1  UNL     1      18.755   0.102   4.452  1.00  0.00     0.219 HD
ENDBRANCH  27  32
ENDBRANCH  25  27
ENDBRANCH  24  25
BRANCH  24  34
HETATM   34  O2  UNL     1      21.485  -3.168   3.940  1.00  0.00    -0.332 OA
ATOM     35  H2  UNL     1      22.105  -3.225   4.657  1.00  0.00     0.221 HD
ENDBRANCH  24  34
ENDBRANCH  22  24
ENDBRANCH   1  22
TORSDOF 11
ENDMDL
MODEL 5
REMARK VINA RESULT: -6.826461669      1.973      2.558
REMARK  11 active torsions:
REMARK  status: ('A' for Active; 'I' for Inactive)
REMARK    1  A    between atoms: C2_2  and  C5_5 
REMARK    2  A    between atoms: C5_5  and  O1_6 
REMARK    3  A    between atoms: C5_5  and  N1_8 
REMARK    4  A    between atoms: N1_8  and  C6_10 
REMARK    5  A    between atoms: C6_10  and  O2_11 
REMARK    6  A    between atoms: C6_10  and  N2_13 
REMARK    7  A    between atoms: N2_13  and  C7_15 
REMARK    8  A    between atoms: C10_18  and  C11_19 
REMARK    9  A    between atoms: C13_22  and  N3_23 
REMARK   10  A    between atoms: N3_23  and  C14_25 
REMARK   11  A    between atoms: C17_28  and  N4_29 
ROOT
HETATM    1  C7  UNL     1      22.615  -3.014   9.557  1.00  0.00     0.077 A 
HETATM    2  C8  UNL     1      22.336  -3.701  10.702  1.00  0.00     0.039 A 
HETATM    3  C9  UNL     1      21.196  -4.404  10.744  1.00  0.00     0.023 A 
HETATM    4  C10 UNL     1      20.400  -4.377   9.633  1.00  0.00     0.024 A 
HETATM    5  S3  UNL     1      21.265  -3.374   8.565  1.00  0.00    -0.071 SA
ENDROOT
BRANCH   4   6
HETATM    6  C11 UNL     1      19.115  -5.059   9.401  1.00  0.00     0.031 A 
HETATM    7  C12 UNL     1      18.506  -5.826  10.385  1.00  0.00     0.072 A 
HETATM    8  S1  UNL     1      17.027  -6.468   9.867  1.00  0.00    -0.075 SA
HETATM    9  C13 UNL     1      16.740  -5.956   8.247  1.00  0.00     0.117 A 
HETATM   10  S2  UNL     1      18.127  -5.044   7.994  1.00  0.00    -0.063 SA
BRANCH   9  11
HETATM   11  N3  UNL     1      15.764  -6.228   7.574  1.00  0.00    -0.345 N 
ATOM     12  H3  UNL     1      15.261  -7.011   7.993  1.00  0.00     0.167 HD
BRANCH  11  13
HETATM   13  C14 UNL     1      15.125  -5.821   6.434  1.00  0.00     0.033 A 
HETATM   14  C15 UNL     1      14.893  -4.498   6.128  1.00  0.00     0.032 A 
HETATM   15  C16 UNL     1      14.263  -4.085   4.952  1.00  0.00     0.038 A 
HETATM   16  C17 UNL     1      13.838  -5.008   4.021  1.00  0.00     0.103 A 
HETATM   17  C18 UNL     1      14.062  -6.341   4.310  1.00  0.00     0.038 A 
HETATM   18  C19 UNL     1      14.679  -6.747   5.466  1.00  0.00     0.032 A 
BRANCH  16  19
HETATM   19  N4  UNL     1      13.190  -4.629   2.810  1.00  0.00    -0.116 N 
HETATM   20  O3  UNL     1      12.656  -5.463   2.048  1.00  0.00    -0.532 OA
HETATM   21  O4  UNL     1      13.138  -3.312   2.434  1.00  0.00    -0.532 OA
ENDBRANCH  16  19
ENDBRANCH  11  13
ENDBRANCH   9  11
ENDBRANCH   4   6
BRANCH   1  22
HETATM   22  N2  UNL     1      23.806  -2.201   9.246  1.00  0.00    -0.316 N 
ATOM     23  H2  UNL     1      24.749  -2.587   9.291  1.00  0.00     0.170 HD
BRANCH  22  24
HETATM   24  C6  UNL     1      23.570  -0.885   8.892  1.00  0.00     0.223 C 
BRANCH  24  25
HETATM   25  N1  UNL     1      23.407  -0.267   7.670  1.00  0.00    -0.306 N 
ATOM     26  H1  UNL     1      24.200  -0.441   7.055  1.00  0.00     0.171 HD
BRANCH  25  27
HETATM   27  C5  UNL     1      22.464   0.520   7.062  1.00  0.00     0.126 C 
BRANCH  27  28
HETATM   28  C2  UNL     1      21.665   0.321   5.868  1.00  0.00     0.014 C 
HETATM   29  C1  UNL     1      22.426  -0.300   4.742  1.00  0.00     0.023 C 
HETATM   30  C3  UNL     1      20.401  -0.488   6.144  1.00  0.00     0.023 C 
HETATM   31  C4  UNL     1      21.201   1.706   5.338  1.00  0.00     0.023 C 
ENDBRANCH  27  28
BRANCH  27  32
HETATM   32  O1  UNL     1      22.241   1.666   7.671  1.00  0.00    -0.349 OA
ATOM     33  H1  UNL     1      23.031   2.140   7.902  1.00  0.00     0.219 HD
ENDBRANCH  27  32
ENDBRANCH  25  27
ENDBRANCH  24  25
BRANCH  24  34
HETATM   34  O2  UNL     1      23.482  -0.041   9.911  1.00  0.00    -0.332 OA
ATOM     35  H2  UNL     1      22.622   0.354   9.989  1.00  0.00     0.221 HD
ENDBRANCH  24  34
ENDBRANCH  22  24
ENDBRANCH   1  22
TORSDOF 11
ENDMDL
