MODEL 1
REMARK VINA RESULT: -6.924402273      0.000      0.000
REMARK  8 active torsions:
REMARK  status: ('A' for Active; 'I' for Inactive)
REMARK    1  A    between atoms: C2_2  and  O1_3 
REMARK    2  A    between atoms: C2_2  and  N2_7 
REMARK    3  A    between atoms: N2_7  and  N3_8 
REMARK    4  A    between atoms: N3_8  and  C4_10 
REMARK    5  A    between atoms: C4_10  and  N4_12 
REMARK    6  A    between atoms: N4_12  and  N5_14 
REMARK    7  A    between atoms: C5_16  and  C6_17 
REMARK    8  A    between atoms: C9_20  and  N6_21 
ROOT
HETATM    1  C1  UNL     1      -4.604   0.426  10.547  1.00  0.00     0.085 C 
HETATM    2  C2  UNL     1      -4.566   1.652  11.467  1.00  0.00     0.234 C 
HETATM    3  C3  UNL     1      -3.388   2.418  11.144  1.00  0.00     0.117 C 
HETATM    4  N1  UNL     1      -2.456   3.029  10.877  1.00  0.00    -0.192 NA
ENDROOT
BRANCH   2   5
HETATM    5  O1  UNL     1      -5.715   2.386  11.175  1.00  0.00    -0.361 OA
ATOM      6  H1  UNL     1      -5.675   3.161  11.722  1.00  0.00     0.213 HD
ENDBRANCH   2   5
BRANCH   2   7
HETATM    7  N2  UNL     1      -4.568   1.152  12.816  1.00  0.00    -0.085 NA
BRANCH   7   8
HETATM    8  N3  UNL     1      -3.855   1.928  13.705  1.00  0.00    -0.275 N 
ATOM      9  H3  UNL     1      -2.874   2.142  13.524  1.00  0.00     0.185 HD
BRANCH   8  10
HETATM   10  C4  UNL     1      -4.489   2.429  14.870  1.00  0.00     0.202 C 
HETATM   11  S1  UNL     1      -4.492   1.516  16.220  1.00  0.00    -0.038 SA
BRANCH  10  12
HETATM   12  N4  UNL     1      -5.124   3.704  14.901  1.00  0.00    -0.276 N 
ATOM     13  H4  UNL     1      -5.331   4.170  15.784  1.00  0.00     0.189 HD
BRANCH  12  14
HETATM   14  N5  UNL     1      -5.452   4.288  13.678  1.00  0.00    -0.307 N 
HETATM   15  C5  UNL     1      -4.871   5.387  13.339  1.00  0.00     0.138 C 
ATOM     16  H5  UNL     1      -6.140   3.854  13.064  1.00  0.00     0.186 HD
BRANCH  15  17
HETATM   17  C6  UNL     1      -5.212   6.004  12.059  1.00  0.00     0.065 A 
HETATM   18  C7  UNL     1      -6.050   7.095  12.016  1.00  0.00     0.036 A 
HETATM   19  C8  UNL     1      -6.374   7.679  10.817  1.00  0.00     0.054 A 
HETATM   20  C9  UNL     1      -5.838   7.142   9.670  1.00  0.00     0.148 A 
HETATM   21  N10 UNL     1      -5.034   6.085   9.780  1.00  0.00    -0.283 N 
HETATM   22  N11 UNL     1      -4.703   5.502  10.904  1.00  0.00    -0.298 N 
ATOM     23  H10 UNL     1      -4.644   5.700   8.919  1.00  0.00     0.188 HD
ATOM     24  H11 UNL     1      -4.080   4.695  10.913  1.00  0.00     0.187 HD
BRANCH  20  25
HETATM   25  N6  UNL     1      -6.128   7.694   8.375  1.00  0.00    -0.171 N 
HETATM   26  N7  UNL     1      -5.586   8.764   7.825  1.00  0.00    -0.216 N 
HETATM   27  N8  UNL     1      -6.105   8.961   6.626  1.00  0.00    -0.224 N 
ATOM     28  H7  UNL     1      -4.874   9.350   8.260  1.00  0.00     0.210 HD
HETATM   29  N9  UNL     1      -6.988   8.007   6.408  1.00  0.00    -0.234 N 
ATOM     30  H8  UNL     1      -5.865   9.716   5.983  1.00  0.00     0.210 HD
HETATM   31  C10 UNL     1      -7.000   7.222   7.495  1.00  0.00     0.364 A 
ATOM     32  H9  UNL     1      -7.555   7.888   5.569  1.00  0.00     0.193 HD
HETATM   33  O2  UNL     1      -7.712   6.192   7.690  1.00  0.00    -0.243 OA
ENDBRANCH  20  25
ENDBRANCH  15  17
ENDBRANCH  12  14
ENDBRANCH  10  12
ENDBRANCH   8  10
ENDBRANCH   7   8
ENDBRANCH   2   7
TORSDOF 8
ENDMDL
MODEL 2
REMARK VINA RESULT: -6.856202427      4.921      7.471
REMARK  8 active torsions:
REMARK  status: ('A' for Active; 'I' for Inactive)
REMARK    1  A    between atoms: C2_2  and  O1_3 
REMARK    2  A    between atoms: C2_2  and  N2_7 
REMARK    3  A    between atoms: N2_7  and  N3_8 
REMARK    4  A    between atoms: N3_8  and  C4_10 
REMARK    5  A    between atoms: C4_10  and  N4_12 
REMARK    6  A    between atoms: N4_12  and  N5_14 
REMARK    7  A    between atoms: C5_16  and  C6_17 
REMARK    8  A    between atoms: C9_20  and  N6_21 
ROOT
HETATM    1  C1  UNL     1       0.771   3.997  10.691  1.00  0.00     0.085 C 
HETATM    2  C2  UNL     1      -0.656   3.968  11.253  1.00  0.00     0.234 C 
HETATM    3  C3  UNL     1      -1.221   2.672  10.970  1.00  0.00     0.117 C 
HETATM    4  N1  UNL     1      -1.663   1.637  10.754  1.00  0.00    -0.192 NA
ENDROOT
BRANCH   2   5
HETATM    5  O1  UNL     1      -0.530   4.152  12.629  1.00  0.00    -0.361 OA
ATOM      6  H1  UNL     1      -1.166   3.571  13.029  1.00  0.00     0.213 HD
ENDBRANCH   2   5
BRANCH   2   7
HETATM    7  N2  UNL     1      -1.366   5.048  10.622  1.00  0.00    -0.085 NA
BRANCH   7   8
HETATM    8  N3  UNL     1      -0.667   6.237  10.587  1.00  0.00    -0.275 N 
ATOM      9  H3  UNL     1       0.222   6.293  10.090  1.00  0.00     0.185 HD
BRANCH   8  10
HETATM   10  C4  UNL     1      -1.188   7.380  11.244  1.00  0.00     0.202 C 
HETATM   11  S1  UNL     1      -1.839   8.575  10.348  1.00  0.00    -0.038 SA
BRANCH  10  12
HETATM   12  N4  UNL     1      -1.161   7.520  12.662  1.00  0.00    -0.276 N 
ATOM     13  H4  UNL     1      -0.696   8.311  13.106  1.00  0.00     0.189 HD
BRANCH  12  14
HETATM   14  N5  UNL     1      -1.794   6.534  13.417  1.00  0.00    -0.307 N 
HETATM   15  C5  UNL     1      -3.065   6.370  13.285  1.00  0.00     0.138 C 
ATOM     16  H5  UNL     1      -1.260   5.953  14.064  1.00  0.00     0.186 HD
BRANCH  15  17
HETATM   17  C6  UNL     1      -3.734   5.339  14.075  1.00  0.00     0.065 A 
HETATM   18  C7  UNL     1      -5.085   5.425  14.327  1.00  0.00     0.036 A 
HETATM   19  C8  UNL     1      -5.719   4.459  15.068  1.00  0.00     0.054 A 
HETATM   20  C9  UNL     1      -4.966   3.413  15.548  1.00  0.00     0.148 A 
HETATM   21  N10 UNL     1      -3.663   3.389  15.269  1.00  0.00    -0.283 N 
HETATM   22  N11 UNL     1      -3.025   4.290  14.566  1.00  0.00    -0.298 N 
ATOM     23  H10 UNL     1      -3.119   2.605  15.632  1.00  0.00     0.188 HD
ATOM     24  H11 UNL     1      -2.023   4.207  14.392  1.00  0.00     0.187 HD
BRANCH  20  25
HETATM   25  N6  UNL     1      -5.553   2.362  16.332  1.00  0.00    -0.171 N 
HETATM   26  N7  UNL     1      -6.798   2.287  16.760  1.00  0.00    -0.216 N 
HETATM   27  N8  UNL     1      -6.967   1.173  17.452  1.00  0.00    -0.224 N 
ATOM     28  H7  UNL     1      -7.522   2.984  16.585  1.00  0.00     0.210 HD
HETATM   29  N9  UNL     1      -5.817   0.530  17.465  1.00  0.00    -0.234 N 
ATOM     30  H8  UNL     1      -7.833   0.866  17.896  1.00  0.00     0.210 HD
HETATM   31  C10 UNL     1      -4.940   1.270  16.770  1.00  0.00     0.364 A 
ATOM     32  H9  UNL     1      -5.628  -0.363  17.920  1.00  0.00     0.193 HD
HETATM   33  O2  UNL     1      -3.722   1.007  16.545  1.00  0.00    -0.243 OA
ENDBRANCH  20  25
ENDBRANCH  15  17
ENDBRANCH  12  14
ENDBRANCH  10  12
ENDBRANCH   8  10
ENDBRANCH   7   8
ENDBRANCH   2   7
TORSDOF 8
ENDMDL
MODEL 3
REMARK VINA RESULT: -6.805500413      4.762      7.459
REMARK  8 active torsions:
REMARK  status: ('A' for Active; 'I' for Inactive)
REMARK    1  A    between atoms: C2_2  and  O1_3 
REMARK    2  A    between atoms: C2_2  and  N2_7 
REMARK    3  A    between atoms: N2_7  and  N3_8 
REMARK    4  A    between atoms: N3_8  and  C4_10 
REMARK    5  A    between atoms: C4_10  and  N4_12 
REMARK    6  A    between atoms: N4_12  and  N5_14 
REMARK    7  A    between atoms: C5_16  and  C6_17 
REMARK    8  A    between atoms: C9_20  and  N6_21 
ROOT
HETATM    1  C1  UNL     1      -0.092   3.366  10.155  1.00  0.00     0.085 C 
HETATM    2  C2  UNL     1      -1.044   4.192  11.030  1.00  0.00     0.234 C 
HETATM    3  C3  UNL     1      -2.395   3.809  10.705  1.00  0.00     0.117 C 
HETATM    4  N1  UNL     1      -3.467   3.495  10.452  1.00  0.00    -0.192 NA
ENDROOT
BRANCH   2   5
HETATM    5  O1  UNL     1      -0.747   3.850  12.348  1.00  0.00    -0.361 OA
ATOM      6  H1  UNL     1      -1.583   3.778  12.793  1.00  0.00     0.213 HD
ENDBRANCH   2   5
BRANCH   2   7
HETATM    7  N2  UNL     1      -0.761   5.575  10.750  1.00  0.00    -0.085 NA
BRANCH   7   8
HETATM    8  N3  UNL     1       0.326   6.076  11.434  1.00  0.00    -0.275 N 
ATOM      9  H3  UNL     1       1.222   5.589  11.399  1.00  0.00     0.185 HD
BRANCH   8  10
HETATM   10  C4  UNL     1       0.196   7.272  12.185  1.00  0.00     0.202 C 
HETATM   11  S1  UNL     1       1.480   8.268  12.309  1.00  0.00    -0.038 SA
BRANCH  10  12
HETATM   12  N4  UNL     1      -1.018   7.631  12.836  1.00  0.00    -0.276 N 
ATOM     13  H4  UNL     1      -1.396   8.576  12.767  1.00  0.00     0.189 HD
BRANCH  12  14
HETATM   14  N5  UNL     1      -1.671   6.642  13.572  1.00  0.00    -0.307 N 
HETATM   15  C5  UNL     1      -2.917   6.415  13.339  1.00  0.00     0.138 C 
ATOM     16  H5  UNL     1      -1.169   6.109  14.283  1.00  0.00     0.186 HD
BRANCH  15  17
HETATM   17  C6  UNL     1      -3.605   5.380  14.108  1.00  0.00     0.065 A 
HETATM   18  C7  UNL     1      -4.958   5.475  14.343  1.00  0.00     0.036 A 
HETATM   19  C8  UNL     1      -5.611   4.507  15.065  1.00  0.00     0.054 A 
HETATM   20  C9  UNL     1      -4.873   3.448  15.541  1.00  0.00     0.148 A 
HETATM   21  N10 UNL     1      -3.567   3.416  15.279  1.00  0.00    -0.283 N 
HETATM   22  N11 UNL     1      -2.912   4.320  14.596  1.00  0.00    -0.298 N 
ATOM     23  H10 UNL     1      -3.035   2.623  15.640  1.00  0.00     0.188 HD
ATOM     24  H11 UNL     1      -1.909   4.230  14.434  1.00  0.00     0.187 HD
BRANCH  20  25
HETATM   25  N6  UNL     1      -5.480   2.393  16.305  1.00  0.00    -0.171 N 
HETATM   26  N7  UNL     1      -6.727   2.331  16.729  1.00  0.00    -0.216 N 
HETATM   27  N8  UNL     1      -6.916   1.208  17.400  1.00  0.00    -0.224 N 
ATOM     28  H7  UNL     1      -7.439   3.043  16.564  1.00  0.00     0.210 HD
HETATM   29  N9  UNL     1      -5.777   0.546  17.405  1.00  0.00    -0.234 N 
ATOM     30  H8  UNL     1      -7.789   0.907  17.836  1.00  0.00     0.210 HD
HETATM   31  C10 UNL     1      -4.886   1.284  16.725  1.00  0.00     0.364 A 
ATOM     32  H9  UNL     1      -5.604  -0.358  17.844  1.00  0.00     0.193 HD
HETATM   33  O2  UNL     1      -3.672   1.004  16.499  1.00  0.00    -0.243 OA
ENDBRANCH  20  25
ENDBRANCH  15  17
ENDBRANCH  12  14
ENDBRANCH  10  12
ENDBRANCH   8  10
ENDBRANCH   7   8
ENDBRANCH   2   7
TORSDOF 8
ENDMDL
MODEL 4
REMARK VINA RESULT: -6.758392786      5.544      7.946
REMARK  8 active torsions:
REMARK  status: ('A' for Active; 'I' for Inactive)
REMARK    1  A    between atoms: C2_2  and  O1_3 
REMARK    2  A    between atoms: C2_2  and  N2_7 
REMARK    3  A    between atoms: N2_7  and  N3_8 
REMARK    4  A    between atoms: N3_8  and  C4_10 
REMARK    5  A    between atoms: C4_10  and  N4_12 
REMARK    6  A    between atoms: N4_12  and  N5_14 
REMARK    7  A    between atoms: C5_16  and  C6_17 
REMARK    8  A    between atoms: C9_20  and  N6_21 
ROOT
HETATM    1  C1  UNL     1       2.004   5.565   8.630  1.00  0.00     0.085 C 
HETATM    2  C2  UNL     1       1.938   4.318   9.521  1.00  0.00     0.234 C 
HETATM    3  C3  UNL     1       0.580   3.833   9.509  1.00  0.00     0.117 C 
HETATM    4  N1  UNL     1      -0.497   3.444   9.490  1.00  0.00    -0.192 NA
ENDROOT
BRANCH   2   5
HETATM    5  O1  UNL     1       2.791   3.384   8.936  1.00  0.00    -0.361 OA
ATOM      6  H1  UNL     1       3.307   3.022   9.647  1.00  0.00     0.213 HD
ENDBRANCH   2   5
BRANCH   2   7
HETATM    7  N2  UNL     1       2.387   4.723  10.826  1.00  0.00    -0.085 NA
BRANCH   7   8
HETATM    8  N3  UNL     1       1.367   4.951  11.726  1.00  0.00    -0.275 N 
ATOM      9  H3  UNL     1       0.920   4.167  12.201  1.00  0.00     0.185 HD
BRANCH   8  10
HETATM   10  C4  UNL     1       0.944   6.278  11.991  1.00  0.00     0.202 C 
HETATM   11  S1  UNL     1       2.058   7.466  12.041  1.00  0.00    -0.038 SA
BRANCH  10  12
HETATM   12  N4  UNL     1      -0.423   6.609  12.214  1.00  0.00    -0.276 N 
ATOM     13  H4  UNL     1      -0.833   7.458  11.826  1.00  0.00     0.189 HD
BRANCH  12  14
HETATM   14  N5  UNL     1      -1.181   5.726  12.985  1.00  0.00    -0.307 N 
HETATM   15  C5  UNL     1      -2.450   5.922  13.087  1.00  0.00     0.138 C 
ATOM     16  H5  UNL     1      -0.737   4.939  13.458  1.00  0.00     0.186 HD
BRANCH  15  17
HETATM   17  C6  UNL     1      -3.247   5.001  13.894  1.00  0.00     0.065 A 
HETATM   18  C7  UNL     1      -4.621   5.012  13.805  1.00  0.00     0.036 A 
HETATM   19  C8  UNL     1      -5.376   4.150  14.560  1.00  0.00     0.054 A 
HETATM   20  C9  UNL     1      -4.719   3.282  15.401  1.00  0.00     0.148 A 
HETATM   21  N10 UNL     1      -3.388   3.322  15.441  1.00  0.00    -0.283 N 
HETATM   22  N11 UNL     1      -2.636   4.130  14.737  1.00  0.00    -0.298 N 
ATOM     23  H10 UNL     1      -2.917   2.671  16.070  1.00  0.00     0.188 HD
ATOM     24  H11 UNL     1      -1.619   4.105  14.818  1.00  0.00     0.187 HD
BRANCH  20  25
HETATM   25  N6  UNL     1      -5.435   2.348  16.225  1.00  0.00    -0.171 N 
HETATM   26  N7  UNL     1      -6.675   2.457  16.663  1.00  0.00    -0.216 N 
HETATM   27  N8  UNL     1      -6.986   1.401  17.393  1.00  0.00    -0.224 N 
ATOM     28  H7  UNL     1      -7.299   3.239  16.467  1.00  0.00     0.210 HD
HETATM   29  N9  UNL     1      -5.934   0.608  17.423  1.00  0.00    -0.234 N 
ATOM     30  H8  UNL     1      -7.881   1.229  17.853  1.00  0.00     0.210 HD
HETATM   31  C10 UNL     1      -4.972   1.198  16.697  1.00  0.00     0.364 A 
ATOM     32  H9  UNL     1      -5.863  -0.287  17.907  1.00  0.00     0.193 HD
HETATM   33  O2  UNL     1      -3.803   0.765  16.475  1.00  0.00    -0.243 OA
ENDBRANCH  20  25
ENDBRANCH  15  17
ENDBRANCH  12  14
ENDBRANCH  10  12
ENDBRANCH   8  10
ENDBRANCH   7   8
ENDBRANCH   2   7
TORSDOF 8
ENDMDL
MODEL 5
REMARK VINA RESULT: -6.691273979      5.220      7.159
REMARK  8 active torsions:
REMARK  status: ('A' for Active; 'I' for Inactive)
REMARK    1  A    between atoms: C2_2  and  O1_3 
REMARK    2  A    between atoms: C2_2  and  N2_7 
REMARK    3  A    between atoms: N2_7  and  N3_8 
REMARK    4  A    between atoms: N3_8  and  C4_10 
REMARK    5  A    between atoms: C4_10  and  N4_12 
REMARK    6  A    between atoms: N4_12  and  N5_14 
REMARK    7  A    between atoms: C5_16  and  C6_17 
REMARK    8  A    between atoms: C9_20  and  N6_21 
ROOT
HETATM    1  C1  UNL     1      -6.208   2.291  18.318  1.00  0.00     0.085 C 
HETATM    2  C2  UNL     1      -6.172   1.827  16.857  1.00  0.00     0.234 C 
HETATM    3  C3  UNL     1      -4.872   1.257  16.601  1.00  0.00     0.117 C 
HETATM    4  N1  UNL     1      -3.842   0.796  16.404  1.00  0.00    -0.192 NA
ENDROOT
BRANCH   2   5
HETATM    5  O1  UNL     1      -7.159   0.851  16.741  1.00  0.00    -0.361 OA
ATOM      6  H1  UNL     1      -6.725   0.020  16.896  1.00  0.00     0.213 HD
ENDBRANCH   2   5
BRANCH   2   7
HETATM    7  N2  UNL     1      -6.454   2.985  16.052  1.00  0.00    -0.085 NA
BRANCH   7   8
HETATM    8  N3  UNL     1      -5.332   3.610  15.551  1.00  0.00    -0.275 N 
ATOM      9  H3  UNL     1      -4.621   3.972  16.188  1.00  0.00     0.185 HD
BRANCH   8  10
HETATM   10  C4  UNL     1      -5.167   3.747  14.150  1.00  0.00     0.202 C 
HETATM   11  S1  UNL     1      -5.999   4.911  13.369  1.00  0.00    -0.038 SA
BRANCH  10  12
HETATM   12  N4  UNL     1      -4.299   2.902  13.400  1.00  0.00    -0.276 N 
ATOM     13  H4  UNL     1      -4.562   1.944  13.172  1.00  0.00     0.189 HD
BRANCH  12  14
HETATM   14  N5  UNL     1      -3.078   3.436  12.990  1.00  0.00    -0.307 N 
HETATM   15  C5  UNL     1      -2.534   2.988  11.912  1.00  0.00     0.138 C 
ATOM     16  H5  UNL     1      -2.624   4.170  13.535  1.00  0.00     0.186 HD
BRANCH  15  17
HETATM   17  C6  UNL     1      -1.253   3.543  11.479  1.00  0.00     0.065 A 
HETATM   18  C7  UNL     1      -0.787   3.300  10.207  1.00  0.00     0.036 A 
HETATM   19  C8  UNL     1       0.415   3.819   9.794  1.00  0.00     0.054 A 
HETATM   20  C9  UNL     1       1.131   4.582  10.687  1.00  0.00     0.148 A 
HETATM   21  N10 UNL     1       0.624   4.779  11.903  1.00  0.00    -0.283 N 
HETATM   22  N11 UNL     1      -0.517   4.301  12.332  1.00  0.00    -0.298 N 
ATOM     23  H10 UNL     1       1.168   5.349  12.553  1.00  0.00     0.188 HD
ATOM     24  H11 UNL     1      -0.844   4.493  13.279  1.00  0.00     0.187 HD
BRANCH  20  25
HETATM   25  N6  UNL     1       2.397   5.162  10.334  1.00  0.00    -0.171 N 
HETATM   26  N7  UNL     1       2.742   5.675   9.169  1.00  0.00    -0.216 N 
HETATM   27  N8  UNL     1       3.989   6.111   9.223  1.00  0.00    -0.224 N 
ATOM     28  H7  UNL     1       2.138   5.728   8.349  1.00  0.00     0.210 HD
HETATM   29  N9  UNL     1       4.445   5.873  10.436  1.00  0.00    -0.234 N 
ATOM     30  H8  UNL     1       4.506   6.553   8.462  1.00  0.00     0.210 HD
HETATM   31  C10 UNL     1       3.456   5.283  11.124  1.00  0.00     0.364 A 
ATOM     32  H9  UNL     1       5.377   6.094  10.787  1.00  0.00     0.193 HD
HETATM   33  O2  UNL     1       3.485   4.892  12.328  1.00  0.00    -0.243 OA
ENDBRANCH  20  25
ENDBRANCH  15  17
ENDBRANCH  12  14
ENDBRANCH  10  12
ENDBRANCH   8  10
ENDBRANCH   7   8
ENDBRANCH   2   7
TORSDOF 8
ENDMDL
