MODEL 1
REMARK VINA RESULT: -7.681198635      0.000      0.000
REMARK  8 active torsions:
REMARK  status: ('A' for Active; 'I' for Inactive)
REMARK    1  A    between atoms: O1_2  and  C2_3 
REMARK    2  A    between atoms: C2_3  and  C3_5 
REMARK    3  A    between atoms: C3_5  and  C9_23 
REMARK    4  A    between atoms: N1_6  and  N2_8 
REMARK    5  A    between atoms: N2_8  and  C4_10 
REMARK    6  A    between atoms: C6_15  and  O4_16 
REMARK    7  A    between atoms: C7_18  and  O5_19 
REMARK    8  A    between atoms: N5_25  and  N6_27 
REMARK       I    between atoms: N6_27  and  C11_28 
ROOT
HETATM    1  C3  UNL     1      -3.359   3.248  11.774  1.00  0.00     0.148 C 
HETATM    2  N1  UNL     1      -3.279   3.474  13.022  1.00  0.00    -0.279 N 
ATOM      3  H1  UNL     1      -2.349   3.372  13.428  1.00  0.00     0.188 HD
ENDROOT
BRANCH   2   4
HETATM    4  N2  UNL     1      -4.278   3.841  13.905  1.00  0.00    -0.131 N 
ATOM      5  H2  UNL     1      -4.671   4.781  13.881  1.00  0.00     0.205 HD
BRANCH   4   6
HETATM    6  C4  UNL     1      -4.706   2.973  14.759  1.00  0.00     0.703 A 
HETATM    7  N3  UNL     1      -4.228   1.723  14.744  1.00  0.00    -0.152 N 
HETATM    8  C5  UNL     1      -4.646   0.811  15.612  1.00  0.00     0.297 A 
ATOM      9  H3  UNL     1      -3.526   1.464  14.050  1.00  0.00     0.187 HD
HETATM   10  O3  UNL     1      -4.175  -0.373  15.576  1.00  0.00    -0.264 OA
HETATM   11  C6  UNL     1      -5.601   1.184  16.548  1.00  0.00     0.187 A 
HETATM   12  C7  UNL     1      -6.081   2.475  16.548  1.00  0.00     0.196 A 
HETATM   13  N4  UNL     1      -5.646   3.375  15.664  1.00  0.00    -0.162 N 
HETATM   14  C8  UNL     1      -6.156   4.713  15.657  1.00  0.00     0.177 C 
BRANCH  11  15
HETATM   15  O4  UNL     1      -6.048   0.256  17.458  1.00  0.00    -0.352 OA
ATOM     16  H4  UNL     1      -6.872   0.406  17.907  1.00  0.00     0.218 HD
ENDBRANCH  11  15
BRANCH  12  17
HETATM   17  O5  UNL     1      -7.049   2.894  17.479  1.00  0.00    -0.343 OA
ATOM     18  H5  UNL     1      -7.024   3.766  17.858  1.00  0.00     0.219 HD
ENDBRANCH  12  17
ENDBRANCH   4   6
ENDBRANCH   2   4
BRANCH   1  19
HETATM   19  C2  UNL     1      -4.600   3.354  11.062  1.00  0.00     0.313 C 
HETATM   20  O2  UNL     1      -5.635   2.686  11.335  1.00  0.00    -0.257 OA
BRANCH  19  21
HETATM   21  O1  UNL     1      -4.697   4.241  10.007  1.00  0.00    -0.321 OA
HETATM   22  C1  UNL     1      -4.535   5.613  10.138  1.00  0.00     0.213 C 
ENDBRANCH  19  21
ENDBRANCH   1  19
BRANCH   1  23
HETATM   23  C9  UNL     1      -2.152   2.863  11.066  1.00  0.00     0.069 C 
HETATM   24  C10 UNL     1      -1.625   1.482  11.085  1.00  0.00     0.073 C 
HETATM   25  N5  UNL     1      -1.474   3.748  10.394  1.00  0.00    -0.235 N 
ATOM     26  H5  UNL     1      -1.896   4.675  10.446  1.00  0.00     0.201 HD
BRANCH  25  27
HETATM   27  N6  UNL     1      -0.460   3.743   9.721  1.00  0.00    -0.287 NA
HETATM   28  C11 UNL     1       0.740   3.736   8.924  1.00  0.00     0.308 C 
HETATM   29  C12 UNL     1       0.557   4.032   7.459  1.00  0.00     0.137 C 
HETATM   30  O6  UNL     1       1.875   3.518   9.312  1.00  0.00    -0.256 OA
ENDBRANCH  25  27
ENDBRANCH   1  23
TORSDOF 8
ENDMDL
MODEL 2
REMARK VINA RESULT: -7.514713111      1.722      2.149
REMARK  8 active torsions:
REMARK  status: ('A' for Active; 'I' for Inactive)
REMARK    1  A    between atoms: O1_2  and  C2_3 
REMARK    2  A    between atoms: C2_3  and  C3_5 
REMARK    3  A    between atoms: C3_5  and  C9_23 
REMARK    4  A    between atoms: N1_6  and  N2_8 
REMARK    5  A    between atoms: N2_8  and  C4_10 
REMARK    6  A    between atoms: C6_15  and  O4_16 
REMARK    7  A    between atoms: C7_18  and  O5_19 
REMARK    8  A    between atoms: N5_25  and  N6_27 
REMARK       I    between atoms: N6_27  and  C11_28 
ROOT
HETATM    1  C3  UNL     1      -2.497   3.059  11.670  1.00  0.00     0.148 C 
HETATM    2  N1  UNL     1      -3.383   3.626  12.382  1.00  0.00    -0.279 N 
ATOM      3  H1  UNL     1      -3.141   4.555  12.728  1.00  0.00     0.188 HD
ENDROOT
BRANCH   2   4
HETATM    4  N2  UNL     1      -4.630   3.159  12.754  1.00  0.00    -0.131 N 
ATOM      5  H2  UNL     1      -5.372   3.056  12.061  1.00  0.00     0.205 HD
BRANCH   4   6
HETATM    6  C4  UNL     1      -4.841   2.855  13.989  1.00  0.00     0.703 A 
HETATM    7  N3  UNL     1      -4.200   1.820  14.546  1.00  0.00    -0.152 N 
HETATM    8  C5  UNL     1      -4.394   1.487  15.815  1.00  0.00     0.297 A 
ATOM      9  H3  UNL     1      -3.548   1.275  13.982  1.00  0.00     0.187 HD
HETATM   10  O3  UNL     1      -3.771   0.497  16.321  1.00  0.00    -0.264 OA
HETATM   11  C6  UNL     1      -5.286   2.243  16.565  1.00  0.00     0.187 A 
HETATM   12  C7  UNL     1      -5.936   3.303  15.975  1.00  0.00     0.196 A 
HETATM   13  N4  UNL     1      -5.725   3.619  14.696  1.00  0.00    -0.162 N 
HETATM   14  C8  UNL     1      -6.413   4.715  14.081  1.00  0.00     0.177 C 
BRANCH  11  15
HETATM   15  O4  UNL     1      -5.502   1.916  17.882  1.00  0.00    -0.352 OA
ATOM     16  H4  UNL     1      -6.205   1.317  18.103  1.00  0.00     0.218 HD
ENDBRANCH  11  15
BRANCH  12  17
HETATM   17  O5  UNL     1      -6.848   4.095  16.698  1.00  0.00    -0.343 OA
ATOM     18  H5  UNL     1      -7.698   3.757  16.955  1.00  0.00     0.219 HD
ENDBRANCH  12  17
ENDBRANCH   4   6
ENDBRANCH   2   4
BRANCH   1  19
HETATM   19  C2  UNL     1      -2.696   1.753  11.110  1.00  0.00     0.313 C 
HETATM   20  O2  UNL     1      -1.843   0.823  11.155  1.00  0.00    -0.257 OA
BRANCH  19  21
HETATM   21  O1  UNL     1      -3.890   1.467  10.478  1.00  0.00    -0.321 OA
HETATM   22  C1  UNL     1      -4.547   0.248  10.587  1.00  0.00     0.213 C 
ENDBRANCH  19  21
ENDBRANCH   1  19
BRANCH   1  23
HETATM   23  C9  UNL     1      -1.251   3.763  11.431  1.00  0.00     0.069 C 
HETATM   24  C10 UNL     1      -0.865   4.972  12.188  1.00  0.00     0.073 C 
HETATM   25  N5  UNL     1      -0.429   3.352  10.510  1.00  0.00    -0.235 N 
ATOM     26  H5  UNL     1      -0.778   2.524  10.026  1.00  0.00     0.201 HD
BRANCH  25  27
HETATM   27  N6  UNL     1       0.652   3.710  10.082  1.00  0.00    -0.287 NA
HETATM   28  C11 UNL     1       1.932   4.135   9.575  1.00  0.00     0.308 C 
HETATM   29  C12 UNL     1       2.294   5.575   9.828  1.00  0.00     0.137 C 
HETATM   30  O6  UNL     1       2.743   3.454   8.970  1.00  0.00    -0.256 OA
ENDBRANCH  25  27
ENDBRANCH   1  23
TORSDOF 8
ENDMDL
MODEL 3
REMARK VINA RESULT: -7.501709172      0.968      1.558
REMARK  8 active torsions:
REMARK  status: ('A' for Active; 'I' for Inactive)
REMARK    1  A    between atoms: O1_2  and  C2_3 
REMARK    2  A    between atoms: C2_3  and  C3_5 
REMARK    3  A    between atoms: C3_5  and  C9_23 
REMARK    4  A    between atoms: N1_6  and  N2_8 
REMARK    5  A    between atoms: N2_8  and  C4_10 
REMARK    6  A    between atoms: C6_15  and  O4_16 
REMARK    7  A    between atoms: C7_18  and  O5_19 
REMARK    8  A    between atoms: N5_25  and  N6_27 
REMARK       I    between atoms: N6_27  and  C11_28 
ROOT
HETATM    1  C3  UNL     1      -3.134   3.249  11.855  1.00  0.00     0.148 C 
HETATM    2  N1  UNL     1      -3.201   3.660  13.056  1.00  0.00    -0.279 N 
ATOM      3  H1  UNL     1      -2.306   3.778  13.531  1.00  0.00     0.188 HD
ENDROOT
BRANCH   2   4
HETATM    4  N2  UNL     1      -4.320   3.968  13.807  1.00  0.00    -0.131 N 
ATOM      5  H2  UNL     1      -4.796   4.862  13.685  1.00  0.00     0.205 HD
BRANCH   4   6
HETATM    6  C4  UNL     1      -4.753   3.108  14.666  1.00  0.00     0.703 A 
HETATM    7  N3  UNL     1      -4.283   1.854  14.656  1.00  0.00    -0.152 N 
HETATM    8  C5  UNL     1      -4.707   0.949  15.529  1.00  0.00     0.297 A 
ATOM      9  H3  UNL     1      -3.584   1.588  13.963  1.00  0.00     0.187 HD
HETATM   10  O3  UNL     1      -4.243  -0.238  15.498  1.00  0.00    -0.264 OA
HETATM   11  C6  UNL     1      -5.658   1.333  16.464  1.00  0.00     0.187 A 
HETATM   12  C7  UNL     1      -6.129   2.627  16.458  1.00  0.00     0.196 A 
HETATM   13  N4  UNL     1      -5.689   3.520  15.570  1.00  0.00    -0.162 N 
HETATM   14  C8  UNL     1      -6.191   4.861  15.558  1.00  0.00     0.177 C 
BRANCH  11  15
HETATM   15  O4  UNL     1      -6.111   0.412  17.378  1.00  0.00    -0.352 OA
ATOM     16  H4  UNL     1      -7.036   0.198  17.403  1.00  0.00     0.218 HD
ENDBRANCH  11  15
BRANCH  12  17
HETATM   17  O5  UNL     1      -7.094   3.057  17.389  1.00  0.00    -0.343 OA
ATOM     18  H5  UNL     1      -7.014   2.850  18.313  1.00  0.00     0.219 HD
ENDBRANCH  12  17
ENDBRANCH   4   6
ENDBRANCH   2   4
BRANCH   1  19
HETATM   19  C2  UNL     1      -4.308   3.039  11.058  1.00  0.00     0.313 C 
HETATM   20  O2  UNL     1      -4.652   3.775  10.092  1.00  0.00    -0.257 OA
BRANCH  19  21
HETATM   21  O1  UNL     1      -5.132   1.968  11.345  1.00  0.00    -0.321 OA
HETATM   22  C1  UNL     1      -4.749   0.642  11.201  1.00  0.00     0.213 C 
ENDBRANCH  19  21
ENDBRANCH   1  19
BRANCH   1  23
HETATM   23  C9  UNL     1      -1.823   2.983  11.292  1.00  0.00     0.069 C 
HETATM   24  C10 UNL     1      -1.385   1.627  10.904  1.00  0.00     0.073 C 
HETATM   25  N5  UNL     1      -0.969   3.952  11.127  1.00  0.00    -0.235 N 
ATOM     26  H5  UNL     1      -1.344   4.851  11.434  1.00  0.00     0.201 HD
BRANCH  25  27
HETATM   27  N6  UNL     1       0.165   4.052  10.699  1.00  0.00    -0.287 NA
HETATM   28  C11 UNL     1       1.508   4.170  10.190  1.00  0.00     0.308 C 
HETATM   29  C12 UNL     1       2.349   5.259  10.803  1.00  0.00     0.137 C 
HETATM   30  O6  UNL     1       2.026   3.485   9.326  1.00  0.00    -0.256 OA
ENDBRANCH  25  27
ENDBRANCH   1  23
TORSDOF 8
ENDMDL
MODEL 4
REMARK VINA RESULT: -7.334692553      1.932      7.604
REMARK  8 active torsions:
REMARK  status: ('A' for Active; 'I' for Inactive)
REMARK    1  A    between atoms: O1_2  and  C2_3 
REMARK    2  A    between atoms: C2_3  and  C3_5 
REMARK    3  A    between atoms: C3_5  and  C9_23 
REMARK    4  A    between atoms: N1_6  and  N2_8 
REMARK    5  A    between atoms: N2_8  and  C4_10 
REMARK    6  A    between atoms: C6_15  and  O4_16 
REMARK    7  A    between atoms: C7_18  and  O5_19 
REMARK    8  A    between atoms: N5_25  and  N6_27 
REMARK       I    between atoms: N6_27  and  C11_28 
ROOT
HETATM    1  C3  UNL     1      -3.600   2.585  12.553  1.00  0.00     0.148 C 
HETATM    2  N1  UNL     1      -2.381   2.836  12.296  1.00  0.00    -0.279 N 
ATOM      3  H1  UNL     1      -1.801   3.065  13.103  1.00  0.00     0.188 HD
ENDROOT
BRANCH   2   4
HETATM    4  N2  UNL     1      -1.733   2.841  11.075  1.00  0.00    -0.131 N 
ATOM      5  H2  UNL     1      -1.929   2.119  10.381  1.00  0.00     0.205 HD
BRANCH   4   6
HETATM    6  C4  UNL     1      -0.877   3.773  10.826  1.00  0.00     0.703 A 
HETATM    7  N3  UNL     1       0.367   3.691  11.313  1.00  0.00    -0.152 N 
HETATM    8  C5  UNL     1       1.269   4.632  11.070  1.00  0.00     0.297 A 
ATOM      9  H3  UNL     1       0.628   2.887  11.884  1.00  0.00     0.187 HD
HETATM   10  O3  UNL     1       2.447   4.530  11.546  1.00  0.00    -0.264 OA
HETATM   11  C6  UNL     1       0.893   5.718  10.290  1.00  0.00     0.187 A 
HETATM   12  C7  UNL     1      -0.391   5.785   9.798  1.00  0.00     0.196 A 
HETATM   13  N4  UNL     1      -1.282   4.826  10.056  1.00  0.00    -0.162 N 
HETATM   14  C8  UNL     1      -2.621   4.905   9.554  1.00  0.00     0.177 C 
BRANCH  11  15
HETATM   15  O4  UNL     1       1.812   6.704  10.025  1.00  0.00    -0.352 OA
ATOM     16  H4  UNL     1       2.682   6.462   9.728  1.00  0.00     0.218 HD
ENDBRANCH  11  15
BRANCH  12  17
HETATM   17  O5  UNL     1      -0.813   6.868   9.003  1.00  0.00    -0.343 OA
ATOM     18  H5  UNL     1      -1.140   6.734   8.122  1.00  0.00     0.219 HD
ENDBRANCH  12  17
ENDBRANCH   4   6
ENDBRANCH   2   4
BRANCH   1  19
HETATM   19  C2  UNL     1      -4.538   2.243  11.521  1.00  0.00     0.313 C 
HETATM   20  O2  UNL     1      -5.730   2.655  11.481  1.00  0.00    -0.257 OA
BRANCH  19  21
HETATM   21  O1  UNL     1      -4.134   1.413  10.494  1.00  0.00    -0.321 OA
HETATM   22  C1  UNL     1      -4.078   0.030  10.598  1.00  0.00     0.213 C 
ENDBRANCH  19  21
ENDBRANCH   1  19
BRANCH   1  23
HETATM   23  C9  UNL     1      -4.042   2.658  13.933  1.00  0.00     0.069 C 
HETATM   24  C10 UNL     1      -3.855   3.866  14.764  1.00  0.00     0.073 C 
HETATM   25  N5  UNL     1      -4.610   1.632  14.497  1.00  0.00    -0.235 N 
ATOM     26  H5  UNL     1      -4.686   0.837  13.861  1.00  0.00     0.201 HD
BRANCH  25  27
HETATM   27  N6  UNL     1      -5.073   1.385  15.595  1.00  0.00    -0.287 NA
HETATM   28  C11 UNL     1      -5.620   1.093  16.896  1.00  0.00     0.308 C 
HETATM   29  C12 UNL     1      -6.105   2.280  17.686  1.00  0.00     0.137 C 
HETATM   30  O6  UNL     1      -5.730  -0.005  17.414  1.00  0.00    -0.256 OA
ENDBRANCH  25  27
ENDBRANCH   1  23
TORSDOF 8
ENDMDL
MODEL 5
REMARK VINA RESULT: -7.324432122      2.108      7.771
REMARK  8 active torsions:
REMARK  status: ('A' for Active; 'I' for Inactive)
REMARK    1  A    between atoms: O1_2  and  C2_3 
REMARK    2  A    between atoms: C2_3  and  C3_5 
REMARK    3  A    between atoms: C3_5  and  C9_23 
REMARK    4  A    between atoms: N1_6  and  N2_8 
REMARK    5  A    between atoms: N2_8  and  C4_10 
REMARK    6  A    between atoms: C6_15  and  O4_16 
REMARK    7  A    between atoms: C7_18  and  O5_19 
REMARK    8  A    between atoms: N5_25  and  N6_27 
REMARK       I    between atoms: N6_27  and  C11_28 
ROOT
HETATM    1  C3  UNL     1      -3.682   2.173  12.660  1.00  0.00     0.148 C 
HETATM    2  N1  UNL     1      -2.641   2.888  12.518  1.00  0.00    -0.279 N 
ATOM      3  H1  UNL     1      -2.442   3.531  13.285  1.00  0.00     0.188 HD
ENDROOT
BRANCH   2   4
HETATM    4  N2  UNL     1      -1.740   2.914  11.470  1.00  0.00    -0.131 N 
ATOM      5  H2  UNL     1      -1.078   2.150  11.336  1.00  0.00     0.205 HD
BRANCH   4   6
HETATM    6  C4  UNL     1      -1.752   3.920  10.662  1.00  0.00     0.703 A 
HETATM    7  N3  UNL     1      -2.890   4.285  10.058  1.00  0.00    -0.152 N 
HETATM    8  C5  UNL     1      -2.932   5.316   9.226  1.00  0.00     0.297 A 
ATOM      9  H3  UNL     1      -3.744   3.758  10.242  1.00  0.00     0.187 HD
HETATM   10  O3  UNL     1      -4.029   5.643   8.664  1.00  0.00    -0.264 OA
HETATM   11  C6  UNL     1      -1.758   6.020   8.990  1.00  0.00     0.187 A 
HETATM   12  C7  UNL     1      -0.598   5.629   9.620  1.00  0.00     0.196 A 
HETATM   13  N4  UNL     1      -0.579   4.587  10.452  1.00  0.00    -0.162 N 
HETATM   14  C8  UNL     1       0.633   4.175  11.095  1.00  0.00     0.177 C 
BRANCH  11  15
HETATM   15  O4  UNL     1      -1.779   7.093   8.132  1.00  0.00    -0.352 OA
ATOM     16  H4  UNL     1      -1.005   7.638   8.051  1.00  0.00     0.218 HD
ENDBRANCH  11  15
BRANCH  12  17
HETATM   17  O5  UNL     1       0.614   6.315   9.408  1.00  0.00    -0.343 OA
ATOM     18  H5  UNL     1       1.329   6.255  10.031  1.00  0.00     0.219 HD
ENDBRANCH  12  17
ENDBRANCH   4   6
ENDBRANCH   2   4
BRANCH   1  19
HETATM   19  C2  UNL     1      -4.088   1.220  11.667  1.00  0.00     0.313 C 
HETATM   20  O2  UNL     1      -4.114   1.454  10.427  1.00  0.00    -0.257 OA
BRANCH  19  21
HETATM   21  O1  UNL     1      -4.479  -0.043  12.067  1.00  0.00    -0.321 OA
HETATM   22  C1  UNL     1      -3.837  -1.209  11.671  1.00  0.00     0.213 C 
ENDBRANCH  19  21
ENDBRANCH   1  19
BRANCH   1  23
HETATM   23  C9  UNL     1      -4.476   2.344  13.863  1.00  0.00     0.069 C 
HETATM   24  C10 UNL     1      -5.171   3.608  14.182  1.00  0.00     0.073 C 
HETATM   25  N5  UNL     1      -4.583   1.373  14.723  1.00  0.00    -0.235 N 
ATOM     26  H5  UNL     1      -4.062   0.545  14.434  1.00  0.00     0.201 HD
BRANCH  25  27
HETATM   27  N6  UNL     1      -5.152   1.208  15.786  1.00  0.00    -0.287 NA
HETATM   28  C11 UNL     1      -5.824   1.015  17.046  1.00  0.00     0.308 C 
HETATM   29  C12 UNL     1      -7.213   1.590  17.144  1.00  0.00     0.137 C 
HETATM   30  O6  UNL     1      -5.389   0.438  18.027  1.00  0.00    -0.256 OA
ENDBRANCH  25  27
ENDBRANCH   1  23
TORSDOF 8
ENDMDL
