MODEL 1
REMARK VINA RESULT: -7.227167335      0.000      0.000
REMARK  5 active torsions:
REMARK  status: ('A' for Active; 'I' for Inactive)
REMARK    1  A    between atoms: C2_3  and  N2_4 
REMARK    2  A    between atoms: C4_8  and  N4_9 
REMARK    3  A    between atoms: N10_30  and  C13_31 
REMARK    4  A    between atoms: C13_31  and  C14_32 
REMARK    5  A    between atoms: C14_32  and  O2_33 
ROOT
HETATM    1  N1  UNL     1      -1.113   2.302  11.336  1.00  0.00    -0.196 NA
HETATM    2  C1  UNL     1      -2.253   2.501  11.221  1.00  0.00     0.080 C 
HETATM    3  C2  UNL     1      -3.691   2.741  11.089  1.00  0.00     0.273 C 
ENDROOT
BRANCH   3   4
HETATM    4  N2  UNL     1      -4.291   3.127  12.354  1.00  0.00    -0.150 N 
HETATM    5  C3  UNL     1      -4.865   4.310  12.643  1.00  0.00     0.173 A 
HETATM    6  N3  UNL     1      -5.049   5.416  11.916  1.00  0.00    -0.173 N 
HETATM    7  C10 UNL     1      -5.324   4.298  13.956  1.00  0.00     0.164 A 
HETATM    8  C4  UNL     1      -5.663   6.490  12.441  1.00  0.00     0.683 A 
ATOM      9  H3  UNL     1      -4.720   5.446  10.951  1.00  0.00     0.186 HD
HETATM   10  N5  UNL     1      -6.106   6.482  13.707  1.00  0.00    -0.174 N 
HETATM   11  C9  UNL     1      -5.953   5.386  14.512  1.00  0.00     0.148 A 
ATOM     12  H5  UNL     1      -6.568   7.312  14.079  1.00  0.00     0.186 HD
HETATM   13  N6  UNL     1      -6.409   5.474  15.699  1.00  0.00    -0.383 N 
ATOM     14  H62 UNL     1      -6.877   6.282  16.111  1.00  0.00     0.157 HD
ATOM     15  H61 UNL     1      -6.295   4.657  16.299  1.00  0.00     0.157 HD
HETATM   16  N7  UNL     1      -5.019   3.085  14.464  1.00  0.00    -0.061 N 
HETATM   17  C11 UNL     1      -4.402   2.413  13.474  1.00  0.00     0.724 A 
HETATM   18  N10 UNL     1      -5.103   2.337  15.548  1.00  0.00    -0.100 N 
HETATM   19  N8  UNL     1      -4.078   1.204  13.925  1.00  0.00    -0.019 N 
HETATM   20  C12 UNL     1      -4.500   1.153  15.181  1.00  0.00     0.708 A 
ATOM     21  H8  UNL     1      -3.601   0.464  13.409  1.00  0.00     0.203 HD
HETATM   22  N9  UNL     1      -4.365   0.136  15.953  1.00  0.00    -0.233 N 
ATOM     23  H92 UNL     1      -3.919  -0.740  15.682  1.00  0.00     0.174 HD
ATOM     24  H91 UNL     1      -4.691   0.097  16.919  1.00  0.00     0.174 HD
BRANCH   8  25
HETATM   25  N4  UNL     1      -5.825   7.643  11.599  1.00  0.00    -0.213 N 
HETATM   26  C5  UNL     1      -4.626   8.393  11.284  1.00  0.00     0.167 C 
HETATM   27  C6  UNL     1      -4.883   9.667  10.560  1.00  0.00     0.188 C 
HETATM   28  O1  UNL     1      -6.193  10.077  10.541  1.00  0.00    -0.388 OA
HETATM   29  C7  UNL     1      -6.942   9.010   9.990  1.00  0.00     0.188 C 
HETATM   30  C8  UNL     1      -7.134   8.017  11.103  1.00  0.00     0.167 C 
ENDBRANCH   8  25
BRANCH  18  31
HETATM   31  C13 UNL     1      -5.648   2.553  16.860  1.00  0.00     0.195 C 
BRANCH  31  32
HETATM   32  C14 UNL     1      -7.097   2.134  17.005  1.00  0.00     0.186 C 
BRANCH  32  33
HETATM   33  O2  UNL     1      -7.143   0.754  17.050  1.00  0.00    -0.399 OA
ATOM     34  H2  UNL     1      -6.964   0.423  16.177  1.00  0.00     0.209 HD
ENDBRANCH  32  33
ENDBRANCH  31  32
ENDBRANCH  18  31
ENDBRANCH   3   4
TORSDOF 5
ENDMDL
MODEL 2
REMARK VINA RESULT: -7.098400764      2.900      6.659
REMARK  5 active torsions:
REMARK  status: ('A' for Active; 'I' for Inactive)
REMARK    1  A    between atoms: C2_3  and  N2_4 
REMARK    2  A    between atoms: C4_8  and  N4_9 
REMARK    3  A    between atoms: N10_30  and  C13_31 
REMARK    4  A    between atoms: C13_31  and  C14_32 
REMARK    5  A    between atoms: C14_32  and  O2_33 
ROOT
HETATM    1  N1  UNL     1      -4.840   0.405  10.427  1.00  0.00    -0.196 NA
HETATM    2  C1  UNL     1      -3.796   0.750  10.806  1.00  0.00     0.080 C 
HETATM    3  C2  UNL     1      -2.483   1.197  11.272  1.00  0.00     0.273 C 
ENDROOT
BRANCH   3   4
HETATM    4  N2  UNL     1      -2.510   2.581  11.710  1.00  0.00    -0.150 N 
HETATM    5  C3  UNL     1      -3.132   3.067  12.801  1.00  0.00     0.173 A 
HETATM    6  N3  UNL     1      -3.864   2.476  13.751  1.00  0.00    -0.173 N 
HETATM    7  C10 UNL     1      -2.928   4.441  12.883  1.00  0.00     0.164 A 
HETATM    8  C4  UNL     1      -4.389   3.192  14.760  1.00  0.00     0.683 A 
ATOM      9  H3  UNL     1      -4.026   1.470  13.710  1.00  0.00     0.186 HD
HETATM   10  N5  UNL     1      -4.194   4.517  14.841  1.00  0.00    -0.174 N 
HETATM   11  C9  UNL     1      -3.456   5.190  13.906  1.00  0.00     0.148 A 
ATOM     12  H5  UNL     1      -4.605   5.034  15.617  1.00  0.00     0.186 HD
HETATM   13  N6  UNL     1      -3.326   6.447  14.070  1.00  0.00    -0.383 N 
ATOM     14  H62 UNL     1      -3.718   7.004  14.830  1.00  0.00     0.157 HD
ATOM     15  H61 UNL     1      -2.776   6.949  13.373  1.00  0.00     0.157 HD
HETATM   16  N7  UNL     1      -2.169   4.784  11.820  1.00  0.00    -0.061 N 
HETATM   17  C11 UNL     1      -1.940   3.644  11.143  1.00  0.00     0.724 A 
HETATM   18  N10 UNL     1      -1.586   5.804  11.220  1.00  0.00    -0.100 N 
HETATM   19  N8  UNL     1      -1.192   3.930  10.080  1.00  0.00    -0.019 N 
HETATM   20  C12 UNL     1      -0.975   5.237  10.122  1.00  0.00     0.708 A 
ATOM     21  H8  UNL     1      -0.854   3.274   9.375  1.00  0.00     0.203 HD
HETATM   22  N9  UNL     1      -0.288   5.888   9.255  1.00  0.00    -0.233 N 
ATOM     23  H92 UNL     1       0.164   5.468   8.442  1.00  0.00     0.174 HD
ATOM     24  H91 UNL     1      -0.121   6.894   9.287  1.00  0.00     0.174 HD
BRANCH   8  25
HETATM   25  N4  UNL     1      -5.164   2.489  15.743  1.00  0.00    -0.213 N 
HETATM   26  C5  UNL     1      -4.601   1.257  16.257  1.00  0.00     0.167 C 
HETATM   27  C6  UNL     1      -5.527   0.490  17.135  1.00  0.00     0.188 C 
HETATM   28  O1  UNL     1      -6.836   0.899  17.108  1.00  0.00    -0.388 OA
HETATM   29  C7  UNL     1      -6.836   2.276  17.437  1.00  0.00     0.188 C 
HETATM   30  C8  UNL     1      -6.446   3.005  16.182  1.00  0.00     0.167 C 
ENDBRANCH   8  25
BRANCH  18  31
HETATM   31  C13 UNL     1      -1.512   7.211  11.504  1.00  0.00     0.195 C 
BRANCH  31  32
HETATM   32  C14 UNL     1      -0.362   7.600  12.412  1.00  0.00     0.186 C 
BRANCH  32  33
HETATM   33  O2  UNL     1      -0.893   8.070  13.599  1.00  0.00    -0.399 OA
ATOM     34  H2  UNL     1      -1.227   7.327  14.088  1.00  0.00     0.209 HD
ENDBRANCH  32  33
ENDBRANCH  31  32
ENDBRANCH  18  31
ENDBRANCH   3   4
TORSDOF 5
ENDMDL
MODEL 3
REMARK VINA RESULT: -7.090586278      2.038      6.566
REMARK  5 active torsions:
REMARK  status: ('A' for Active; 'I' for Inactive)
REMARK    1  A    between atoms: C2_3  and  N2_4 
REMARK    2  A    between atoms: C4_8  and  N4_9 
REMARK    3  A    between atoms: N10_30  and  C13_31 
REMARK    4  A    between atoms: C13_31  and  C14_32 
REMARK    5  A    between atoms: C14_32  and  O2_33 
ROOT
HETATM    1  N1  UNL     1      -3.105  -0.091  10.413  1.00  0.00    -0.196 NA
HETATM    2  C1  UNL     1      -2.557   0.803  10.917  1.00  0.00     0.080 C 
HETATM    3  C2  UNL     1      -1.870   1.935  11.538  1.00  0.00     0.273 C 
ENDROOT
BRANCH   3   4
HETATM    4  N2  UNL     1      -2.722   3.109  11.608  1.00  0.00    -0.150 N 
HETATM    5  C3  UNL     1      -3.618   3.394  12.572  1.00  0.00     0.173 A 
HETATM    6  N3  UNL     1      -3.979   2.740  13.680  1.00  0.00    -0.173 N 
HETATM    7  C10 UNL     1      -4.239   4.607  12.288  1.00  0.00     0.164 A 
HETATM    8  C4  UNL     1      -4.919   3.241  14.499  1.00  0.00     0.683 A 
ATOM      9  H3  UNL     1      -3.537   1.849  13.906  1.00  0.00     0.186 HD
HETATM   10  N5  UNL     1      -5.519   4.410  14.228  1.00  0.00    -0.174 N 
HETATM   11  C9  UNL     1      -5.202   5.136  13.113  1.00  0.00     0.148 A 
ATOM     12  H5  UNL     1      -6.229   4.765  14.869  1.00  0.00     0.186 HD
HETATM   13  N6  UNL     1      -5.826   6.234  12.944  1.00  0.00    -0.383 N 
ATOM     14  H62 UNL     1      -6.541   6.627  13.556  1.00  0.00     0.157 HD
ATOM     15  H61 UNL     1      -5.589   6.776  12.112  1.00  0.00     0.157 HD
HETATM   16  N7  UNL     1      -3.705   5.056  11.133  1.00  0.00    -0.061 N 
HETATM   17  C11 UNL     1      -2.801   4.132  10.758  1.00  0.00     0.724 A 
HETATM   18  N10 UNL     1      -3.745   6.045  10.260  1.00  0.00    -0.100 N 
HETATM   19  N8  UNL     1      -2.242   4.530   9.617  1.00  0.00    -0.019 N 
HETATM   20  C12 UNL     1      -2.811   5.688   9.311  1.00  0.00     0.708 A 
ATOM     21  H8  UNL     1      -1.521   4.042   9.085  1.00  0.00     0.203 HD
HETATM   22  N9  UNL     1      -2.529   6.384   8.270  1.00  0.00    -0.233 N 
ATOM     23  H92 UNL     1      -1.838   6.119   7.568  1.00  0.00     0.174 HD
ATOM     24  H91 UNL     1      -2.966   7.275   8.035  1.00  0.00     0.174 HD
BRANCH   8  25
HETATM   25  N4  UNL     1      -5.255   2.481  15.671  1.00  0.00    -0.213 N 
HETATM   26  C5  UNL     1      -6.303   3.016  16.516  1.00  0.00     0.167 C 
HETATM   27  C6  UNL     1      -6.480   2.280  17.798  1.00  0.00     0.188 C 
HETATM   28  O1  UNL     1      -5.474   1.402  18.114  1.00  0.00    -0.388 OA
HETATM   29  C7  UNL     1      -5.355   0.512  17.020  1.00  0.00     0.188 C 
HETATM   30  C8  UNL     1      -4.564   1.243  15.972  1.00  0.00     0.167 C 
ENDBRANCH   8  25
BRANCH  18  31
HETATM   31  C13 UNL     1      -4.512   7.257  10.171  1.00  0.00     0.195 C 
BRANCH  31  32
HETATM   32  C14 UNL     1      -5.799   7.119   9.382  1.00  0.00     0.186 C 
BRANCH  32  33
HETATM   33  O2  UNL     1      -6.855   7.155  10.274  1.00  0.00    -0.399 OA
ATOM     34  H2  UNL     1      -6.847   6.347  10.774  1.00  0.00     0.209 HD
ENDBRANCH  32  33
ENDBRANCH  31  32
ENDBRANCH  18  31
ENDBRANCH   3   4
TORSDOF 5
ENDMDL
MODEL 4
REMARK VINA RESULT: -7.024752546      2.007      6.550
REMARK  5 active torsions:
REMARK  status: ('A' for Active; 'I' for Inactive)
REMARK    1  A    between atoms: C2_3  and  N2_4 
REMARK    2  A    between atoms: C4_8  and  N4_9 
REMARK    3  A    between atoms: N10_30  and  C13_31 
REMARK    4  A    between atoms: C13_31  and  C14_32 
REMARK    5  A    between atoms: C14_32  and  O2_33 
ROOT
HETATM    1  N1  UNL     1      -3.589   0.187  10.401  1.00  0.00    -0.196 NA
HETATM    2  C1  UNL     1      -3.059   1.111  10.868  1.00  0.00     0.080 C 
HETATM    3  C2  UNL     1      -2.395   2.282  11.441  1.00  0.00     0.273 C 
ENDROOT
BRANCH   3   4
HETATM    4  N2  UNL     1      -3.296   3.418  11.536  1.00  0.00    -0.150 N 
HETATM    5  C3  UNL     1      -4.178   3.662  12.524  1.00  0.00     0.173 A 
HETATM    6  N3  UNL     1      -4.482   2.990  13.639  1.00  0.00    -0.173 N 
HETATM    7  C10 UNL     1      -4.858   4.847  12.260  1.00  0.00     0.164 A 
HETATM    8  C4  UNL     1      -5.421   3.449  14.484  1.00  0.00     0.683 A 
ATOM      9  H3  UNL     1      -3.995   2.120  13.851  1.00  0.00     0.186 HD
HETATM   10  N5  UNL     1      -6.078   4.591  14.232  1.00  0.00    -0.174 N 
HETATM   11  C9  UNL     1      -5.821   5.332  13.111  1.00  0.00     0.148 A 
ATOM     12  H5  UNL     1      -6.785   4.914  14.891  1.00  0.00     0.186 HD
HETATM   13  N6  UNL     1      -6.496   6.403  12.961  1.00  0.00    -0.383 N 
ATOM     14  H62 UNL     1      -7.212   6.763  13.593  1.00  0.00     0.157 HD
ATOM     15  H61 UNL     1      -6.305   6.955  12.125  1.00  0.00     0.157 HD
HETATM   16  N7  UNL     1      -4.374   5.321  11.092  1.00  0.00    -0.061 N 
HETATM   17  C11 UNL     1      -3.441   4.438  10.691  1.00  0.00     0.724 A 
HETATM   18  N10 UNL     1      -4.480   6.309  10.224  1.00  0.00    -0.100 N 
HETATM   19  N8  UNL     1      -2.930   4.861   9.538  1.00  0.00    -0.019 N 
HETATM   20  C12 UNL     1      -3.556   5.994   9.250  1.00  0.00     0.708 A 
ATOM     21  H8  UNL     1      -2.202   4.406   8.986  1.00  0.00     0.203 HD
HETATM   22  N9  UNL     1      -3.332   6.703   8.204  1.00  0.00    -0.233 N 
ATOM     23  H92 UNL     1      -2.649   6.470   7.483  1.00  0.00     0.174 HD
ATOM     24  H91 UNL     1      -3.813   7.575   7.983  1.00  0.00     0.174 HD
BRANCH   8  25
HETATM   25  N4  UNL     1      -5.692   2.674  15.662  1.00  0.00    -0.213 N 
HETATM   26  C5  UNL     1      -4.916   1.463  15.838  1.00  0.00     0.167 C 
HETATM   27  C6  UNL     1      -5.366   0.618  16.978  1.00  0.00     0.188 C 
HETATM   28  O1  UNL     1      -6.586   0.951  17.510  1.00  0.00    -0.388 OA
HETATM   29  C7  UNL     1      -6.507   2.315  17.879  1.00  0.00     0.188 C 
HETATM   30  C8  UNL     1      -6.700   3.102  16.612  1.00  0.00     0.167 C 
ENDBRANCH   8  25
BRANCH  18  31
HETATM   31  C13 UNL     1      -5.301   7.486  10.158  1.00  0.00     0.195 C 
BRANCH  31  32
HETATM   32  C14 UNL     1      -6.666   7.256   9.539  1.00  0.00     0.186 C 
BRANCH  32  33
HETATM   33  O2  UNL     1      -6.514   6.386   8.477  1.00  0.00    -0.399 OA
ATOM     34  H2  UNL     1      -7.367   6.023   8.267  1.00  0.00     0.209 HD
ENDBRANCH  32  33
ENDBRANCH  31  32
ENDBRANCH  18  31
ENDBRANCH   3   4
TORSDOF 5
ENDMDL
MODEL 5
REMARK VINA RESULT: -6.990629220      2.795      7.259
REMARK  5 active torsions:
REMARK  status: ('A' for Active; 'I' for Inactive)
REMARK    1  A    between atoms: C2_3  and  N2_4 
REMARK    2  A    between atoms: C4_8  and  N4_9 
REMARK    3  A    between atoms: N10_30  and  C13_31 
REMARK    4  A    between atoms: C13_31  and  C14_32 
REMARK    5  A    between atoms: C14_32  and  O2_33 
ROOT
HETATM    1  N1  UNL     1      -7.212   8.346  10.575  1.00  0.00    -0.196 NA
HETATM    2  C1  UNL     1      -7.033   7.681  11.512  1.00  0.00     0.080 C 
HETATM    3  C2  UNL     1      -6.800   6.833  12.681  1.00  0.00     0.273 C 
ENDROOT
BRANCH   3   4
HETATM    4  N2  UNL     1      -5.384   6.591  12.897  1.00  0.00    -0.150 N 
HETATM    5  C3  UNL     1      -4.841   5.625  13.662  1.00  0.00     0.173 A 
HETATM    6  N3  UNL     1      -5.390   4.660  14.407  1.00  0.00    -0.173 N 
HETATM    7  C10 UNL     1      -3.454   5.717  13.617  1.00  0.00     0.164 A 
HETATM    8  C4  UNL     1      -4.619   3.800  15.094  1.00  0.00     0.683 A 
ATOM      9  H3  UNL     1      -6.406   4.575  14.454  1.00  0.00     0.186 HD
HETATM   10  N5  UNL     1      -3.282   3.887  15.053  1.00  0.00    -0.174 N 
HETATM   11  C9  UNL     1      -2.649   4.848  14.313  1.00  0.00     0.148 A 
ATOM     12  H5  UNL     1      -2.723   3.220  15.585  1.00  0.00     0.186 HD
HETATM   13  N6  UNL     1      -1.375   4.848  14.335  1.00  0.00    -0.383 N 
ATOM     14  H62 UNL     1      -0.777   4.202  14.852  1.00  0.00     0.157 HD
ATOM     15  H61 UNL     1      -0.903   5.564  13.784  1.00  0.00     0.157 HD
HETATM   16  N7  UNL     1      -3.160   6.758  12.810  1.00  0.00    -0.061 N 
HETATM   17  C11 UNL     1      -4.342   7.255  12.398  1.00  0.00     0.724 A 
HETATM   18  N10 UNL     1      -2.162   7.448  12.290  1.00  0.00    -0.100 N 
HETATM   19  N8  UNL     1      -4.106   8.289  11.595  1.00  0.00    -0.019 N 
HETATM   20  C12 UNL     1      -2.787   8.411  11.526  1.00  0.00     0.708 A 
ATOM     21  H8  UNL     1      -4.800   8.872  11.126  1.00  0.00     0.203 HD
HETATM   22  N9  UNL     1      -2.175   9.306  10.840  1.00  0.00    -0.233 N 
ATOM     23  H92 UNL     1      -2.637  10.018  10.275  1.00  0.00     0.174 HD
ATOM     24  H91 UNL     1      -1.160   9.399  10.787  1.00  0.00     0.174 HD
BRANCH   8  25
HETATM   25  N4  UNL     1      -5.280   2.790  15.872  1.00  0.00    -0.213 N 
HETATM   26  C5  UNL     1      -4.540   1.568  16.118  1.00  0.00     0.167 C 
HETATM   27  C6  UNL     1      -5.340   0.499  16.774  1.00  0.00     0.188 C 
HETATM   28  O1  UNL     1      -6.696   0.711  16.798  1.00  0.00    -0.388 OA
HETATM   29  C7  UNL     1      -6.897   1.964  17.425  1.00  0.00     0.188 C 
HETATM   30  C8  UNL     1      -6.623   3.005  16.376  1.00  0.00     0.167 C 
ENDBRANCH   8  25
BRANCH  18  31
HETATM   31  C13 UNL     1      -0.732   7.354  12.396  1.00  0.00     0.195 C 
BRANCH  31  32
HETATM   32  C14 UNL     1      -0.104   6.367  11.432  1.00  0.00     0.186 C 
BRANCH  32  33
HETATM   33  O2  UNL     1       0.481   5.357  12.173  1.00  0.00    -0.399 OA
ATOM     34  H2  UNL     1       0.023   5.297  13.004  1.00  0.00     0.209 HD
ENDBRANCH  32  33
ENDBRANCH  31  32
ENDBRANCH  18  31
ENDBRANCH   3   4
TORSDOF 5
ENDMDL
