MODEL 1
REMARK VINA RESULT: -8.102907301      0.000      0.000
REMARK  5 active torsions:
REMARK  status: ('A' for Active; 'I' for Inactive)
REMARK    1  A    between atoms: N2_5  and  O2_6 
REMARK    2  A    between atoms: C6_12  and  N3_13 
REMARK    3  A    between atoms: C8_15  and  C9_16 
REMARK       I    between atoms: C9_16  and  N4_18 
REMARK    4  A    between atoms: N4_18  and  N5_20 
REMARK    5  A    between atoms: N5_20  and  C10_22 
ROOT
HETATM    1  N3  UNL     1      -1.160   3.661  11.344  1.00  0.00    -0.234 N 
HETATM    2  C7  UNL     1      -1.917   3.983  12.401  1.00  0.00     0.156 A 
HETATM    3  C8  UNL     1      -3.117   3.319  12.352  1.00  0.00     0.136 A 
HETATM    4  N6  UNL     1      -3.059   2.588  11.232  1.00  0.00    -0.279 N 
ATOM      5  H6  UNL     1      -3.796   1.971  10.892  1.00  0.00     0.189 HD
HETATM    6  N7  UNL     1      -1.899   2.790  10.635  1.00  0.00    -0.234 N 
ATOM      7  H7  UNL     1      -1.607   2.349   9.764  1.00  0.00     0.209 HD
ENDROOT
BRANCH   1   8
HETATM    8  C6  UNL     1       0.164   4.097  11.005  1.00  0.00     0.130 A 
HETATM    9  C5  UNL     1       0.726   3.806   9.765  1.00  0.00     0.071 A 
HETATM   10  C4  UNL     1       1.976   4.385   9.813  1.00  0.00     0.082 A 
HETATM   11  C3  UNL     1       2.971   4.413   8.860  1.00  0.00     0.289 A 
HETATM   12  C13 UNL     1       2.172   5.007  11.038  1.00  0.00     0.128 A 
HETATM   13  N2  UNL     1       4.118   5.056   9.157  1.00  0.00    -0.133 N 
HETATM   14  O3  UNL     1       2.807   3.852   7.742  1.00  0.00    -0.265 OA
HETATM   15  C2  UNL     1       4.291   5.662  10.367  1.00  0.00     0.357 A 
HETATM   16  N1  UNL     1       3.333   5.649  11.318  1.00  0.00    -0.287 N 
HETATM   17  O1  UNL     1       5.385   6.235  10.557  1.00  0.00    -0.244 OA
HETATM   18  C1  UNL     1       3.520   6.297  12.596  1.00  0.00     0.163 C 
HETATM   19  N8  UNL     1       1.028   4.802  11.739  1.00  0.00    -0.326 N 
ATOM     20  H8  UNL     1       0.854   5.137  12.687  1.00  0.00     0.169 HD
BRANCH  13  21
HETATM   21  O2  UNL     1       5.091   5.067   8.186  1.00  0.00    -0.276 OA
ATOM     22  H2  UNL     1       4.988   4.607   7.361  1.00  0.00     0.245 HD
ENDBRANCH  13  21
ENDBRANCH   1   8
BRANCH   3  23
HETATM   23  C9  UNL     1      -4.187   3.401  13.334  1.00  0.00     0.289 C 
HETATM   24  O4  UNL     1      -5.339   3.807  12.980  1.00  0.00    -0.264 OA
HETATM   25  N4  UNL     1      -3.960   3.030  14.680  1.00  0.00    -0.267 N 
ATOM     26  H4  UNL     1      -3.037   2.707  14.971  1.00  0.00     0.190 HD
BRANCH  25  27
HETATM   27  N5  UNL     1      -4.983   3.104  15.597  1.00  0.00    -0.302 N 
ATOM     28  H5  UNL     1      -5.687   3.841  15.557  1.00  0.00     0.183 HD
BRANCH  27  29
HETATM   29  C10 UNL     1      -5.008   2.109  16.595  1.00  0.00     0.271 C 
HETATM   30  O5  UNL     1      -5.587   0.906  16.168  1.00  0.00    -0.360 OA
HETATM   31  C11 UNL     1      -6.023   0.750  17.492  1.00  0.00     0.212 C 
HETATM   32  C12 UNL     1      -6.112   2.266  17.643  1.00  0.00     0.243 C 
HETATM   33  F1  UNL     1      -7.212   2.840  17.081  1.00  0.00    -0.242 F 
ENDBRANCH  27  29
ENDBRANCH  25  27
ENDBRANCH   3  23
TORSDOF 5
ENDMDL
MODEL 2
REMARK VINA RESULT: -7.947131352      1.523      2.412
REMARK  5 active torsions:
REMARK  status: ('A' for Active; 'I' for Inactive)
REMARK    1  A    between atoms: N2_5  and  O2_6 
REMARK    2  A    between atoms: C6_12  and  N3_13 
REMARK    3  A    between atoms: C8_15  and  C9_16 
REMARK       I    between atoms: C9_16  and  N4_18 
REMARK    4  A    between atoms: N4_18  and  N5_20 
REMARK    5  A    between atoms: N5_20  and  C10_22 
ROOT
HETATM    1  N3  UNL     1      -1.372   2.936  10.700  1.00  0.00    -0.234 N 
HETATM    2  C7  UNL     1      -2.253   3.491  11.544  1.00  0.00     0.156 A 
HETATM    3  C8  UNL     1      -3.076   2.532  12.076  1.00  0.00     0.136 A 
HETATM    4  N6  UNL     1      -2.666   1.383  11.526  1.00  0.00    -0.279 N 
ATOM      5  H6  UNL     1      -3.070   0.465  11.708  1.00  0.00     0.189 HD
HETATM    6  N7  UNL     1      -1.655   1.623  10.712  1.00  0.00    -0.234 N 
ATOM      7  H7  UNL     1      -1.161   0.914  10.170  1.00  0.00     0.209 HD
ENDROOT
BRANCH   1   8
HETATM    8  C6  UNL     1      -0.321   3.554   9.945  1.00  0.00     0.130 A 
HETATM    9  C5  UNL     1       0.876   3.933  10.548  1.00  0.00     0.071 A 
HETATM   10  C4  UNL     1       1.620   4.473   9.520  1.00  0.00     0.082 A 
HETATM   11  C3  UNL     1       2.889   5.009   9.539  1.00  0.00     0.289 A 
HETATM   12  C13 UNL     1       0.905   4.425   8.332  1.00  0.00     0.128 A 
HETATM   13  N2  UNL     1       3.399   5.475   8.382  1.00  0.00    -0.133 N 
HETATM   14  O3  UNL     1       3.550   5.059  10.612  1.00  0.00    -0.265 OA
HETATM   15  C2  UNL     1       2.681   5.419   7.224  1.00  0.00     0.357 A 
HETATM   16  N1  UNL     1       1.436   4.899   7.178  1.00  0.00    -0.287 N 
HETATM   17  O1  UNL     1       3.231   5.874   6.198  1.00  0.00    -0.244 OA
HETATM   18  C1  UNL     1       0.681   4.839   5.947  1.00  0.00     0.163 C 
HETATM   19  N8  UNL     1      -0.285   3.852   8.644  1.00  0.00    -0.326 N 
ATOM     20  H8  UNL     1      -1.041   3.674   7.982  1.00  0.00     0.169 HD
BRANCH  13  21
HETATM   21  O2  UNL     1       4.667   6.004   8.433  1.00  0.00    -0.276 OA
ATOM     22  H2  UNL     1       5.420   5.490   8.698  1.00  0.00     0.245 HD
ENDBRANCH  13  21
ENDBRANCH   1   8
BRANCH   3  23
HETATM   23  C9  UNL     1      -4.142   2.753  13.043  1.00  0.00     0.289 C 
HETATM   24  O4  UNL     1      -5.311   3.045  12.637  1.00  0.00    -0.264 OA
HETATM   25  N4  UNL     1      -3.891   2.641  14.430  1.00  0.00    -0.267 N 
ATOM     26  H4  UNL     1      -2.954   2.410  14.762  1.00  0.00     0.190 HD
BRANCH  25  27
HETATM   27  N5  UNL     1      -4.909   2.843  15.333  1.00  0.00    -0.302 N 
ATOM     28  H5  UNL     1      -5.600   3.582  15.206  1.00  0.00     0.183 HD
BRANCH  27  29
HETATM   29  C10 UNL     1      -4.948   1.975  16.442  1.00  0.00     0.271 C 
HETATM   30  O5  UNL     1      -5.574   0.751  16.170  1.00  0.00    -0.360 OA
HETATM   31  C11 UNL     1      -5.992   0.768  17.509  1.00  0.00     0.212 C 
HETATM   32  C12 UNL     1      -6.029   2.294  17.479  1.00  0.00     0.243 C 
HETATM   33  F1  UNL     1      -7.119   2.834  16.868  1.00  0.00    -0.242 F 
ENDBRANCH  27  29
ENDBRANCH  25  27
ENDBRANCH   3  23
TORSDOF 5
ENDMDL
MODEL 3
REMARK VINA RESULT: -7.914492390      1.039      1.086
REMARK  5 active torsions:
REMARK  status: ('A' for Active; 'I' for Inactive)
REMARK    1  A    between atoms: N2_5  and  O2_6 
REMARK    2  A    between atoms: C6_12  and  N3_13 
REMARK    3  A    between atoms: C8_15  and  C9_16 
REMARK       I    between atoms: C9_16  and  N4_18 
REMARK    4  A    between atoms: N4_18  and  N5_20 
REMARK    5  A    between atoms: N5_20  and  C10_22 
ROOT
HETATM    1  N3  UNL     1      -1.227   3.846  10.972  1.00  0.00    -0.234 N 
HETATM    2  C7  UNL     1      -1.728   2.921  11.802  1.00  0.00     0.156 A 
HETATM    3  C8  UNL     1      -3.097   2.892  11.716  1.00  0.00     0.136 A 
HETATM    4  N6  UNL     1      -3.404   3.828  10.811  1.00  0.00    -0.279 N 
ATOM      5  H6  UNL     1      -4.348   4.068  10.509  1.00  0.00     0.189 HD
HETATM    6  N7  UNL     1      -2.296   4.393  10.370  1.00  0.00    -0.234 N 
ATOM      7  H7  UNL     1      -2.257   5.136   9.672  1.00  0.00     0.209 HD
ENDROOT
BRANCH   1   8
HETATM    8  C6  UNL     1       0.141   4.199  10.721  1.00  0.00     0.130 A 
HETATM    9  C5  UNL     1       0.761   3.878   9.517  1.00  0.00     0.071 A 
HETATM   10  C4  UNL     1       2.040   4.377   9.648  1.00  0.00     0.082 A 
HETATM   11  C3  UNL     1       3.093   4.345   8.761  1.00  0.00     0.289 A 
HETATM   12  C13 UNL     1       2.196   4.981  10.888  1.00  0.00     0.128 A 
HETATM   13  N2  UNL     1       4.256   4.914   9.134  1.00  0.00    -0.133 N 
HETATM   14  O3  UNL     1       2.966   3.799   7.631  1.00  0.00    -0.265 OA
HETATM   15  C2  UNL     1       4.390   5.504  10.356  1.00  0.00     0.357 A 
HETATM   16  N1  UNL     1       3.374   5.549  11.244  1.00  0.00    -0.287 N 
HETATM   17  O1  UNL     1       5.503   6.007  10.620  1.00  0.00    -0.244 OA
HETATM   18  C1  UNL     1       3.520   6.179  12.537  1.00  0.00     0.163 C 
HETATM   19  N8  UNL     1       0.999   4.847  11.514  1.00  0.00    -0.326 N 
ATOM     20  H8  UNL     1       0.787   5.189  12.451  1.00  0.00     0.169 HD
BRANCH  13  21
HETATM   21  O2  UNL     1       5.288   4.866   8.227  1.00  0.00    -0.276 OA
ATOM     22  H2  UNL     1       5.961   4.197   8.260  1.00  0.00     0.245 HD
ENDBRANCH  13  21
ENDBRANCH   1   8
BRANCH   3  23
HETATM   23  C9  UNL     1      -3.986   2.006  12.453  1.00  0.00     0.289 C 
HETATM   24  O4  UNL     1      -4.846   1.311  11.825  1.00  0.00    -0.264 OA
HETATM   25  N4  UNL     1      -3.900   1.906  13.861  1.00  0.00    -0.267 N 
ATOM     26  H4  UNL     1      -3.214   2.464  14.370  1.00  0.00     0.190 HD
BRANCH  25  27
HETATM   27  N5  UNL     1      -4.740   1.058  14.544  1.00  0.00    -0.302 N 
ATOM     28  H5  UNL     1      -5.361   0.412  14.058  1.00  0.00     0.183 HD
BRANCH  27  29
HETATM   29  C10 UNL     1      -4.698   1.128  15.951  1.00  0.00     0.271 C 
HETATM   30  O5  UNL     1      -5.645   0.307  16.578  1.00  0.00    -0.360 OA
HETATM   31  C11 UNL     1      -5.689   1.279  17.588  1.00  0.00     0.212 C 
HETATM   32  C12 UNL     1      -5.368   2.362  16.561  1.00  0.00     0.243 C 
HETATM   33  F1  UNL     1      -6.418   2.755  15.788  1.00  0.00    -0.242 F 
ENDBRANCH  27  29
ENDBRANCH  25  27
ENDBRANCH   3  23
TORSDOF 5
ENDMDL
MODEL 4
REMARK VINA RESULT: -7.827176416      1.009      1.066
REMARK  5 active torsions:
REMARK  status: ('A' for Active; 'I' for Inactive)
REMARK    1  A    between atoms: N2_5  and  O2_6 
REMARK    2  A    between atoms: C6_12  and  N3_13 
REMARK    3  A    between atoms: C8_15  and  C9_16 
REMARK       I    between atoms: C9_16  and  N4_18 
REMARK    4  A    between atoms: N4_18  and  N5_20 
REMARK    5  A    between atoms: N5_20  and  C10_22 
ROOT
HETATM    1  N3  UNL     1      -1.032   3.707  11.564  1.00  0.00    -0.234 N 
HETATM    2  C7  UNL     1      -1.949   4.399  12.253  1.00  0.00     0.156 A 
HETATM    3  C8  UNL     1      -3.039   3.612  12.526  1.00  0.00     0.136 A 
HETATM    4  N6  UNL     1      -2.750   2.424  11.981  1.00  0.00    -0.279 N 
ATOM      5  H6  UNL     1      -3.354   1.604  12.001  1.00  0.00     0.189 HD
HETATM    6  N7  UNL     1      -1.560   2.481  11.411  1.00  0.00    -0.234 N 
ATOM      7  H7  UNL     1      -1.108   1.706  10.926  1.00  0.00     0.209 HD
ENDROOT
BRANCH   1   8
HETATM    8  C6  UNL     1       0.257   4.122  11.092  1.00  0.00     0.130 A 
HETATM    9  C5  UNL     1       0.692   3.807   9.807  1.00  0.00     0.071 A 
HETATM   10  C4  UNL     1       1.947   4.372   9.725  1.00  0.00     0.082 A 
HETATM   11  C3  UNL     1       2.845   4.375   8.679  1.00  0.00     0.289 A 
HETATM   12  C13 UNL     1       2.268   5.009  10.915  1.00  0.00     0.128 A 
HETATM   13  N2  UNL     1       4.021   5.009   8.853  1.00  0.00    -0.133 N 
HETATM   14  O3  UNL     1       2.567   3.800   7.591  1.00  0.00    -0.265 OA
HETATM   15  C2  UNL     1       4.318   5.630  10.030  1.00  0.00     0.357 A 
HETATM   16  N1  UNL     1       3.457   5.642  11.070  1.00  0.00    -0.287 N 
HETATM   17  O1  UNL     1       5.431   6.193  10.105  1.00  0.00    -0.244 OA
HETATM   18  C1  UNL     1       3.775   6.305  12.314  1.00  0.00     0.163 C 
HETATM   19  N8  UNL     1       1.196   4.828  11.727  1.00  0.00    -0.326 N 
ATOM     20  H8  UNL     1       1.119   5.178  12.682  1.00  0.00     0.169 HD
BRANCH  13  21
HETATM   21  O2  UNL     1       4.895   4.993   7.792  1.00  0.00    -0.276 OA
ATOM     22  H2  UNL     1       4.621   5.198   6.906  1.00  0.00     0.245 HD
ENDBRANCH  13  21
ENDBRANCH   1   8
BRANCH   3  23
HETATM   23  C9  UNL     1      -4.224   4.011  13.270  1.00  0.00     0.289 C 
HETATM   24  O4  UNL     1      -5.215   4.518  12.654  1.00  0.00    -0.264 OA
HETATM   25  N4  UNL     1      -4.288   3.837  14.673  1.00  0.00    -0.267 N 
ATOM     26  H4  UNL     1      -3.495   3.435  15.173  1.00  0.00     0.190 HD
BRANCH  25  27
HETATM   27  N5  UNL     1      -5.418   4.211  15.362  1.00  0.00    -0.302 N 
ATOM     28  H5  UNL     1      -5.619   5.188  15.574  1.00  0.00     0.183 HD
BRANCH  27  29
HETATM   29  C10 UNL     1      -6.284   3.173  15.761  1.00  0.00     0.271 C 
HETATM   30  O5  UNL     1      -6.920   3.418  16.986  1.00  0.00    -0.360 OA
HETATM   31  C11 UNL     1      -6.883   2.029  17.181  1.00  0.00     0.212 C 
HETATM   32  C12 UNL     1      -5.595   1.947  16.366  1.00  0.00     0.243 C 
HETATM   33  F1  UNL     1      -4.467   2.324  17.029  1.00  0.00    -0.242 F 
ENDBRANCH  27  29
ENDBRANCH  25  27
ENDBRANCH   3  23
TORSDOF 5
ENDMDL
MODEL 5
REMARK VINA RESULT: -7.813610120      1.712      2.593
REMARK  5 active torsions:
REMARK  status: ('A' for Active; 'I' for Inactive)
REMARK    1  A    between atoms: N2_5  and  O2_6 
REMARK    2  A    between atoms: C6_12  and  N3_13 
REMARK    3  A    between atoms: C8_15  and  C9_16 
REMARK       I    between atoms: C9_16  and  N4_18 
REMARK    4  A    between atoms: N4_18  and  N5_20 
REMARK    5  A    between atoms: N5_20  and  C10_22 
ROOT
HETATM    1  N3  UNL     1      -1.910   3.570  10.663  1.00  0.00    -0.234 N 
HETATM    2  C7  UNL     1      -2.147   2.657  11.614  1.00  0.00     0.156 A 
HETATM    3  C8  UNL     1      -3.463   2.693  11.997  1.00  0.00     0.136 A 
HETATM    4  N6  UNL     1      -4.012   3.658  11.248  1.00  0.00    -0.279 N 
ATOM      5  H6  UNL     1      -4.989   3.946  11.283  1.00  0.00     0.189 HD
HETATM    6  N7  UNL     1      -3.091   4.176  10.457  1.00  0.00    -0.234 N 
ATOM      7  H7  UNL     1      -3.254   4.927   9.787  1.00  0.00     0.209 HD
ENDROOT
BRANCH   1   8
HETATM    8  C6  UNL     1      -0.692   3.862   9.964  1.00  0.00     0.130 A 
HETATM    9  C5  UNL     1       0.483   4.157  10.651  1.00  0.00     0.071 A 
HETATM   10  C4  UNL     1       1.415   4.369   9.657  1.00  0.00     0.082 A 
HETATM   11  C3  UNL     1       2.750   4.696   9.757  1.00  0.00     0.289 A 
HETATM   12  C13 UNL     1       0.832   4.210   8.408  1.00  0.00     0.128 A 
HETATM   13  N2  UNL     1       3.454   4.848   8.618  1.00  0.00    -0.133 N 
HETATM   14  O3  UNL     1       3.293   4.844  10.885  1.00  0.00    -0.265 OA
HETATM   15  C2  UNL     1       2.863   4.686   7.399  1.00  0.00     0.357 A 
HETATM   16  N1  UNL     1       1.557   4.367   7.273  1.00  0.00    -0.287 N 
HETATM   17  O1  UNL     1       3.590   4.847   6.396  1.00  0.00    -0.244 OA
HETATM   18  C1  UNL     1       0.937   4.193   5.979  1.00  0.00     0.163 C 
HETATM   19  N8  UNL     1      -0.467   3.898   8.648  1.00  0.00    -0.326 N 
ATOM     20  H8  UNL     1      -1.168   3.718   7.929  1.00  0.00     0.169 HD
BRANCH  13  21
HETATM   21  O2  UNL     1       4.783   5.173   8.750  1.00  0.00    -0.276 OA
ATOM     22  H2  UNL     1       5.133   6.005   8.454  1.00  0.00     0.245 HD
ENDBRANCH  13  21
ENDBRANCH   1   8
BRANCH   3  23
HETATM   23  C9  UNL     1      -4.094   1.839  12.991  1.00  0.00     0.289 C 
HETATM   24  O4  UNL     1      -4.596   0.725  12.639  1.00  0.00    -0.264 OA
HETATM   25  N4  UNL     1      -4.151   2.233  14.349  1.00  0.00    -0.267 N 
ATOM     26  H4  UNL     1      -3.754   3.128  14.636  1.00  0.00     0.190 HD
BRANCH  25  27
HETATM   27  N5  UNL     1      -4.742   1.412  15.280  1.00  0.00    -0.302 N 
ATOM     28  H5  UNL     1      -5.048   0.468  15.046  1.00  0.00     0.183 HD
BRANCH  27  29
HETATM   29  C10 UNL     1      -4.903   1.943  16.576  1.00  0.00     0.271 C 
HETATM   30  O5  UNL     1      -5.023   0.961  17.569  1.00  0.00    -0.360 OA
HETATM   31  C11 UNL     1      -5.854   1.870  18.241  1.00  0.00     0.212 C 
HETATM   32  C12 UNL     1      -6.313   2.443  16.903  1.00  0.00     0.243 C 
HETATM   33  F1  UNL     1      -7.240   1.697  16.242  1.00  0.00    -0.242 F 
ENDBRANCH  27  29
ENDBRANCH  25  27
ENDBRANCH   3  23
TORSDOF 5
ENDMDL
