MODEL 1
REMARK VINA RESULT: -8.452952061      0.000      0.000
REMARK  4 active torsions:
REMARK  status: ('A' for Active; 'I' for Inactive)
REMARK    1  A    between atoms: O1_2  and  C2_3 
REMARK    2  A    between atoms: C2_3  and  C3_4 
REMARK    3  A    between atoms: N5_12  and  C4_13 
REMARK    4  A    between atoms: C9_24  and  C10_25 
ROOT
HETATM    1  C3  UNL     1      -0.691   4.097  10.386  1.00  0.00     0.068 A 
HETATM    2  N1  UNL     1      -0.157   5.222  10.912  1.00  0.00    -0.278 N 
ATOM      3  H1  UNL     1       0.619   5.732  10.489  1.00  0.00     0.189 HD
HETATM    4  N2  UNL     1      -0.741   5.581  12.013  1.00  0.00    -0.161 N 
HETATM    5  N3  UNL     1      -0.762   6.471  12.998  1.00  0.00    -0.204 N 
ATOM      6  H3  UNL     1      -0.143   7.277  13.083  1.00  0.00     0.212 HD
HETATM    7  N4  UNL     1      -1.704   6.148  13.838  1.00  0.00    -0.216 N 
ATOM      8  H4  UNL     1      -1.940   6.660  14.689  1.00  0.00     0.210 HD
HETATM    9  N5  UNL     1      -2.325   5.011  13.395  1.00  0.00    -0.203 N 
HETATM   10  C8  UNL     1      -1.726   4.668  12.267  1.00  0.00     0.186 A 
HETATM   11  C9  UNL     1      -1.707   3.704  11.226  1.00  0.00     0.077 A 
ENDROOT
BRANCH  11  12
HETATM   12  C10 UNL     1      -2.586   2.570  11.170  1.00  0.00     0.139 A 
HETATM   13  O4  UNL     1      -3.910   2.820  11.196  1.00  0.00    -0.257 OA
HETATM   14  C11 UNL     1      -4.827   1.909  11.156  1.00  0.00     0.371 A 
HETATM   15  O5  UNL     1      -6.036   2.246  11.186  1.00  0.00    -0.238 OA
HETATM   16  N8  UNL     1      -4.550   0.601  11.086  1.00  0.00    -0.286 N 
HETATM   17  C12 UNL     1      -3.272   0.243  11.058  1.00  0.00     0.145 A 
ATOM     18  H8  UNL     1      -5.294  -0.096  11.057  1.00  0.00     0.172 HD
HETATM   19  N9  UNL     1      -2.871  -0.976  10.989  1.00  0.00    -0.383 N 
HETATM   20  C13 UNL     1      -2.291   1.251  11.101  1.00  0.00     0.194 A 
ATOM     21  H92 UNL     1      -3.582  -1.707  10.957  1.00  0.00     0.157 HD
ATOM     22  H91 UNL     1      -1.888  -1.252  10.966  1.00  0.00     0.157 HD
HETATM   23  F1  UNL     1      -1.031   0.791  11.135  1.00  0.00    -0.199 F 
ENDBRANCH  11  12
BRANCH   1  24
HETATM   24  C2  UNL     1      -0.138   3.489   9.157  1.00  0.00     0.226 C 
BRANCH  24  25
HETATM   25  O1  UNL     1      -0.784   4.035   8.028  1.00  0.00    -0.390 OA
HETATM   26  C1  UNL     1       0.004   4.270   6.954  1.00  0.00     0.201 C 
ENDBRANCH  24  25
ENDBRANCH   1  24
BRANCH   9  27
HETATM   27  C4  UNL     1      -3.375   4.406  14.124  1.00  0.00     0.140 A 
HETATM   28  C5  UNL     1      -4.729   4.693  13.903  1.00  0.00     0.125 A 
HETATM   29  C6  UNL     1      -5.719   4.050  14.604  1.00  0.00     0.252 A 
HETATM   30  O2  UNL     1      -6.946   4.277  14.435  1.00  0.00    -0.268 OA
HETATM   31  N6  UNL     1      -5.401   3.118  15.530  1.00  0.00    -0.275 N 
HETATM   32  C7  UNL     1      -4.104   2.840  15.746  1.00  0.00     0.328 A 
ATOM     33  H6  UNL     1      -6.131   2.635  16.054  1.00  0.00     0.173 HD
HETATM   34  O3  UNL     1      -3.827   1.966  16.616  1.00  0.00    -0.247 OA
HETATM   35  N7  UNL     1      -3.130   3.469  15.059  1.00  0.00    -0.293 N 
ATOM     36  H7  UNL     1      -2.161   3.223  15.257  1.00  0.00     0.172 HD
ENDBRANCH   9  27
TORSDOF 4
ENDMDL
MODEL 2
REMARK VINA RESULT: -8.329430666      0.556      1.493
REMARK  4 active torsions:
REMARK  status: ('A' for Active; 'I' for Inactive)
REMARK    1  A    between atoms: O1_2  and  C2_3 
REMARK    2  A    between atoms: C2_3  and  C3_4 
REMARK    3  A    between atoms: N5_12  and  C4_13 
REMARK    4  A    between atoms: C9_24  and  C10_25 
ROOT
HETATM    1  C3  UNL     1      -0.622   4.037  10.643  1.00  0.00     0.068 A 
HETATM    2  N1  UNL     1      -0.088   5.123  11.246  1.00  0.00    -0.278 N 
ATOM      3  H1  UNL     1       0.728   5.622  10.893  1.00  0.00     0.189 HD
HETATM    4  N2  UNL     1      -0.729   5.458  12.323  1.00  0.00    -0.161 N 
HETATM    5  N3  UNL     1      -0.785   6.311  13.339  1.00  0.00    -0.204 N 
ATOM      6  H3  UNL     1      -0.147   7.091  13.495  1.00  0.00     0.212 HD
HETATM    7  N4  UNL     1      -1.786   5.988  14.106  1.00  0.00    -0.216 N 
ATOM      8  H4  UNL     1      -2.060   6.474  14.961  1.00  0.00     0.210 HD
HETATM    9  N5  UNL     1      -2.414   4.889  13.581  1.00  0.00    -0.203 N 
HETATM   10  C8  UNL     1      -1.755   4.569  12.478  1.00  0.00     0.186 A 
HETATM   11  C9  UNL     1      -1.702   3.646  11.402  1.00  0.00     0.077 A 
ENDROOT
BRANCH  11  12
HETATM   12  C10 UNL     1      -2.610   2.545  11.247  1.00  0.00     0.139 A 
HETATM   13  O4  UNL     1      -3.926   2.831  11.263  1.00  0.00    -0.257 OA
HETATM   14  C11 UNL     1      -4.867   1.953  11.139  1.00  0.00     0.371 A 
HETATM   15  O5  UNL     1      -6.067   2.323  11.167  1.00  0.00    -0.238 OA
HETATM   16  N8  UNL     1      -4.625   0.646  10.981  1.00  0.00    -0.286 N 
HETATM   17  C12 UNL     1      -3.357   0.254  10.953  1.00  0.00     0.145 A 
ATOM     18  H8  UNL     1      -5.388  -0.025  10.885  1.00  0.00     0.172 HD
HETATM   19  N9  UNL     1      -2.988  -0.969  10.805  1.00  0.00    -0.383 N 
HETATM   20  C13 UNL     1      -2.350   1.227  11.090  1.00  0.00     0.194 A 
ATOM     21  H92 UNL     1      -3.719  -1.675  10.707  1.00  0.00     0.157 HD
ATOM     22  H91 UNL     1      -2.014  -1.271  10.784  1.00  0.00     0.157 HD
HETATM   23  F1  UNL     1      -1.104   0.729  11.117  1.00  0.00    -0.199 F 
ENDBRANCH  11  12
BRANCH   1  24
HETATM   24  C2  UNL     1      -0.013   3.458   9.427  1.00  0.00     0.226 C 
BRANCH  24  25
HETATM   25  O1  UNL     1      -0.767   3.833   8.296  1.00  0.00    -0.390 OA
HETATM   26  C1  UNL     1      -0.054   4.199   7.206  1.00  0.00     0.201 C 
ENDBRANCH  24  25
ENDBRANCH   1  24
BRANCH   9  27
HETATM   27  C4  UNL     1      -3.526   4.293  14.218  1.00  0.00     0.140 A 
HETATM   28  C5  UNL     1      -3.411   3.422  15.310  1.00  0.00     0.125 A 
HETATM   29  C6  UNL     1      -4.520   2.899  15.927  1.00  0.00     0.252 A 
HETATM   30  O2  UNL     1      -4.461   2.116  16.910  1.00  0.00    -0.268 OA
HETATM   31  N6  UNL     1      -5.757   3.217  15.485  1.00  0.00    -0.275 N 
HETATM   32  C7  UNL     1      -5.873   4.051  14.437  1.00  0.00     0.328 A 
ATOM     33  H6  UNL     1      -6.587   2.833  15.938  1.00  0.00     0.173 HD
HETATM   34  O3  UNL     1      -7.038   4.336  14.039  1.00  0.00    -0.247 OA
HETATM   35  N7  UNL     1      -4.786   4.567  13.831  1.00  0.00    -0.293 N 
ATOM     36  H7  UNL     1      -4.925   5.196  13.040  1.00  0.00     0.172 HD
ENDBRANCH   9  27
TORSDOF 4
ENDMDL
MODEL 3
REMARK VINA RESULT: -8.181464746      2.611      5.708
REMARK  4 active torsions:
REMARK  status: ('A' for Active; 'I' for Inactive)
REMARK    1  A    between atoms: O1_2  and  C2_3 
REMARK    2  A    between atoms: C2_3  and  C3_4 
REMARK    3  A    between atoms: N5_12  and  C4_13 
REMARK    4  A    between atoms: C9_24  and  C10_25 
ROOT
HETATM    1  C3  UNL     1      -4.801   2.381  14.985  1.00  0.00     0.068 A 
HETATM    2  N1  UNL     1      -5.552   3.311  15.617  1.00  0.00    -0.278 N 
ATOM      3  H1  UNL     1      -6.034   3.145  16.500  1.00  0.00     0.189 HD
HETATM    4  N2  UNL     1      -5.592   4.436  14.974  1.00  0.00    -0.161 N 
HETATM    5  N3  UNL     1      -6.079   5.672  14.966  1.00  0.00    -0.204 N 
ATOM      6  H3  UNL     1      -6.681   6.077  15.682  1.00  0.00     0.212 HD
HETATM    7  N4  UNL     1      -5.662   6.282  13.893  1.00  0.00    -0.216 N 
ATOM      8  H4  UNL     1      -5.886   7.243  13.633  1.00  0.00     0.210 HD
HETATM    9  N5  UNL     1      -4.875   5.425  13.170  1.00  0.00    -0.203 N 
HETATM   10  C8  UNL     1      -4.835   4.288  13.846  1.00  0.00     0.186 A 
HETATM   11  C9  UNL     1      -4.316   2.968  13.839  1.00  0.00     0.077 A 
ENDROOT
BRANCH  11  12
HETATM   12  C10 UNL     1      -3.495   2.437  12.787  1.00  0.00     0.139 A 
HETATM   13  O4  UNL     1      -2.385   3.132  12.469  1.00  0.00    -0.257 OA
HETATM   14  C11 UNL     1      -1.547   2.789  11.546  1.00  0.00     0.371 A 
HETATM   15  O5  UNL     1      -0.540   3.506  11.326  1.00  0.00    -0.238 OA
HETATM   16  N8  UNL     1      -1.700   1.689  10.798  1.00  0.00    -0.286 N 
HETATM   17  C12 UNL     1      -2.765   0.931  11.029  1.00  0.00     0.145 A 
ATOM     18  H8  UNL     1      -1.022   1.443  10.077  1.00  0.00     0.172 HD
HETATM   19  N9  UNL     1      -3.027  -0.150  10.384  1.00  0.00    -0.383 N 
HETATM   20  C13 UNL     1      -3.663   1.324  12.038  1.00  0.00     0.194 A 
ATOM     21  H92 UNL     1      -2.376  -0.435   9.652  1.00  0.00     0.157 HD
ATOM     22  H91 UNL     1      -3.846  -0.734  10.561  1.00  0.00     0.157 HD
HETATM   23  F1  UNL     1      -4.741   0.533  12.152  1.00  0.00    -0.199 F 
ENDBRANCH  11  12
BRANCH   1  24
HETATM   24  C2  UNL     1      -4.664   1.011  15.524  1.00  0.00     0.226 C 
BRANCH  24  25
HETATM   25  O1  UNL     1      -4.671   1.054  16.933  1.00  0.00    -0.390 OA
HETATM   26  C1  UNL     1      -5.844   0.736  17.527  1.00  0.00     0.201 C 
ENDBRANCH  24  25
ENDBRANCH   1  24
BRANCH   9  27
HETATM   27  C4  UNL     1      -4.301   5.805  11.936  1.00  0.00     0.140 A 
HETATM   28  C5  UNL     1      -3.665   7.036  11.730  1.00  0.00     0.125 A 
HETATM   29  C6  UNL     1      -3.083   7.347  10.526  1.00  0.00     0.252 A 
HETATM   30  O2  UNL     1      -2.501   8.440  10.300  1.00  0.00    -0.268 OA
HETATM   31  N6  UNL     1      -3.115   6.461   9.506  1.00  0.00    -0.275 N 
HETATM   32  C7  UNL     1      -3.725   5.278   9.698  1.00  0.00     0.328 A 
ATOM     33  H6  UNL     1      -2.684   6.684   8.608  1.00  0.00     0.173 HD
HETATM   34  O3  UNL     1      -3.744   4.463   8.732  1.00  0.00    -0.247 OA
HETATM   35  N7  UNL     1      -4.296   4.970  10.879  1.00  0.00    -0.293 N 
ATOM     36  H7  UNL     1      -4.745   4.060  10.977  1.00  0.00     0.172 HD
ENDBRANCH   9  27
TORSDOF 4
ENDMDL
MODEL 4
REMARK VINA RESULT: -8.141481619      2.575      5.640
REMARK  4 active torsions:
REMARK  status: ('A' for Active; 'I' for Inactive)
REMARK    1  A    between atoms: O1_2  and  C2_3 
REMARK    2  A    between atoms: C2_3  and  C3_4 
REMARK    3  A    between atoms: N5_12  and  C4_13 
REMARK    4  A    between atoms: C9_24  and  C10_25 
ROOT
HETATM    1  C3  UNL     1      -4.757   2.434  14.867  1.00  0.00     0.068 A 
HETATM    2  N1  UNL     1      -5.482   3.413  15.452  1.00  0.00    -0.278 N 
ATOM      3  H1  UNL     1      -5.965   3.305  16.343  1.00  0.00     0.189 HD
HETATM    4  N2  UNL     1      -5.493   4.506  14.754  1.00  0.00    -0.161 N 
HETATM    5  N3  UNL     1      -5.947   5.753  14.684  1.00  0.00    -0.204 N 
ATOM      6  H3  UNL     1      -6.536   6.209  15.380  1.00  0.00     0.212 HD
HETATM    7  N4  UNL     1      -5.517   6.297  13.582  1.00  0.00    -0.216 N 
ATOM      8  H4  UNL     1      -5.716   7.249  13.274  1.00  0.00     0.210 HD
HETATM    9  N5  UNL     1      -4.755   5.384  12.902  1.00  0.00    -0.203 N 
HETATM   10  C8  UNL     1      -4.744   4.281  13.634  1.00  0.00     0.186 A 
HETATM   11  C9  UNL     1      -4.260   2.949  13.691  1.00  0.00     0.077 A 
ENDROOT
BRANCH  11  12
HETATM   12  C10 UNL     1      -3.456   2.345  12.667  1.00  0.00     0.139 A 
HETATM   13  O4  UNL     1      -2.309   2.972  12.341  1.00  0.00    -0.257 OA
HETATM   14  C11 UNL     1      -1.479   2.558  11.439  1.00  0.00     0.371 A 
HETATM   15  O5  UNL     1      -0.435   3.216  11.209  1.00  0.00    -0.238 OA
HETATM   16  N8  UNL     1      -1.681   1.445  10.723  1.00  0.00    -0.286 N 
HETATM   17  C12 UNL     1      -2.786   0.749  10.964  1.00  0.00     0.145 A 
ATOM     18  H8  UNL     1      -1.009   1.142  10.018  1.00  0.00     0.172 HD
HETATM   19  N9  UNL     1      -3.097  -0.337  10.350  1.00  0.00    -0.383 N 
HETATM   20  C13 UNL     1      -3.673   1.219  11.949  1.00  0.00     0.194 A 
ATOM     21  H92 UNL     1      -2.454  -0.677   9.635  1.00  0.00     0.157 HD
ATOM     22  H91 UNL     1      -3.946  -0.871  10.534  1.00  0.00     0.157 HD
HETATM   23  F1  UNL     1      -4.792   0.488  12.075  1.00  0.00    -0.199 F 
ENDBRANCH  11  12
BRANCH   1  24
HETATM   24  C2  UNL     1      -4.655   1.089  15.472  1.00  0.00     0.226 C 
BRANCH  24  25
HETATM   25  O1  UNL     1      -4.670   1.202  16.878  1.00  0.00    -0.390 OA
HETATM   26  C1  UNL     1      -5.800   0.780  17.492  1.00  0.00     0.201 C 
ENDBRANCH  24  25
ENDBRANCH   1  24
BRANCH   9  27
HETATM   27  C4  UNL     1      -4.175   5.686  11.649  1.00  0.00     0.140 A 
HETATM   28  C5  UNL     1      -4.925   5.881  10.481  1.00  0.00     0.125 A 
HETATM   29  C6  UNL     1      -4.324   6.216   9.293  1.00  0.00     0.252 A 
HETATM   30  O2  UNL     1      -4.961   6.401   8.223  1.00  0.00    -0.268 OA
HETATM   31  N6  UNL     1      -2.982   6.365   9.228  1.00  0.00    -0.275 N 
HETATM   32  C7  UNL     1      -2.258   6.178  10.345  1.00  0.00     0.328 A 
ATOM     33  H6  UNL     1      -2.528   6.614   8.349  1.00  0.00     0.173 HD
HETATM   34  O3  UNL     1      -1.005   6.322  10.264  1.00  0.00    -0.247 OA
HETATM   35  N7  UNL     1      -2.845   5.850  11.512  1.00  0.00    -0.293 N 
ATOM     36  H7  UNL     1      -2.254   5.721  12.333  1.00  0.00     0.172 HD
ENDBRANCH   9  27
TORSDOF 4
ENDMDL
MODEL 5
REMARK VINA RESULT: -7.977398121      2.653      5.124
REMARK  4 active torsions:
REMARK  status: ('A' for Active; 'I' for Inactive)
REMARK    1  A    between atoms: O1_2  and  C2_3 
REMARK    2  A    between atoms: C2_3  and  C3_4 
REMARK    3  A    between atoms: N5_12  and  C4_13 
REMARK    4  A    between atoms: C9_24  and  C10_25 
ROOT
HETATM    1  C3  UNL     1      -1.049   6.546  12.960  1.00  0.00     0.068 A 
HETATM    2  N1  UNL     1      -0.051   6.439  12.054  1.00  0.00    -0.278 N 
ATOM      3  H1  UNL     1       0.684   7.137  11.936  1.00  0.00     0.189 HD
HETATM    4  N2  UNL     1      -0.133   5.352  11.352  1.00  0.00    -0.161 N 
HETATM    5  N3  UNL     1       0.416   4.639  10.376  1.00  0.00    -0.204 N 
ATOM      6  H3  UNL     1       1.256   4.893   9.855  1.00  0.00     0.212 HD
HETATM    7  N4  UNL     1      -0.292   3.561  10.190  1.00  0.00    -0.216 N 
ATOM      8  H4  UNL     1      -0.097   2.835   9.500  1.00  0.00     0.210 HD
HETATM    9  N5  UNL     1      -1.341   3.561  11.072  1.00  0.00    -0.203 N 
HETATM   10  C8  UNL     1      -1.234   4.669  11.787  1.00  0.00     0.186 A 
HETATM   11  C9  UNL     1      -1.836   5.426  12.825  1.00  0.00     0.077 A 
ENDROOT
BRANCH  11  12
HETATM   12  C10 UNL     1      -3.038   5.034  13.506  1.00  0.00     0.139 A 
HETATM   13  O4  UNL     1      -2.994   3.889  14.215  1.00  0.00    -0.257 OA
HETATM   14  C11 UNL     1      -3.990   3.401  14.879  1.00  0.00     0.371 A 
HETATM   15  O5  UNL     1      -3.846   2.324  15.508  1.00  0.00    -0.238 OA
HETATM   16  N8  UNL     1      -5.189   3.994  14.930  1.00  0.00    -0.286 N 
HETATM   17  C12 UNL     1      -5.342   5.132  14.263  1.00  0.00     0.145 A 
ATOM     18  H8  UNL     1      -5.958   3.586  15.463  1.00  0.00     0.172 HD
HETATM   19  N9  UNL     1      -6.439   5.802  14.233  1.00  0.00    -0.383 N 
HETATM   20  C13 UNL     1      -4.245   5.644  13.548  1.00  0.00     0.194 A 
ATOM     21  H92 UNL     1      -7.235   5.430  14.751  1.00  0.00     0.157 HD
ATOM     22  H91 UNL     1      -6.558   6.676  13.720  1.00  0.00     0.157 HD
HETATM   23  F1  UNL     1      -4.514   6.759  12.853  1.00  0.00    -0.199 F 
ENDBRANCH  11  12
BRANCH   1  24
HETATM   24  C2  UNL     1      -1.171   7.736  13.829  1.00  0.00     0.226 C 
BRANCH  24  25
HETATM   25  O1  UNL     1      -2.103   8.635  13.271  1.00  0.00    -0.390 OA
HETATM   26  C1  UNL     1      -1.640   9.880  13.013  1.00  0.00     0.201 C 
ENDBRANCH  24  25
ENDBRANCH   1  24
BRANCH   9  27
HETATM   27  C4  UNL     1      -2.300   2.523  11.084  1.00  0.00     0.140 A 
HETATM   28  C5  UNL     1      -1.963   1.163  11.053  1.00  0.00     0.125 A 
HETATM   29  C6  UNL     1      -2.926   0.186  11.110  1.00  0.00     0.252 A 
HETATM   30  O2  UNL     1      -2.666  -1.045  11.086  1.00  0.00    -0.268 OA
HETATM   31  N6  UNL     1      -4.232   0.524  11.199  1.00  0.00    -0.275 N 
HETATM   32  C7  UNL     1      -4.561   1.827  11.228  1.00  0.00     0.328 A 
ATOM     33  H6  UNL     1      -4.954  -0.196  11.243  1.00  0.00     0.173 HD
HETATM   34  O3  UNL     1      -5.787   2.122  11.311  1.00  0.00    -0.247 OA
HETATM   35  N7  UNL     1      -3.618   2.787  11.173  1.00  0.00    -0.293 N 
ATOM     36  H7  UNL     1      -3.916   3.762  11.200  1.00  0.00     0.172 HD
ENDBRANCH   9  27
TORSDOF 4
ENDMDL
