MODEL 1
REMARK VINA RESULT: -7.509347437      0.000      0.000
REMARK  7 active torsions:
REMARK  status: ('A' for Active; 'I' for Inactive)
REMARK       I    between atoms: C2_2  and  N1_4 
REMARK    1  A    between atoms: N1_4  and  C3_6 
REMARK    2  A    between atoms: C4_9  and  N3_10 
REMARK    3  A    between atoms: N3_10  and  N4_12 
REMARK    4  A    between atoms: C6_19  and  N6_20 
REMARK    5  A    between atoms: C7_23  and  N7_24 
REMARK    6  A    between atoms: N7_24  and  N8_26 
REMARK    7  A    between atoms: C8_28  and  C9_29 
ROOT
HETATM    1  C3  UNL     1      -2.251   7.152  12.593  1.00  0.00     0.154 C 
HETATM    2  N2  UNL     1      -3.012   8.075  11.952  1.00  0.00    -0.173 N 
ATOM      3  H2  UNL     1      -2.670   9.033  12.023  1.00  0.00     0.186 HD
HETATM    4  C4  UNL     1      -4.161   7.930  11.228  1.00  0.00     0.701 C 
HETATM    5  N5  UNL     1      -4.745   6.764  10.820  1.00  0.00    -0.152 N 
ATOM      6  H5  UNL     1      -5.672   6.857  10.407  1.00  0.00     0.187 HD
HETATM    7  C5  UNL     1      -4.261   5.506  10.890  1.00  0.00     0.295 C 
HETATM    8  O2  UNL     1      -4.912   4.594  10.344  1.00  0.00    -0.265 OA
HETATM    9  C6  UNL     1      -3.079   5.069  11.513  1.00  0.00     0.202 C 
HETATM   10  C7  UNL     1      -2.469   5.774  12.530  1.00  0.00     0.131 C 
ENDROOT
BRANCH  10  11
HETATM   11  N7  UNL     1      -2.007   5.052  13.640  1.00  0.00    -0.295 N 
ATOM     12  H7  UNL     1      -1.048   5.242  13.930  1.00  0.00     0.187 HD
BRANCH  11  13
HETATM   13  N8  UNL     1      -2.694   4.111  14.393  1.00  0.00    -0.309 N 
HETATM   14  C8  UNL     1      -3.906   4.179  14.776  1.00  0.00     0.138 C 
ATOM     15  H8  UNL     1      -2.174   3.278  14.669  1.00  0.00     0.186 HD
BRANCH  14  16
HETATM   16  C9  UNL     1      -4.502   3.108  15.567  1.00  0.00     0.065 A 
HETATM   17  C10 UNL     1      -5.816   3.241  15.999  1.00  0.00     0.037 A 
HETATM   18  C11 UNL     1      -6.357   2.222  16.739  1.00  0.00     0.065 A 
HETATM   19  C12 UNL     1      -5.653   1.081  17.073  1.00  0.00     0.202 A 
HETATM   20  F1  UNL     1      -6.207   0.088  17.807  1.00  0.00    -0.185 F 
HETATM   21  N9  UNL     1      -4.370   1.016  16.619  1.00  0.00    -0.276 N 
HETATM   22  N10 UNL     1      -3.845   1.998  15.902  1.00  0.00    -0.297 N 
ATOM     23  H9  UNL     1      -3.804   0.195  16.834  1.00  0.00     0.189 HD
ATOM     24  H10 UNL     1      -2.880   1.898  15.587  1.00  0.00     0.187 HD
ENDBRANCH  14  16
ENDBRANCH  11  13
ENDBRANCH  10  11
BRANCH   1  25
HETATM   25  N1  UNL     1      -1.271   7.524  13.309  1.00  0.00    -0.311 N 
HETATM   26  C2  UNL     1      -1.375   8.778  13.971  1.00  0.00     0.219 C 
HETATM   27  C1  UNL     1      -1.972   8.831  15.343  1.00  0.00     0.117 C 
HETATM   28  O1  UNL     1      -0.993   9.867  13.472  1.00  0.00    -0.274 OA
ATOM     29  H1  UNL     1      -0.438   6.943  13.407  1.00  0.00     0.170 HD
ENDBRANCH   1  25
BRANCH   9  30
HETATM   30  N6  UNL     1      -2.469   3.904  11.055  1.00  0.00    -0.107 N 
HETATM   31  O3  UNL     1      -1.962   3.916   9.921  1.00  0.00    -0.531 OA
HETATM   32  O4  UNL     1      -2.404   2.763  11.777  1.00  0.00    -0.531 OA
ENDBRANCH   9  30
BRANCH   4  33
HETATM   33  N3  UNL     1      -4.743   9.024  10.904  1.00  0.00    -0.138 N 
ATOM     34  H3  UNL     1      -4.217   9.791  10.485  1.00  0.00     0.205 HD
BRANCH  33  35
HETATM   35  N4  UNL     1      -6.114   9.143  11.138  1.00  0.00    -0.331 N 
ATOM     36  H42 UNL     1      -6.656   8.321  11.406  1.00  0.00     0.177 HD
ATOM     37  H41 UNL     1      -6.546  10.060  11.034  1.00  0.00     0.177 HD
ENDBRANCH  33  35
ENDBRANCH   4  33
TORSDOF 7
ENDMDL
MODEL 2
REMARK VINA RESULT: -7.503083485      0.937      1.141
REMARK  7 active torsions:
REMARK  status: ('A' for Active; 'I' for Inactive)
REMARK       I    between atoms: C2_2  and  N1_4 
REMARK    1  A    between atoms: N1_4  and  C3_6 
REMARK    2  A    between atoms: C4_9  and  N3_10 
REMARK    3  A    between atoms: N3_10  and  N4_12 
REMARK    4  A    between atoms: C6_19  and  N6_20 
REMARK    5  A    between atoms: C7_23  and  N7_24 
REMARK    6  A    between atoms: N7_24  and  N8_26 
REMARK    7  A    between atoms: C8_28  and  C9_29 
ROOT
HETATM    1  C3  UNL     1      -2.212   6.692  11.942  1.00  0.00     0.154 C 
HETATM    2  N2  UNL     1      -2.929   7.424  11.051  1.00  0.00    -0.173 N 
ATOM      3  H2  UNL     1      -2.662   8.407  10.996  1.00  0.00     0.186 HD
HETATM    4  C4  UNL     1      -3.948   7.060  10.219  1.00  0.00     0.701 C 
HETATM    5  N5  UNL     1      -4.390   5.796   9.951  1.00  0.00    -0.152 N 
ATOM      6  H5  UNL     1      -5.252   5.736   9.409  1.00  0.00     0.187 HD
HETATM    7  C5  UNL     1      -3.843   4.615  10.306  1.00  0.00     0.295 C 
HETATM    8  O2  UNL     1      -4.348   3.570   9.850  1.00  0.00    -0.265 OA
HETATM    9  C6  UNL     1      -2.739   4.393  11.149  1.00  0.00     0.202 C 
HETATM   10  C7  UNL     1      -2.330   5.310  12.096  1.00  0.00     0.131 C 
ENDROOT
BRANCH  10  11
HETATM   11  N7  UNL     1      -1.990   4.826  13.368  1.00  0.00    -0.295 N 
ATOM     12  H7  UNL     1      -1.115   5.174  13.759  1.00  0.00     0.187 HD
BRANCH  11  13
HETATM   13  N8  UNL     1      -2.697   3.934  14.160  1.00  0.00    -0.309 N 
HETATM   14  C8  UNL     1      -3.841   4.122  14.685  1.00  0.00     0.138 C 
ATOM     15  H8  UNL     1      -2.254   3.033  14.341  1.00  0.00     0.186 HD
BRANCH  14  16
HETATM   16  C9  UNL     1      -4.470   3.088  15.499  1.00  0.00     0.065 A 
HETATM   17  C10 UNL     1      -5.792   3.254  15.895  1.00  0.00     0.037 A 
HETATM   18  C11 UNL     1      -6.364   2.271  16.659  1.00  0.00     0.065 A 
HETATM   19  C12 UNL     1      -5.684   1.132  17.049  1.00  0.00     0.202 A 
HETATM   20  F1  UNL     1      -6.269   0.173  17.804  1.00  0.00    -0.185 F 
HETATM   21  N9  UNL     1      -4.393   1.033  16.626  1.00  0.00    -0.276 N 
HETATM   22  N10 UNL     1      -3.838   1.982  15.888  1.00  0.00    -0.297 N 
ATOM     23  H9  UNL     1      -3.844   0.213  16.884  1.00  0.00     0.189 HD
ATOM     24  H10 UNL     1      -2.868   1.857  15.599  1.00  0.00     0.187 HD
ENDBRANCH  14  16
ENDBRANCH  11  13
ENDBRANCH  10  11
BRANCH   1  25
HETATM   25  N1  UNL     1      -1.372   7.263  12.704  1.00  0.00    -0.311 N 
HETATM   26  C2  UNL     1      -1.815   8.393  13.446  1.00  0.00     0.219 C 
HETATM   27  C1  UNL     1      -2.410   8.184  14.805  1.00  0.00     0.117 C 
HETATM   28  O1  UNL     1      -1.741   9.577  13.030  1.00  0.00    -0.274 OA
ATOM     29  H1  UNL     1      -0.413   6.924  12.781  1.00  0.00     0.170 HD
ENDBRANCH   1  25
BRANCH   9  30
HETATM   30  N6  UNL     1      -1.995   3.227  10.990  1.00  0.00    -0.107 N 
HETATM   31  O3  UNL     1      -2.123   2.331  11.840  1.00  0.00    -0.531 OA
HETATM   32  O4  UNL     1      -1.140   3.022   9.963  1.00  0.00    -0.531 OA
ENDBRANCH   9  30
BRANCH   4  33
HETATM   33  N3  UNL     1      -4.545   8.030   9.631  1.00  0.00    -0.138 N 
ATOM     34  H3  UNL     1      -4.272   8.996   9.811  1.00  0.00     0.205 HD
BRANCH  33  35
HETATM   35  N4  UNL     1      -5.577   7.732   8.740  1.00  0.00    -0.331 N 
ATOM     36  H42 UNL     1      -6.477   8.204   8.830  1.00  0.00     0.177 HD
ATOM     37  H41 UNL     1      -5.403   7.042   8.010  1.00  0.00     0.177 HD
ENDBRANCH  33  35
ENDBRANCH   4  33
TORSDOF 7
ENDMDL
MODEL 3
REMARK VINA RESULT: -7.280302447      1.940      2.654
REMARK  7 active torsions:
REMARK  status: ('A' for Active; 'I' for Inactive)
REMARK       I    between atoms: C2_2  and  N1_4 
REMARK    1  A    between atoms: N1_4  and  C3_6 
REMARK    2  A    between atoms: C4_9  and  N3_10 
REMARK    3  A    between atoms: N3_10  and  N4_12 
REMARK    4  A    between atoms: C6_19  and  N6_20 
REMARK    5  A    between atoms: C7_23  and  N7_24 
REMARK    6  A    between atoms: N7_24  and  N8_26 
REMARK    7  A    between atoms: C8_28  and  C9_29 
ROOT
HETATM    1  C3  UNL     1      -1.549   5.905  12.279  1.00  0.00     0.154 C 
HETATM    2  N2  UNL     1      -1.639   7.259  12.313  1.00  0.00    -0.173 N 
ATOM      3  H2  UNL     1      -0.752   7.742  12.452  1.00  0.00     0.186 HD
HETATM    4  C4  UNL     1      -2.724   8.080  12.193  1.00  0.00     0.701 C 
HETATM    5  N5  UNL     1      -3.993   7.731  11.829  1.00  0.00    -0.152 N 
ATOM      6  H5  UNL     1      -4.697   8.461  11.929  1.00  0.00     0.187 HD
HETATM    7  C5  UNL     1      -4.443   6.551  11.353  1.00  0.00     0.295 C 
HETATM    8  O2  UNL     1      -5.626   6.484  10.965  1.00  0.00    -0.265 OA
HETATM    9  C6  UNL     1      -3.733   5.343  11.228  1.00  0.00     0.202 C 
HETATM   10  C7  UNL     1      -2.617   5.055  11.986  1.00  0.00     0.131 C 
ENDROOT
BRANCH  10  11
HETATM   11  N7  UNL     1      -2.517   3.769  12.538  1.00  0.00    -0.295 N 
ATOM     12  H7  UNL     1      -1.712   3.217  12.243  1.00  0.00     0.187 HD
BRANCH  11  13
HETATM   13  N8  UNL     1      -3.377   3.156  13.438  1.00  0.00    -0.309 N 
HETATM   14  C8  UNL     1      -3.725   3.597  14.580  1.00  0.00     0.138 C 
ATOM     15  H8  UNL     1      -3.772   2.260  13.154  1.00  0.00     0.186 HD
BRANCH  14  16
HETATM   16  C9  UNL     1      -4.644   2.842  15.425  1.00  0.00     0.065 A 
HETATM   17  C10 UNL     1      -5.870   3.407  15.758  1.00  0.00     0.037 A 
HETATM   18  C11 UNL     1      -6.718   2.680  16.551  1.00  0.00     0.065 A 
HETATM   19  C12 UNL     1      -6.406   1.422  17.030  1.00  0.00     0.202 A 
HETATM   20  F1  UNL     1      -7.260   0.722  17.814  1.00  0.00    -0.185 F 
HETATM   21  N9  UNL     1      -5.190   0.929  16.665  1.00  0.00    -0.276 N 
HETATM   22  N10 UNL     1      -4.368   1.628  15.898  1.00  0.00    -0.297 N 
ATOM     23  H9  UNL     1      -4.907   0.003  16.989  1.00  0.00     0.189 HD
ATOM     24  H10 UNL     1      -3.469   1.211  15.655  1.00  0.00     0.187 HD
ENDBRANCH  14  16
ENDBRANCH  11  13
ENDBRANCH  10  11
BRANCH   1  25
HETATM   25  N1  UNL     1      -0.441   5.336  12.527  1.00  0.00    -0.311 N 
HETATM   26  C2  UNL     1       0.387   4.993  11.423  1.00  0.00     0.219 C 
HETATM   27  C1  UNL     1       1.388   5.991  10.926  1.00  0.00     0.117 C 
HETATM   28  O1  UNL     1       0.336   3.889  10.825  1.00  0.00    -0.274 OA
ATOM     29  H1  UNL     1      -0.156   5.132  13.485  1.00  0.00     0.170 HD
ENDBRANCH   1  25
BRANCH   9  30
HETATM   30  N6  UNL     1      -4.140   4.420  10.268  1.00  0.00    -0.107 N 
HETATM   31  O3  UNL     1      -3.765   4.591   9.097  1.00  0.00    -0.531 OA
HETATM   32  O4  UNL     1      -4.924   3.354  10.544  1.00  0.00    -0.531 OA
ENDBRANCH   9  30
BRANCH   4  33
HETATM   33  N3  UNL     1      -2.506   9.314  12.457  1.00  0.00    -0.138 N 
ATOM     34  H3  UNL     1      -2.932  10.051  11.897  1.00  0.00     0.205 HD
BRANCH  33  35
HETATM   35  N4  UNL     1      -1.670   9.626  13.531  1.00  0.00    -0.331 N 
ATOM     36  H42 UNL     1      -2.074   9.914  14.422  1.00  0.00     0.177 HD
ATOM     37  H41 UNL     1      -0.661   9.557  13.396  1.00  0.00     0.177 HD
ENDBRANCH  33  35
ENDBRANCH   4  33
TORSDOF 7
ENDMDL
MODEL 4
REMARK VINA RESULT: -7.220449698      3.395      6.692
REMARK  7 active torsions:
REMARK  status: ('A' for Active; 'I' for Inactive)
REMARK       I    between atoms: C2_2  and  N1_4 
REMARK    1  A    between atoms: N1_4  and  C3_6 
REMARK    2  A    between atoms: C4_9  and  N3_10 
REMARK    3  A    between atoms: N3_10  and  N4_12 
REMARK    4  A    between atoms: C6_19  and  N6_20 
REMARK    5  A    between atoms: C7_23  and  N7_24 
REMARK    6  A    between atoms: N7_24  and  N8_26 
REMARK    7  A    between atoms: C8_28  and  C9_29 
ROOT
HETATM    1  C3  UNL     1      -4.190   3.023  12.954  1.00  0.00     0.154 C 
HETATM    2  N2  UNL     1      -3.517   1.990  12.387  1.00  0.00    -0.173 N 
ATOM      3  H2  UNL     1      -3.765   1.070  12.750  1.00  0.00     0.186 HD
HETATM    4  C4  UNL     1      -2.563   1.980  11.410  1.00  0.00     0.701 C 
HETATM    5  N5  UNL     1      -2.167   3.027  10.626  1.00  0.00    -0.152 N 
ATOM      6  H5  UNL     1      -1.345   2.857  10.048  1.00  0.00     0.187 HD
HETATM    7  C5  UNL     1      -2.716   4.254  10.512  1.00  0.00     0.295 C 
HETATM    8  O2  UNL     1      -2.265   5.022   9.640  1.00  0.00    -0.265 OA
HETATM    9  C6  UNL     1      -3.767   4.804  11.268  1.00  0.00     0.202 C 
HETATM   10  C7  UNL     1      -4.092   4.350  12.530  1.00  0.00     0.131 C 
ENDROOT
BRANCH  10  11
HETATM   11  N7  UNL     1      -4.359   5.307  13.519  1.00  0.00    -0.295 N 
ATOM     12  H7  UNL     1      -5.207   5.161  14.066  1.00  0.00     0.187 HD
BRANCH  11  13
HETATM   13  N8  UNL     1      -3.610   6.428  13.847  1.00  0.00    -0.309 N 
HETATM   14  C8  UNL     1      -2.341   6.524  13.846  1.00  0.00     0.138 C 
ATOM     15  H8  UNL     1      -4.131   7.263  14.117  1.00  0.00     0.186 HD
BRANCH  14  16
HETATM   16  C9  UNL     1      -1.684   7.773  14.215  1.00  0.00     0.065 A 
HETATM   17  C10 UNL     1      -2.124   8.458  15.341  1.00  0.00     0.037 A 
HETATM   18  C11 UNL     1      -1.493   9.629  15.670  1.00  0.00     0.065 A 
HETATM   19  C12 UNL     1      -0.447  10.151  14.932  1.00  0.00     0.202 A 
HETATM   20  F1  UNL     1       0.161  11.311  15.276  1.00  0.00    -0.185 F 
HETATM   21  N9  UNL     1      -0.067   9.430  13.841  1.00  0.00    -0.276 N 
HETATM   22  N10 UNL     1      -0.674   8.297  13.521  1.00  0.00    -0.297 N 
ATOM     23  H9  UNL     1       0.700   9.768  13.261  1.00  0.00     0.189 HD
ATOM     24  H10 UNL     1      -0.350   7.797  12.694  1.00  0.00     0.187 HD
ENDBRANCH  14  16
ENDBRANCH  11  13
ENDBRANCH  10  11
BRANCH   1  25
HETATM   25  N1  UNL     1      -4.965   2.813  13.937  1.00  0.00    -0.311 N 
HETATM   26  C2  UNL     1      -4.545   1.874  14.920  1.00  0.00     0.219 C 
HETATM   27  C1  UNL     1      -3.734   2.352  16.085  1.00  0.00     0.117 C 
HETATM   28  O1  UNL     1      -4.814   0.647  14.876  1.00  0.00    -0.274 OA
ATOM     29  H1  UNL     1      -5.857   3.301  14.020  1.00  0.00     0.170 HD
ENDBRANCH   1  25
BRANCH   9  30
HETATM   30  N6  UNL     1      -4.545   5.812  10.704  1.00  0.00    -0.107 N 
HETATM   31  O3  UNL     1      -5.425   5.486   9.892  1.00  0.00    -0.531 OA
HETATM   32  O4  UNL     1      -4.388   7.124  10.992  1.00  0.00    -0.531 OA
ENDBRANCH   9  30
BRANCH   4  33
HETATM   33  N3  UNL     1      -1.985   0.853  11.223  1.00  0.00    -0.138 N 
ATOM     34  H3  UNL     1      -0.968   0.782  11.216  1.00  0.00     0.205 HD
BRANCH  33  35
HETATM   35  N4  UNL     1      -2.781  -0.278  11.029  1.00  0.00    -0.331 N 
ATOM     36  H42 UNL     1      -2.826  -0.996  11.752  1.00  0.00     0.177 HD
ATOM     37  H41 UNL     1      -3.304  -0.359  10.158  1.00  0.00     0.177 HD
ENDBRANCH  33  35
ENDBRANCH   4  33
TORSDOF 7
ENDMDL
MODEL 5
REMARK VINA RESULT: -7.086174022      2.969      3.430
REMARK  7 active torsions:
REMARK  status: ('A' for Active; 'I' for Inactive)
REMARK       I    between atoms: C2_2  and  N1_4 
REMARK    1  A    between atoms: N1_4  and  C3_6 
REMARK    2  A    between atoms: C4_9  and  N3_10 
REMARK    3  A    between atoms: N3_10  and  N4_12 
REMARK    4  A    between atoms: C6_19  and  N6_20 
REMARK    5  A    between atoms: C7_23  and  N7_24 
REMARK    6  A    between atoms: N7_24  and  N8_26 
REMARK    7  A    between atoms: C8_28  and  C9_29 
ROOT
HETATM    1  C3  UNL     1      -0.950   4.635  10.962  1.00  0.00     0.154 C 
HETATM    2  N2  UNL     1      -0.820   5.378   9.834  1.00  0.00    -0.173 N 
ATOM      3  H2  UNL     1       0.137   5.471   9.492  1.00  0.00     0.186 HD
HETATM    4  C4  UNL     1      -1.761   6.022   9.081  1.00  0.00     0.701 C 
HETATM    5  N5  UNL     1      -3.119   5.928   9.191  1.00  0.00    -0.152 N 
ATOM      6  H5  UNL     1      -3.653   6.590   8.630  1.00  0.00     0.187 HD
HETATM    7  C5  UNL     1      -3.850   5.078   9.941  1.00  0.00     0.295 C 
HETATM    8  O2  UNL     1      -5.088   5.082   9.799  1.00  0.00    -0.265 OA
HETATM    9  C6  UNL     1      -3.389   4.151  10.894  1.00  0.00     0.202 C 
HETATM   10  C7  UNL     1      -2.174   4.284  11.534  1.00  0.00     0.131 C 
ENDROOT
BRANCH  10  11
HETATM   11  N7  UNL     1      -2.134   4.047  12.916  1.00  0.00    -0.295 N 
ATOM     12  H7  UNL     1      -1.288   4.351  13.397  1.00  0.00     0.187 HD
BRANCH  11  13
HETATM   13  N8  UNL     1      -3.104   3.451  13.709  1.00  0.00    -0.309 N 
HETATM   14  C8  UNL     1      -3.615   3.927  14.774  1.00  0.00     0.138 C 
ATOM     15  H8  UNL     1      -3.443   2.538  13.408  1.00  0.00     0.186 HD
BRANCH  14  16
HETATM   16  C9  UNL     1      -4.633   3.186  15.510  1.00  0.00     0.065 A 
HETATM   17  C10 UNL     1      -4.308   1.944  16.043  1.00  0.00     0.037 A 
HETATM   18  C11 UNL     1      -5.279   1.266  16.732  1.00  0.00     0.065 A 
HETATM   19  C12 UNL     1      -6.556   1.762  16.914  1.00  0.00     0.202 A 
HETATM   20  F1  UNL     1      -7.500   1.073  17.598  1.00  0.00    -0.185 F 
HETATM   21  N9  UNL     1      -6.807   2.983  16.366  1.00  0.00    -0.276 N 
HETATM   22  N10 UNL     1      -5.871   3.642  15.700  1.00  0.00    -0.297 N 
ATOM     23  H9  UNL     1      -7.733   3.398  16.470  1.00  0.00     0.189 HD
ATOM     24  H10 UNL     1      -6.111   4.553  15.310  1.00  0.00     0.187 HD
ENDBRANCH  14  16
ENDBRANCH  11  13
ENDBRANCH  10  11
BRANCH   1  25
HETATM   25  N1  UNL     1       0.084   4.216  11.569  1.00  0.00    -0.311 N 
HETATM   26  C2  UNL     1       1.348   4.695  11.128  1.00  0.00     0.219 C 
HETATM   27  C1  UNL     1       1.905   5.947  11.733  1.00  0.00     0.117 C 
HETATM   28  O1  UNL     1       2.044   4.128  10.248  1.00  0.00    -0.274 OA
ATOM     29  H1  UNL     1       0.010   3.559  12.346  1.00  0.00     0.170 HD
ENDBRANCH   1  25
BRANCH   9  30
HETATM   30  N6  UNL     1      -4.164   3.028  11.169  1.00  0.00    -0.107 N 
HETATM   31  O3  UNL     1      -3.738   1.920  10.805  1.00  0.00    -0.531 OA
HETATM   32  O4  UNL     1      -5.357   3.081  11.805  1.00  0.00    -0.531 OA
ENDBRANCH   9  30
BRANCH   4  33
HETATM   33  N3  UNL     1      -1.295   6.797   8.174  1.00  0.00    -0.138 N 
ATOM     34  H3  UNL     1      -1.922   7.306   7.551  1.00  0.00     0.205 HD
BRANCH  33  35
HETATM   35  N4  UNL     1       0.089   6.928   8.058  1.00  0.00    -0.331 N 
ATOM     36  H42 UNL     1       0.494   7.299   7.198  1.00  0.00     0.177 HD
ATOM     37  H41 UNL     1       0.671   6.648   8.847  1.00  0.00     0.177 HD
ENDBRANCH  33  35
ENDBRANCH   4  33
TORSDOF 7
ENDMDL
