MODEL 1
REMARK VINA RESULT: -8.182058570      0.000      0.000
REMARK  7 active torsions:
REMARK  status: ('A' for Active; 'I' for Inactive)
REMARK    1  A    between atoms: S1_2  and  C2_3 
REMARK    2  A    between atoms: C2_3  and  C3_4 
REMARK    3  A    between atoms: C3_4  and  C4_6 
REMARK    4  A    between atoms: C4_6  and  O3_8 
REMARK    5  A    between atoms: O3_8  and  C5_9 
REMARK    6  A    between atoms: C9_15  and  O6_16 
REMARK    7  A    between atoms: C14_26  and  O9_27 
ROOT
HETATM    1  C5  UNL     1      15.912 -23.412  34.020  1.00  0.00     0.183 C 
HETATM    2  C6  UNL     1      16.461 -24.262  32.954  1.00  0.00     0.196 C 
HETATM    3  O4  UNL     1      17.914 -24.248  33.370  1.00  0.00    -0.305 OA
HETATM    4  C7  UNL     1      18.547 -22.953  33.248  1.00  0.00     0.294 C 
HETATM    5  O5  UNL     1      19.576 -22.422  33.523  1.00  0.00    -0.259 OA
HETATM    6  C8  UNL     1      17.586 -22.118  32.575  1.00  0.00     0.067 C 
HETATM    7  C9  UNL     1      17.947 -21.292  31.636  1.00  0.00     0.096 C 
HETATM    8  C10 UNL     1      16.925 -20.540  30.842  1.00  0.00     0.084 A 
HETATM    9  C11 UNL     1      15.745 -21.210  30.546  1.00  0.00     0.084 A 
HETATM   10  C12 UNL     1      14.946 -20.298  29.777  1.00  0.00     0.262 A 
HETATM   11  O7  UNL     1      13.814 -20.516  29.322  1.00  0.00    -0.267 OA
HETATM   12  N1  UNL     1      15.708 -19.071  29.627  1.00  0.00    -0.289 N 
ATOM     13  H1  UNL     1      15.411 -18.232  29.128  1.00  0.00     0.172 HD
HETATM   14  C13 UNL     1      16.966 -19.257  30.316  1.00  0.00     0.262 A 
HETATM   15  O8  UNL     1      17.971 -18.502  30.482  1.00  0.00    -0.267 OA
HETATM   16  C14 UNL     1      15.469 -22.639  30.890  1.00  0.00     0.088 C 
HETATM   17  C15 UNL     1      15.987 -23.375  31.916  1.00  0.00     0.002 C 
HETATM   18  C16 UNL     1      16.226 -22.298  33.132  1.00  0.00     0.050 C 
HETATM   19  C17 UNL     1      15.298 -21.179  33.215  1.00  0.00     0.029 C 
ENDROOT
BRANCH   1  20
HETATM   20  O3  UNL     1      14.541 -23.558  34.313  1.00  0.00    -0.305 OA
BRANCH  20  21
HETATM   21  C4  UNL     1      14.090 -23.614  35.622  1.00  0.00     0.330 C 
HETATM   22  O2  UNL     1      14.909 -23.303  36.525  1.00  0.00    -0.256 OA
BRANCH  21  23
HETATM   23  C3  UNL     1      12.757 -24.004  35.996  1.00  0.00     0.233 C 
HETATM   24  O1  UNL     1      12.487 -25.051  36.646  1.00  0.00    -0.286 OA
BRANCH  23  25
HETATM   25  C2  UNL     1      11.610 -23.148  35.609  1.00  0.00     0.163 C 
BRANCH  25  26
HETATM   26  S1  UNL     1      11.633 -21.549  36.432  1.00  0.00    -0.166 SA
HETATM   27  C1  UNL     1      12.318 -20.332  35.273  1.00  0.00     0.090 C 
ENDBRANCH  25  26
ENDBRANCH  23  25
ENDBRANCH  21  23
ENDBRANCH  20  21
ENDBRANCH   1  20
BRANCH  16  28
HETATM   28  O9  UNL     1      14.604 -23.339  30.111  1.00  0.00    -0.359 OA
ATOM     29  H9  UNL     1      13.678 -23.304  30.316  1.00  0.00     0.217 HD
ENDBRANCH  16  28
BRANCH   7  30
HETATM   30  O6  UNL     1      19.258 -21.178  31.355  1.00  0.00    -0.359 OA
ATOM     31  H6  UNL     1      19.720 -20.409  31.667  1.00  0.00     0.217 HD
ENDBRANCH   7  30
TORSDOF 7
ENDMDL
MODEL 2
REMARK VINA RESULT: -8.101515071      1.211      1.562
REMARK  7 active torsions:
REMARK  status: ('A' for Active; 'I' for Inactive)
REMARK    1  A    between atoms: S1_2  and  C2_3 
REMARK    2  A    between atoms: C2_3  and  C3_4 
REMARK    3  A    between atoms: C3_4  and  C4_6 
REMARK    4  A    between atoms: C4_6  and  O3_8 
REMARK    5  A    between atoms: O3_8  and  C5_9 
REMARK    6  A    between atoms: C9_15  and  O6_16 
REMARK    7  A    between atoms: C14_26  and  O9_27 
ROOT
HETATM    1  C5  UNL     1      15.899 -23.437  33.910  1.00  0.00     0.183 C 
HETATM    2  C6  UNL     1      16.481 -24.272  32.850  1.00  0.00     0.196 C 
HETATM    3  O4  UNL     1      17.920 -24.266  33.313  1.00  0.00    -0.305 OA
HETATM    4  C7  UNL     1      18.558 -22.970  33.231  1.00  0.00     0.294 C 
HETATM    5  O5  UNL     1      19.578 -22.444  33.546  1.00  0.00    -0.259 OA
HETATM    6  C8  UNL     1      17.620 -22.124  32.539  1.00  0.00     0.067 C 
HETATM    7  C9  UNL     1      18.012 -21.285  31.624  1.00  0.00     0.096 C 
HETATM    8  C10 UNL     1      17.017 -20.519  30.809  1.00  0.00     0.084 A 
HETATM    9  C11 UNL     1      15.846 -21.183  30.466  1.00  0.00     0.084 A 
HETATM   10  C12 UNL     1      15.073 -20.258  29.685  1.00  0.00     0.262 A 
HETATM   11  O7  UNL     1      13.956 -20.469  29.190  1.00  0.00    -0.267 OA
HETATM   12  N1  UNL     1      15.841 -19.031  29.578  1.00  0.00    -0.289 N 
ATOM     13  H1  UNL     1      15.560 -18.184  29.082  1.00  0.00     0.172 HD
HETATM   14  C13 UNL     1      17.076 -19.229  30.304  1.00  0.00     0.262 A 
HETATM   15  O8  UNL     1      18.076 -18.478  30.514  1.00  0.00    -0.267 OA
HETATM   16  C14 UNL     1      15.558 -22.616  30.779  1.00  0.00     0.088 C 
HETATM   17  C15 UNL     1      16.041 -23.369  31.811  1.00  0.00     0.002 C 
HETATM   18  C16 UNL     1      16.242 -22.310  33.049  1.00  0.00     0.050 C 
HETATM   19  C17 UNL     1      15.313 -21.191  33.119  1.00  0.00     0.029 C 
ENDROOT
BRANCH   1  20
HETATM   20  O3  UNL     1      14.519 -23.585  34.156  1.00  0.00    -0.305 OA
BRANCH  20  21
HETATM   21  C4  UNL     1      14.038 -23.778  35.441  1.00  0.00     0.330 C 
HETATM   22  O2  UNL     1      14.758 -23.375  36.391  1.00  0.00    -0.256 OA
BRANCH  21  23
HETATM   23  C3  UNL     1      12.778 -24.406  35.741  1.00  0.00     0.233 C 
HETATM   24  O1  UNL     1      12.537 -25.020  36.815  1.00  0.00    -0.286 OA
BRANCH  23  25
HETATM   25  C2  UNL     1      11.679 -24.348  34.748  1.00  0.00     0.163 C 
BRANCH  25  26
HETATM   26  S1  UNL     1      10.473 -25.663  34.974  1.00  0.00    -0.166 SA
HETATM   27  C1  UNL     1      10.106 -26.372  33.344  1.00  0.00     0.090 C 
ENDBRANCH  25  26
ENDBRANCH  23  25
ENDBRANCH  21  23
ENDBRANCH  20  21
ENDBRANCH   1  20
BRANCH  16  28
HETATM   28  O9  UNL     1      14.718 -23.304  29.963  1.00  0.00    -0.359 OA
ATOM     29  H9  UNL     1      14.907 -23.329  29.033  1.00  0.00     0.217 HD
ENDBRANCH  16  28
BRANCH   7  30
HETATM   30  O6  UNL     1      19.331 -21.168  31.388  1.00  0.00    -0.359 OA
ATOM     31  H6  UNL     1      19.838 -20.585  31.940  1.00  0.00     0.217 HD
ENDBRANCH   7  30
TORSDOF 7
ENDMDL
MODEL 3
REMARK VINA RESULT: -8.065448006      3.146      6.392
REMARK  7 active torsions:
REMARK  status: ('A' for Active; 'I' for Inactive)
REMARK    1  A    between atoms: S1_2  and  C2_3 
REMARK    2  A    between atoms: C2_3  and  C3_4 
REMARK    3  A    between atoms: C3_4  and  C4_6 
REMARK    4  A    between atoms: C4_6  and  O3_8 
REMARK    5  A    between atoms: O3_8  and  C5_9 
REMARK    6  A    between atoms: C9_15  and  O6_16 
REMARK    7  A    between atoms: C14_26  and  O9_27 
ROOT
HETATM    1  C5  UNL     1      16.734 -20.567  30.248  1.00  0.00     0.183 C 
HETATM    2  C6  UNL     1      17.318 -19.740  31.313  1.00  0.00     0.196 C 
HETATM    3  O4  UNL     1      18.759 -20.174  31.180  1.00  0.00    -0.305 OA
HETATM    4  C7  UNL     1      18.993 -21.555  31.540  1.00  0.00     0.294 C 
HETATM    5  O5  UNL     1      19.870 -22.359  31.515  1.00  0.00    -0.259 OA
HETATM    6  C8  UNL     1      17.749 -22.021  32.098  1.00  0.00     0.067 C 
HETATM    7  C9  UNL     1      17.723 -22.770  33.162  1.00  0.00     0.096 C 
HETATM    8  C10 UNL     1      16.425 -23.125  33.818  1.00  0.00     0.084 A 
HETATM    9  C11 UNL     1      15.438 -22.147  33.821  1.00  0.00     0.084 A 
HETATM   10  C12 UNL     1      14.313 -22.714  34.510  1.00  0.00     0.262 A 
HETATM   11  O7  UNL     1      13.225 -22.159  34.722  1.00  0.00    -0.267 OA
HETATM   12  N1  UNL     1      14.682 -24.058  34.916  1.00  0.00    -0.289 N 
ATOM     13  H1  UNL     1      14.096 -24.718  35.428  1.00  0.00     0.172 HD
HETATM   14  C13 UNL     1      16.036 -24.290  34.461  1.00  0.00     0.262 A 
HETATM   15  O8  UNL     1      16.813 -25.287  34.559  1.00  0.00    -0.267 OA
HETATM   16  C14 UNL     1      15.615 -20.758  33.299  1.00  0.00     0.088 C 
HETATM   17  C15 UNL     1      16.466 -20.325  32.322  1.00  0.00     0.002 C 
HETATM   18  C16 UNL     1      16.592 -21.588  31.281  1.00  0.00     0.050 C 
HETATM   19  C17 UNL     1      15.422 -22.441  31.132  1.00  0.00     0.029 C 
ENDROOT
BRANCH   1  20
HETATM   20  O3  UNL     1      15.515 -20.127  29.691  1.00  0.00    -0.305 OA
BRANCH  20  21
HETATM   21  C4  UNL     1      15.495 -19.287  28.589  1.00  0.00     0.330 C 
HETATM   22  O2  UNL     1      15.137 -18.096  28.781  1.00  0.00    -0.256 OA
BRANCH  21  23
HETATM   23  C3  UNL     1      15.855 -19.700  27.259  1.00  0.00     0.233 C 
HETATM   24  O1  UNL     1      17.040 -19.721  26.826  1.00  0.00    -0.286 OA
BRANCH  23  25
HETATM   25  C2  UNL     1      14.796 -20.129  26.315  1.00  0.00     0.163 C 
BRANCH  25  26
HETATM   26  S1  UNL     1      14.945 -21.860  25.850  1.00  0.00    -0.166 SA
HETATM   27  C1  UNL     1      14.996 -22.847  27.371  1.00  0.00     0.090 C 
ENDBRANCH  25  26
ENDBRANCH  23  25
ENDBRANCH  21  23
ENDBRANCH  20  21
ENDBRANCH   1  20
BRANCH  16  28
HETATM   28  O9  UNL     1      14.861 -19.762  33.831  1.00  0.00    -0.359 OA
ATOM     29  H9  UNL     1      15.193 -19.296  34.588  1.00  0.00     0.217 HD
ENDBRANCH  16  28
BRANCH   7  30
HETATM   30  O6  UNL     1      18.893 -23.166  33.693  1.00  0.00    -0.359 OA
ATOM     31  H6  UNL     1      19.143 -22.821  34.542  1.00  0.00     0.217 HD
ENDBRANCH   7  30
TORSDOF 7
ENDMDL
MODEL 4
REMARK VINA RESULT: -8.048961396      3.499      6.838
REMARK  7 active torsions:
REMARK  status: ('A' for Active; 'I' for Inactive)
REMARK    1  A    between atoms: S1_2  and  C2_3 
REMARK    2  A    between atoms: C2_3  and  C3_4 
REMARK    3  A    between atoms: C3_4  and  C4_6 
REMARK    4  A    between atoms: C4_6  and  O3_8 
REMARK    5  A    between atoms: O3_8  and  C5_9 
REMARK    6  A    between atoms: C9_15  and  O6_16 
REMARK    7  A    between atoms: C14_26  and  O9_27 
ROOT
HETATM    1  C5  UNL     1      17.024 -20.344  30.238  1.00  0.00     0.183 C 
HETATM    2  C6  UNL     1      17.601 -19.627  31.383  1.00  0.00     0.196 C 
HETATM    3  O4  UNL     1      19.015 -20.152  31.297  1.00  0.00    -0.305 OA
HETATM    4  C7  UNL     1      19.135 -21.566  31.579  1.00  0.00     0.294 C 
HETATM    5  O5  UNL     1      19.956 -22.427  31.548  1.00  0.00    -0.259 OA
HETATM    6  C8  UNL     1      17.834 -21.976  32.040  1.00  0.00     0.067 C 
HETATM    7  C9  UNL     1      17.697 -22.786  33.050  1.00  0.00     0.096 C 
HETATM    8  C10 UNL     1      16.343 -23.088  33.613  1.00  0.00     0.084 A 
HETATM    9  C11 UNL     1      15.425 -22.045  33.629  1.00  0.00     0.084 A 
HETATM   10  C12 UNL     1      14.227 -22.573  34.220  1.00  0.00     0.262 A 
HETATM   11  O7  UNL     1      13.169 -21.956  34.410  1.00  0.00    -0.267 OA
HETATM   12  N1  UNL     1      14.482 -23.962  34.556  1.00  0.00    -0.289 N 
ATOM     13  H1  UNL     1      13.825 -24.608  34.993  1.00  0.00     0.172 HD
HETATM   14  C13 UNL     1      15.841 -24.260  34.158  1.00  0.00     0.262 A 
HETATM   15  O8  UNL     1      16.543 -25.313  34.231  1.00  0.00    -0.267 OA
HETATM   16  C14 UNL     1      15.724 -20.642  33.207  1.00  0.00     0.088 C 
HETATM   17  C15 UNL     1      16.656 -20.212  32.307  1.00  0.00     0.002 C 
HETATM   18  C16 UNL     1      16.756 -21.414  31.193  1.00  0.00     0.050 C 
HETATM   19  C17 UNL     1      15.541 -22.172  30.928  1.00  0.00     0.029 C 
ENDROOT
BRANCH   1  20
HETATM   20  O3  UNL     1      15.871 -19.787  29.648  1.00  0.00    -0.305 OA
BRANCH  20  21
HETATM   21  C4  UNL     1      15.968 -18.887  28.598  1.00  0.00     0.330 C 
HETATM   22  O2  UNL     1      15.009 -18.090  28.433  1.00  0.00    -0.256 OA
BRANCH  21  23
HETATM   23  C3  UNL     1      17.092 -18.819  27.702  1.00  0.00     0.233 C 
HETATM   24  O1  UNL     1      17.240 -19.573  26.701  1.00  0.00    -0.286 OA
BRANCH  23  25
HETATM   25  C2  UNL     1      18.157 -17.817  27.941  1.00  0.00     0.163 C 
BRANCH  25  26
HETATM   26  S1  UNL     1      19.442 -17.859  26.683  1.00  0.00    -0.166 SA
HETATM   27  C1  UNL     1      20.576 -16.477  26.993  1.00  0.00     0.090 C 
ENDBRANCH  25  26
ENDBRANCH  23  25
ENDBRANCH  21  23
ENDBRANCH  20  21
ENDBRANCH   1  20
BRANCH  16  28
HETATM   28  O9  UNL     1      15.009 -19.630  33.763  1.00  0.00    -0.359 OA
ATOM     29  H9  UNL     1      15.469 -18.977  34.276  1.00  0.00     0.217 HD
ENDBRANCH  16  28
BRANCH   7  30
HETATM   30  O6  UNL     1      18.806 -23.295  33.614  1.00  0.00    -0.359 OA
ATOM     31  H6  UNL     1      18.890 -23.256  34.560  1.00  0.00     0.217 HD
ENDBRANCH   7  30
TORSDOF 7
ENDMDL
MODEL 5
REMARK VINA RESULT: -8.039730426      2.209      4.244
REMARK  7 active torsions:
REMARK  status: ('A' for Active; 'I' for Inactive)
REMARK    1  A    between atoms: S1_2  and  C2_3 
REMARK    2  A    between atoms: C2_3  and  C3_4 
REMARK    3  A    between atoms: C3_4  and  C4_6 
REMARK    4  A    between atoms: C4_6  and  O3_8 
REMARK    5  A    between atoms: O3_8  and  C5_9 
REMARK    6  A    between atoms: C9_15  and  O6_16 
REMARK    7  A    between atoms: C14_26  and  O9_27 
ROOT
HETATM    1  C5  UNL     1      14.775 -22.939  31.909  1.00  0.00     0.183 C 
HETATM    2  C6  UNL     1      13.790 -21.922  32.305  1.00  0.00     0.196 C 
HETATM    3  O4  UNL     1      12.580 -22.481  31.592  1.00  0.00    -0.305 OA
HETATM    4  C7  UNL     1      12.676 -22.438  30.149  1.00  0.00     0.294 C 
HETATM    5  O5  UNL     1      12.080 -22.819  29.193  1.00  0.00    -0.259 OA
HETATM    6  C8  UNL     1      13.870 -21.682  29.867  1.00  0.00     0.067 C 
HETATM    7  C9  UNL     1      13.899 -20.794  28.916  1.00  0.00     0.096 C 
HETATM    8  C10 UNL     1      15.094 -19.911  28.729  1.00  0.00     0.084 A 
HETATM    9  C11 UNL     1      15.750 -19.492  29.880  1.00  0.00     0.084 A 
HETATM   10  C12 UNL     1      16.834 -18.659  29.444  1.00  0.00     0.262 A 
HETATM   11  O7  UNL     1      17.662 -18.091  30.171  1.00  0.00    -0.267 OA
HETATM   12  N1  UNL     1      16.784 -18.600  27.994  1.00  0.00    -0.289 N 
ATOM     13  H1  UNL     1      17.422 -18.084  27.388  1.00  0.00     0.172 HD
HETATM   14  C13 UNL     1      15.662 -19.408  27.568  1.00  0.00     0.262 A 
HETATM   15  O8  UNL     1      15.190 -19.682  26.424  1.00  0.00    -0.267 OA
HETATM   16  C14 UNL     1      15.295 -19.789  31.273  1.00  0.00     0.088 C 
HETATM   17  C15 UNL     1      14.562 -20.853  31.713  1.00  0.00     0.002 C 
HETATM   18  C16 UNL     1      14.994 -22.100  30.736  1.00  0.00     0.050 C 
HETATM   19  C17 UNL     1      16.362 -22.104  30.237  1.00  0.00     0.029 C 
ENDROOT
BRANCH   1  20
HETATM   20  O3  UNL     1      15.905 -23.092  32.737  1.00  0.00    -0.305 OA
BRANCH  20  21
HETATM   21  C4  UNL     1      16.120 -24.264  33.445  1.00  0.00     0.330 C 
HETATM   22  O2  UNL     1      16.366 -25.302  32.777  1.00  0.00    -0.256 OA
BRANCH  21  23
HETATM   23  C3  UNL     1      16.077 -24.354  34.880  1.00  0.00     0.233 C 
HETATM   24  O1  UNL     1      16.719 -25.207  35.551  1.00  0.00    -0.286 OA
BRANCH  23  25
HETATM   25  C2  UNL     1      15.236 -23.404  35.646  1.00  0.00     0.163 C 
BRANCH  25  26
HETATM   26  S1  UNL     1      13.479 -23.768  35.507  1.00  0.00    -0.166 SA
HETATM   27  C1  UNL     1      12.586 -22.649  36.622  1.00  0.00     0.090 C 
ENDBRANCH  25  26
ENDBRANCH  23  25
ENDBRANCH  21  23
ENDBRANCH  20  21
ENDBRANCH   1  20
BRANCH  16  28
HETATM   28  O9  UNL     1      15.625 -18.921  32.263  1.00  0.00    -0.359 OA
ATOM     29  H9  UNL     1      15.488 -19.186  33.164  1.00  0.00     0.217 HD
ENDBRANCH  16  28
BRANCH   7  30
HETATM   30  O6  UNL     1      12.807 -20.646  28.146  1.00  0.00    -0.359 OA
ATOM     31  H6  UNL     1      12.629 -21.304  27.484  1.00  0.00     0.217 HD
ENDBRANCH   7  30
TORSDOF 7
ENDMDL
