MODEL 1
REMARK VINA RESULT: -7.617067884      0.000      0.000
REMARK  8 active torsions:
REMARK  status: ('A' for Active; 'I' for Inactive)
REMARK    1  A    between atoms: N1_2  and  C2_4 
REMARK    2  A    between atoms: C3_7  and  C4_8 
REMARK    3  A    between atoms: C6_12  and  C7_13 
REMARK    4  A    between atoms: C8_14  and  C9_15 
REMARK    5  A    between atoms: C9_15  and  N4_16 
REMARK    6  A    between atoms: N4_16  and  O1_19 
REMARK    7  A    between atoms: O1_19  and  C11_20 
REMARK    8  A    between atoms: C16_30  and  N7_31 
ROOT
HETATM    1  N4  UNL     1      16.137 -22.571  33.900  1.00  0.00    -0.149 N 
HETATM    2  C10 UNL     1      16.381 -23.859  34.359  1.00  0.00     0.208 C 
HETATM    3  N5  UNL     1      16.574 -24.944  34.761  1.00  0.00    -0.170 NA
ENDROOT
BRANCH   1   4
HETATM    4  C9  UNL     1      16.924 -22.037  32.822  1.00  0.00     0.307 A 
HETATM    5  C14 UNL     1      17.067 -20.574  32.820  1.00  0.00     0.321 A 
HETATM    6  O2  UNL     1      16.295 -19.603  32.703  1.00  0.00    -0.260 OA
HETATM    7  O3  UNL     1      18.422 -20.736  33.004  1.00  0.00    -0.238 OA
HETATM    8  C15 UNL     1      18.391 -22.120  33.020  1.00  0.00     0.321 A 
HETATM    9  O4  UNL     1      19.246 -23.011  33.149  1.00  0.00    -0.260 OA
BRANCH   4  10
HETATM   10  C8  UNL     1      16.579 -22.619  31.522  1.00  0.00    -0.043 C 
HETATM   11  C7  UNL     1      16.315 -23.095  30.450  1.00  0.00    -0.044 C 
BRANCH  11  12
HETATM   12  C6  UNL     1      16.023 -23.673  29.175  1.00  0.00     0.103 A 
HETATM   13  C5  UNL     1      15.506 -22.823  28.201  1.00  0.00     0.127 A 
HETATM   14  N3  UNL     1      15.241 -23.368  27.031  1.00  0.00    -0.358 N 
HETATM   15  C4  UNL     1      15.426 -24.676  26.694  1.00  0.00     0.103 A 
ATOM     16  H3  UNL     1      14.861 -22.754  26.310  1.00  0.00     0.165 HD
HETATM   17  C16 UNL     1      15.933 -25.491  27.663  1.00  0.00     0.129 A 
HETATM   18  N6  UNL     1      16.220 -24.958  28.890  1.00  0.00    -0.333 N 
ATOM     19  H6  UNL     1      16.599 -25.569  29.613  1.00  0.00     0.168 HD
BRANCH  15  20
HETATM   20  C3  UNL     1      15.074 -25.141  25.314  1.00  0.00     0.071 A 
HETATM   21  N2  UNL     1      15.899 -25.366  24.331  1.00  0.00    -0.334 N 
HETATM   22  C2  UNL     1      15.405 -25.783  23.154  1.00  0.00     0.144 A 
ATOM     23  H2  UNL     1      16.902 -25.228  24.453  1.00  0.00     0.168 HD
HETATM   24  S1  UNL     1      13.733 -25.865  23.422  1.00  0.00    -0.064 SA
HETATM   25  C17 UNL     1      13.727 -25.359  25.043  1.00  0.00     0.085 A 
BRANCH  22  26
HETATM   26  N1  UNL     1      16.087 -26.058  22.058  1.00  0.00    -0.375 N 
HETATM   27  C1  UNL     1      17.151 -25.226  21.611  1.00  0.00     0.148 C 
ATOM     28  H1  UNL     1      15.846 -26.889  21.518  1.00  0.00     0.161 HD
ENDBRANCH  22  26
ENDBRANCH  15  20
BRANCH  17  29
HETATM   29  N7  UNL     1      16.156 -26.748  27.471  1.00  0.00    -0.384 N 
ATOM     30  H72 UNL     1      15.357 -27.371  27.354  1.00  0.00     0.157 HD
ATOM     31  H71 UNL     1      17.096 -27.143  27.433  1.00  0.00     0.157 HD
ENDBRANCH  17  29
ENDBRANCH  11  12
ENDBRANCH   4  10
ENDBRANCH   1   4
BRANCH   1  32
HETATM   32  O1  UNL     1      15.176 -21.816  34.450  1.00  0.00    -0.261 OA
BRANCH  32  33
HETATM   33  C11 UNL     1      13.912 -22.341  34.350  1.00  0.00     0.145 C 
HETATM   34  C12 UNL     1      13.112 -21.881  35.562  1.00  0.00     0.042 C 
HETATM   35  C13 UNL     1      13.230 -21.724  33.132  1.00  0.00     0.042 C 
ENDBRANCH  32  33
ENDBRANCH   1  32
TORSDOF 8
ENDMDL
MODEL 2
REMARK VINA RESULT: -7.530116618      9.658     13.911
REMARK  8 active torsions:
REMARK  status: ('A' for Active; 'I' for Inactive)
REMARK    1  A    between atoms: N1_2  and  C2_4 
REMARK    2  A    between atoms: C3_7  and  C4_8 
REMARK    3  A    between atoms: C6_12  and  C7_13 
REMARK    4  A    between atoms: C8_14  and  C9_15 
REMARK    5  A    between atoms: C9_15  and  N4_16 
REMARK    6  A    between atoms: N4_16  and  O1_19 
REMARK    7  A    between atoms: O1_19  and  C11_20 
REMARK    8  A    between atoms: C16_30  and  N7_31 
ROOT
HETATM    1  N4  UNL     1      15.611 -27.960  16.712  1.00  0.00    -0.149 N 
HETATM    2  C10 UNL     1      16.500 -27.318  15.862  1.00  0.00     0.208 C 
HETATM    3  N5  UNL     1      17.239 -26.774  15.129  1.00  0.00    -0.170 NA
ENDROOT
BRANCH   1   4
HETATM    4  C9  UNL     1      16.063 -28.433  17.993  1.00  0.00     0.307 A 
HETATM    5  C14 UNL     1      15.049 -29.140  18.789  1.00  0.00     0.321 A 
HETATM    6  O2  UNL     1      13.960 -28.840  19.314  1.00  0.00    -0.260 OA
HETATM    7  O3  UNL     1      15.820 -30.277  18.707  1.00  0.00    -0.238 OA
HETATM    8  C15 UNL     1      16.829 -29.702  17.953  1.00  0.00     0.321 A 
HETATM    9  O4  UNL     1      17.899 -30.108  17.471  1.00  0.00    -0.260 OA
BRANCH   4  10
HETATM   10  C8  UNL     1      16.831 -27.429  18.732  1.00  0.00    -0.043 C 
HETATM   11  C7  UNL     1      17.448 -26.605  19.354  1.00  0.00    -0.044 C 
BRANCH  11  12
HETATM   12  C6  UNL     1      18.178 -25.639  20.115  1.00  0.00     0.103 A 
HETATM   13  C5  UNL     1      19.092 -26.128  21.045  1.00  0.00     0.127 A 
HETATM   14  N3  UNL     1      19.757 -25.228  21.739  1.00  0.00    -0.358 N 
HETATM   15  C4  UNL     1      19.632 -23.875  21.628  1.00  0.00     0.103 A 
ATOM     16  H3  UNL     1      20.429 -25.575  22.423  1.00  0.00     0.165 HD
HETATM   17  C16 UNL     1      18.731 -23.416  20.712  1.00  0.00     0.129 A 
HETATM   18  N6  UNL     1      18.023 -24.324  19.973  1.00  0.00    -0.333 N 
ATOM     19  H6  UNL     1      17.350 -23.981  19.288  1.00  0.00     0.168 HD
BRANCH  15  20
HETATM   20  C3  UNL     1      20.466 -22.981  22.495  1.00  0.00     0.071 A 
HETATM   21  N2  UNL     1      20.044 -22.002  23.244  1.00  0.00    -0.334 N 
HETATM   22  C2  UNL     1      20.939 -21.302  23.959  1.00  0.00     0.144 A 
ATOM     23  H2  UNL     1      19.052 -21.772  23.286  1.00  0.00     0.168 HD
HETATM   24  S1  UNL     1      22.422 -22.030  23.578  1.00  0.00    -0.064 SA
HETATM   25  C17 UNL     1      21.838 -23.213  22.509  1.00  0.00     0.085 A 
BRANCH  22  26
HETATM   26  N1  UNL     1      20.692 -20.287  24.766  1.00  0.00    -0.375 N 
HETATM   27  C1  UNL     1      19.389 -19.728  24.889  1.00  0.00     0.148 C 
ATOM     28  H1  UNL     1      21.456 -19.892  25.315  1.00  0.00     0.161 HD
ENDBRANCH  22  26
ENDBRANCH  15  20
BRANCH  17  29
HETATM   29  N7  UNL     1      18.519 -22.160  20.510  1.00  0.00    -0.384 N 
ATOM     30  H72 UNL     1      18.296 -21.850  19.563  1.00  0.00     0.157 HD
ATOM     31  H71 UNL     1      18.565 -21.465  21.256  1.00  0.00     0.157 HD
ENDBRANCH  17  29
ENDBRANCH  11  12
ENDBRANCH   4  10
ENDBRANCH   1   4
BRANCH   1  32
HETATM   32  O1  UNL     1      14.332 -28.147  16.355  1.00  0.00    -0.261 OA
BRANCH  32  33
HETATM   33  C11 UNL     1      14.162 -28.686  15.105  1.00  0.00     0.145 C 
HETATM   34  C12 UNL     1      14.218 -30.203  15.232  1.00  0.00     0.042 C 
HETATM   35  C13 UNL     1      12.752 -28.351  14.626  1.00  0.00     0.042 C 
ENDBRANCH  32  33
ENDBRANCH   1  32
TORSDOF 8
ENDMDL
MODEL 3
REMARK VINA RESULT: -7.488533518      1.007      1.255
REMARK  8 active torsions:
REMARK  status: ('A' for Active; 'I' for Inactive)
REMARK    1  A    between atoms: N1_2  and  C2_4 
REMARK    2  A    between atoms: C3_7  and  C4_8 
REMARK    3  A    between atoms: C6_12  and  C7_13 
REMARK    4  A    between atoms: C8_14  and  C9_15 
REMARK    5  A    between atoms: C9_15  and  N4_16 
REMARK    6  A    between atoms: N4_16  and  O1_19 
REMARK    7  A    between atoms: O1_19  and  C11_20 
REMARK    8  A    between atoms: C16_30  and  N7_31 
ROOT
HETATM    1  N4  UNL     1      16.001 -22.398  33.758  1.00  0.00    -0.149 N 
HETATM    2  C10 UNL     1      16.795 -23.534  33.691  1.00  0.00     0.208 C 
HETATM    3  N5  UNL     1      17.462 -24.499  33.653  1.00  0.00    -0.170 NA
ENDROOT
BRANCH   1   4
HETATM    4  C9  UNL     1      16.014 -21.452  32.674  1.00  0.00     0.307 A 
HETATM    5  C14 UNL     1      15.140 -20.284  32.855  1.00  0.00     0.321 A 
HETATM    6  O2  UNL     1      13.914 -20.098  32.968  1.00  0.00    -0.260 OA
HETATM    7  O3  UNL     1      16.260 -19.483  32.848  1.00  0.00    -0.238 OA
HETATM    8  C15 UNL     1      17.164 -20.517  32.678  1.00  0.00     0.321 A 
HETATM    9  O4  UNL     1      18.400 -20.589  32.577  1.00  0.00    -0.260 OA
BRANCH   4  10
HETATM   10  C8  UNL     1      15.916 -22.092  31.360  1.00  0.00    -0.043 C 
HETATM   11  C7  UNL     1      15.837 -22.634  30.290  1.00  0.00    -0.044 C 
BRANCH  11  12
HETATM   12  C6  UNL     1      15.728 -23.298  29.028  1.00  0.00     0.103 A 
HETATM   13  C5  UNL     1      15.359 -22.518  27.935  1.00  0.00     0.127 A 
HETATM   14  N3  UNL     1      15.262 -23.141  26.778  1.00  0.00    -0.358 N 
HETATM   15  C4  UNL     1      15.489 -24.467  26.559  1.00  0.00     0.103 A 
ATOM     16  H3  UNL     1      14.992 -22.578  25.971  1.00  0.00     0.165 HD
HETATM   17  C16 UNL     1      15.850 -25.213  27.643  1.00  0.00     0.129 A 
HETATM   18  N6  UNL     1      15.960 -24.598  28.860  1.00  0.00    -0.333 N 
ATOM     19  H6  UNL     1      16.230 -25.157  29.669  1.00  0.00     0.168 HD
BRANCH  15  20
HETATM   20  C3  UNL     1      15.336 -25.025  25.177  1.00  0.00     0.071 A 
HETATM   21  N2  UNL     1      16.282 -25.205  24.298  1.00  0.00    -0.334 N 
HETATM   22  C2  UNL     1      15.962 -25.721  23.100  1.00  0.00     0.144 A 
ATOM     23  H2  UNL     1      17.247 -24.959  24.516  1.00  0.00     0.168 HD
HETATM   24  S1  UNL     1      14.287 -25.964  23.198  1.00  0.00    -0.064 SA
HETATM   25  C17 UNL     1      14.055 -25.393  24.780  1.00  0.00     0.085 A 
BRANCH  22  26
HETATM   26  N1  UNL     1      16.783 -25.970  22.098  1.00  0.00    -0.375 N 
HETATM   27  C1  UNL     1      16.567 -25.427  20.801  1.00  0.00     0.148 C 
ATOM     28  H1  UNL     1      17.593 -26.569  22.257  1.00  0.00     0.161 HD
ENDBRANCH  22  26
ENDBRANCH  15  20
BRANCH  17  29
HETATM   29  N7  UNL     1      16.093 -26.478  27.569  1.00  0.00    -0.384 N 
ATOM     30  H72 UNL     1      15.523 -27.116  28.125  1.00  0.00     0.157 HD
ATOM     31  H71 UNL     1      16.831 -26.865  26.980  1.00  0.00     0.157 HD
ENDBRANCH  17  29
ENDBRANCH  11  12
ENDBRANCH   4  10
ENDBRANCH   1   4
BRANCH   1  32
HETATM   32  O1  UNL     1      15.218 -22.167  34.822  1.00  0.00    -0.261 OA
BRANCH  32  33
HETATM   33  C11 UNL     1      14.478 -23.248  35.229  1.00  0.00     0.145 C 
HETATM   34  C12 UNL     1      14.003 -22.987  36.653  1.00  0.00     0.042 C 
HETATM   35  C13 UNL     1      13.218 -23.319  34.369  1.00  0.00     0.042 C 
ENDBRANCH  32  33
ENDBRANCH   1  32
TORSDOF 8
ENDMDL
MODEL 4
REMARK VINA RESULT: -7.483448657      1.358      1.986
REMARK  8 active torsions:
REMARK  status: ('A' for Active; 'I' for Inactive)
REMARK    1  A    between atoms: N1_2  and  C2_4 
REMARK    2  A    between atoms: C3_7  and  C4_8 
REMARK    3  A    between atoms: C6_12  and  C7_13 
REMARK    4  A    between atoms: C8_14  and  C9_15 
REMARK    5  A    between atoms: C9_15  and  N4_16 
REMARK    6  A    between atoms: N4_16  and  O1_19 
REMARK    7  A    between atoms: O1_19  and  C11_20 
REMARK    8  A    between atoms: C16_30  and  N7_31 
ROOT
HETATM    1  N4  UNL     1      16.306 -21.389  32.762  1.00  0.00    -0.149 N 
HETATM    2  C10 UNL     1      15.930 -20.192  32.167  1.00  0.00     0.208 C 
HETATM    3  N5  UNL     1      15.598 -19.178  31.678  1.00  0.00    -0.170 NA
ENDROOT
BRANCH   1   4
HETATM    4  C9  UNL     1      17.295 -22.220  32.130  1.00  0.00     0.307 A 
HETATM    5  C14 UNL     1      18.624 -21.608  31.988  1.00  0.00     0.321 A 
HETATM    6  O2  UNL     1      19.094 -20.629  31.377  1.00  0.00    -0.260 OA
HETATM    7  O3  UNL     1      19.129 -22.581  32.821  1.00  0.00    -0.238 OA
HETATM    8  C15 UNL     1      17.921 -23.229  33.018  1.00  0.00     0.321 A 
HETATM    9  O4  UNL     1      17.559 -24.223  33.667  1.00  0.00    -0.260 OA
BRANCH   4  10
HETATM   10  C8  UNL     1      16.795 -22.883  30.923  1.00  0.00    -0.043 C 
HETATM   11  C7  UNL     1      16.395 -23.414  29.922  1.00  0.00    -0.044 C 
BRANCH  11  12
HETATM   12  C6  UNL     1      15.941 -24.043  28.720  1.00  0.00     0.103 A 
HETATM   13  C5  UNL     1      15.178 -23.268  27.851  1.00  0.00     0.127 A 
HETATM   14  N3  UNL     1      14.766 -23.859  26.748  1.00  0.00    -0.358 N 
HETATM   15  C4  UNL     1      15.019 -25.149  26.386  1.00  0.00     0.103 A 
ATOM     16  H3  UNL     1      14.206 -23.300  26.105  1.00  0.00     0.165 HD
HETATM   17  C16 UNL     1      15.769 -25.891  27.251  1.00  0.00     0.129 A 
HETATM   18  N6  UNL     1      16.213 -25.308  28.406  1.00  0.00    -0.333 N 
ATOM     19  H6  UNL     1      16.773 -25.864  29.052  1.00  0.00     0.168 HD
BRANCH  15  20
HETATM   20  C3  UNL     1      14.478 -25.674  25.092  1.00  0.00     0.071 A 
HETATM   21  N2  UNL     1      15.081 -25.679  23.937  1.00  0.00    -0.334 N 
HETATM   22  C2  UNL     1      14.441 -26.193  22.874  1.00  0.00     0.144 A 
ATOM     23  H2  UNL     1      16.023 -25.299  23.841  1.00  0.00     0.168 HD
HETATM   24  S1  UNL     1      12.946 -26.688  23.502  1.00  0.00    -0.064 SA
HETATM   25  C17 UNL     1      13.196 -26.215  25.114  1.00  0.00     0.085 A 
BRANCH  22  26
HETATM   26  N1  UNL     1      14.896 -26.281  21.639  1.00  0.00    -0.375 N 
HETATM   27  C1  UNL     1      16.129 -25.687  21.251  1.00  0.00     0.148 C 
ATOM     28  H1  UNL     1      14.349 -26.789  20.943  1.00  0.00     0.161 HD
ENDBRANCH  22  26
ENDBRANCH  15  20
BRANCH  17  29
HETATM   29  N7  UNL     1      16.080 -27.123  27.025  1.00  0.00    -0.384 N 
ATOM     30  H72 UNL     1      16.490 -27.364  26.123  1.00  0.00     0.157 HD
ATOM     31  H71 UNL     1      15.932 -27.864  27.711  1.00  0.00     0.157 HD
ENDBRANCH  17  29
ENDBRANCH  11  12
ENDBRANCH   4  10
ENDBRANCH   1   4
BRANCH   1  32
HETATM   32  O1  UNL     1      15.759 -21.782  33.921  1.00  0.00    -0.261 OA
BRANCH  32  33
HETATM   33  C11 UNL     1      14.393 -21.906  33.892  1.00  0.00     0.145 C 
HETATM   34  C12 UNL     1      14.053 -23.390  33.859  1.00  0.00     0.042 C 
HETATM   35  C13 UNL     1      13.835 -21.372  35.210  1.00  0.00     0.042 C 
ENDBRANCH  32  33
ENDBRANCH   1  32
TORSDOF 8
ENDMDL
MODEL 5
REMARK VINA RESULT: -7.470209609      1.226      1.239
REMARK  8 active torsions:
REMARK  status: ('A' for Active; 'I' for Inactive)
REMARK    1  A    between atoms: N1_2  and  C2_4 
REMARK    2  A    between atoms: C3_7  and  C4_8 
REMARK    3  A    between atoms: C6_12  and  C7_13 
REMARK    4  A    between atoms: C8_14  and  C9_15 
REMARK    5  A    between atoms: C9_15  and  N4_16 
REMARK    6  A    between atoms: N4_16  and  O1_19 
REMARK    7  A    between atoms: O1_19  and  C11_20 
REMARK    8  A    between atoms: C16_30  and  N7_31 
ROOT
HETATM    1  N4  UNL     1      16.639 -21.970  32.969  1.00  0.00    -0.149 N 
HETATM    2  C10 UNL     1      16.918 -23.183  33.583  1.00  0.00     0.208 C 
HETATM    3  N5  UNL     1      17.144 -24.203  34.118  1.00  0.00    -0.170 NA
ENDROOT
BRANCH   1   4
HETATM    4  C9  UNL     1      17.253 -21.650  31.709  1.00  0.00     0.307 A 
HETATM    5  C14 UNL     1      17.370 -20.213  31.420  1.00  0.00     0.321 A 
HETATM    6  O2  UNL     1      16.573 -19.272  31.240  1.00  0.00    -0.260 OA
HETATM    7  O3  UNL     1      18.739 -20.352  31.432  1.00  0.00    -0.238 OA
HETATM    8  C15 UNL     1      18.734 -21.710  31.704  1.00  0.00     0.321 A 
HETATM    9  O4  UNL     1      19.614 -22.571  31.868  1.00  0.00    -0.260 OA
BRANCH   4  10
HETATM   10  C8  UNL     1      16.734 -22.456  30.601  1.00  0.00    -0.043 C 
HETATM   11  C7  UNL     1      16.315 -23.104  29.680  1.00  0.00    -0.044 C 
BRANCH  11  12
HETATM   12  C6  UNL     1      15.837 -23.870  28.570  1.00  0.00     0.103 A 
HETATM   13  C5  UNL     1      14.995 -23.220  27.671  1.00  0.00     0.127 A 
HETATM   14  N3  UNL     1      14.561 -23.937  26.654  1.00  0.00    -0.358 N 
HETATM   15  C4  UNL     1      14.862 -25.243  26.406  1.00  0.00     0.103 A 
ATOM     16  H3  UNL     1      13.943 -23.470  25.990  1.00  0.00     0.165 HD
HETATM   17  C16 UNL     1      15.689 -25.861  27.298  1.00  0.00     0.129 A 
HETATM   18  N6  UNL     1      16.157 -25.146  28.367  1.00  0.00    -0.333 N 
ATOM     19  H6  UNL     1      16.775 -25.609  29.033  1.00  0.00     0.168 HD
BRANCH  15  20
HETATM   20  C3  UNL     1      14.286 -25.918  25.199  1.00  0.00     0.071 A 
HETATM   21  N2  UNL     1      14.860 -26.066  24.039  1.00  0.00    -0.334 N 
HETATM   22  C2  UNL     1      14.192 -26.703  23.063  1.00  0.00     0.144 A 
ATOM     23  H2  UNL     1      15.800 -25.706  23.874  1.00  0.00     0.168 HD
HETATM   24  S1  UNL     1      12.712 -27.110  23.783  1.00  0.00    -0.064 SA
HETATM   25  C17 UNL     1      13.005 -26.446  25.319  1.00  0.00     0.085 A 
BRANCH  22  26
HETATM   26  N1  UNL     1      14.615 -26.942  21.836  1.00  0.00    -0.375 N 
HETATM   27  C1  UNL     1      15.622 -26.145  21.222  1.00  0.00     0.148 C 
ATOM     28  H1  UNL     1      14.209 -27.719  21.313  1.00  0.00     0.161 HD
ENDBRANCH  22  26
ENDBRANCH  15  20
BRANCH  17  29
HETATM   29  N7  UNL     1      16.050 -27.094  27.178  1.00  0.00    -0.384 N 
ATOM     30  H72 UNL     1      15.369 -27.768  26.826  1.00  0.00     0.157 HD
ATOM     31  H71 UNL     1      16.986 -27.421  27.419  1.00  0.00     0.157 HD
ENDBRANCH  17  29
ENDBRANCH  11  12
ENDBRANCH   4  10
ENDBRANCH   1   4
BRANCH   1  32
HETATM   32  O1  UNL     1      15.802 -21.089  33.536  1.00  0.00    -0.261 OA
BRANCH  32  33
HETATM   33  C11 UNL     1      14.502 -21.518  33.630  1.00  0.00     0.145 C 
HETATM   34  C12 UNL     1      13.923 -20.990  34.937  1.00  0.00     0.042 C 
HETATM   35  C13 UNL     1      13.697 -20.860  32.512  1.00  0.00     0.042 C 
ENDBRANCH  32  33
ENDBRANCH   1  32
TORSDOF 8
ENDMDL
