MODEL 1
REMARK VINA RESULT: -8.996350551      0.000      0.000
REMARK  6 active torsions:
REMARK  status: ('A' for Active; 'I' for Inactive)
REMARK    1  A    between atoms: C6_9  and  C7_10 
REMARK       I    between atoms: C7_10  and  N3_12 
REMARK    2  A    between atoms: N3_12  and  C8_14 
REMARK    3  A    between atoms: C9_19  and  S1_20 
REMARK    4  A    between atoms: S1_20  and  C10_21 
REMARK    5  A    between atoms: C10_21  and  C11_22 
REMARK    6  A    between atoms: C12_27  and  N8_28 
ROOT
HETATM    1  N8  UNL     1      13.650 -25.781  24.143  1.00  0.00    -0.124 N 
ATOM      2  H8  UNL     1      12.897 -26.466  24.216  1.00  0.00     0.197 HD
HETATM    3  C13 UNL     1      13.516 -24.590  24.854  1.00  0.00     0.196 C 
HETATM    4  N9  UNL     1      13.389 -23.597  25.436  1.00  0.00    -0.171 NA
ENDROOT
BRANCH   1   5
HETATM    5  C12 UNL     1      14.659 -26.076  23.398  1.00  0.00     0.709 A 
HETATM    6  N7  UNL     1      15.960 -26.112  23.763  1.00  0.00    -0.130 N 
HETATM    7  N6  UNL     1      16.633 -26.453  22.702  1.00  0.00    -0.273 N 
ATOM      8  H7  UNL     1      16.339 -25.911  24.688  1.00  0.00     0.205 HD
HETATM    9  C11 UNL     1      15.785 -26.640  21.656  1.00  0.00     0.124 A 
ATOM     10  H6  UNL     1      17.646 -26.564  22.661  1.00  0.00     0.189 HD
HETATM   11  N10 UNL     1      14.559 -26.401  22.104  1.00  0.00    -0.172 N 
HETATM   12  C14 UNL     1      13.351 -26.491  21.310  1.00  0.00     0.177 C 
BRANCH   9  13
HETATM   13  C10 UNL     1      16.259 -27.041  20.316  1.00  0.00     0.160 C 
BRANCH  13  14
HETATM   14  S1  UNL     1      16.665 -25.680  19.232  1.00  0.00    -0.096 SA
BRANCH  14  15
HETATM   15  C9  UNL     1      17.884 -24.572  19.934  1.00  0.00     0.130 A 
HETATM   16  N5  UNL     1      17.730 -23.277  20.166  1.00  0.00    -0.286 N 
HETATM   17  N4  UNL     1      18.678 -22.596  20.667  1.00  0.00    -0.278 N 
ATOM     18  H5  UNL     1      16.844 -22.824  19.941  1.00  0.00     0.188 HD
HETATM   19  C8  UNL     1      19.828 -23.216  20.952  1.00  0.00     0.168 A 
ATOM     20  H4  UNL     1      18.565 -21.598  20.846  1.00  0.00     0.189 HD
HETATM   21  S2  UNL     1      19.489 -24.817  20.472  1.00  0.00    -0.026 SA
BRANCH  19  22
HETATM   22  N3  UNL     1      20.918 -22.691  21.469  1.00  0.00    -0.302 N 
HETATM   23  C7  UNL     1      21.239 -22.840  22.827  1.00  0.00     0.261 C 
HETATM   24  O1  UNL     1      21.447 -24.001  23.263  1.00  0.00    -0.267 OA
ATOM     25  H3  UNL     1      21.547 -22.161  20.866  1.00  0.00     0.171 HD
BRANCH  23  26
HETATM   26  C6  UNL     1      21.340 -21.711  23.741  1.00  0.00     0.079 A 
HETATM   27  C2  UNL     1      22.509 -21.303  24.385  1.00  0.00     0.040 A 
HETATM   28  C1  UNL     1      23.838 -21.952  24.243  1.00  0.00     0.071 C 
HETATM   29  N1  UNL     1      22.143 -20.243  25.115  1.00  0.00    -0.302 N 
HETATM   30  N2  UNL     1      20.863 -19.971  24.976  1.00  0.00    -0.300 N 
ATOM     31  H1  UNL     1      22.779 -19.711  25.708  1.00  0.00     0.186 HD
HETATM   32  C3  UNL     1      20.130 -18.892  25.621  1.00  0.00     0.177 C 
HETATM   33  C4  UNL     1      20.316 -20.869  24.120  1.00  0.00     0.042 A 
HETATM   34  C5  UNL     1      18.902 -20.916  23.693  1.00  0.00     0.071 C 
ENDBRANCH  23  26
ENDBRANCH  19  22
ENDBRANCH  14  15
ENDBRANCH  13  14
ENDBRANCH   9  13
ENDBRANCH   1   5
TORSDOF 6
ENDMDL
MODEL 2
REMARK VINA RESULT: -8.956432617      6.619     10.561
REMARK  6 active torsions:
REMARK  status: ('A' for Active; 'I' for Inactive)
REMARK    1  A    between atoms: C6_9  and  C7_10 
REMARK       I    between atoms: C7_10  and  N3_12 
REMARK    2  A    between atoms: N3_12  and  C8_14 
REMARK    3  A    between atoms: C9_19  and  S1_20 
REMARK    4  A    between atoms: S1_20  and  C10_21 
REMARK    5  A    between atoms: C10_21  and  C11_22 
REMARK    6  A    between atoms: C12_27  and  N8_28 
ROOT
HETATM    1  N8  UNL     1      21.204 -21.583  24.472  1.00  0.00    -0.124 N 
ATOM      2  H8  UNL     1      20.251 -21.939  24.399  1.00  0.00     0.197 HD
HETATM    3  C13 UNL     1      22.233 -22.369  23.956  1.00  0.00     0.196 C 
HETATM    4  N9  UNL     1      23.082 -23.036  23.538  1.00  0.00    -0.171 NA
ENDROOT
BRANCH   1   5
HETATM    5  C12 UNL     1      21.376 -20.438  25.037  1.00  0.00     0.709 A 
HETATM    6  N7  UNL     1      22.546 -19.889  25.432  1.00  0.00    -0.130 N 
HETATM    7  N6  UNL     1      22.256 -18.730  25.951  1.00  0.00    -0.273 N 
ATOM      8  H7  UNL     1      23.474 -20.303  25.342  1.00  0.00     0.205 HD
HETATM    9  C11 UNL     1      20.915 -18.521  25.895  1.00  0.00     0.124 A 
ATOM     10  H6  UNL     1      22.935 -18.077  26.342  1.00  0.00     0.189 HD
HETATM   11  N10 UNL     1      20.379 -19.593  25.323  1.00  0.00    -0.172 N 
HETATM   12  C14 UNL     1      18.966 -19.779  25.065  1.00  0.00     0.177 C 
BRANCH   9  13
HETATM   13  C10 UNL     1      20.286 -17.286  26.403  1.00  0.00     0.160 C 
BRANCH  13  14
HETATM   14  S1  UNL     1      20.504 -17.004  28.154  1.00  0.00    -0.096 SA
BRANCH  14  15
HETATM   15  C9  UNL     1      19.296 -17.872  29.152  1.00  0.00     0.130 A 
HETATM   16  N5  UNL     1      19.501 -18.408  30.346  1.00  0.00    -0.286 N 
HETATM   17  N4  UNL     1      18.558 -19.005  30.953  1.00  0.00    -0.278 N 
ATOM     18  H5  UNL     1      20.421 -18.341  30.781  1.00  0.00     0.188 HD
HETATM   19  C8  UNL     1      17.361 -19.077  30.359  1.00  0.00     0.168 A 
ATOM     20  H4  UNL     1      18.710 -19.420  31.872  1.00  0.00     0.189 HD
HETATM   21  S2  UNL     1      17.649 -18.251  28.895  1.00  0.00    -0.026 SA
BRANCH  19  22
HETATM   22  N3  UNL     1      16.268 -19.647  30.819  1.00  0.00    -0.302 N 
HETATM   23  C7  UNL     1      16.201 -20.182  32.115  1.00  0.00     0.261 C 
HETATM   24  O1  UNL     1      16.345 -19.398  33.087  1.00  0.00    -0.267 OA
ATOM     25  H3  UNL     1      15.447 -19.702  30.216  1.00  0.00     0.171 HD
BRANCH  23  26
HETATM   26  C6  UNL     1      15.972 -21.596  32.372  1.00  0.00     0.079 A 
HETATM   27  C2  UNL     1      14.724 -22.222  32.359  1.00  0.00     0.040 A 
HETATM   28  C1  UNL     1      13.430 -21.548  32.082  1.00  0.00     0.071 C 
HETATM   29  N1  UNL     1      14.984 -23.504  32.644  1.00  0.00    -0.302 N 
HETATM   30  N2  UNL     1      16.270 -23.714  32.828  1.00  0.00    -0.300 N 
ATOM     31  H1  UNL     1      14.271 -24.230  32.710  1.00  0.00     0.186 HD
HETATM   32  C3  UNL     1      16.903 -24.983  33.152  1.00  0.00     0.177 C 
HETATM   33  C4  UNL     1      16.931 -22.542  32.668  1.00  0.00     0.042 A 
HETATM   34  C5  UNL     1      18.391 -22.341  32.789  1.00  0.00     0.071 C 
ENDBRANCH  23  26
ENDBRANCH  19  22
ENDBRANCH  14  15
ENDBRANCH  13  14
ENDBRANCH   9  13
ENDBRANCH   1   5
TORSDOF 6
ENDMDL
MODEL 3
REMARK VINA RESULT: -8.713578975      6.821     10.484
REMARK  6 active torsions:
REMARK  status: ('A' for Active; 'I' for Inactive)
REMARK    1  A    between atoms: C6_9  and  C7_10 
REMARK       I    between atoms: C7_10  and  N3_12 
REMARK    2  A    between atoms: N3_12  and  C8_14 
REMARK    3  A    between atoms: C9_19  and  S1_20 
REMARK    4  A    between atoms: S1_20  and  C10_21 
REMARK    5  A    between atoms: C10_21  and  C11_22 
REMARK    6  A    between atoms: C12_27  and  N8_28 
ROOT
HETATM    1  N8  UNL     1      21.328 -21.508  24.863  1.00  0.00    -0.124 N 
ATOM      2  H8  UNL     1      20.572 -22.114  25.181  1.00  0.00     0.197 HD
HETATM    3  C13 UNL     1      22.232 -22.027  23.937  1.00  0.00     0.196 C 
HETATM    4  N9  UNL     1      22.986 -22.472  23.180  1.00  0.00    -0.171 NA
ENDROOT
BRANCH   1   5
HETATM    5  C12 UNL     1      21.383 -20.314  25.345  1.00  0.00     0.709 A 
HETATM    6  N7  UNL     1      22.468 -19.687  25.852  1.00  0.00    -0.130 N 
HETATM    7  N6  UNL     1      22.073 -18.503  26.222  1.00  0.00    -0.273 N 
ATOM      8  H7  UNL     1      23.411 -20.068  25.929  1.00  0.00     0.205 HD
HETATM    9  C11 UNL     1      20.747 -18.355  25.960  1.00  0.00     0.124 A 
ATOM     10  H6  UNL     1      22.669 -17.792  26.646  1.00  0.00     0.189 HD
HETATM   11  N10 UNL     1      20.331 -19.491  25.414  1.00  0.00    -0.172 N 
HETATM   12  C14 UNL     1      18.975 -19.756  24.978  1.00  0.00     0.177 C 
BRANCH   9  13
HETATM   13  C10 UNL     1      20.016 -17.110  26.267  1.00  0.00     0.160 C 
BRANCH  13  14
HETATM   14  S1  UNL     1      20.094 -16.601  27.978  1.00  0.00    -0.096 SA
BRANCH  14  15
HETATM   15  C9  UNL     1      19.178 -17.689  29.067  1.00  0.00     0.130 A 
HETATM   16  N5  UNL     1      19.580 -18.147  30.243  1.00  0.00    -0.286 N 
HETATM   17  N4  UNL     1      18.835 -18.921  30.921  1.00  0.00    -0.278 N 
ATOM     18  H5  UNL     1      20.495 -17.877  30.606  1.00  0.00     0.188 HD
HETATM   19  C8  UNL     1      17.641 -19.258  30.421  1.00  0.00     0.168 A 
ATOM     20  H4  UNL     1      19.141 -19.277  31.827  1.00  0.00     0.189 HD
HETATM   21  S2  UNL     1      17.636 -18.416  28.937  1.00  0.00    -0.026 SA
BRANCH  19  22
HETATM   22  N3  UNL     1      16.734 -20.040  30.964  1.00  0.00    -0.302 N 
HETATM   23  C7  UNL     1      16.764 -20.376  32.326  1.00  0.00     0.261 C 
HETATM   24  O1  UNL     1      16.643 -19.450  33.167  1.00  0.00    -0.267 OA
ATOM     25  H3  UNL     1      15.987 -20.413  30.378  1.00  0.00     0.171 HD
BRANCH  23  26
HETATM   26  C6  UNL     1      16.930 -21.743  32.797  1.00  0.00     0.079 A 
HETATM   27  C2  UNL     1      18.061 -22.533  32.582  1.00  0.00     0.040 A 
HETATM   28  C1  UNL     1      19.275 -22.108  31.838  1.00  0.00     0.071 C 
HETATM   29  N1  UNL     1      17.783 -23.697  33.181  1.00  0.00    -0.302 N 
HETATM   30  N2  UNL     1      16.591 -23.687  33.739  1.00  0.00    -0.300 N 
ATOM     31  H1  UNL     1      18.417 -24.494  33.203  1.00  0.00     0.186 HD
HETATM   32  C3  UNL     1      15.967 -24.778  34.471  1.00  0.00     0.177 C 
HETATM   33  C4  UNL     1      16.017 -22.478  33.523  1.00  0.00     0.042 A 
HETATM   34  C5  UNL     1      14.678 -22.053  33.983  1.00  0.00     0.071 C 
ENDBRANCH  23  26
ENDBRANCH  19  22
ENDBRANCH  14  15
ENDBRANCH  13  14
ENDBRANCH   9  13
ENDBRANCH   1   5
TORSDOF 6
ENDMDL
MODEL 4
REMARK VINA RESULT: -8.686301474      0.774      1.316
REMARK  6 active torsions:
REMARK  status: ('A' for Active; 'I' for Inactive)
REMARK    1  A    between atoms: C6_9  and  C7_10 
REMARK       I    between atoms: C7_10  and  N3_12 
REMARK    2  A    between atoms: N3_12  and  C8_14 
REMARK    3  A    between atoms: C9_19  and  S1_20 
REMARK    4  A    between atoms: S1_20  and  C10_21 
REMARK    5  A    between atoms: C10_21  and  C11_22 
REMARK    6  A    between atoms: C12_27  and  N8_28 
ROOT
HETATM    1  N8  UNL     1      12.697 -25.446  24.011  1.00  0.00    -0.124 N 
ATOM      2  H8  UNL     1      11.908 -26.005  24.336  1.00  0.00     0.197 HD
HETATM    3  C13 UNL     1      13.130 -24.399  24.824  1.00  0.00     0.196 C 
HETATM    4  N9  UNL     1      13.473 -23.523  25.498  1.00  0.00    -0.171 NA
ENDROOT
BRANCH   1   5
HETATM    5  C12 UNL     1      13.226 -25.755  22.877  1.00  0.00     0.709 A 
HETATM    6  N7  UNL     1      12.697 -25.560  21.649  1.00  0.00    -0.130 N 
HETATM    7  N6  UNL     1      13.565 -26.020  20.794  1.00  0.00    -0.273 N 
ATOM      8  H7  UNL     1      11.794 -25.136  21.435  1.00  0.00     0.205 HD
HETATM    9  C11 UNL     1      14.649 -26.507  21.453  1.00  0.00     0.124 A 
ATOM     10  H6  UNL     1      13.449 -26.014  19.781  1.00  0.00     0.189 HD
HETATM   11  N10 UNL     1      14.424 -26.336  22.750  1.00  0.00    -0.172 N 
HETATM   12  C14 UNL     1      15.336 -26.717  23.809  1.00  0.00     0.177 C 
BRANCH   9  13
HETATM   13  C10 UNL     1      15.806 -27.091  20.745  1.00  0.00     0.160 C 
BRANCH  13  14
HETATM   14  S1  UNL     1      16.459 -26.082  19.423  1.00  0.00    -0.096 SA
BRANCH  14  15
HETATM   15  C9  UNL     1      17.659 -24.883  19.994  1.00  0.00     0.130 A 
HETATM   16  N5  UNL     1      17.509 -23.567  20.014  1.00  0.00    -0.286 N 
HETATM   17  N4  UNL     1      18.444 -22.819  20.441  1.00  0.00    -0.278 N 
ATOM     18  H5  UNL     1      16.638 -23.151  19.685  1.00  0.00     0.188 HD
HETATM   19  C8  UNL     1      19.575 -23.391  20.867  1.00  0.00     0.168 A 
ATOM     20  H4  UNL     1      18.334 -21.805  20.458  1.00  0.00     0.189 HD
HETATM   21  S2  UNL     1      19.239 -25.047  20.629  1.00  0.00    -0.026 SA
BRANCH  19  22
HETATM   22  N3  UNL     1      20.648 -22.796  21.340  1.00  0.00    -0.302 N 
HETATM   23  C7  UNL     1      21.036 -22.925  22.683  1.00  0.00     0.261 C 
HETATM   24  O1  UNL     1      21.339 -24.071  23.104  1.00  0.00    -0.267 OA
ATOM     25  H3  UNL     1      21.215 -22.224  20.713  1.00  0.00     0.171 HD
BRANCH  23  26
HETATM   26  C6  UNL     1      21.100 -21.795  23.597  1.00  0.00     0.079 A 
HETATM   27  C2  UNL     1      22.254 -21.355  24.248  1.00  0.00     0.040 A 
HETATM   28  C1  UNL     1      23.601 -21.968  24.114  1.00  0.00     0.071 C 
HETATM   29  N1  UNL     1      21.854 -20.305  24.976  1.00  0.00    -0.302 N 
HETATM   30  N2  UNL     1      20.568 -20.068  24.828  1.00  0.00    -0.300 N 
ATOM     31  H1  UNL     1      22.472 -19.756  25.573  1.00  0.00     0.186 HD
HETATM   32  C3  UNL     1      19.803 -19.010  25.468  1.00  0.00     0.177 C 
HETATM   33  C4  UNL     1      20.052 -20.981  23.969  1.00  0.00     0.042 A 
HETATM   34  C5  UNL     1      18.642 -21.066  23.533  1.00  0.00     0.071 C 
ENDBRANCH  23  26
ENDBRANCH  19  22
ENDBRANCH  14  15
ENDBRANCH  13  14
ENDBRANCH   9  13
ENDBRANCH   1   5
TORSDOF 6
ENDMDL
MODEL 5
REMARK VINA RESULT: -8.609330383      1.687      1.832
REMARK  6 active torsions:
REMARK  status: ('A' for Active; 'I' for Inactive)
REMARK    1  A    between atoms: C6_9  and  C7_10 
REMARK       I    between atoms: C7_10  and  N3_12 
REMARK    2  A    between atoms: N3_12  and  C8_14 
REMARK    3  A    between atoms: C9_19  and  S1_20 
REMARK    4  A    between atoms: S1_20  and  C10_21 
REMARK    5  A    between atoms: C10_21  and  C11_22 
REMARK    6  A    between atoms: C12_27  and  N8_28 
ROOT
HETATM    1  N8  UNL     1      14.414 -28.325  26.025  1.00  0.00    -0.124 N 
ATOM      2  H8  UNL     1      14.358 -29.333  25.879  1.00  0.00     0.197 HD
HETATM    3  C13 UNL     1      14.039 -27.828  27.273  1.00  0.00     0.196 C 
HETATM    4  N9  UNL     1      13.710 -27.424  28.306  1.00  0.00    -0.171 NA
ENDROOT
BRANCH   1   5
HETATM    5  C12 UNL     1      14.826 -27.597  25.046  1.00  0.00     0.709 A 
HETATM    6  N7  UNL     1      15.974 -26.887  24.982  1.00  0.00    -0.130 N 
HETATM    7  N6  UNL     1      15.986 -26.304  23.818  1.00  0.00    -0.273 N 
ATOM      8  H7  UNL     1      16.691 -26.821  25.706  1.00  0.00     0.205 HD
HETATM    9  C11 UNL     1      14.862 -26.629  23.127  1.00  0.00     0.124 A 
ATOM     10  H6  UNL     1      16.728 -25.694  23.476  1.00  0.00     0.189 HD
HETATM   11  N10 UNL     1      14.149 -27.435  23.904  1.00  0.00    -0.172 N 
HETATM   12  C14 UNL     1      12.873 -28.020  23.546  1.00  0.00     0.177 C 
BRANCH   9  13
HETATM   13  C10 UNL     1      14.597 -26.120  21.766  1.00  0.00     0.160 C 
BRANCH  13  14
HETATM   14  S1  UNL     1      15.940 -26.348  20.610  1.00  0.00    -0.096 SA
BRANCH  14  15
HETATM   15  C9  UNL     1      17.166 -25.046  20.707  1.00  0.00     0.130 A 
HETATM   16  N5  UNL     1      17.136 -23.887  20.067  1.00  0.00    -0.286 N 
HETATM   17  N4  UNL     1      18.075 -23.045  20.216  1.00  0.00    -0.278 N 
ATOM     18  H5  UNL     1      16.352 -23.669  19.450  1.00  0.00     0.188 HD
HETATM   19  C8  UNL     1      19.089 -23.357  21.031  1.00  0.00     0.168 A 
ATOM     20  H4  UNL     1      18.057 -22.151  19.726  1.00  0.00     0.189 HD
HETATM   21  S2  UNL     1      18.634 -24.909  21.573  1.00  0.00    -0.026 SA
BRANCH  19  22
HETATM   22  N3  UNL     1      20.146 -22.627  21.316  1.00  0.00    -0.302 N 
HETATM   23  C7  UNL     1      20.842 -22.772  22.525  1.00  0.00     0.261 C 
HETATM   24  O1  UNL     1      21.392 -23.877  22.764  1.00  0.00    -0.267 OA
ATOM     25  H3  UNL     1      20.468 -21.937  20.637  1.00  0.00     0.171 HD
BRANCH  23  26
HETATM   26  C6  UNL     1      20.950 -21.701  23.505  1.00  0.00     0.079 A 
HETATM   27  C2  UNL     1      22.122 -21.342  24.174  1.00  0.00     0.040 A 
HETATM   28  C1  UNL     1      23.445 -21.994  23.996  1.00  0.00     0.071 C 
HETATM   29  N1  UNL     1      21.763 -20.324  24.966  1.00  0.00    -0.302 N 
HETATM   30  N2  UNL     1      20.486 -20.032  24.840  1.00  0.00    -0.300 N 
ATOM     31  H1  UNL     1      22.403 -19.834  25.591  1.00  0.00     0.186 HD
HETATM   32  C3  UNL     1      19.762 -18.988  25.547  1.00  0.00     0.177 C 
HETATM   33  C4  UNL     1      19.934 -20.873  23.932  1.00  0.00     0.042 A 
HETATM   34  C5  UNL     1      18.520 -20.882  23.499  1.00  0.00     0.071 C 
ENDBRANCH  23  26
ENDBRANCH  19  22
ENDBRANCH  14  15
ENDBRANCH  13  14
ENDBRANCH   9  13
ENDBRANCH   1   5
TORSDOF 6
ENDMDL
