MODEL 1
REMARK VINA RESULT: -9.584525593      0.000      0.000
REMARK  6 active torsions:
REMARK  status: ('A' for Active; 'I' for Inactive)
REMARK    1  A    between atoms: O1_2  and  C2_3 
REMARK    2  A    between atoms: C2_3  and  C3_5 
REMARK    3  A    between atoms: C5_7  and  N1_8 
REMARK    4  A    between atoms: C11_15  and  C12_16 
REMARK    5  A    between atoms: C13_21  and  N5_22 
REMARK    6  A    between atoms: C15_26  and  C16_27 
ROOT
HETATM    1  N1  UNL     1      20.862 -21.580  23.635  1.00  0.00    -0.296 N 
HETATM    2  C6  UNL     1      22.169 -21.869  23.620  1.00  0.00     0.016 A 
HETATM    3  C7  UNL     1      23.169 -21.257  24.550  1.00  0.00     0.068 C 
HETATM    4  C8  UNL     1      22.421 -22.805  22.620  1.00  0.00     0.050 A 
HETATM    5  C9  UNL     1      21.217 -23.087  22.016  1.00  0.00     0.079 A 
HETATM    6  C10 UNL     1      20.973 -24.007  20.917  1.00  0.00     0.102 C 
HETATM    7  N2  UNL     1      20.780 -24.754  20.055  1.00  0.00    -0.191 NA
HETATM    8  C11 UNL     1      20.277 -22.315  22.666  1.00  0.00     0.127 A 
ENDROOT
BRANCH   8   9
HETATM    9  C12 UNL     1      18.851 -22.275  22.370  1.00  0.00     0.283 C 
HETATM   10  N3  UNL     1      17.977 -23.224  22.971  1.00  0.00    -0.056 NA
HETATM   11  O3  UNL     1      18.345 -21.425  21.594  1.00  0.00    -0.269 OA
ENDBRANCH   8   9
BRANCH   1  12
HETATM   12  C5  UNL     1      20.233 -20.662  24.525  1.00  0.00     0.115 A 
HETATM   13  C4  UNL     1      20.902 -19.591  25.081  1.00  0.00     0.069 A 
HETATM   14  C3  UNL     1      20.293 -18.705  25.941  1.00  0.00     0.071 A 
HETATM   15  C19 UNL     1      18.952 -18.950  26.221  1.00  0.00     0.108 A 
HETATM   16  C13 UNL     1      18.276 -20.014  25.674  1.00  0.00     0.157 A 
HETATM   17  N7  UNL     1      18.245 -18.087  27.098  1.00  0.00    -0.097 NA
HETATM   18  N4  UNL     1      18.927 -20.845  24.839  1.00  0.00    -0.325 N 
ATOM     19  H4  UNL     1      18.424 -21.635  24.432  1.00  0.00     0.169 HD
BRANCH  14  20
HETATM   20  C2  UNL     1      21.018 -17.581  26.516  1.00  0.00     0.295 C 
HETATM   21  O2  UNL     1      21.089 -16.523  25.862  1.00  0.00    -0.259 OA
BRANCH  20  22
HETATM   22  O1  UNL     1      21.630 -17.627  27.744  1.00  0.00    -0.322 OA
HETATM   23  C1  UNL     1      20.902 -17.465  28.946  1.00  0.00     0.213 C 
ENDBRANCH  20  22
ENDBRANCH  14  20
BRANCH  16  24
HETATM   24  N5  UNL     1      16.909 -20.185  26.017  1.00  0.00    -0.201 N 
HETATM   25  N6  UNL     1      16.407 -20.215  27.239  1.00  0.00    -0.300 N 
HETATM   26  C14 UNL     1      15.078 -20.395  27.142  1.00  0.00     0.128 A 
ATOM     27  H6  UNL     1      16.936 -20.119  28.106  1.00  0.00     0.186 HD
HETATM   28  C15 UNL     1      14.728 -20.481  25.814  1.00  0.00     0.096 A 
HETATM   29  C18 UNL     1      15.908 -20.346  25.115  1.00  0.00     0.283 A 
HETATM   30  O5  UNL     1      16.041 -20.366  23.850  1.00  0.00    -0.265 OA
BRANCH  28  31
HETATM   31  C16 UNL     1      13.398 -20.675  25.264  1.00  0.00     0.162 C 
HETATM   32  C17 UNL     1      12.501 -19.524  25.073  1.00  0.00     0.097 C 
HETATM   33  O4  UNL     1      13.035 -21.828  24.961  1.00  0.00    -0.293 OA
ENDBRANCH  28  31
ENDBRANCH  16  24
ENDBRANCH   1  12
TORSDOF 6
ENDMDL
MODEL 2
REMARK VINA RESULT: -8.942126643      3.217      7.035
REMARK  6 active torsions:
REMARK  status: ('A' for Active; 'I' for Inactive)
REMARK    1  A    between atoms: O1_2  and  C2_3 
REMARK    2  A    between atoms: C2_3  and  C3_5 
REMARK    3  A    between atoms: C5_7  and  N1_8 
REMARK    4  A    between atoms: C11_15  and  C12_16 
REMARK    5  A    between atoms: C13_21  and  N5_22 
REMARK    6  A    between atoms: C15_26  and  C16_27 
ROOT
HETATM    1  N1  UNL     1      20.990 -21.732  23.593  1.00  0.00    -0.296 N 
HETATM    2  C6  UNL     1      22.039 -21.394  24.355  1.00  0.00     0.016 A 
HETATM    3  C7  UNL     1      23.407 -21.977  24.196  1.00  0.00     0.068 C 
HETATM    4  C8  UNL     1      21.639 -20.440  25.287  1.00  0.00     0.050 A 
HETATM    5  C9  UNL     1      20.301 -20.198  25.072  1.00  0.00     0.079 A 
HETATM    6  C10 UNL     1      19.442 -19.278  25.799  1.00  0.00     0.102 C 
HETATM    7  N2  UNL     1      18.765 -18.531  26.367  1.00  0.00    -0.191 NA
HETATM    8  C11 UNL     1      19.933 -21.011  24.021  1.00  0.00     0.127 A 
ENDROOT
BRANCH   8   9
HETATM    9  C12 UNL     1      18.602 -21.101  23.435  1.00  0.00     0.283 C 
HETATM   10  N3  UNL     1      17.778 -22.225  23.720  1.00  0.00    -0.056 NA
HETATM   11  O3  UNL     1      18.137 -20.213  22.676  1.00  0.00    -0.269 OA
ENDBRANCH   8   9
BRANCH   1  12
HETATM   12  C5  UNL     1      21.018 -22.682  22.530  1.00  0.00     0.115 A 
HETATM   13  C4  UNL     1      22.035 -22.723  21.598  1.00  0.00     0.069 A 
HETATM   14  C3  UNL     1      22.060 -23.640  20.572  1.00  0.00     0.071 A 
HETATM   15  C19 UNL     1      20.994 -24.534  20.526  1.00  0.00     0.108 A 
HETATM   16  C13 UNL     1      19.976 -24.502  21.449  1.00  0.00     0.157 A 
HETATM   17  N7  UNL     1      20.938 -25.514  19.502  1.00  0.00    -0.097 NA
HETATM   18  N4  UNL     1      20.008 -23.580  22.430  1.00  0.00    -0.325 N 
ATOM     19  H4  UNL     1      19.252 -23.557  23.115  1.00  0.00     0.169 HD
BRANCH  14  20
HETATM   20  C2  UNL     1      23.142 -23.667  19.600  1.00  0.00     0.295 C 
HETATM   21  O2  UNL     1      23.575 -22.583  19.162  1.00  0.00    -0.259 OA
BRANCH  20  22
HETATM   22  O1  UNL     1      23.713 -24.826  19.137  1.00  0.00    -0.322 OA
HETATM   23  C1  UNL     1      24.833 -24.813  18.273  1.00  0.00     0.213 C 
ENDBRANCH  20  22
ENDBRANCH  14  20
BRANCH  16  24
HETATM   24  N5  UNL     1      18.929 -25.453  21.323  1.00  0.00    -0.201 N 
HETATM   25  N6  UNL     1      19.024 -26.754  21.534  1.00  0.00    -0.300 N 
HETATM   26  C14 UNL     1      17.817 -27.304  21.309  1.00  0.00     0.128 A 
ATOM     27  H6  UNL     1      19.866 -27.254  21.818  1.00  0.00     0.186 HD
HETATM   28  C15 UNL     1      16.930 -26.318  20.943  1.00  0.00     0.096 A 
HETATM   29  C18 UNL     1      17.658 -25.147  20.957  1.00  0.00     0.283 A 
HETATM   30  O5  UNL     1      17.221 -23.985  20.681  1.00  0.00    -0.265 OA
BRANCH  28  31
HETATM   31  C16 UNL     1      15.525 -26.475  20.612  1.00  0.00     0.162 C 
HETATM   32  C17 UNL     1      14.496 -26.295  21.647  1.00  0.00     0.097 C 
HETATM   33  O4  UNL     1      15.214 -26.766  19.441  1.00  0.00    -0.293 OA
ENDBRANCH  28  31
ENDBRANCH  16  24
ENDBRANCH   1  12
TORSDOF 6
ENDMDL
MODEL 3
REMARK VINA RESULT: -8.661544609      3.502      6.802
REMARK  6 active torsions:
REMARK  status: ('A' for Active; 'I' for Inactive)
REMARK    1  A    between atoms: O1_2  and  C2_3 
REMARK    2  A    between atoms: C2_3  and  C3_5 
REMARK    3  A    between atoms: C5_7  and  N1_8 
REMARK    4  A    between atoms: C11_15  and  C12_16 
REMARK    5  A    between atoms: C13_21  and  N5_22 
REMARK    6  A    between atoms: C15_26  and  C16_27 
ROOT
HETATM    1  N1  UNL     1      19.322 -22.360  23.313  1.00  0.00    -0.296 N 
HETATM    2  C6  UNL     1      20.660 -22.414  23.343  1.00  0.00     0.016 A 
HETATM    3  C7  UNL     1      21.460 -23.560  22.812  1.00  0.00     0.068 C 
HETATM    4  C8  UNL     1      21.152 -21.255  23.939  1.00  0.00     0.050 A 
HETATM    5  C9  UNL     1      20.067 -20.479  24.275  1.00  0.00     0.079 A 
HETATM    6  C10 UNL     1      20.078 -19.176  24.921  1.00  0.00     0.102 C 
HETATM    7  N2  UNL     1      20.091 -18.132  25.418  1.00  0.00    -0.191 NA
HETATM    8  C11 UNL     1      18.955 -21.190  23.876  1.00  0.00     0.127 A 
ENDROOT
BRANCH   8   9
HETATM    9  C12 UNL     1      17.569 -20.765  24.027  1.00  0.00     0.283 C 
HETATM   10  N3  UNL     1      16.849 -21.105  25.206  1.00  0.00    -0.056 NA
HETATM   11  O3  UNL     1      16.968 -20.097  23.147  1.00  0.00    -0.269 OA
ENDBRANCH   8   9
BRANCH   1  12
HETATM   12  C5  UNL     1      18.471 -23.369  22.777  1.00  0.00     0.115 A 
HETATM   13  C4  UNL     1      18.530 -23.766  21.457  1.00  0.00     0.069 A 
HETATM   14  C3  UNL     1      17.706 -24.740  20.940  1.00  0.00     0.071 A 
HETATM   15  C19 UNL     1      16.802 -25.309  21.830  1.00  0.00     0.108 A 
HETATM   16  C13 UNL     1      16.733 -24.922  23.147  1.00  0.00     0.157 A 
HETATM   17  N7  UNL     1      15.913 -26.322  21.384  1.00  0.00    -0.097 NA
HETATM   18  N4  UNL     1      17.566 -23.963  23.593  1.00  0.00    -0.325 N 
ATOM     19  H4  UNL     1      17.516 -23.676  24.571  1.00  0.00     0.169 HD
BRANCH  14  20
HETATM   20  C2  UNL     1      17.786 -25.143  19.544  1.00  0.00     0.295 C 
HETATM   21  O2  UNL     1      18.777 -25.801  19.171  1.00  0.00    -0.259 OA
BRANCH  20  22
HETATM   22  O1  UNL     1      16.825 -24.836  18.613  1.00  0.00    -0.322 OA
HETATM   23  C1  UNL     1      16.420 -25.765  17.626  1.00  0.00     0.213 C 
ENDBRANCH  20  22
ENDBRANCH  14  20
BRANCH  16  24
HETATM   24  N5  UNL     1      15.778 -25.559  23.982  1.00  0.00    -0.201 N 
HETATM   25  N6  UNL     1      15.503 -26.851  24.014  1.00  0.00    -0.300 N 
HETATM   26  C14 UNL     1      14.544 -27.054  24.934  1.00  0.00     0.128 A 
ATOM     27  H6  UNL     1      15.942 -27.570  23.439  1.00  0.00     0.186 HD
HETATM   28  C15 UNL     1      14.200 -25.849  25.504  1.00  0.00     0.096 A 
HETATM   29  C18 UNL     1      14.997 -24.910  24.884  1.00  0.00     0.283 A 
HETATM   30  O5  UNL     1      15.005 -23.659  25.112  1.00  0.00    -0.265 OA
BRANCH  28  31
HETATM   31  C16 UNL     1      13.209 -25.615  26.539  1.00  0.00     0.162 C 
HETATM   32  C17 UNL     1      13.322 -26.292  27.840  1.00  0.00     0.097 C 
HETATM   33  O4  UNL     1      12.267 -24.834  26.302  1.00  0.00    -0.293 OA
ENDBRANCH  28  31
ENDBRANCH  16  24
ENDBRANCH   1  12
TORSDOF 6
ENDMDL
MODEL 4
REMARK VINA RESULT: -8.582704028      5.036      9.216
REMARK  6 active torsions:
REMARK  status: ('A' for Active; 'I' for Inactive)
REMARK    1  A    between atoms: O1_2  and  C2_3 
REMARK    2  A    between atoms: C2_3  and  C3_5 
REMARK    3  A    between atoms: C5_7  and  N1_8 
REMARK    4  A    between atoms: C11_15  and  C12_16 
REMARK    5  A    between atoms: C13_21  and  N5_22 
REMARK    6  A    between atoms: C15_26  and  C16_27 
ROOT
HETATM    1  N1  UNL     1      14.622 -26.606  25.915  1.00  0.00    -0.296 N 
HETATM    2  C6  UNL     1      14.687 -27.805  26.508  1.00  0.00     0.016 A 
HETATM    3  C7  UNL     1      15.263 -29.025  25.861  1.00  0.00     0.068 C 
HETATM    4  C8  UNL     1      14.141 -27.716  27.786  1.00  0.00     0.050 A 
HETATM    5  C9  UNL     1      13.736 -26.412  27.964  1.00  0.00     0.079 A 
HETATM    6  C10 UNL     1      13.107 -25.835  29.140  1.00  0.00     0.102 C 
HETATM    7  N2  UNL     1      12.624 -25.375  30.085  1.00  0.00    -0.191 NA
HETATM    8  C11 UNL     1      14.046 -25.756  26.791  1.00  0.00     0.127 A 
ENDROOT
BRANCH   8   9
HETATM    9  C12 UNL     1      13.801 -24.347  26.510  1.00  0.00     0.283 C 
HETATM   10  N3  UNL     1      14.806 -23.382  26.798  1.00  0.00    -0.056 NA
HETATM   11  O3  UNL     1      12.721 -23.937  26.013  1.00  0.00    -0.269 OA
ENDBRANCH   8   9
BRANCH   1  12
HETATM   12  C5  UNL     1      15.084 -26.313  24.600  1.00  0.00     0.115 A 
HETATM   13  C4  UNL     1      14.525 -26.878  23.473  1.00  0.00     0.069 A 
HETATM   14  C3  UNL     1      14.974 -26.595  22.203  1.00  0.00     0.071 A 
HETATM   15  C19 UNL     1      16.033 -25.697  22.116  1.00  0.00     0.108 A 
HETATM   16  C13 UNL     1      16.599 -25.127  23.232  1.00  0.00     0.157 A 
HETATM   17  N7  UNL     1      16.560 -25.347  20.846  1.00  0.00    -0.097 NA
HETATM   18  N4  UNL     1      16.115 -25.445  24.448  1.00  0.00    -0.325 N 
ATOM     19  H4  UNL     1      16.535 -25.021  25.275  1.00  0.00     0.169 HD
BRANCH  14  20
HETATM   20  C2  UNL     1      14.368 -27.203  21.027  1.00  0.00     0.295 C 
HETATM   21  O2  UNL     1      13.308 -26.719  20.587  1.00  0.00    -0.259 OA
BRANCH  20  22
HETATM   22  O1  UNL     1      14.905 -28.286  20.376  1.00  0.00    -0.322 OA
HETATM   23  C1  UNL     1      15.415 -28.187  19.061  1.00  0.00     0.213 C 
ENDBRANCH  20  22
ENDBRANCH  14  20
BRANCH  16  24
HETATM   24  N5  UNL     1      17.676 -24.222  23.046  1.00  0.00    -0.201 N 
HETATM   25  N6  UNL     1      18.782 -24.450  22.360  1.00  0.00    -0.300 N 
HETATM   26  C14 UNL     1      19.550 -23.348  22.424  1.00  0.00     0.128 A 
ATOM     27  H6  UNL     1      19.013 -25.313  21.868  1.00  0.00     0.186 HD
HETATM   28  C15 UNL     1      18.909 -22.391  23.176  1.00  0.00     0.096 A 
HETATM   29  C18 UNL     1      17.718 -22.967  23.563  1.00  0.00     0.283 A 
HETATM   30  O5  UNL     1      16.814 -22.424  24.276  1.00  0.00    -0.265 OA
BRANCH  28  31
HETATM   31  C16 UNL     1      19.384 -21.057  23.495  1.00  0.00     0.162 C 
HETATM   32  C17 UNL     1      20.723 -20.867  24.075  1.00  0.00     0.097 C 
HETATM   33  O4  UNL     1      18.639 -20.084  23.269  1.00  0.00    -0.293 OA
ENDBRANCH  28  31
ENDBRANCH  16  24
ENDBRANCH   1  12
TORSDOF 6
ENDMDL
MODEL 5
REMARK VINA RESULT: -8.568607405      5.685     10.170
REMARK  6 active torsions:
REMARK  status: ('A' for Active; 'I' for Inactive)
REMARK    1  A    between atoms: O1_2  and  C2_3 
REMARK    2  A    between atoms: C2_3  and  C3_5 
REMARK    3  A    between atoms: C5_7  and  N1_8 
REMARK    4  A    between atoms: C11_15  and  C12_16 
REMARK    5  A    between atoms: C13_21  and  N5_22 
REMARK    6  A    between atoms: C15_26  and  C16_27 
ROOT
HETATM    1  N1  UNL     1      14.311 -26.982  25.621  1.00  0.00    -0.296 N 
HETATM    2  C6  UNL     1      14.322 -28.087  26.378  1.00  0.00     0.016 A 
HETATM    3  C7  UNL     1      14.487 -29.469  25.832  1.00  0.00     0.068 C 
HETATM    4  C8  UNL     1      14.158 -27.729  27.714  1.00  0.00     0.050 A 
HETATM    5  C9  UNL     1      14.045 -26.358  27.756  1.00  0.00     0.079 A 
HETATM    6  C10 UNL     1      13.859 -25.522  28.931  1.00  0.00     0.102 C 
HETATM    7  N2  UNL     1      13.730 -24.859  29.870  1.00  0.00    -0.191 NA
HETATM    8  C11 UNL     1      14.144 -25.929  26.449  1.00  0.00     0.127 A 
ENDROOT
BRANCH   8   9
HETATM    9  C12 UNL     1      14.080 -24.546  25.997  1.00  0.00     0.283 C 
HETATM   10  N3  UNL     1      15.271 -23.874  25.602  1.00  0.00    -0.056 NA
HETATM   11  O3  UNL     1      13.000 -23.904  25.936  1.00  0.00    -0.269 OA
ENDBRANCH   8   9
BRANCH   1  12
HETATM   12  C5  UNL     1      14.454 -26.955  24.203  1.00  0.00     0.115 A 
HETATM   13  C4  UNL     1      13.415 -27.255  23.347  1.00  0.00     0.069 A 
HETATM   14  C3  UNL     1      13.554 -27.230  21.978  1.00  0.00     0.071 A 
HETATM   15  C19 UNL     1      14.813 -26.880  21.499  1.00  0.00     0.108 A 
HETATM   16  C13 UNL     1      15.856 -26.579  22.343  1.00  0.00     0.157 A 
HETATM   17  N7  UNL     1      15.047 -26.828  20.101  1.00  0.00    -0.097 NA
HETATM   18  N4  UNL     1      15.656 -26.622  23.674  1.00  0.00    -0.325 N 
ATOM     19  H4  UNL     1      16.431 -26.398  24.299  1.00  0.00     0.169 HD
BRANCH  14  20
HETATM   20  C2  UNL     1      12.444 -27.550  21.093  1.00  0.00     0.295 C 
HETATM   21  O2  UNL     1      11.351 -26.980  21.280  1.00  0.00    -0.259 OA
BRANCH  20  22
HETATM   22  O1  UNL     1      12.537 -28.450  20.060  1.00  0.00    -0.322 OA
HETATM   23  C1  UNL     1      12.823 -29.816  20.286  1.00  0.00     0.213 C 
ENDBRANCH  20  22
ENDBRANCH  14  20
BRANCH  16  24
HETATM   24  N5  UNL     1      17.105 -26.233  21.764  1.00  0.00    -0.201 N 
HETATM   25  N6  UNL     1      17.828 -26.986  20.953  1.00  0.00    -0.300 N 
HETATM   26  C14 UNL     1      18.939 -26.303  20.626  1.00  0.00     0.128 A 
ATOM     27  H6  UNL     1      17.585 -27.923  20.632  1.00  0.00     0.186 HD
HETATM   28  C15 UNL     1      18.918 -25.078  21.251  1.00  0.00     0.096 A 
HETATM   29  C18 UNL     1      17.743 -25.053  21.970  1.00  0.00     0.283 A 
HETATM   30  O5  UNL     1      17.325 -24.098  22.699  1.00  0.00    -0.265 OA
BRANCH  28  31
HETATM   31  C16 UNL     1      19.922 -24.031  21.170  1.00  0.00     0.162 C 
HETATM   32  C17 UNL     1      19.643 -22.794  20.423  1.00  0.00     0.097 C 
HETATM   33  O4  UNL     1      21.015 -24.202  21.743  1.00  0.00    -0.293 OA
ENDBRANCH  28  31
ENDBRANCH  16  24
ENDBRANCH   1  12
TORSDOF 6
ENDMDL
