MODEL 1
REMARK VINA RESULT: -7.805168929      0.000      0.000
REMARK  5 active torsions:
REMARK  status: ('A' for Active; 'I' for Inactive)
REMARK    1  A    between atoms: C2_2  and  N1_3 
REMARK    2  A    between atoms: N1_3  and  C3_5 
REMARK    3  A    between atoms: C6_10  and  N3_11 
REMARK    4  A    between atoms: N3_11  and  C7_13 
REMARK    5  A    between atoms: C14_20  and  C15_21 
ROOT
HETATM    1  C3  UNL     1      13.954   9.928   2.796  1.00  0.00     0.679 A 
HETATM    2  N2  UNL     1      13.983   8.673   2.341  1.00  0.00    -0.202 N 
ATOM      3  H2  UNL     1      14.810   8.102   2.521  1.00  0.00     0.183 HD
HETATM    4  C4  UNL     1      12.965   8.139   1.658  1.00  0.00     0.110 A 
HETATM    5  C5  UNL     1      11.854   8.963   1.439  1.00  0.00     0.066 A 
HETATM    6  C6  UNL     1      11.795  10.258   1.893  1.00  0.00     0.118 A 
HETATM    7  N4  UNL     1      12.883  10.689   2.571  1.00  0.00    -0.177 N 
ATOM      8  H4  UNL     1      12.884  11.645   2.929  1.00  0.00     0.185 HD
ENDROOT
BRANCH   6   9
HETATM    9  N3  UNL     1      10.702  11.122   1.680  1.00  0.00    -0.371 N 
ATOM     10  H3  UNL     1      10.833  12.090   1.972  1.00  0.00     0.161 HD
BRANCH   9  11
HETATM   11  C7  UNL     1       9.436  10.806   1.105  1.00  0.00     0.087 C 
HETATM   12  C8  UNL     1       8.546  11.936   0.770  1.00  0.00     0.025 C 
HETATM   13  C9  UNL     1       8.523  13.042   1.797  1.00  0.00     0.002 C 
HETATM   14  C10 UNL     1       7.155  13.034   2.448  1.00  0.00     0.000 C 
HETATM   15  C11 UNL     1       7.271  12.227   3.722  1.00  0.00     0.000 C 
HETATM   16  C12 UNL     1       6.983  10.771   3.336  1.00  0.00     0.000 C 
HETATM   17  C13 UNL     1       8.284  10.074   3.239  1.00  0.00     0.007 C 
HETATM   18  C14 UNL     1       8.758   9.683   1.891  1.00  0.00     0.008 C 
BRANCH  18  19
HETATM   19  C15 UNL     1       7.782   8.900   1.072  1.00  0.00     0.002 C 
HETATM   20  C16 UNL     1       8.401   7.622   0.519  1.00  0.00     0.005 C 
ENDBRANCH  18  19
ENDBRANCH   9  11
ENDBRANCH   6   9
BRANCH   1  21
HETATM   21  N1  UNL     1      14.974  10.419   3.463  1.00  0.00    -0.226 N 
ATOM     22  H1  UNL     1      15.557  11.138   3.034  1.00  0.00     0.177 HD
BRANCH  21  23
HETATM   23  C2  UNL     1      15.279   9.956   4.792  1.00  0.00     0.133 C 
HETATM   24  C1  UNL     1      14.080  10.072   5.720  1.00  0.00     0.027 C 
ENDBRANCH  21  23
ENDBRANCH   1  21
TORSDOF 5
ENDMDL
MODEL 2
REMARK VINA RESULT: -7.557267212      0.931      2.885
REMARK  5 active torsions:
REMARK  status: ('A' for Active; 'I' for Inactive)
REMARK    1  A    between atoms: C2_2  and  N1_3 
REMARK    2  A    between atoms: N1_3  and  C3_5 
REMARK    3  A    between atoms: C6_10  and  N3_11 
REMARK    4  A    between atoms: N3_11  and  C7_13 
REMARK    5  A    between atoms: C14_20  and  C15_21 
ROOT
HETATM    1  C3  UNL     1      13.867  10.003   2.809  1.00  0.00     0.679 A 
HETATM    2  N2  UNL     1      13.989   8.725   2.439  1.00  0.00    -0.202 N 
ATOM      3  H2  UNL     1      14.828   8.211   2.711  1.00  0.00     0.183 HD
HETATM    4  C4  UNL     1      13.048   8.098   1.726  1.00  0.00     0.110 A 
HETATM    5  C5  UNL     1      11.917   8.847   1.380  1.00  0.00     0.066 A 
HETATM    6  C6  UNL     1      11.763  10.162   1.744  1.00  0.00     0.118 A 
HETATM    7  N4  UNL     1      12.780  10.691   2.465  1.00  0.00    -0.177 N 
ATOM      8  H4  UNL     1      12.709  11.666   2.759  1.00  0.00     0.185 HD
ENDROOT
BRANCH   6   9
HETATM    9  N3  UNL     1      10.648  10.952   1.403  1.00  0.00    -0.371 N 
ATOM     10  H3  UNL     1      10.682  11.405   0.489  1.00  0.00     0.161 HD
BRANCH   9  11
HETATM   11  C7  UNL     1       9.478  11.196   2.181  1.00  0.00     0.087 C 
HETATM   12  C8  UNL     1       8.563  10.057   2.400  1.00  0.00     0.025 C 
HETATM   13  C9  UNL     1       8.354   9.179   1.191  1.00  0.00     0.002 C 
HETATM   14  C10 UNL     1       6.924   9.369   0.729  1.00  0.00     0.000 C 
HETATM   15  C11 UNL     1       6.943  10.409  -0.370  1.00  0.00     0.000 C 
HETATM   16  C12 UNL     1       6.793  11.769   0.323  1.00  0.00     0.000 C 
HETATM   17  C13 UNL     1       8.136  12.382   0.389  1.00  0.00     0.007 C 
HETATM   18  C14 UNL     1       8.786  12.478   1.717  1.00  0.00     0.008 C 
BRANCH  18  19
HETATM   19  C15 UNL     1       7.960  13.120   2.788  1.00  0.00     0.002 C 
HETATM   20  C16 UNL     1       8.182  14.626   2.849  1.00  0.00     0.005 C 
ENDBRANCH  18  19
ENDBRANCH   9  11
ENDBRANCH   6   9
BRANCH   1  21
HETATM   21  N1  UNL     1      14.813  10.587   3.510  1.00  0.00    -0.226 N 
ATOM     22  H1  UNL     1      15.283  11.410   3.133  1.00  0.00     0.177 HD
BRANCH  21  23
HETATM   23  C2  UNL     1      15.195  10.081   4.802  1.00  0.00     0.133 C 
HETATM   24  C1  UNL     1      14.023  10.072   5.773  1.00  0.00     0.027 C 
ENDBRANCH  21  23
ENDBRANCH   1  21
TORSDOF 5
ENDMDL
MODEL 3
REMARK VINA RESULT: -7.229129326      1.415      3.088
REMARK  5 active torsions:
REMARK  status: ('A' for Active; 'I' for Inactive)
REMARK    1  A    between atoms: C2_2  and  N1_3 
REMARK    2  A    between atoms: N1_3  and  C3_5 
REMARK    3  A    between atoms: C6_10  and  N3_11 
REMARK    4  A    between atoms: N3_11  and  C7_13 
REMARK    5  A    between atoms: C14_20  and  C15_21 
ROOT
HETATM    1  C3  UNL     1      13.223   9.971   2.153  1.00  0.00     0.679 A 
HETATM    2  N2  UNL     1      13.142   8.671   1.859  1.00  0.00    -0.202 N 
ATOM      3  H2  UNL     1      13.957   8.078   2.017  1.00  0.00     0.183 HD
HETATM    4  C4  UNL     1      12.028   8.121   1.365  1.00  0.00     0.110 A 
HETATM    5  C5  UNL     1      10.937   8.977   1.169  1.00  0.00     0.066 A 
HETATM    6  C6  UNL     1      10.990  10.318   1.460  1.00  0.00     0.118 A 
HETATM    7  N4  UNL     1      12.169  10.762   1.955  1.00  0.00    -0.177 N 
ATOM      8  H4  UNL     1      12.255  11.752   2.187  1.00  0.00     0.185 HD
ENDROOT
BRANCH   6   9
HETATM    9  N3  UNL     1       9.920  11.213   1.263  1.00  0.00    -0.371 N 
ATOM     10  H3  UNL     1       9.876  11.663   0.348  1.00  0.00     0.161 HD
BRANCH   9  11
HETATM   11  C7  UNL     1       8.893  11.566   2.187  1.00  0.00     0.087 C 
HETATM   12  C8  UNL     1       7.849  10.554   2.454  1.00  0.00     0.025 C 
HETATM   13  C9  UNL     1       7.380   9.801   1.234  1.00  0.00     0.002 C 
HETATM   14  C10 UNL     1       5.951  10.222   0.957  1.00  0.00     0.000 C 
HETATM   15  C11 UNL     1       6.002  11.322  -0.081  1.00  0.00     0.000 C 
HETATM   16  C12 UNL     1       6.133  12.638   0.695  1.00  0.00     0.000 C 
HETATM   17  C13 UNL     1       7.552  13.049   0.632  1.00  0.00     0.007 C 
HETATM   18  C14 UNL     1       8.351  12.961   1.876  1.00  0.00     0.008 C 
BRANCH  18  19
HETATM   19  C15 UNL     1       7.754  13.638   3.069  1.00  0.00     0.002 C 
HETATM   20  C16 UNL     1       8.131  15.112   3.134  1.00  0.00     0.005 C 
ENDBRANCH  18  19
ENDBRANCH   9  11
ENDBRANCH   6   9
BRANCH   1  21
HETATM   21  N1  UNL     1      14.335  10.477   2.637  1.00  0.00    -0.226 N 
ATOM     22  H1  UNL     1      14.427  11.489   2.735  1.00  0.00     0.177 HD
BRANCH  21  23
HETATM   23  C2  UNL     1      15.426   9.624   3.029  1.00  0.00     0.133 C 
HETATM   24  C1  UNL     1      15.776   9.794   4.499  1.00  0.00     0.027 C 
ENDBRANCH  21  23
ENDBRANCH   1  21
TORSDOF 5
ENDMDL
MODEL 4
REMARK VINA RESULT: -7.181321995      1.472      1.669
REMARK  5 active torsions:
REMARK  status: ('A' for Active; 'I' for Inactive)
REMARK    1  A    between atoms: C2_2  and  N1_3 
REMARK    2  A    between atoms: N1_3  and  C3_5 
REMARK    3  A    between atoms: C6_10  and  N3_11 
REMARK    4  A    between atoms: N3_11  and  C7_13 
REMARK    5  A    between atoms: C14_20  and  C15_21 
ROOT
HETATM    1  C3  UNL     1      12.632   9.066   3.676  1.00  0.00     0.679 A 
HETATM    2  N2  UNL     1      13.044   8.584   2.501  1.00  0.00    -0.202 N 
ATOM      3  H2  UNL     1      13.933   8.085   2.456  1.00  0.00     0.183 HD
HETATM    4  C4  UNL     1      12.329   8.734   1.381  1.00  0.00     0.110 A 
HETATM    5  C5  UNL     1      11.116   9.424   1.496  1.00  0.00     0.066 A 
HETATM    6  C6  UNL     1      10.667   9.932   2.691  1.00  0.00     0.118 A 
HETATM    7  N4  UNL     1      11.474   9.719   3.756  1.00  0.00    -0.177 N 
ATOM      8  H4  UNL     1      11.181  10.077   4.665  1.00  0.00     0.185 HD
ENDROOT
BRANCH   6   9
HETATM    9  N3  UNL     1       9.461  10.644   2.844  1.00  0.00    -0.371 N 
ATOM     10  H3  UNL     1       9.208  10.896   3.800  1.00  0.00     0.161 HD
BRANCH   9  11
HETATM   11  C7  UNL     1       8.552  11.055   1.825  1.00  0.00     0.087 C 
HETATM   12  C8  UNL     1       8.521  12.494   1.489  1.00  0.00     0.025 C 
HETATM   13  C9  UNL     1       8.607  13.418   2.678  1.00  0.00     0.002 C 
HETATM   14  C10 UNL     1       7.267  14.110   2.818  1.00  0.00     0.000 C 
HETATM   15  C11 UNL     1       6.462  13.326   3.832  1.00  0.00     0.000 C 
HETATM   16  C12 UNL     1       5.709  12.249   3.042  1.00  0.00     0.000 C 
HETATM   17  C13 UNL     1       6.440  10.977   3.222  1.00  0.00     0.007 C 
HETATM   18  C14 UNL     1       7.175  10.434   2.056  1.00  0.00     0.008 C 
BRANCH  18  19
HETATM   19  C15 UNL     1       6.373  10.302   0.799  1.00  0.00     0.002 C 
HETATM   20  C16 UNL     1       7.254  10.012  -0.409  1.00  0.00     0.005 C 
ENDBRANCH  18  19
ENDBRANCH   9  11
ENDBRANCH   6   9
BRANCH   1  21
HETATM   21  N1  UNL     1      13.362   8.899   4.757  1.00  0.00    -0.226 N 
ATOM     22  H1  UNL     1      13.552   7.956   5.095  1.00  0.00     0.177 HD
BRANCH  21  23
HETATM   23  C2  UNL     1      13.896  10.031   5.469  1.00  0.00     0.133 C 
HETATM   24  C1  UNL     1      15.303  10.378   5.005  1.00  0.00     0.027 C 
ENDBRANCH  21  23
ENDBRANCH   1  21
TORSDOF 5
ENDMDL
MODEL 5
REMARK VINA RESULT: -7.148873062      1.324      2.896
REMARK  5 active torsions:
REMARK  status: ('A' for Active; 'I' for Inactive)
REMARK    1  A    between atoms: C2_2  and  N1_3 
REMARK    2  A    between atoms: N1_3  and  C3_5 
REMARK    3  A    between atoms: C6_10  and  N3_11 
REMARK    4  A    between atoms: N3_11  and  C7_13 
REMARK    5  A    between atoms: C14_20  and  C15_21 
ROOT
HETATM    1  C3  UNL     1      12.867   9.305   3.853  1.00  0.00     0.679 A 
HETATM    2  N2  UNL     1      13.431   8.483   2.965  1.00  0.00    -0.202 N 
ATOM      3  H2  UNL     1      14.230   7.918   3.254  1.00  0.00     0.183 HD
HETATM    4  C4  UNL     1      12.985   8.377   1.709  1.00  0.00     0.110 A 
HETATM    5  C5  UNL     1      11.886   9.173   1.363  1.00  0.00     0.066 A 
HETATM    6  C6  UNL     1      11.284  10.028   2.253  1.00  0.00     0.118 A 
HETATM    7  N4  UNL     1      11.822  10.051   3.495  1.00  0.00    -0.177 N 
ATOM      8  H4  UNL     1      11.408  10.671   4.192  1.00  0.00     0.185 HD
ENDROOT
BRANCH   6   9
HETATM    9  N3  UNL     1      10.188  10.854   1.939  1.00  0.00    -0.371 N 
ATOM     10  H3  UNL     1      10.385  11.649   1.331  1.00  0.00     0.161 HD
BRANCH   9  11
HETATM   11  C7  UNL     1       8.835  10.715   2.369  1.00  0.00     0.087 C 
HETATM   12  C8  UNL     1       7.968   9.810   1.586  1.00  0.00     0.025 C 
HETATM   13  C9  UNL     1       8.157   9.898   0.092  1.00  0.00     0.002 C 
HETATM   14  C10 UNL     1       6.902  10.512  -0.493  1.00  0.00     0.000 C 
HETATM   15  C11 UNL     1       7.160  11.994  -0.649  1.00  0.00     0.000 C 
HETATM   16  C12 UNL     1       6.740  12.645   0.674  1.00  0.00     0.000 C 
HETATM   17  C13 UNL     1       7.972  12.911   1.447  1.00  0.00     0.007 C 
HETATM   18  C14 UNL     1       8.220  12.085   2.652  1.00  0.00     0.008 C 
BRANCH  18  19
HETATM   19  C15 UNL     1       7.093  12.031   3.634  1.00  0.00     0.002 C 
HETATM   20  C16 UNL     1       6.688  13.420   4.111  1.00  0.00     0.005 C 
ENDBRANCH  18  19
ENDBRANCH   9  11
ENDBRANCH   6   9
BRANCH   1  21
HETATM   21  N1  UNL     1      13.334   9.383   5.079  1.00  0.00    -0.226 N 
ATOM     22  H1  UNL     1      13.008   8.722   5.785  1.00  0.00     0.177 HD
BRANCH  21  23
HETATM   23  C2  UNL     1      14.297  10.390   5.440  1.00  0.00     0.133 C 
HETATM   24  C1  UNL     1      15.640  10.155   4.763  1.00  0.00     0.027 C 
ENDBRANCH  21  23
ENDBRANCH   1  21
TORSDOF 5
ENDMDL
