MODEL 1
REMARK VINA RESULT: -8.021883312      0.000      0.000
REMARK  5 active torsions:
REMARK  status: ('A' for Active; 'I' for Inactive)
REMARK    1  A    between atoms: C2_2  and  C5_5 
REMARK    2  A    between atoms: C8_8  and  C9_9 
REMARK    3  A    between atoms: C9_9  and  C10_10 
REMARK    4  A    between atoms: C10_10  and  N1_11 
REMARK    5  A    between atoms: N1_11  and  C11_13 
ROOT
HETATM    1  C10 UNL     1      11.025   8.971   1.277  1.00  0.00     0.056 C 
ENDROOT
BRANCH   1   2
HETATM    2  C9  UNL     1       9.853   8.993   2.160  1.00  0.00     0.049 C 
BRANCH   2   3
HETATM    3  C8  UNL     1       9.247  10.390   2.190  1.00  0.00    -0.010 C 
HETATM    4  C7  UNL     1       7.829  10.328   2.707  1.00  0.00     0.005 C 
HETATM    5  C6  UNL     1       7.366  11.692   3.188  1.00  0.00     0.005 C 
HETATM    6  C5  UNL     1       8.168  12.743   2.467  1.00  0.00    -0.007 C 
HETATM    7  C17 UNL     1       8.280  12.303   1.017  1.00  0.00     0.005 C 
HETATM    8  C16 UNL     1       9.319  11.175   0.956  1.00  0.00     0.005 C 
BRANCH   6   9
HETATM    9  C2  UNL     1       7.513  14.107   2.571  1.00  0.00    -0.048 C 
HETATM   10  C1  UNL     1       8.421  15.136   3.180  1.00  0.00     0.015 C 
HETATM   11  C3  UNL     1       7.064  14.606   1.214  1.00  0.00     0.015 C 
HETATM   12  C4  UNL     1       6.277  13.970   3.435  1.00  0.00     0.015 C 
ENDBRANCH   6   9
ENDBRANCH   2   3
ENDBRANCH   1   2
BRANCH   1  13
HETATM   13  N1  UNL     1      12.328   9.027   1.687  1.00  0.00    -0.397 N 
ATOM     14  H1  UNL     1      12.971   8.407   1.194  1.00  0.00     0.159 HD
BRANCH  13  15
HETATM   15  C11 UNL     1      12.892   9.805   2.671  1.00  0.00     0.090 C 
HETATM   16  C12 UNL     1      14.229  10.419   2.373  1.00  0.00     0.052 C 
HETATM   17  C13 UNL     1      15.332   9.439   2.832  1.00  0.00     0.179 C 
HETATM   18  O1  UNL     1      15.356   9.538   4.254  1.00  0.00    -0.339 OA
HETATM   19  C14 UNL     1      14.074   9.594   4.836  1.00  0.00     0.113 C 
HETATM   20  N2  UNL     1      13.842  10.118   5.977  1.00  0.00    -0.383 N 
HETATM   21  C15 UNL     1      13.013   8.968   3.967  1.00  0.00     0.108 C 
ATOM     22  H22 UNL     1      14.561  10.542   6.565  1.00  0.00     0.157 HD
ATOM     23  H21 UNL     1      12.914  10.159   6.398  1.00  0.00     0.157 HD
ENDBRANCH  13  15
ENDBRANCH   1  13
TORSDOF 5
ENDMDL
MODEL 2
REMARK VINA RESULT: -7.985209912      1.995      3.047
REMARK  5 active torsions:
REMARK  status: ('A' for Active; 'I' for Inactive)
REMARK    1  A    between atoms: C2_2  and  C5_5 
REMARK    2  A    between atoms: C8_8  and  C9_9 
REMARK    3  A    between atoms: C9_9  and  C10_10 
REMARK    4  A    between atoms: C10_10  and  N1_11 
REMARK    5  A    between atoms: N1_11  and  C11_13 
ROOT
HETATM    1  C10 UNL     1      11.941  10.074   1.371  1.00  0.00     0.056 C 
ENDROOT
BRANCH   1   2
HETATM    2  C9  UNL     1      10.998  10.974   2.045  1.00  0.00     0.049 C 
BRANCH   2   3
HETATM    3  C8  UNL     1       9.785  11.222   1.158  1.00  0.00    -0.010 C 
HETATM    4  C7  UNL     1       8.817  12.151   1.852  1.00  0.00     0.005 C 
HETATM    5  C6  UNL     1       7.861  12.783   0.855  1.00  0.00     0.005 C 
HETATM    6  C5  UNL     1       7.758  11.872  -0.340  1.00  0.00    -0.007 C 
HETATM    7  C17 UNL     1       7.680  10.449   0.187  1.00  0.00     0.005 C 
HETATM    8  C16 UNL     1       9.092  10.044   0.631  1.00  0.00     0.005 C 
BRANCH   6   9
HETATM    9  C2  UNL     1       6.544  12.204  -1.186  1.00  0.00    -0.048 C 
HETATM   10  C1  UNL     1       6.260  11.154  -2.221  1.00  0.00     0.015 C 
HETATM   11  C3  UNL     1       5.308  12.380  -0.330  1.00  0.00     0.015 C 
HETATM   12  C4  UNL     1       6.804  13.523  -1.884  1.00  0.00     0.015 C 
ENDBRANCH   6   9
ENDBRANCH   2   3
ENDBRANCH   1   2
BRANCH   1  13
HETATM   13  N1  UNL     1      12.478   8.938   1.911  1.00  0.00    -0.397 N 
ATOM     14  H1  UNL     1      11.964   8.076   1.723  1.00  0.00     0.159 HD
BRANCH  13  15
HETATM   15  C11 UNL     1      13.614   8.796   2.672  1.00  0.00     0.090 C 
HETATM   16  C12 UNL     1      13.428   8.650   4.155  1.00  0.00     0.052 C 
HETATM   17  C13 UNL     1      13.451  10.057   4.792  1.00  0.00     0.179 C 
HETATM   18  O1  UNL     1      14.820  10.454   4.780  1.00  0.00    -0.339 OA
HETATM   19  C14 UNL     1      15.489  10.133   3.581  1.00  0.00     0.113 C 
HETATM   20  N2  UNL     1      16.753   9.973   3.503  1.00  0.00    -0.383 N 
HETATM   21  C15 UNL     1      14.550  10.000   2.410  1.00  0.00     0.108 C 
ATOM     22  H22 UNL     1      17.388  10.063   4.297  1.00  0.00     0.157 HD
ATOM     23  H21 UNL     1      17.237   9.741   2.636  1.00  0.00     0.157 HD
ENDBRANCH  13  15
ENDBRANCH   1  13
TORSDOF 5
ENDMDL
MODEL 3
REMARK VINA RESULT: -7.915579738      0.765      1.676
REMARK  5 active torsions:
REMARK  status: ('A' for Active; 'I' for Inactive)
REMARK    1  A    between atoms: C2_2  and  C5_5 
REMARK    2  A    between atoms: C8_8  and  C9_9 
REMARK    3  A    between atoms: C9_9  and  C10_10 
REMARK    4  A    between atoms: C10_10  and  N1_11 
REMARK    5  A    between atoms: N1_11  and  C11_13 
ROOT
HETATM    1  C10 UNL     1      11.206   9.027   0.980  1.00  0.00     0.056 C 
ENDROOT
BRANCH   1   2
HETATM    2  C9  UNL     1       9.824   8.631   1.275  1.00  0.00     0.049 C 
BRANCH   2   3
HETATM    3  C8  UNL     1       9.031   9.832   1.774  1.00  0.00    -0.010 C 
HETATM    4  C7  UNL     1       9.836  11.097   1.587  1.00  0.00     0.005 C 
HETATM    5  C6  UNL     1       8.939  12.322   1.624  1.00  0.00     0.005 C 
HETATM    6  C5  UNL     1       7.705  11.978   2.415  1.00  0.00    -0.007 C 
HETATM    7  C17 UNL     1       8.157  11.171   3.621  1.00  0.00     0.005 C 
HETATM    8  C16 UNL     1       8.486   9.755   3.131  1.00  0.00     0.005 C 
BRANCH   6   9
HETATM    9  C2  UNL     1       6.958  13.225   2.846  1.00  0.00    -0.048 C 
HETATM   10  C1  UNL     1       5.858  13.596   1.894  1.00  0.00     0.015 C 
HETATM   11  C3  UNL     1       6.362  13.060   4.228  1.00  0.00     0.015 C 
HETATM   12  C4  UNL     1       7.951  14.367   2.915  1.00  0.00     0.015 C 
ENDBRANCH   6   9
ENDBRANCH   2   3
ENDBRANCH   1   2
BRANCH   1  13
HETATM   13  N1  UNL     1      12.286   8.805   1.790  1.00  0.00    -0.397 N 
ATOM     14  H1  UNL     1      12.727   7.890   1.693  1.00  0.00     0.159 HD
BRANCH  13  15
HETATM   15  C11 UNL     1      12.858   9.644   2.716  1.00  0.00     0.090 C 
HETATM   16  C12 UNL     1      14.181  10.257   2.356  1.00  0.00     0.052 C 
HETATM   17  C13 UNL     1      15.305   9.318   2.848  1.00  0.00     0.179 C 
HETATM   18  O1  UNL     1      15.356   9.499   4.261  1.00  0.00    -0.339 OA
HETATM   19  C14 UNL     1      14.084   9.572   4.865  1.00  0.00     0.113 C 
HETATM   20  N2  UNL     1      13.868  10.159   5.978  1.00  0.00    -0.383 N 
HETATM   21  C15 UNL     1      13.015   8.885   4.055  1.00  0.00     0.108 C 
ATOM     22  H22 UNL     1      14.592  10.624   6.527  1.00  0.00     0.157 HD
ATOM     23  H21 UNL     1      12.948  10.212   6.416  1.00  0.00     0.157 HD
ENDBRANCH  13  15
ENDBRANCH   1  13
TORSDOF 5
ENDMDL
MODEL 4
REMARK VINA RESULT: -7.899122252      1.004      1.455
REMARK  5 active torsions:
REMARK  status: ('A' for Active; 'I' for Inactive)
REMARK    1  A    between atoms: C2_2  and  C5_5 
REMARK    2  A    between atoms: C8_8  and  C9_9 
REMARK    3  A    between atoms: C9_9  and  C10_10 
REMARK    4  A    between atoms: C10_10  and  N1_11 
REMARK    5  A    between atoms: N1_11  and  C11_13 
ROOT
HETATM    1  C10 UNL     1      11.267   9.234   1.481  1.00  0.00     0.056 C 
ENDROOT
BRANCH   1   2
HETATM    2  C9  UNL     1      10.041   9.192   2.286  1.00  0.00     0.049 C 
BRANCH   2   3
HETATM    3  C8  UNL     1       9.364  10.556   2.279  1.00  0.00    -0.010 C 
HETATM    4  C7  UNL     1       8.003  10.461   2.929  1.00  0.00     0.005 C 
HETATM    5  C6  UNL     1       7.509  11.832   3.359  1.00  0.00     0.005 C 
HETATM    6  C5  UNL     1       8.184  12.867   2.499  1.00  0.00    -0.007 C 
HETATM    7  C17 UNL     1       8.191  12.331   1.076  1.00  0.00     0.005 C 
HETATM    8  C16 UNL     1       9.282  11.254   0.994  1.00  0.00     0.005 C 
BRANCH   6   9
HETATM    9  C2  UNL     1       7.467  14.201   2.571  1.00  0.00    -0.048 C 
HETATM   10  C1  UNL     1       8.296  15.264   3.232  1.00  0.00     0.015 C 
HETATM   11  C3  UNL     1       7.069  14.688   1.194  1.00  0.00     0.015 C 
HETATM   12  C4  UNL     1       6.194  14.007   3.368  1.00  0.00     0.015 C 
ENDBRANCH   6   9
ENDBRANCH   2   3
ENDBRANCH   1   2
BRANCH   1  13
HETATM   13  N1  UNL     1      12.431   9.856   1.839  1.00  0.00    -0.397 N 
ATOM     14  H1  UNL     1      12.487  10.849   1.613  1.00  0.00     0.159 HD
BRANCH  13  15
HETATM   15  C11 UNL     1      13.537   9.327   2.462  1.00  0.00     0.090 C 
HETATM   16  C12 UNL     1      13.345   8.781   3.847  1.00  0.00     0.052 C 
HETATM   17  C13 UNL     1      13.599   9.918   4.861  1.00  0.00     0.179 C 
HETATM   18  O1  UNL     1      15.014  10.090   4.887  1.00  0.00    -0.339 OA
HETATM   19  C14 UNL     1      15.611  10.039   3.611  1.00  0.00     0.113 C 
HETATM   20  N2  UNL     1      16.832   9.721   3.420  1.00  0.00    -0.383 N 
HETATM   21  C15 UNL     1      14.651  10.400   2.506  1.00  0.00     0.108 C 
ATOM     22  H22 UNL     1      17.481   9.477   4.168  1.00  0.00     0.157 HD
ATOM     23  H21 UNL     1      17.264   9.684   2.496  1.00  0.00     0.157 HD
ENDBRANCH  13  15
ENDBRANCH   1  13
TORSDOF 5
ENDMDL
MODEL 5
REMARK VINA RESULT: -7.758884159      1.922      3.011
REMARK  5 active torsions:
REMARK  status: ('A' for Active; 'I' for Inactive)
REMARK    1  A    between atoms: C2_2  and  C5_5 
REMARK    2  A    between atoms: C8_8  and  C9_9 
REMARK    3  A    between atoms: C9_9  and  C10_10 
REMARK    4  A    between atoms: C10_10  and  N1_11 
REMARK    5  A    between atoms: N1_11  and  C11_13 
ROOT
HETATM    1  C10 UNL     1      11.915  10.458   2.070  1.00  0.00     0.056 C 
ENDROOT
BRANCH   1   2
HETATM    2  C9  UNL     1      11.428  10.177   0.715  1.00  0.00     0.049 C 
BRANCH   2   3
HETATM    3  C8  UNL     1       9.920  10.378   0.648  1.00  0.00    -0.010 C 
HETATM    4  C7  UNL     1       9.524  11.597   1.448  1.00  0.00     0.005 C 
HETATM    5  C6  UNL     1       8.149  12.094   1.036  1.00  0.00     0.005 C 
HETATM    6  C5  UNL     1       7.384  10.935   0.455  1.00  0.00    -0.007 C 
HETATM    7  C17 UNL     1       7.667   9.727   1.333  1.00  0.00     0.005 C 
HETATM    8  C16 UNL     1       9.079   9.230   0.994  1.00  0.00     0.005 C 
BRANCH   6   9
HETATM    9  C2  UNL     1       5.898  11.226   0.396  1.00  0.00    -0.048 C 
HETATM   10  C1  UNL     1       5.088  10.253   1.203  1.00  0.00     0.015 C 
HETATM   11  C3  UNL     1       5.591  12.627   0.883  1.00  0.00     0.015 C 
HETATM   12  C4  UNL     1       5.460  11.145  -1.052  1.00  0.00     0.015 C 
ENDBRANCH   6   9
ENDBRANCH   2   3
ENDBRANCH   1   2
BRANCH   1  13
HETATM   13  N1  UNL     1      12.265   9.517   2.999  1.00  0.00    -0.397 N 
ATOM     14  H1  UNL     1      11.490   9.011   3.427  1.00  0.00     0.159 HD
BRANCH  13  15
HETATM   15  C11 UNL     1      13.519   9.158   3.434  1.00  0.00     0.090 C 
HETATM   16  C12 UNL     1      13.737   9.105   4.919  1.00  0.00     0.052 C 
HETATM   17  C13 UNL     1      14.219  10.494   5.393  1.00  0.00     0.179 C 
HETATM   18  O1  UNL     1      15.578  10.585   4.974  1.00  0.00    -0.339 OA
HETATM   19  C14 UNL     1      15.802  10.086   3.674  1.00  0.00     0.113 C 
HETATM   20  N2  UNL     1      16.934   9.654   3.273  1.00  0.00    -0.383 N 
HETATM   21  C15 UNL     1      14.562  10.121   2.818  1.00  0.00     0.108 C 
ATOM     22  H22 UNL     1      17.773   9.631   3.853  1.00  0.00     0.157 HD
ATOM     23  H21 UNL     1      17.095   9.293   2.332  1.00  0.00     0.157 HD
ENDBRANCH  13  15
ENDBRANCH   1  13
TORSDOF 5
ENDMDL
