MODEL 1
REMARK VINA RESULT: -4.950208097      0.000      0.000
REMARK  4 active torsions:
REMARK  status: ('A' for Active; 'I' for Inactive)
REMARK    1  A    between atoms: C2_2  and  C3_3 
REMARK    2  A    between atoms: C3_3  and  C4_4 
REMARK    3  A    between atoms: C7_7  and  O1_8 
REMARK    4  A    between atoms: C10_12  and  O2_14 
ROOT
HETATM    1  C4  UNL     1     -40.552 -14.601   4.461  1.00  0.00    -0.011 C 
HETATM    2  C5  UNL     1     -40.137 -15.775   3.567  1.00  0.00     0.018 C 
HETATM    3  C6  UNL     1     -41.916 -14.912   4.979  1.00  0.00     0.044 C 
HETATM    4  C7  UNL     1     -41.882 -16.034   6.021  1.00  0.00     0.119 C 
HETATM    5  C8  UNL     1     -41.039 -15.535   7.162  1.00  0.00     0.034 C 
HETATM    6  C9  UNL     1     -39.640 -15.339   6.685  1.00  0.00     0.041 C 
HETATM    7  C10 UNL     1     -39.499 -14.447   5.503  1.00  0.00     0.061 C 
HETATM    8  C11 UNL     1     -38.115 -14.700   4.901  1.00  0.00     0.046 C 
ENDROOT
BRANCH   1   9
HETATM    9  C3  UNL     1     -40.599 -13.387   3.598  1.00  0.00     0.012 C 
BRANCH   9  10
HETATM   10  C2  UNL     1     -40.268 -13.668   2.150  1.00  0.00    -0.004 C 
HETATM   11  C1  UNL     1     -40.675 -12.514   1.256  1.00  0.00     0.005 C 
ENDBRANCH   9  10
ENDBRANCH   1   9
BRANCH   7  12
HETATM   12  O2  UNL     1     -39.473 -13.123   5.964  1.00  0.00    -0.389 OA
ATOM     13  H2  UNL     1     -38.885 -13.051   6.706  1.00  0.00     0.210 HD
ENDBRANCH   7  12
BRANCH   4  14
HETATM   14  O1  UNL     1     -43.191 -16.186   6.478  1.00  0.00    -0.396 OA
ATOM     15  H1  UNL     1     -43.164 -16.858   7.149  1.00  0.00     0.210 HD
ENDBRANCH   4  14
TORSDOF 4
ENDMDL
MODEL 2
REMARK VINA RESULT: -4.912918125      1.709      3.459
REMARK  4 active torsions:
REMARK  status: ('A' for Active; 'I' for Inactive)
REMARK    1  A    between atoms: C2_2  and  C3_3 
REMARK    2  A    between atoms: C3_3  and  C4_4 
REMARK    3  A    between atoms: C7_7  and  O1_8 
REMARK    4  A    between atoms: C10_12  and  O2_14 
ROOT
HETATM    1  C4  UNL     1     -40.294 -15.008   4.797  1.00  0.00    -0.011 C 
HETATM    2  C5  UNL     1     -40.118 -13.489   4.911  1.00  0.00     0.018 C 
HETATM    3  C6  UNL     1     -41.100 -15.440   5.977  1.00  0.00     0.044 C 
HETATM    4  C7  UNL     1     -42.561 -14.999   5.854  1.00  0.00     0.119 C 
HETATM    5  C8  UNL     1     -43.111 -15.671   4.627  1.00  0.00     0.034 C 
HETATM    6  C9  UNL     1     -42.396 -15.152   3.425  1.00  0.00     0.041 C 
HETATM    7  C10 UNL     1     -40.914 -15.282   3.472  1.00  0.00     0.061 C 
HETATM    8  C11 UNL     1     -40.339 -14.340   2.411  1.00  0.00     0.046 C 
ENDROOT
BRANCH   1   9
HETATM    9  C3  UNL     1     -38.933 -15.613   4.860  1.00  0.00     0.012 C 
BRANCH   9  10
HETATM   10  C2  UNL     1     -37.890 -14.683   5.437  1.00  0.00    -0.004 C 
HETATM   11  C1  UNL     1     -36.932 -15.423   6.348  1.00  0.00     0.005 C 
ENDBRANCH   9  10
ENDBRANCH   1   9
BRANCH   7  12
HETATM   12  O2  UNL     1     -40.583 -16.576   3.047  1.00  0.00    -0.389 OA
ATOM     13  H2  UNL     1     -39.765 -16.848   3.446  1.00  0.00     0.210 HD
ENDBRANCH   7  12
BRANCH   4  14
HETATM   14  O1  UNL     1     -43.222 -15.515   6.968  1.00  0.00    -0.396 OA
ATOM     15  H1  UNL     1     -43.480 -14.769   7.496  1.00  0.00     0.210 HD
ENDBRANCH   4  14
TORSDOF 4
ENDMDL
MODEL 3
REMARK VINA RESULT: -4.747261907      1.960      4.231
REMARK  4 active torsions:
REMARK  status: ('A' for Active; 'I' for Inactive)
REMARK    1  A    between atoms: C2_2  and  C3_3 
REMARK    2  A    between atoms: C3_3  and  C4_4 
REMARK    3  A    between atoms: C7_7  and  O1_8 
REMARK    4  A    between atoms: C10_12  and  O2_14 
ROOT
HETATM    1  C4  UNL     1     -40.556 -15.303   3.887  1.00  0.00    -0.011 C 
HETATM    2  C5  UNL     1     -40.686 -16.701   3.270  1.00  0.00     0.018 C 
HETATM    3  C6  UNL     1     -39.909 -14.435   2.860  1.00  0.00     0.044 C 
HETATM    4  C7  UNL     1     -40.864 -14.121   1.704  1.00  0.00     0.119 C 
HETATM    5  C8  UNL     1     -42.026 -13.376   2.298  1.00  0.00     0.034 C 
HETATM    6  C9  UNL     1     -42.757 -14.278   3.235  1.00  0.00     0.041 C 
HETATM    7  C10 UNL     1     -41.919 -14.879   4.308  1.00  0.00     0.061 C 
HETATM    8  C11 UNL     1     -42.694 -16.068   4.881  1.00  0.00     0.046 C 
ENDROOT
BRANCH   1   9
HETATM    9  C3  UNL     1     -39.669 -15.431   5.078  1.00  0.00     0.012 C 
BRANCH   9  10
HETATM   10  C2  UNL     1     -38.318 -14.777   4.892  1.00  0.00    -0.004 C 
HETATM   11  C1  UNL     1     -37.373 -15.130   6.022  1.00  0.00     0.005 C 
ENDBRANCH   9  10
ENDBRANCH   1   9
BRANCH   7  12
HETATM   12  O2  UNL     1     -41.829 -13.950   5.354  1.00  0.00    -0.389 OA
ATOM     13  H2  UNL     1     -42.686 -13.812   5.739  1.00  0.00     0.210 HD
ENDBRANCH   7  12
BRANCH   4  14
HETATM   14  O1  UNL     1     -40.179 -13.255   0.852  1.00  0.00    -0.396 OA
ATOM     15  H1  UNL     1     -40.839 -12.727   0.420  1.00  0.00     0.210 HD
ENDBRANCH   4  14
TORSDOF 4
ENDMDL
MODEL 4
REMARK VINA RESULT: -4.695893042      1.725      3.803
REMARK  4 active torsions:
REMARK  status: ('A' for Active; 'I' for Inactive)
REMARK    1  A    between atoms: C2_2  and  C3_3 
REMARK    2  A    between atoms: C3_3  and  C4_4 
REMARK    3  A    between atoms: C7_7  and  O1_8 
REMARK    4  A    between atoms: C10_12  and  O2_14 
ROOT
HETATM    1  C4  UNL     1     -40.769 -15.207   4.770  1.00  0.00    -0.011 C 
HETATM    2  C5  UNL     1     -40.576 -15.949   3.443  1.00  0.00     0.018 C 
HETATM    3  C6  UNL     1     -40.748 -13.748   4.457  1.00  0.00     0.044 C 
HETATM    4  C7  UNL     1     -42.019 -13.309   3.726  1.00  0.00     0.119 C 
HETATM    5  C8  UNL     1     -43.167 -13.581   4.658  1.00  0.00     0.034 C 
HETATM    6  C9  UNL     1     -43.277 -15.052   4.879  1.00  0.00     0.041 C 
HETATM    7  C10 UNL     1     -42.035 -15.706   5.374  1.00  0.00     0.061 C 
HETATM    8  C11 UNL     1     -42.183 -17.210   5.132  1.00  0.00     0.046 C 
ENDROOT
BRANCH   1   9
HETATM    9  C3  UNL     1     -39.613 -15.558   5.642  1.00  0.00     0.012 C 
BRANCH   9  10
HETATM   10  C2  UNL     1     -38.313 -14.927   5.196  1.00  0.00    -0.004 C 
HETATM   11  C1  UNL     1     -37.181 -15.262   6.147  1.00  0.00     0.005 C 
ENDBRANCH   9  10
ENDBRANCH   1   9
BRANCH   7  12
HETATM   12  O2  UNL     1     -41.994 -15.551   6.767  1.00  0.00    -0.389 OA
ATOM     13  H2  UNL     1     -42.825 -15.809   7.146  1.00  0.00     0.210 HD
ENDBRANCH   7  12
BRANCH   4  14
HETATM   14  O1  UNL     1     -41.916 -11.928   3.551  1.00  0.00    -0.396 OA
ATOM     15  H1  UNL     1     -40.987 -11.733   3.507  1.00  0.00     0.210 HD
ENDBRANCH   4  14
TORSDOF 4
ENDMDL
MODEL 5
REMARK VINA RESULT: -4.634240855      2.084      3.878
REMARK  4 active torsions:
REMARK  status: ('A' for Active; 'I' for Inactive)
REMARK    1  A    between atoms: C2_2  and  C3_3 
REMARK    2  A    between atoms: C3_3  and  C4_4 
REMARK    3  A    between atoms: C7_7  and  O1_8 
REMARK    4  A    between atoms: C10_12  and  O2_14 
ROOT
HETATM    1  C4  UNL     1     -40.382 -15.106   4.177  1.00  0.00    -0.011 C 
HETATM    2  C5  UNL     1     -41.198 -14.833   5.446  1.00  0.00     0.018 C 
HETATM    3  C6  UNL     1     -40.536 -16.558   3.868  1.00  0.00     0.044 C 
HETATM    4  C7  UNL     1     -41.940 -16.879   3.350  1.00  0.00     0.119 C 
HETATM    5  C8  UNL     1     -42.117 -16.098   2.077  1.00  0.00     0.034 C 
HETATM    6  C9  UNL     1     -42.091 -14.641   2.392  1.00  0.00     0.041 C 
HETATM    7  C10 UNL     1     -40.881 -14.178   3.124  1.00  0.00     0.061 C 
HETATM    8  C11 UNL     1     -41.208 -12.812   3.731  1.00  0.00     0.046 C 
ENDROOT
BRANCH   1   9
HETATM    9  C3  UNL     1     -38.959 -14.800   4.496  1.00  0.00     0.012 C 
BRANCH   9  10
HETATM   10  C2  UNL     1     -38.633 -14.932   5.967  1.00  0.00    -0.004 C 
HETATM   11  C1  UNL     1     -37.186 -15.328   6.179  1.00  0.00     0.005 C 
ENDBRANCH   9  10
ENDBRANCH   1   9
BRANCH   7  12
HETATM   12  O2  UNL     1     -39.873 -13.940   2.180  1.00  0.00    -0.389 OA
ATOM     13  H2  UNL     1     -39.028 -13.902   2.612  1.00  0.00     0.210 HD
ENDBRANCH   7  12
BRANCH   4  14
HETATM   14  O1  UNL     1     -41.941 -18.238   3.032  1.00  0.00    -0.396 OA
ATOM     15  H1  UNL     1     -42.166 -18.298   2.112  1.00  0.00     0.210 HD
ENDBRANCH   4  14
TORSDOF 4
ENDMDL
