MODEL 1
REMARK VINA RESULT: -5.089144864      0.000      0.000
REMARK  3 active torsions:
REMARK  status: ('A' for Active; 'I' for Inactive)
REMARK    1  A    between atoms: C2_2  and  C3_3 
REMARK    2  A    between atoms: C9_9  and  N1_10 
REMARK    3  A    between atoms: C11_15  and  N2_16 
ROOT
HETATM    1  C3  UNL     1     -42.053 -15.091   5.555  1.00  0.00     0.022 C 
HETATM    2  C4  UNL     1     -40.765 -15.902   5.715  1.00  0.00    -0.006 C 
HETATM    3  C5  UNL     1     -39.841 -15.220   6.665  1.00  0.00     0.009 C 
HETATM    4  C6  UNL     1     -38.922 -14.218   6.011  1.00  0.00    -0.016 C 
HETATM    5  C7  UNL     1     -37.577 -14.804   5.658  1.00  0.00     0.010 C 
HETATM    6  C8  UNL     1     -39.544 -13.521   4.849  1.00  0.00     0.045 C 
HETATM    7  C9  UNL     1     -40.393 -14.391   3.981  1.00  0.00     0.152 C 
HETATM    8  C10 UNL     1     -40.255 -15.863   4.279  1.00  0.00     0.046 C 
HETATM    9  C11 UNL     1     -41.849 -14.164   4.412  1.00  0.00     0.223 C 
ENDROOT
BRANCH   7  10
HETATM   10  N1  UNL     1     -40.173 -14.054   2.614  1.00  0.00    -0.068 N 
ATOM     11  H13 UNL     1     -40.506 -13.116   2.389  1.00  0.00     0.275 HD
ATOM     12  H12 UNL     1     -39.186 -13.912   2.406  1.00  0.00     0.275 HD
ATOM     13  H11 UNL     1     -40.595 -14.767   2.018  1.00  0.00     0.275 HD
ENDBRANCH   7  10
BRANCH   9  14
HETATM   14  N2  UNL     1     -42.671 -14.415   3.275  1.00  0.00    -0.072 N 
ATOM     15  H23 UNL     1     -43.324 -15.174   3.474  1.00  0.00     0.274 HD
ATOM     16  H22 UNL     1     -43.327 -13.646   3.138  1.00  0.00     0.274 HD
ATOM     17  H21 UNL     1     -42.167 -14.604   2.409  1.00  0.00     0.274 HD
ENDBRANCH   9  14
BRANCH   1  18
HETATM   18  C2  UNL     1     -43.146 -16.106   5.330  1.00  0.00     0.002 C 
HETATM   19  C1  UNL     1     -42.919 -17.395   6.057  1.00  0.00     0.005 C 
ENDBRANCH   1  18
TORSDOF 3
ENDMDL
MODEL 2
REMARK VINA RESULT: -5.079939621      1.035      3.691
REMARK  3 active torsions:
REMARK  status: ('A' for Active; 'I' for Inactive)
REMARK    1  A    between atoms: C2_2  and  C3_3 
REMARK    2  A    between atoms: C9_9  and  N1_10 
REMARK    3  A    between atoms: C11_15  and  N2_16 
ROOT
HETATM    1  C3  UNL     1     -39.909 -15.693   4.796  1.00  0.00     0.022 C 
HETATM    2  C4  UNL     1     -40.773 -15.052   5.884  1.00  0.00    -0.006 C 
HETATM    3  C5  UNL     1     -41.426 -16.106   6.710  1.00  0.00     0.009 C 
HETATM    4  C6  UNL     1     -42.757 -16.568   6.172  1.00  0.00    -0.016 C 
HETATM    5  C7  UNL     1     -43.923 -15.840   6.794  1.00  0.00     0.010 C 
HETATM    6  C8  UNL     1     -42.826 -16.553   4.683  1.00  0.00     0.045 C 
HETATM    7  C9  UNL     1     -42.158 -15.382   4.039  1.00  0.00     0.152 C 
HETATM    8  C10 UNL     1     -41.769 -14.297   5.012  1.00  0.00     0.046 C 
HETATM    9  C11 UNL     1     -40.766 -15.855   3.592  1.00  0.00     0.223 C 
ENDROOT
BRANCH   7  10
HETATM   10  N1  UNL     1     -42.952 -14.925   2.949  1.00  0.00    -0.068 N 
ATOM     11  H13 UNL     1     -42.617 -15.279   2.052  1.00  0.00     0.275 HD
ATOM     12  H12 UNL     1     -43.877 -15.353   2.939  1.00  0.00     0.275 HD
ATOM     13  H11 UNL     1     -42.998 -13.906   2.968  1.00  0.00     0.275 HD
ENDBRANCH   7  10
BRANCH   9  14
HETATM   14  N2  UNL     1     -40.391 -15.060   2.470  1.00  0.00    -0.072 N 
ATOM     15  H23 UNL     1     -41.131 -14.392   2.250  1.00  0.00     0.274 HD
ATOM     16  H22 UNL     1     -39.642 -14.418   2.729  1.00  0.00     0.274 HD
ATOM     17  H21 UNL     1     -40.131 -15.584   1.635  1.00  0.00     0.274 HD
ENDBRANCH   9  14
BRANCH   1  18
HETATM   18  C2  UNL     1     -38.746 -14.753   4.593  1.00  0.00     0.002 C 
HETATM   19  C1  UNL     1     -37.665 -14.919   5.616  1.00  0.00     0.005 C 
ENDBRANCH   1  18
TORSDOF 3
ENDMDL
MODEL 3
REMARK VINA RESULT: -5.034157860      1.809      3.711
REMARK  3 active torsions:
REMARK  status: ('A' for Active; 'I' for Inactive)
REMARK    1  A    between atoms: C2_2  and  C3_3 
REMARK    2  A    between atoms: C9_9  and  N1_10 
REMARK    3  A    between atoms: C11_15  and  N2_16 
ROOT
HETATM    1  C3  UNL     1     -39.916 -14.444   5.545  1.00  0.00     0.022 C 
HETATM    2  C4  UNL     1     -39.457 -14.903   4.159  1.00  0.00    -0.006 C 
HETATM    3  C5  UNL     1     -39.811 -13.879   3.135  1.00  0.00     0.009 C 
HETATM    4  C6  UNL     1     -41.188 -14.056   2.544  1.00  0.00    -0.016 C 
HETATM    5  C7  UNL     1     -41.176 -14.843   1.258  1.00  0.00     0.010 C 
HETATM    6  C8  UNL     1     -42.179 -14.600   3.517  1.00  0.00     0.045 C 
HETATM    7  C9  UNL     1     -41.645 -15.660   4.425  1.00  0.00     0.152 C 
HETATM    8  C10 UNL     1     -40.286 -16.175   4.020  1.00  0.00     0.046 C 
HETATM    9  C11 UNL     1     -41.289 -14.972   5.751  1.00  0.00     0.223 C 
ENDROOT
BRANCH   7  10
HETATM   10  N1  UNL     1     -42.625 -16.681   4.588  1.00  0.00    -0.068 N 
ATOM     11  H13 UNL     1     -42.219 -17.616   4.546  1.00  0.00     0.275 HD
ATOM     12  H12 UNL     1     -42.985 -16.721   5.541  1.00  0.00     0.275 HD
ATOM     13  H11 UNL     1     -43.367 -16.551   3.900  1.00  0.00     0.275 HD
ENDBRANCH   7  10
BRANCH   9  14
HETATM   14  N2  UNL     1     -41.415 -15.950   6.780  1.00  0.00    -0.072 N 
ATOM     15  H23 UNL     1     -41.251 -16.883   6.400  1.00  0.00     0.274 HD
ATOM     16  H22 UNL     1     -40.630 -15.882   7.428  1.00  0.00     0.274 HD
ATOM     17  H21 UNL     1     -42.296 -15.929   7.293  1.00  0.00     0.274 HD
ENDBRANCH   9  14
BRANCH   1  18
HETATM   18  C2  UNL     1     -38.899 -14.998   6.513  1.00  0.00     0.002 C 
HETATM   19  C1  UNL     1     -37.499 -14.970   5.983  1.00  0.00     0.005 C 
ENDBRANCH   1  18
TORSDOF 3
ENDMDL
MODEL 4
REMARK VINA RESULT: -4.974166136      1.769      2.872
REMARK  3 active torsions:
REMARK  status: ('A' for Active; 'I' for Inactive)
REMARK    1  A    between atoms: C2_2  and  C3_3 
REMARK    2  A    between atoms: C9_9  and  N1_10 
REMARK    3  A    between atoms: C11_15  and  N2_16 
ROOT
HETATM    1  C3  UNL     1     -40.564 -16.446   3.691  1.00  0.00     0.022 C 
HETATM    2  C4  UNL     1     -39.983 -15.032   3.756  1.00  0.00    -0.006 C 
HETATM    3  C5  UNL     1     -38.758 -15.017   4.604  1.00  0.00     0.009 C 
HETATM    4  C6  UNL     1     -39.031 -14.781   6.069  1.00  0.00    -0.016 C 
HETATM    5  C7  UNL     1     -38.906 -13.330   6.461  1.00  0.00     0.010 C 
HETATM    6  C8  UNL     1     -40.323 -15.370   6.527  1.00  0.00     0.045 C 
HETATM    7  C9  UNL     1     -41.450 -15.235   5.555  1.00  0.00     0.152 C 
HETATM    8  C10 UNL     1     -41.151 -14.302   4.409  1.00  0.00     0.046 C 
HETATM    9  C11 UNL     1     -41.546 -16.569   4.800  1.00  0.00     0.223 C 
ENDROOT
BRANCH   7  10
HETATM   10  N1  UNL     1     -42.647 -14.922   6.260  1.00  0.00    -0.068 N 
ATOM     11  H13 UNL     1     -42.611 -13.998   6.692  1.00  0.00     0.275 HD
ATOM     12  H12 UNL     1     -43.433 -14.757   5.631  1.00  0.00     0.275 HD
ATOM     13  H11 UNL     1     -42.844 -15.658   6.938  1.00  0.00     0.275 HD
ENDBRANCH   7  10
BRANCH   9  14
HETATM   14  N2  UNL     1     -42.904 -16.725   4.392  1.00  0.00    -0.072 N 
ATOM     15  H23 UNL     1     -43.480 -15.987   4.799  1.00  0.00     0.274 HD
ATOM     16  H22 UNL     1     -43.001 -16.502   3.402  1.00  0.00     0.274 HD
ATOM     17  H21 UNL     1     -43.312 -17.638   4.588  1.00  0.00     0.274 HD
ENDBRANCH   9  14
BRANCH   1  18
HETATM   18  C2  UNL     1     -41.176 -16.571   2.318  1.00  0.00     0.002 C 
HETATM   19  C1  UNL     1     -40.892 -17.886   1.660  1.00  0.00     0.005 C 
ENDBRANCH   1  18
TORSDOF 3
ENDMDL
MODEL 5
REMARK VINA RESULT: -4.958917089      0.965      1.018
REMARK  3 active torsions:
REMARK  status: ('A' for Active; 'I' for Inactive)
REMARK    1  A    between atoms: C2_2  and  C3_3 
REMARK    2  A    between atoms: C9_9  and  N1_10 
REMARK    3  A    between atoms: C11_15  and  N2_16 
ROOT
HETATM    1  C3  UNL     1     -42.443 -15.049   5.967  1.00  0.00     0.022 C 
HETATM    2  C4  UNL     1     -41.169 -15.890   6.077  1.00  0.00    -0.006 C 
HETATM    3  C5  UNL     1     -40.078 -15.092   6.704  1.00  0.00     0.009 C 
HETATM    4  C6  UNL     1     -39.258 -14.296   5.718  1.00  0.00    -0.016 C 
HETATM    5  C7  UNL     1     -38.010 -15.020   5.278  1.00  0.00     0.010 C 
HETATM    6  C8  UNL     1     -40.052 -13.804   4.556  1.00  0.00     0.045 C 
HETATM    7  C9  UNL     1     -41.061 -14.773   4.034  1.00  0.00     0.152 C 
HETATM    8  C10 UNL     1     -40.913 -16.164   4.599  1.00  0.00     0.046 C 
HETATM    9  C11 UNL     1     -42.415 -14.378   4.642  1.00  0.00     0.223 C 
ENDROOT
BRANCH   7  10
HETATM   10  N1  UNL     1     -41.071 -14.726   2.610  1.00  0.00    -0.068 N 
ATOM     11  H13 UNL     1     -41.736 -15.386   2.206  1.00  0.00     0.275 HD
ATOM     12  H12 UNL     1     -41.486 -13.865   2.256  1.00  0.00     0.275 HD
ATOM     13  H11 UNL     1     -40.123 -14.870   2.260  1.00  0.00     0.275 HD
ENDBRANCH   7  10
BRANCH   9  14
HETATM   14  N2  UNL     1     -43.426 -14.797   3.729  1.00  0.00    -0.072 N 
ATOM     15  H23 UNL     1     -44.332 -14.828   4.198  1.00  0.00     0.274 HD
ATOM     16  H22 UNL     1     -43.606 -14.064   3.043  1.00  0.00     0.274 HD
ATOM     17  H21 UNL     1     -43.244 -15.682   3.257  1.00  0.00     0.274 HD
ENDBRANCH   9  14
BRANCH   1  18
HETATM   18  C2  UNL     1     -43.586 -16.020   6.134  1.00  0.00     0.002 C 
HETATM   19  C1  UNL     1     -44.543 -15.629   7.217  1.00  0.00     0.005 C 
ENDBRANCH   1  18
TORSDOF 3
ENDMDL
