MODEL 1
REMARK VINA RESULT: -6.165254166      0.000      0.000
REMARK  2 active torsions:
REMARK  status: ('A' for Active; 'I' for Inactive)
REMARK       I    between atoms: N1_2  and  C2_4 
REMARK       I    between atoms: C2_4  and  N3_8 
REMARK    1  A    between atoms: N4_10  and  O1_11 
REMARK    2  A    between atoms: N4_10  and  C3_13 
ROOT
HETATM    1  C1  UNL     1     -39.262 -14.684   4.385  1.00  0.00     0.165 C 
HETATM    2  N1  UNL     1     -37.839 -14.808   4.702  1.00  0.00    -0.230 N 
ATOM      3  H1  UNL     1     -37.146 -14.900   3.959  1.00  0.00     0.177 HD
HETATM    4  C2  UNL     1     -37.442 -14.796   6.067  1.00  0.00     0.687 C 
HETATM    5  N2  UNL     1     -36.920 -15.847   6.593  1.00  0.00    -0.234 N 
ATOM      6  H21 UNL     1     -36.635 -15.838   7.572  1.00  0.00     0.174 HD
ATOM      7  H22 UNL     1     -36.767 -16.714   6.078  1.00  0.00     0.174 HD
HETATM    8  N3  UNL     1     -37.653 -13.593   6.781  1.00  0.00    -0.111 N 
ATOM      9  H3  UNL     1     -38.536 -13.439   7.266  1.00  0.00     0.208 HD
HETATM   10  N4  UNL     1     -36.755 -12.710   6.820  1.00  0.00    -0.182 N 
ENDROOT
BRANCH  10  11
HETATM   11  O1  UNL     1     -37.045 -11.566   7.538  1.00  0.00    -0.271 OA
ATOM     12  H1  UNL     1     -36.441 -11.340   8.236  1.00  0.00     0.246 HD
ENDBRANCH  10  11
BRANCH  10  13
HETATM   13  C3  UNL     1     -35.514 -12.915   6.144  1.00  0.00     0.134 C 
HETATM   14  C4  UNL     1     -34.573 -13.603   7.104  1.00  0.00     0.029 C 
HETATM   15  C5  UNL     1     -33.133 -13.192   6.907  1.00  0.00     0.002 C 
HETATM   16  C6  UNL     1     -32.925 -11.715   7.133  1.00  0.00     0.000 C 
HETATM   17  C7  UNL     1     -34.156 -10.908   6.794  1.00  0.00     0.002 C 
HETATM   18  C8  UNL     1     -34.875 -11.619   5.690  1.00  0.00     0.029 C 
ENDBRANCH  10  13
TORSDOF 2
ENDMDL
MODEL 2
REMARK VINA RESULT: -5.224703191      3.400      4.596
REMARK  2 active torsions:
REMARK  status: ('A' for Active; 'I' for Inactive)
REMARK       I    between atoms: N1_2  and  C2_4 
REMARK       I    between atoms: C2_4  and  N3_8 
REMARK    1  A    between atoms: N4_10  and  O1_11 
REMARK    2  A    between atoms: N4_10  and  C3_13 
ROOT
HETATM    1  C1  UNL     1     -43.383 -14.691   3.443  1.00  0.00     0.165 C 
HETATM    2  N1  UNL     1     -41.947 -14.888   3.242  1.00  0.00    -0.230 N 
ATOM      3  H1  UNL     1     -41.407 -14.236   2.672  1.00  0.00     0.177 HD
HETATM    4  C2  UNL     1     -41.320 -16.005   3.858  1.00  0.00     0.687 C 
HETATM    5  N2  UNL     1     -40.826 -16.945   3.132  1.00  0.00    -0.234 N 
ATOM      6  H21 UNL     1     -40.376 -17.746   3.574  1.00  0.00     0.174 HD
ATOM      7  H22 UNL     1     -40.856 -16.940   2.113  1.00  0.00     0.174 HD
HETATM    8  N3  UNL     1     -41.277 -16.011   5.272  1.00  0.00    -0.111 N 
ATOM      9  H3  UNL     1     -42.042 -16.430   5.800  1.00  0.00     0.208 HD
HETATM   10  N4  UNL     1     -40.300 -15.502   5.882  1.00  0.00    -0.182 N 
ENDROOT
BRANCH  10  11
HETATM   11  O1  UNL     1     -40.341 -15.551   7.262  1.00  0.00    -0.271 OA
ATOM     12  H1  UNL     1     -39.723 -14.997   7.724  1.00  0.00     0.246 HD
ENDBRANCH  10  11
BRANCH  10  13
HETATM   13  C3  UNL     1     -39.223 -14.914   5.152  1.00  0.00     0.134 C 
HETATM   14  C4  UNL     1     -37.931 -15.415   5.749  1.00  0.00     0.029 C 
HETATM   15  C5  UNL     1     -36.824 -14.389   5.694  1.00  0.00     0.002 C 
HETATM   16  C6  UNL     1     -37.165 -13.140   6.469  1.00  0.00     0.000 C 
HETATM   17  C7  UNL     1     -38.651 -12.875   6.497  1.00  0.00     0.002 C 
HETATM   18  C8  UNL     1     -39.230 -13.400   5.220  1.00  0.00     0.029 C 
ENDBRANCH  10  13
TORSDOF 2
ENDMDL
MODEL 3
REMARK VINA RESULT: -5.176968212      4.891      6.350
REMARK  2 active torsions:
REMARK  status: ('A' for Active; 'I' for Inactive)
REMARK       I    between atoms: N1_2  and  C2_4 
REMARK       I    between atoms: C2_4  and  N3_8 
REMARK    1  A    between atoms: N4_10  and  O1_11 
REMARK    2  A    between atoms: N4_10  and  C3_13 
ROOT
HETATM    1  C1  UNL     1     -43.950 -17.871   2.688  1.00  0.00     0.165 C 
HETATM    2  N1  UNL     1     -42.955 -17.981   3.756  1.00  0.00    -0.230 N 
ATOM      3  H1  UNL     1     -42.096 -18.514   3.614  1.00  0.00     0.177 HD
HETATM    4  C2  UNL     1     -43.209 -17.330   4.994  1.00  0.00     0.687 C 
HETATM    5  N2  UNL     1     -43.385 -18.027   6.061  1.00  0.00    -0.234 N 
ATOM      6  H21 UNL     1     -43.567 -17.559   6.949  1.00  0.00     0.174 HD
ATOM      7  H22 UNL     1     -43.353 -19.046   6.076  1.00  0.00     0.174 HD
HETATM    8  N3  UNL     1     -43.253 -15.916   4.972  1.00  0.00    -0.111 N 
ATOM      9  H3  UNL     1     -44.136 -15.439   4.793  1.00  0.00     0.208 HD
HETATM   10  N4  UNL     1     -42.207 -15.244   5.173  1.00  0.00    -0.182 N 
ENDROOT
BRANCH  10  11
HETATM   11  O1  UNL     1     -42.340 -13.870   5.133  1.00  0.00    -0.271 OA
ATOM     12  H1  UNL     1     -43.210 -13.523   5.290  1.00  0.00     0.246 HD
ENDBRANCH  10  11
BRANCH  10  13
HETATM   13  C3  UNL     1     -40.965 -15.902   5.425  1.00  0.00     0.134 C 
HETATM   14  C4  UNL     1     -40.273 -15.169   6.549  1.00  0.00     0.029 C 
HETATM   15  C5  UNL     1     -38.769 -15.174   6.411  1.00  0.00     0.002 C 
HETATM   16  C6  UNL     1     -38.310 -14.492   5.146  1.00  0.00     0.000 C 
HETATM   17  C7  UNL     1     -39.326 -14.610   4.034  1.00  0.00     0.002 C 
HETATM   18  C8  UNL     1     -40.051 -15.906   4.217  1.00  0.00     0.029 C 
ENDBRANCH  10  13
TORSDOF 2
ENDMDL
MODEL 4
REMARK VINA RESULT: -5.174286281      3.361      6.572
REMARK  2 active torsions:
REMARK  status: ('A' for Active; 'I' for Inactive)
REMARK       I    between atoms: N1_2  and  C2_4 
REMARK       I    between atoms: C2_4  and  N3_8 
REMARK    1  A    between atoms: N4_10  and  O1_11 
REMARK    2  A    between atoms: N4_10  and  C3_13 
ROOT
HETATM    1  C1  UNL     1     -36.394 -15.290   6.354  1.00  0.00     0.165 C 
HETATM    2  N1  UNL     1     -37.383 -14.483   5.639  1.00  0.00    -0.230 N 
ATOM      3  H1  UNL     1     -37.287 -14.309   4.638  1.00  0.00     0.177 HD
HETATM    4  C2  UNL     1     -38.480 -13.948   6.367  1.00  0.00     0.687 C 
HETATM    5  N2  UNL     1     -38.596 -12.675   6.509  1.00  0.00    -0.234 N 
ATOM      6  H21 UNL     1     -39.383 -12.291   7.032  1.00  0.00     0.174 HD
ATOM      7  H22 UNL     1     -37.931 -12.005   6.122  1.00  0.00     0.174 HD
HETATM    8  N3  UNL     1     -39.402 -14.877   6.904  1.00  0.00    -0.111 N 
ATOM      9  H3  UNL     1     -39.253 -15.257   7.838  1.00  0.00     0.208 HD
HETATM   10  N4  UNL     1     -40.405 -15.238   6.234  1.00  0.00    -0.182 N 
ENDROOT
BRANCH  10  11
HETATM   11  O1  UNL     1     -41.253 -16.149   6.834  1.00  0.00    -0.271 OA
ATOM     12  H1  UNL     1     -41.256 -17.027   6.473  1.00  0.00     0.246 HD
ENDBRANCH  10  11
BRANCH  10  13
HETATM   13  C3  UNL     1     -40.624 -14.711   4.925  1.00  0.00     0.134 C 
HETATM   14  C4  UNL     1     -42.094 -14.393   4.793  1.00  0.00     0.029 C 
HETATM   15  C5  UNL     1     -42.616 -14.607   3.392  1.00  0.00     0.002 C 
HETATM   16  C6  UNL     1     -42.475 -16.041   2.944  1.00  0.00     0.000 C 
HETATM   17  C7  UNL     1     -41.295 -16.726   3.589  1.00  0.00     0.002 C 
HETATM   18  C8  UNL     1     -40.243 -15.689   3.832  1.00  0.00     0.029 C 
ENDBRANCH  10  13
TORSDOF 2
ENDMDL
MODEL 5
REMARK VINA RESULT: -5.071495093      2.439      3.574
REMARK  2 active torsions:
REMARK  status: ('A' for Active; 'I' for Inactive)
REMARK       I    between atoms: N1_2  and  C2_4 
REMARK       I    between atoms: C2_4  and  N3_8 
REMARK    1  A    between atoms: N4_10  and  O1_11 
REMARK    2  A    between atoms: N4_10  and  C3_13 
ROOT
HETATM    1  C1  UNL     1     -40.642 -12.900   1.810  1.00  0.00     0.165 C 
HETATM    2  N1  UNL     1     -40.014 -14.037   2.485  1.00  0.00    -0.230 N 
ATOM      3  H1  UNL     1     -39.264 -14.561   2.033  1.00  0.00     0.177 HD
HETATM    4  C2  UNL     1     -40.471 -14.396   3.782  1.00  0.00     0.687 C 
HETATM    5  N2  UNL     1     -41.058 -15.525   3.966  1.00  0.00    -0.234 N 
ATOM      6  H21 UNL     1     -41.385 -15.783   4.897  1.00  0.00     0.174 HD
ATOM      7  H22 UNL     1     -41.221 -16.200   3.219  1.00  0.00     0.174 HD
HETATM    8  N3  UNL     1     -40.243 -13.460   4.819  1.00  0.00    -0.111 N 
ATOM      9  H3  UNL     1     -40.939 -12.742   5.015  1.00  0.00     0.208 HD
HETATM   10  N4  UNL     1     -39.186 -13.511   5.501  1.00  0.00    -0.182 N 
ENDROOT
BRANCH  10  11
HETATM   11  O1  UNL     1     -39.044 -12.559   6.492  1.00  0.00    -0.271 OA
ATOM     12  H1  UNL     1     -38.252 -12.035   6.466  1.00  0.00     0.246 HD
ENDBRANCH  10  11
BRANCH  10  13
HETATM   13  C3  UNL     1     -38.205 -14.514   5.235  1.00  0.00     0.134 C 
HETATM   14  C4  UNL     1     -37.984 -15.294   6.509  1.00  0.00     0.029 C 
HETATM   15  C5  UNL     1     -36.560 -15.772   6.662  1.00  0.00     0.002 C 
HETATM   16  C6  UNL     1     -35.577 -14.629   6.718  1.00  0.00     0.000 C 
HETATM   17  C7  UNL     1     -36.054 -13.429   5.935  1.00  0.00     0.002 C 
HETATM   18  C8  UNL     1     -36.879 -13.931   4.791  1.00  0.00     0.029 C 
ENDBRANCH  10  13
TORSDOF 2
ENDMDL
