MODEL 1
REMARK VINA RESULT: -6.474922182      0.000      0.000
REMARK  3 active torsions:
REMARK  status: ('A' for Active; 'I' for Inactive)
REMARK    1  A    between atoms: C2_2  and  C4_10 
REMARK    2  A    between atoms: N1_3  and  N2_5 
REMARK    3  A    between atoms: N2_5  and  C3_7 
ROOT
HETATM    1  C1  UNL     1     -36.644 -15.509   6.425  1.00  0.00     0.065 C 
HETATM    2  C2  UNL     1     -36.710 -14.071   6.171  1.00  0.00     0.004 C 
HETATM    3  N1  UNL     1     -37.834 -13.474   6.230  1.00  0.00    -0.307 N 
ATOM      4  H1  UNL     1     -37.831 -12.472   6.045  1.00  0.00     0.186 HD
ENDROOT
BRANCH   2   5
HETATM    5  C4  UNL     1     -35.509 -13.255   5.839  1.00  0.00     0.032 C 
HETATM    6  C5  UNL     1     -34.244 -13.948   6.209  1.00  0.00     0.010 C 
HETATM    7  C6  UNL     1     -33.695 -13.259   7.442  1.00  0.00     0.001 C 
HETATM    8  C7  UNL     1     -34.166 -11.823   7.258  1.00  0.00     0.001 C 
HETATM    9  C8  UNL     1     -35.509 -11.934   6.571  1.00  0.00     0.010 C 
ENDBRANCH   2   5
BRANCH   3  10
HETATM   10  N2  UNL     1     -39.050 -14.047   6.519  1.00  0.00    -0.279 N 
ATOM     11  H2  UNL     1     -39.256 -14.362   7.466  1.00  0.00     0.189 HD
BRANCH  10  12
HETATM   12  C3  UNL     1     -40.013 -14.195   5.493  1.00  0.00     0.199 C 
HETATM   13  N3  UNL     1     -40.324 -13.126   4.608  1.00  0.00    -0.068 NA
HETATM   14  S1  UNL     1     -40.775 -15.625   5.332  1.00  0.00    -0.043 SA
ENDBRANCH  10  12
ENDBRANCH   3  10
TORSDOF 3
ENDMDL
MODEL 2
REMARK VINA RESULT: -5.936588735      1.137      1.354
REMARK  3 active torsions:
REMARK  status: ('A' for Active; 'I' for Inactive)
REMARK    1  A    between atoms: C2_2  and  C4_10 
REMARK    2  A    between atoms: N1_3  and  N2_5 
REMARK    3  A    between atoms: N2_5  and  C3_7 
ROOT
HETATM    1  C1  UNL     1     -37.634 -12.358   6.885  1.00  0.00     0.065 C 
HETATM    2  C2  UNL     1     -36.737 -13.357   6.306  1.00  0.00     0.004 C 
HETATM    3  N1  UNL     1     -37.137 -14.560   6.179  1.00  0.00    -0.307 N 
ATOM      4  H1  UNL     1     -36.477 -15.222   5.771  1.00  0.00     0.186 HD
ENDROOT
BRANCH   2   5
HETATM    5  C4  UNL     1     -35.356 -13.034   5.851  1.00  0.00     0.032 C 
HETATM    6  C5  UNL     1     -34.345 -13.954   6.440  1.00  0.00     0.010 C 
HETATM    7  C6  UNL     1     -33.589 -13.179   7.500  1.00  0.00     0.001 C 
HETATM    8  C7  UNL     1     -33.619 -11.757   6.955  1.00  0.00     0.001 C 
HETATM    9  C8  UNL     1     -34.950 -11.634   6.247  1.00  0.00     0.010 C 
ENDBRANCH   2   5
BRANCH   3  10
HETATM   10  N2  UNL     1     -38.368 -15.055   6.536  1.00  0.00    -0.279 N 
ATOM     11  H2  UNL     1     -38.534 -15.378   7.489  1.00  0.00     0.189 HD
BRANCH  10  12
HETATM   12  C3  UNL     1     -39.404 -15.113   5.573  1.00  0.00     0.199 C 
HETATM   13  N3  UNL     1     -39.161 -14.812   4.205  1.00  0.00    -0.068 NA
HETATM   14  S1  UNL     1     -40.901 -15.535   6.055  1.00  0.00    -0.043 SA
ENDBRANCH  10  12
ENDBRANCH   3  10
TORSDOF 3
ENDMDL
MODEL 3
REMARK VINA RESULT: -5.859596233      3.254      5.513
REMARK  3 active torsions:
REMARK  status: ('A' for Active; 'I' for Inactive)
REMARK    1  A    between atoms: C2_2  and  C4_10 
REMARK    2  A    between atoms: N1_3  and  N2_5 
REMARK    3  A    between atoms: N2_5  and  C3_7 
ROOT
HETATM    1  C1  UNL     1     -38.407 -12.342   6.888  1.00  0.00     0.065 C 
HETATM    2  C2  UNL     1     -37.590 -13.447   6.389  1.00  0.00     0.004 C 
HETATM    3  N1  UNL     1     -36.335 -13.284   6.245  1.00  0.00    -0.307 N 
ATOM      4  H1  UNL     1     -35.806 -14.082   5.894  1.00  0.00     0.186 HD
ENDROOT
BRANCH   2   5
HETATM    5  C4  UNL     1     -38.162 -14.776   6.034  1.00  0.00     0.032 C 
HETATM    6  C5  UNL     1     -38.494 -14.872   4.586  1.00  0.00     0.010 C 
HETATM    7  C6  UNL     1     -40.002 -14.800   4.462  1.00  0.00     0.001 C 
HETATM    8  C7  UNL     1     -40.473 -15.446   5.759  1.00  0.00     0.001 C 
HETATM    9  C8  UNL     1     -39.439 -15.056   6.791  1.00  0.00     0.010 C 
ENDBRANCH   2   5
BRANCH   3  10
HETATM   10  N2  UNL     1     -35.622 -12.140   6.515  1.00  0.00    -0.279 N 
ATOM     11  H2  UNL     1     -36.064 -11.226   6.424  1.00  0.00     0.189 HD
BRANCH  10  12
HETATM   12  C3  UNL     1     -34.270 -12.240   6.921  1.00  0.00     0.199 C 
HETATM   13  N3  UNL     1     -33.762 -13.423   7.525  1.00  0.00    -0.068 NA
HETATM   14  S1  UNL     1     -33.283 -10.966   6.686  1.00  0.00    -0.043 SA
ENDBRANCH  10  12
ENDBRANCH   3  10
TORSDOF 3
ENDMDL
MODEL 4
REMARK VINA RESULT: -5.849155746      3.176      5.352
REMARK  3 active torsions:
REMARK  status: ('A' for Active; 'I' for Inactive)
REMARK    1  A    between atoms: C2_2  and  C4_10 
REMARK    2  A    between atoms: N1_3  and  N2_5 
REMARK    3  A    between atoms: N2_5  and  C3_7 
ROOT
HETATM    1  C1  UNL     1     -36.691 -15.576   6.471  1.00  0.00     0.065 C 
HETATM    2  C2  UNL     1     -37.165 -14.242   6.104  1.00  0.00     0.004 C 
HETATM    3  N1  UNL     1     -36.380 -13.245   6.216  1.00  0.00    -0.307 N 
ATOM      4  H1  UNL     1     -36.754 -12.335   5.949  1.00  0.00     0.186 HD
ENDROOT
BRANCH   2   5
HETATM    5  C4  UNL     1     -38.544 -13.987   5.601  1.00  0.00     0.032 C 
HETATM    6  C5  UNL     1     -39.572 -14.201   6.656  1.00  0.00     0.010 C 
HETATM    7  C6  UNL     1     -40.285 -15.499   6.336  1.00  0.00     0.001 C 
HETATM    8  C7  UNL     1     -40.222 -15.547   4.816  1.00  0.00     0.001 C 
HETATM    9  C8  UNL     1     -38.900 -14.905   4.456  1.00  0.00     0.010 C 
ENDBRANCH   2   5
BRANCH   3  10
HETATM   10  N2  UNL     1     -35.079 -13.274   6.658  1.00  0.00    -0.279 N 
ATOM     11  H2  UNL     1     -34.651 -14.156   6.938  1.00  0.00     0.189 HD
BRANCH  10  12
HETATM   12  C3  UNL     1     -34.337 -12.070   6.723  1.00  0.00     0.199 C 
HETATM   13  N3  UNL     1     -34.938 -10.813   6.442  1.00  0.00    -0.068 NA
HETATM   14  S1  UNL     1     -32.762 -12.140   7.128  1.00  0.00    -0.043 SA
ENDBRANCH  10  12
ENDBRANCH   3  10
TORSDOF 3
ENDMDL
MODEL 5
REMARK VINA RESULT: -5.845298414      3.002      5.400
REMARK  3 active torsions:
REMARK  status: ('A' for Active; 'I' for Inactive)
REMARK    1  A    between atoms: C2_2  and  C4_10 
REMARK    2  A    between atoms: N1_3  and  N2_5 
REMARK    3  A    between atoms: N2_5  and  C3_7 
ROOT
HETATM    1  C1  UNL     1     -36.796 -15.762   6.503  1.00  0.00     0.065 C 
HETATM    2  C2  UNL     1     -37.114 -14.447   5.949  1.00  0.00     0.004 C 
HETATM    3  N1  UNL     1     -36.189 -13.582   5.816  1.00  0.00    -0.307 N 
ATOM      4  H1  UNL     1     -36.458 -12.678   5.426  1.00  0.00     0.186 HD
ENDROOT
BRANCH   2   5
HETATM    5  C4  UNL     1     -38.490 -14.061   5.526  1.00  0.00     0.032 C 
HETATM    6  C5  UNL     1     -39.479 -14.231   6.626  1.00  0.00     0.010 C 
HETATM    7  C6  UNL     1     -40.312 -15.454   6.300  1.00  0.00     0.001 C 
HETATM    8  C7  UNL     1     -40.328 -15.449   4.777  1.00  0.00     0.001 C 
HETATM    9  C8  UNL     1     -38.977 -14.904   4.371  1.00  0.00     0.010 C 
ENDBRANCH   2   5
BRANCH   3  10
HETATM   10  N2  UNL     1     -34.864 -13.743   6.146  1.00  0.00    -0.279 N 
ATOM     11  H2  UNL     1     -34.379 -14.609   5.912  1.00  0.00     0.189 HD
BRANCH  10  12
HETATM   12  C3  UNL     1     -34.178 -12.700   6.813  1.00  0.00     0.199 C 
HETATM   13  N3  UNL     1     -33.076 -12.966   7.670  1.00  0.00    -0.068 NA
HETATM   14  S1  UNL     1     -34.672 -11.165   6.584  1.00  0.00    -0.043 SA
ENDBRANCH  10  12
ENDBRANCH   3  10
TORSDOF 3
ENDMDL
