MODEL 1
REMARK VINA RESULT: -7.328365229      0.000      0.000
REMARK  6 active torsions:
REMARK  status: ('A' for Active; 'I' for Inactive)
REMARK       I    between atoms: C2_4  and  N2_5 
REMARK       I    between atoms: C2_4  and  N4_11 
REMARK    1  A    between atoms: N2_5  and  C3_7 
REMARK    2  A    between atoms: C3_7  and  C4_8 
REMARK    3  A    between atoms: N4_11  and  N5_13 
REMARK    4  A    between atoms: C6_15  and  C7_16 
REMARK    5  A    between atoms: C10_19  and  C11_20 
REMARK    6  A    between atoms: C14_23  and  N6_24 
ROOT
HETATM    1  C4  UNL     1      -0.191   3.677   2.694  1.00  0.00     0.144 C 
HETATM    2  C5  UNL     1      -0.368   3.983   1.266  1.00  0.00     0.060 C 
HETATM    3  N3  UNL     1      -0.514   4.245   0.150  1.00  0.00    -0.197 NA
ENDROOT
BRANCH   1   4
HETATM    4  C3  UNL     1      -1.455   4.035   3.460  1.00  0.00     0.152 C 
BRANCH   4   5
HETATM    5  N2  UNL     1      -2.325   4.893   2.728  1.00  0.00    -0.224 N 
HETATM    6  C2  UNL     1      -2.912   6.054   3.253  1.00  0.00     0.688 C 
HETATM    7  N1  UNL     1      -2.992   7.149   2.569  1.00  0.00    -0.229 N 
HETATM    8  N4  UNL     1      -3.478   6.154   4.577  1.00  0.00    -0.133 N 
HETATM    9  C1  UNL     1      -2.510   7.315   1.233  1.00  0.00     0.165 C 
ATOM     10  H1  UNL     1      -3.433   7.954   3.015  1.00  0.00     0.177 HD
ATOM     11  H4  UNL     1      -2.963   6.610   5.330  1.00  0.00     0.205 HD
ATOM     12  H2  UNL     1      -2.535   4.648   1.760  1.00  0.00     0.177 HD
BRANCH   8  13
HETATM   13  N5  UNL     1      -4.708   5.631   4.802  1.00  0.00    -0.295 N 
HETATM   14  C6  UNL     1      -5.161   4.713   5.524  1.00  0.00     0.144 C 
ATOM     15  H5  UNL     1      -5.436   6.092   4.255  1.00  0.00     0.186 HD
BRANCH  14  16
HETATM   16  C7  UNL     1      -4.420   3.850   6.429  1.00  0.00     0.093 A 
HETATM   17  C8  UNL     1      -4.849   3.060   7.463  1.00  0.00     0.041 A 
HETATM   18  C9  UNL     1      -3.730   2.441   7.997  1.00  0.00     0.041 A 
HETATM   19  C10 UNL     1      -2.679   2.885   7.264  1.00  0.00     0.086 A 
HETATM   20  O3  UNL     1      -3.105   3.706   6.354  1.00  0.00    -0.309 OA
BRANCH  19  21
HETATM   21  C11 UNL     1      -1.271   2.512   7.446  1.00  0.00    -0.002 A 
HETATM   22  C12 UNL     1      -0.899   1.475   8.260  1.00  0.00     0.017 A 
HETATM   23  C13 UNL     1       0.410   1.111   8.442  1.00  0.00     0.037 A 
HETATM   24  C14 UNL     1       1.394   1.818   7.778  1.00  0.00     0.102 A 
HETATM   25  C15 UNL     1       1.052   2.856   6.959  1.00  0.00     0.037 A 
HETATM   26  C16 UNL     1      -0.257   3.192   6.800  1.00  0.00     0.017 A 
BRANCH  24  27
HETATM   27  N6  UNL     1       2.748   1.445   7.961  1.00  0.00    -0.116 N 
HETATM   28  O1  UNL     1       3.184   0.345   7.572  1.00  0.00    -0.532 OA
HETATM   29  O2  UNL     1       3.597   2.324   8.585  1.00  0.00    -0.532 OA
ENDBRANCH  24  27
ENDBRANCH  19  21
ENDBRANCH  14  16
ENDBRANCH   8  13
ENDBRANCH   4   5
ENDBRANCH   1   4
TORSDOF 6
ENDMDL
MODEL 2
REMARK VINA RESULT: -7.328029950      2.037      4.780
REMARK  6 active torsions:
REMARK  status: ('A' for Active; 'I' for Inactive)
REMARK       I    between atoms: C2_4  and  N2_5 
REMARK       I    between atoms: C2_4  and  N4_11 
REMARK    1  A    between atoms: N2_5  and  C3_7 
REMARK    2  A    between atoms: C3_7  and  C4_8 
REMARK    3  A    between atoms: N4_11  and  N5_13 
REMARK    4  A    between atoms: C6_15  and  C7_16 
REMARK    5  A    between atoms: C10_19  and  C11_20 
REMARK    6  A    between atoms: C14_23  and  N6_24 
ROOT
HETATM    1  C4  UNL     1      -4.051   2.185   8.200  1.00  0.00     0.144 C 
HETATM    2  C5  UNL     1      -2.715   1.740   8.624  1.00  0.00     0.060 C 
HETATM    3  N3  UNL     1      -1.659   1.413   8.962  1.00  0.00    -0.197 NA
ENDROOT
BRANCH   1   4
HETATM    4  C3  UNL     1      -3.923   3.314   7.189  1.00  0.00     0.152 C 
BRANCH   4   5
HETATM    5  N2  UNL     1      -5.161   3.649   6.569  1.00  0.00    -0.224 N 
HETATM    6  C2  UNL     1      -5.487   3.333   5.241  1.00  0.00     0.688 C 
HETATM    7  N1  UNL     1      -6.660   2.897   4.912  1.00  0.00    -0.229 N 
HETATM    8  N4  UNL     1      -4.579   3.457   4.127  1.00  0.00    -0.133 N 
HETATM    9  C1  UNL     1      -7.740   2.687   5.824  1.00  0.00     0.165 C 
ATOM     10  H1  UNL     1      -6.826   2.688   3.927  1.00  0.00     0.177 HD
ATOM     11  H4  UNL     1      -4.116   2.635   3.740  1.00  0.00     0.205 HD
ATOM     12  H2  UNL     1      -5.853   4.150   7.124  1.00  0.00     0.177 HD
BRANCH   8  13
HETATM   13  N5  UNL     1      -4.353   4.686   3.603  1.00  0.00    -0.295 N 
HETATM   14  C6  UNL     1      -3.331   5.349   3.312  1.00  0.00     0.144 C 
ATOM     15  H5  UNL     1      -5.217   5.189   3.397  1.00  0.00     0.186 HD
BRANCH  14  16
HETATM   16  C7  UNL     1      -1.942   4.952   3.468  1.00  0.00     0.093 A 
HETATM   17  C8  UNL     1      -0.963   4.736   2.532  1.00  0.00     0.041 A 
HETATM   18  C9  UNL     1       0.186   4.376   3.218  1.00  0.00     0.041 A 
HETATM   19  C10 UNL     1      -0.150   4.389   4.532  1.00  0.00     0.086 A 
HETATM   20  O3  UNL     1      -1.397   4.728   4.654  1.00  0.00    -0.309 OA
BRANCH  19  21
HETATM   21  C11 UNL     1       0.735   4.076   5.660  1.00  0.00    -0.002 A 
HETATM   22  C12 UNL     1       0.517   2.991   6.469  1.00  0.00     0.017 A 
HETATM   23  C13 UNL     1       1.333   2.681   7.525  1.00  0.00     0.037 A 
HETATM   24  C14 UNL     1       2.418   3.495   7.787  1.00  0.00     0.102 A 
HETATM   25  C15 UNL     1       2.659   4.583   6.998  1.00  0.00     0.037 A 
HETATM   26  C16 UNL     1       1.831   4.863   5.955  1.00  0.00     0.017 A 
BRANCH  24  27
HETATM   27  N6  UNL     1       3.265   3.178   8.877  1.00  0.00    -0.116 N 
HETATM   28  O1  UNL     1       2.937   3.418  10.054  1.00  0.00    -0.532 OA
HETATM   29  O2  UNL     1       4.480   2.593   8.622  1.00  0.00    -0.532 OA
ENDBRANCH  24  27
ENDBRANCH  19  21
ENDBRANCH  14  16
ENDBRANCH   8  13
ENDBRANCH   4   5
ENDBRANCH   1   4
TORSDOF 6
ENDMDL
MODEL 3
REMARK VINA RESULT: -7.221309795      2.156      4.858
REMARK  6 active torsions:
REMARK  status: ('A' for Active; 'I' for Inactive)
REMARK       I    between atoms: C2_4  and  N2_5 
REMARK       I    between atoms: C2_4  and  N4_11 
REMARK    1  A    between atoms: N2_5  and  C3_7 
REMARK    2  A    between atoms: C3_7  and  C4_8 
REMARK    3  A    between atoms: N4_11  and  N5_13 
REMARK    4  A    between atoms: C6_15  and  C7_16 
REMARK    5  A    between atoms: C10_19  and  C11_20 
REMARK    6  A    between atoms: C14_23  and  N6_24 
ROOT
HETATM    1  C4  UNL     1      -2.951   2.425   7.827  1.00  0.00     0.144 C 
HETATM    2  C5  UNL     1      -4.165   2.219   8.631  1.00  0.00     0.060 C 
HETATM    3  N3  UNL     1      -5.133   2.061   9.244  1.00  0.00    -0.197 NA
ENDROOT
BRANCH   1   4
HETATM    4  C3  UNL     1      -3.071   3.715   7.030  1.00  0.00     0.152 C 
BRANCH   4   5
HETATM    5  N2  UNL     1      -4.402   3.978   6.594  1.00  0.00    -0.224 N 
HETATM    6  C2  UNL     1      -4.920   3.570   5.355  1.00  0.00     0.688 C 
HETATM    7  N1  UNL     1      -6.113   3.085   5.241  1.00  0.00    -0.229 N 
HETATM    8  N4  UNL     1      -4.201   3.646   4.106  1.00  0.00    -0.133 N 
HETATM    9  C1  UNL     1      -7.030   2.905   6.323  1.00  0.00     0.165 C 
ATOM     10  H1  UNL     1      -6.424   2.809   4.309  1.00  0.00     0.177 HD
ATOM     11  H4  UNL     1      -3.775   2.813   3.700  1.00  0.00     0.205 HD
ATOM     12  H2  UNL     1      -5.016   4.496   7.222  1.00  0.00     0.177 HD
BRANCH   8  13
HETATM   13  N5  UNL     1      -4.103   4.845   3.482  1.00  0.00    -0.295 N 
HETATM   14  C6  UNL     1      -3.156   5.596   3.153  1.00  0.00     0.144 C 
ATOM     15  H5  UNL     1      -5.013   5.226   3.219  1.00  0.00     0.186 HD
BRANCH  14  16
HETATM   16  C7  UNL     1      -1.736   5.377   3.367  1.00  0.00     0.093 A 
HETATM   17  C8  UNL     1      -0.670   5.524   2.517  1.00  0.00     0.041 A 
HETATM   18  C9  UNL     1       0.470   5.185   3.228  1.00  0.00     0.041 A 
HETATM   19  C10 UNL     1       0.043   4.849   4.470  1.00  0.00     0.086 A 
HETATM   20  O3  UNL     1      -1.247   4.968   4.528  1.00  0.00    -0.309 OA
BRANCH  19  21
HETATM   21  C11 UNL     1       0.884   4.416   5.592  1.00  0.00    -0.002 A 
HETATM   22  C12 UNL     1       0.564   3.324   6.355  1.00  0.00     0.017 A 
HETATM   23  C13 UNL     1       1.338   2.903   7.405  1.00  0.00     0.037 A 
HETATM   24  C14 UNL     1       2.486   3.608   7.708  1.00  0.00     0.102 A 
HETATM   25  C15 UNL     1       2.830   4.701   6.965  1.00  0.00     0.037 A 
HETATM   26  C16 UNL     1       2.041   5.093   5.928  1.00  0.00     0.017 A 
BRANCH  24  27
HETATM   27  N6  UNL     1       3.290   3.177   8.792  1.00  0.00    -0.116 N 
HETATM   28  O1  UNL     1       4.376   2.595   8.612  1.00  0.00    -0.532 OA
HETATM   29  O2  UNL     1       2.853   3.410  10.072  1.00  0.00    -0.532 OA
ENDBRANCH  24  27
ENDBRANCH  19  21
ENDBRANCH  14  16
ENDBRANCH   8  13
ENDBRANCH   4   5
ENDBRANCH   1   4
TORSDOF 6
ENDMDL
MODEL 4
REMARK VINA RESULT: -7.182503835      1.204      1.328
REMARK  6 active torsions:
REMARK  status: ('A' for Active; 'I' for Inactive)
REMARK       I    between atoms: C2_4  and  N2_5 
REMARK       I    between atoms: C2_4  and  N4_11 
REMARK    1  A    between atoms: N2_5  and  C3_7 
REMARK    2  A    between atoms: C3_7  and  C4_8 
REMARK    3  A    between atoms: N4_11  and  N5_13 
REMARK    4  A    between atoms: C6_15  and  C7_16 
REMARK    5  A    between atoms: C10_19  and  C11_20 
REMARK    6  A    between atoms: C14_23  and  N6_24 
ROOT
HETATM    1  C4  UNL     1      -1.160   4.690   3.309  1.00  0.00     0.144 C 
HETATM    2  C5  UNL     1      -0.664   3.499   2.603  1.00  0.00     0.060 C 
HETATM    3  N3  UNL     1      -0.295   2.560   2.039  1.00  0.00    -0.197 NA
ENDROOT
BRANCH   1   4
HETATM    4  C3  UNL     1      -2.478   4.371   3.997  1.00  0.00     0.152 C 
BRANCH   4   5
HETATM    5  N2  UNL     1      -3.551   5.197   3.555  1.00  0.00    -0.224 N 
HETATM    6  C2  UNL     1      -4.253   6.087   4.382  1.00  0.00     0.688 C 
HETATM    7  N1  UNL     1      -4.583   7.273   3.984  1.00  0.00    -0.229 N 
HETATM    8  N4  UNL     1      -4.674   5.788   5.729  1.00  0.00    -0.133 N 
HETATM    9  C1  UNL     1      -4.287   7.814   2.694  1.00  0.00     0.165 C 
ATOM     10  H1  UNL     1      -5.093   7.866   4.639  1.00  0.00     0.177 HD
ATOM     11  H4  UNL     1      -4.156   6.153   6.529  1.00  0.00     0.205 HD
ATOM     12  H2  UNL     1      -3.827   5.137   2.575  1.00  0.00     0.177 HD
BRANCH   8  13
HETATM   13  N5  UNL     1      -5.771   5.015   5.914  1.00  0.00    -0.295 N 
HETATM   14  C6  UNL     1      -6.004   3.936   6.507  1.00  0.00     0.144 C 
ATOM     15  H5  UNL     1      -6.602   5.400   5.464  1.00  0.00     0.186 HD
BRANCH  14  16
HETATM   16  C7  UNL     1      -5.065   3.114   7.251  1.00  0.00     0.093 A 
HETATM   17  C8  UNL     1      -5.275   2.195   8.246  1.00  0.00     0.041 A 
HETATM   18  C9  UNL     1      -4.034   1.693   8.608  1.00  0.00     0.041 A 
HETATM   19  C10 UNL     1      -3.135   2.330   7.817  1.00  0.00     0.086 A 
HETATM   20  O3  UNL     1      -3.759   3.154   7.034  1.00  0.00    -0.309 OA
BRANCH  19  21
HETATM   21  C11 UNL     1      -1.680   2.137   7.824  1.00  0.00    -0.002 A 
HETATM   22  C12 UNL     1      -1.080   1.198   8.621  1.00  0.00     0.017 A 
HETATM   23  C13 UNL     1       0.277   1.003   8.640  1.00  0.00     0.037 A 
HETATM   24  C14 UNL     1       1.072   1.784   7.823  1.00  0.00     0.102 A 
HETATM   25  C15 UNL     1       0.500   2.727   7.018  1.00  0.00     0.037 A 
HETATM   26  C16 UNL     1      -0.850   2.896   7.022  1.00  0.00     0.017 A 
BRANCH  24  27
HETATM   27  N6  UNL     1       2.474   1.585   7.838  1.00  0.00    -0.116 N 
HETATM   28  O1  UNL     1       2.985   0.496   7.516  1.00  0.00    -0.532 OA
HETATM   29  O2  UNL     1       3.284   2.624   8.219  1.00  0.00    -0.532 OA
ENDBRANCH  24  27
ENDBRANCH  19  21
ENDBRANCH  14  16
ENDBRANCH   8  13
ENDBRANCH   4   5
ENDBRANCH   1   4
TORSDOF 6
ENDMDL
MODEL 5
REMARK VINA RESULT: -7.177708275      2.196      4.929
REMARK  6 active torsions:
REMARK  status: ('A' for Active; 'I' for Inactive)
REMARK       I    between atoms: C2_4  and  N2_5 
REMARK       I    between atoms: C2_4  and  N4_11 
REMARK    1  A    between atoms: N2_5  and  C3_7 
REMARK    2  A    between atoms: C3_7  and  C4_8 
REMARK    3  A    between atoms: N4_11  and  N5_13 
REMARK    4  A    between atoms: C6_15  and  C7_16 
REMARK    5  A    between atoms: C10_19  and  C11_20 
REMARK    6  A    between atoms: C14_23  and  N6_24 
ROOT
HETATM    1  C4  UNL     1      -3.044   2.670   7.439  1.00  0.00     0.144 C 
HETATM    2  C5  UNL     1      -3.475   2.056   8.703  1.00  0.00     0.060 C 
HETATM    3  N3  UNL     1      -3.836   1.580   9.693  1.00  0.00    -0.197 NA
ENDROOT
BRANCH   1   4
HETATM    4  C3  UNL     1      -3.524   4.112   7.375  1.00  0.00     0.152 C 
BRANCH   4   5
HETATM    5  N2  UNL     1      -4.811   4.245   6.780  1.00  0.00    -0.224 N 
HETATM    6  C2  UNL     1      -5.182   3.654   5.563  1.00  0.00     0.688 C 
HETATM    7  N1  UNL     1      -6.336   3.094   5.398  1.00  0.00    -0.229 N 
HETATM    8  N4  UNL     1      -4.341   3.608   4.390  1.00  0.00    -0.133 N 
HETATM    9  C1  UNL     1      -7.352   3.006   6.400  1.00  0.00     0.165 C 
ATOM     10  H1  UNL     1      -6.537   2.685   4.485  1.00  0.00     0.177 HD
ATOM     11  H4  UNL     1      -3.842   2.754   4.142  1.00  0.00     0.205 HD
ATOM     12  H2  UNL     1      -5.508   4.806   7.270  1.00  0.00     0.177 HD
BRANCH   8  13
HETATM   13  N5  UNL     1      -4.227   4.720   3.625  1.00  0.00    -0.295 N 
HETATM   14  C6  UNL     1      -3.270   5.396   3.183  1.00  0.00     0.144 C 
ATOM     15  H5  UNL     1      -5.133   5.095   3.341  1.00  0.00     0.186 HD
BRANCH  14  16
HETATM   16  C7  UNL     1      -1.851   5.159   3.384  1.00  0.00     0.093 A 
HETATM   17  C8  UNL     1      -0.799   5.233   2.509  1.00  0.00     0.041 A 
HETATM   18  C9  UNL     1       0.348   4.911   3.218  1.00  0.00     0.041 A 
HETATM   19  C10 UNL     1      -0.063   4.658   4.486  1.00  0.00     0.086 A 
HETATM   20  O3  UNL     1      -1.349   4.809   4.559  1.00  0.00    -0.309 OA
BRANCH  19  21
HETATM   21  C11 UNL     1       0.790   4.274   5.617  1.00  0.00    -0.002 A 
HETATM   22  C12 UNL     1       1.916   4.982   5.946  1.00  0.00     0.017 A 
HETATM   23  C13 UNL     1       2.724   4.640   6.999  1.00  0.00     0.037 A 
HETATM   24  C14 UNL     1       2.391   3.536   7.759  1.00  0.00     0.102 A 
HETATM   25  C15 UNL     1       1.274   2.811   7.454  1.00  0.00     0.037 A 
HETATM   26  C16 UNL     1       0.492   3.177   6.402  1.00  0.00     0.017 A 
BRANCH  24  27
HETATM   27  N6  UNL     1       3.221   3.178   8.849  1.00  0.00    -0.116 N 
HETATM   28  O1  UNL     1       2.894   3.412  10.027  1.00  0.00    -0.532 OA
HETATM   29  O2  UNL     1       4.417   2.557   8.592  1.00  0.00    -0.532 OA
ENDBRANCH  24  27
ENDBRANCH  19  21
ENDBRANCH  14  16
ENDBRANCH   8  13
ENDBRANCH   4   5
ENDBRANCH   1   4
TORSDOF 6
ENDMDL
