MODEL 1
REMARK VINA RESULT: -6.472545698      0.000      0.000
REMARK  7 active torsions:
REMARK  status: ('A' for Active; 'I' for Inactive)
REMARK    1  A    between atoms: O1_2  and  C2_3 
REMARK    2  A    between atoms: C5_6  and  N1_7 
REMARK       I    between atoms: N1_7  and  C6_9 
REMARK    3  A    between atoms: C6_9  and  C7_11 
REMARK    4  A    between atoms: C7_11  and  S1_12 
REMARK    5  A    between atoms: S1_12  and  C8_13 
REMARK    6  A    between atoms: N3_18  and  N4_19 
REMARK    7  A    between atoms: N4_19  and  C11_21 
ROOT
HETATM    1  S1  UNL     1      -5.025   3.975   7.206  1.00  0.00    -0.083 SA
ENDROOT
BRANCH   1   2
HETATM    2  C7  UNL     1      -4.937   2.494   8.206  1.00  0.00     0.185 C 
BRANCH   2   3
HETATM    3  C6  UNL     1      -3.500   2.176   8.470  1.00  0.00     0.231 C 
HETATM    4  N1  UNL     1      -2.547   2.452   7.487  1.00  0.00    -0.327 N 
ATOM      5  H1  UNL     1      -2.865   2.871   6.613  1.00  0.00     0.169 HD
HETATM    6  O2  UNL     1      -3.249   1.676   9.572  1.00  0.00    -0.272 OA
BRANCH   4   7
HETATM    7  C5  UNL     1      -1.176   2.184   7.633  1.00  0.00     0.034 A 
HETATM    8  C4  UNL     1      -0.605   1.219   8.421  1.00  0.00     0.032 A 
HETATM    9  C3  UNL     1       0.783   1.054   8.512  1.00  0.00     0.039 A 
HETATM   10  C2  UNL     1       1.648   1.858   7.806  1.00  0.00     0.068 A 
HETATM   11  C17 UNL     1       1.061   2.823   7.018  1.00  0.00     0.039 A 
HETATM   12  C16 UNL     1      -0.277   2.994   6.922  1.00  0.00     0.032 A 
BRANCH  10  13
HETATM   13  O1  UNL     1       3.021   1.705   7.886  1.00  0.00    -0.356 OA
HETATM   14  C1  UNL     1       3.872   2.624   8.511  1.00  0.00     0.210 C 
ENDBRANCH  10  13
ENDBRANCH   4   7
ENDBRANCH   2   3
ENDBRANCH   1   2
BRANCH   1  15
HETATM   15  C8  UNL     1      -5.165   3.561   5.447  1.00  0.00     0.165 A 
HETATM   16  N2  UNL     1      -6.210   2.964   4.857  1.00  0.00    -0.344 N 
HETATM   17  C9  UNL     1      -5.960   2.818   3.546  1.00  0.00     0.109 A 
ATOM     18  H2  UNL     1      -7.064   2.667   5.330  1.00  0.00     0.167 HD
HETATM   19  C10 UNL     1      -4.716   3.342   3.320  1.00  0.00     0.135 A 
HETATM   20  N3  UNL     1      -4.250   3.790   4.494  1.00  0.00    -0.248 N 
BRANCH  20  21
HETATM   21  N4  UNL     1      -3.015   4.404   4.739  1.00  0.00    -0.323 N 
ATOM     22  H4  UNL     1      -2.737   4.564   5.707  1.00  0.00     0.181 HD
BRANCH  21  23
HETATM   23  C11 UNL     1      -2.118   4.822   3.690  1.00  0.00     0.100 C 
HETATM   24  C12 UNL     1      -1.373   6.078   3.972  1.00  0.00     0.026 C 
HETATM   25  C13 UNL     1       0.046   5.585   4.282  1.00  0.00     0.002 C 
HETATM   26  C14 UNL     1       0.213   4.508   3.220  1.00  0.00     0.002 C 
HETATM   27  C15 UNL     1      -1.098   3.746   3.388  1.00  0.00     0.026 C 
ENDBRANCH  21  23
ENDBRANCH  20  21
ENDBRANCH   1  15
TORSDOF 7
ENDMDL
MODEL 2
REMARK VINA RESULT: -6.292107819      3.315      5.387
REMARK  7 active torsions:
REMARK  status: ('A' for Active; 'I' for Inactive)
REMARK    1  A    between atoms: O1_2  and  C2_3 
REMARK    2  A    between atoms: C5_6  and  N1_7 
REMARK       I    between atoms: N1_7  and  C6_9 
REMARK    3  A    between atoms: C6_9  and  C7_11 
REMARK    4  A    between atoms: C7_11  and  S1_12 
REMARK    5  A    between atoms: S1_12  and  C8_13 
REMARK    6  A    between atoms: N3_18  and  N4_19 
REMARK    7  A    between atoms: N4_19  and  C11_21 
ROOT
HETATM    1  S1  UNL     1      -6.164   0.868   8.014  1.00  0.00    -0.083 SA
ENDROOT
BRANCH   1   2
HETATM    2  C7  UNL     1      -5.418   2.271   8.835  1.00  0.00     0.185 C 
BRANCH   2   3
HETATM    3  C6  UNL     1      -3.946   2.037   8.948  1.00  0.00     0.231 C 
HETATM    4  N1  UNL     1      -3.131   2.260   7.834  1.00  0.00    -0.327 N 
ATOM      5  H1  UNL     1      -3.572   2.584   6.973  1.00  0.00     0.169 HD
HETATM    6  O2  UNL     1      -3.540   1.651  10.049  1.00  0.00    -0.272 OA
BRANCH   4   7
HETATM    7  C5  UNL     1      -1.741   2.064   7.833  1.00  0.00     0.034 A 
HETATM    8  C4  UNL     1      -1.044   1.107   8.526  1.00  0.00     0.032 A 
HETATM    9  C3  UNL     1       0.353   1.016   8.472  1.00  0.00     0.039 A 
HETATM   10  C2  UNL     1       1.100   1.887   7.713  1.00  0.00     0.068 A 
HETATM   11  C17 UNL     1       0.386   2.842   7.022  1.00  0.00     0.039 A 
HETATM   12  C16 UNL     1      -0.961   2.942   7.066  1.00  0.00     0.032 A 
BRANCH  10  13
HETATM   13  O1  UNL     1       2.480   1.807   7.650  1.00  0.00    -0.356 OA
HETATM   14  C1  UNL     1       3.340   2.523   8.491  1.00  0.00     0.210 C 
ENDBRANCH  10  13
ENDBRANCH   4   7
ENDBRANCH   2   3
ENDBRANCH   1   2
BRANCH   1  15
HETATM   15  C8  UNL     1      -6.714   1.312   6.345  1.00  0.00     0.165 A 
HETATM   16  N2  UNL     1      -6.449   2.460   5.705  1.00  0.00    -0.344 N 
HETATM   17  C9  UNL     1      -7.018   2.436   4.490  1.00  0.00     0.109 A 
ATOM     18  H2  UNL     1      -5.900   3.232   6.084  1.00  0.00     0.167 HD
HETATM   19  C10 UNL     1      -7.657   1.231   4.376  1.00  0.00     0.135 A 
HETATM   20  N3  UNL     1      -7.458   0.561   5.519  1.00  0.00    -0.248 N 
BRANCH  20  21
HETATM   21  N4  UNL     1      -7.929  -0.716   5.849  1.00  0.00    -0.323 N 
ATOM     22  H4  UNL     1      -8.789  -0.791   6.392  1.00  0.00     0.181 HD
BRANCH  21  23
HETATM   23  C11 UNL     1      -7.257  -1.931   5.460  1.00  0.00     0.100 C 
HETATM   24  C12 UNL     1      -6.585  -2.655   6.572  1.00  0.00     0.026 C 
HETATM   25  C13 UNL     1      -7.507  -3.855   6.821  1.00  0.00     0.002 C 
HETATM   26  C14 UNL     1      -7.848  -4.255   5.392  1.00  0.00     0.002 C 
HETATM   27  C15 UNL     1      -8.219  -2.897   4.804  1.00  0.00     0.026 C 
ENDBRANCH  21  23
ENDBRANCH  20  21
ENDBRANCH   1  15
TORSDOF 7
ENDMDL
MODEL 3
REMARK VINA RESULT: -6.243580014      1.657      2.093
REMARK  7 active torsions:
REMARK  status: ('A' for Active; 'I' for Inactive)
REMARK    1  A    between atoms: O1_2  and  C2_3 
REMARK    2  A    between atoms: C5_6  and  N1_7 
REMARK       I    between atoms: N1_7  and  C6_9 
REMARK    3  A    between atoms: C6_9  and  C7_11 
REMARK    4  A    between atoms: C7_11  and  S1_12 
REMARK    5  A    between atoms: S1_12  and  C8_13 
REMARK    6  A    between atoms: N3_18  and  N4_19 
REMARK    7  A    between atoms: N4_19  and  C11_21 
ROOT
HETATM    1  S1  UNL     1      -4.705   3.573   6.304  1.00  0.00    -0.083 SA
ENDROOT
BRANCH   1   2
HETATM    2  C7  UNL     1      -4.690   2.646   7.834  1.00  0.00     0.185 C 
BRANCH   2   3
HETATM    3  C6  UNL     1      -3.276   2.303   8.177  1.00  0.00     0.231 C 
HETATM    4  N1  UNL     1      -2.261   2.594   7.261  1.00  0.00    -0.327 N 
ATOM      5  H1  UNL     1      -2.521   3.040   6.381  1.00  0.00     0.169 HD
HETATM    6  O2  UNL     1      -3.098   1.773   9.278  1.00  0.00    -0.272 OA
BRANCH   4   7
HETATM    7  C5  UNL     1      -0.905   2.306   7.483  1.00  0.00     0.034 A 
HETATM    8  C4  UNL     1      -0.393   1.306   8.268  1.00  0.00     0.032 A 
HETATM    9  C3  UNL     1       0.984   1.122   8.440  1.00  0.00     0.039 A 
HETATM   10  C2  UNL     1       1.900   1.943   7.821  1.00  0.00     0.068 A 
HETATM   11  C17 UNL     1       1.372   2.943   7.035  1.00  0.00     0.039 A 
HETATM   12  C16 UNL     1       0.044   3.132   6.861  1.00  0.00     0.032 A 
BRANCH  10  13
HETATM   13  O1  UNL     1       3.264   1.772   7.982  1.00  0.00    -0.356 OA
HETATM   14  C1  UNL     1       4.102   2.720   8.580  1.00  0.00     0.210 C 
ENDBRANCH  10  13
ENDBRANCH   4   7
ENDBRANCH   2   3
ENDBRANCH   1   2
BRANCH   1  15
HETATM   15  C8  UNL     1      -4.465   5.342   6.617  1.00  0.00     0.165 A 
HETATM   16  N2  UNL     1      -5.365   6.180   7.150  1.00  0.00    -0.344 N 
HETATM   17  C9  UNL     1      -4.837   7.411   7.231  1.00  0.00     0.109 A 
ATOM     18  H2  UNL     1      -6.306   5.922   7.447  1.00  0.00     0.167 HD
HETATM   19  C10 UNL     1      -3.566   7.330   6.730  1.00  0.00     0.135 A 
HETATM   20  N3  UNL     1      -3.359   6.058   6.362  1.00  0.00    -0.248 N 
BRANCH  20  21
HETATM   21  N4  UNL     1      -2.199   5.515   5.797  1.00  0.00    -0.323 N 
ATOM     22  H4  UNL     1      -1.525   5.061   6.414  1.00  0.00     0.181 HD
BRANCH  21  23
HETATM   23  C11 UNL     1      -1.908   5.565   4.386  1.00  0.00     0.100 C 
HETATM   24  C12 UNL     1      -0.640   6.260   4.036  1.00  0.00     0.026 C 
HETATM   25  C13 UNL     1       0.302   5.108   3.662  1.00  0.00     0.002 C 
HETATM   26  C14 UNL     1      -0.638   4.219   2.861  1.00  0.00     0.002 C 
HETATM   27  C15 UNL     1      -1.843   4.174   3.794  1.00  0.00     0.026 C 
ENDBRANCH  21  23
ENDBRANCH  20  21
ENDBRANCH   1  15
TORSDOF 7
ENDMDL
MODEL 4
REMARK VINA RESULT: -6.220480258      1.643      1.932
REMARK  7 active torsions:
REMARK  status: ('A' for Active; 'I' for Inactive)
REMARK    1  A    between atoms: O1_2  and  C2_3 
REMARK    2  A    between atoms: C5_6  and  N1_7 
REMARK       I    between atoms: N1_7  and  C6_9 
REMARK    3  A    between atoms: C6_9  and  C7_11 
REMARK    4  A    between atoms: C7_11  and  S1_12 
REMARK    5  A    between atoms: S1_12  and  C8_13 
REMARK    6  A    between atoms: N3_18  and  N4_19 
REMARK    7  A    between atoms: N4_19  and  C11_21 
ROOT
HETATM    1  S1  UNL     1      -5.423   3.359   5.515  1.00  0.00    -0.083 SA
ENDROOT
BRANCH   1   2
HETATM    2  C7  UNL     1      -4.883   3.718   7.182  1.00  0.00     0.185 C 
BRANCH   2   3
HETATM    3  C6  UNL     1      -3.389   3.712   7.217  1.00  0.00     0.231 C 
HETATM    4  N1  UNL     1      -2.714   2.503   7.408  1.00  0.00    -0.327 N 
ATOM      5  H1  UNL     1      -3.270   1.654   7.513  1.00  0.00     0.169 HD
HETATM    6  O2  UNL     1      -2.838   4.808   7.070  1.00  0.00    -0.272 OA
BRANCH   4   7
HETATM    7  C5  UNL     1      -1.316   2.390   7.463  1.00  0.00     0.034 A 
HETATM    8  C4  UNL     1      -0.403   3.102   6.729  1.00  0.00     0.032 A 
HETATM    9  C3  UNL     1       0.977   2.891   6.846  1.00  0.00     0.039 A 
HETATM   10  C2  UNL     1       1.488   1.953   7.713  1.00  0.00     0.068 A 
HETATM   11  C17 UNL     1       0.559   1.246   8.445  1.00  0.00     0.039 A 
HETATM   12  C16 UNL     1      -0.775   1.439   8.341  1.00  0.00     0.032 A 
BRANCH  10  13
HETATM   13  O1  UNL     1       2.849   1.735   7.840  1.00  0.00    -0.356 OA
HETATM   14  C1  UNL     1       3.704   2.564   8.576  1.00  0.00     0.210 C 
ENDBRANCH  10  13
ENDBRANCH   4   7
ENDBRANCH   2   3
ENDBRANCH   1   2
BRANCH   1  15
HETATM   15  C8  UNL     1      -5.342   4.840   4.475  1.00  0.00     0.165 A 
HETATM   16  N2  UNL     1      -6.364   5.653   4.174  1.00  0.00    -0.344 N 
HETATM   17  C9  UNL     1      -5.930   6.645   3.382  1.00  0.00     0.109 A 
ATOM     18  H2  UNL     1      -7.325   5.534   4.497  1.00  0.00     0.167 HD
HETATM   19  C10 UNL     1      -4.591   6.438   3.186  1.00  0.00     0.135 A 
HETATM   20  N3  UNL     1      -4.253   5.331   3.863  1.00  0.00    -0.248 N 
BRANCH  20  21
HETATM   21  N4  UNL     1      -2.986   4.742   3.948  1.00  0.00    -0.323 N 
ATOM     22  H4  UNL     1      -2.794   4.114   4.729  1.00  0.00     0.181 HD
BRANCH  21  23
HETATM   23  C11 UNL     1      -1.937   4.978   2.987  1.00  0.00     0.100 C 
HETATM   24  C12 UNL     1      -0.895   5.944   3.427  1.00  0.00     0.026 C 
HETATM   25  C13 UNL     1       0.307   5.046   3.745  1.00  0.00     0.002 C 
HETATM   26  C14 UNL     1       0.242   4.061   2.586  1.00  0.00     0.002 C 
HETATM   27  C15 UNL     1      -1.237   3.689   2.619  1.00  0.00     0.026 C 
ENDBRANCH  21  23
ENDBRANCH  20  21
ENDBRANCH   1  15
TORSDOF 7
ENDMDL
MODEL 5
REMARK VINA RESULT: -6.191470845      2.215      3.202
REMARK  7 active torsions:
REMARK  status: ('A' for Active; 'I' for Inactive)
REMARK    1  A    between atoms: O1_2  and  C2_3 
REMARK    2  A    between atoms: C5_6  and  N1_7 
REMARK       I    between atoms: N1_7  and  C6_9 
REMARK    3  A    between atoms: C6_9  and  C7_11 
REMARK    4  A    between atoms: C7_11  and  S1_12 
REMARK    5  A    between atoms: S1_12  and  C8_13 
REMARK    6  A    between atoms: N3_18  and  N4_19 
REMARK    7  A    between atoms: N4_19  and  C11_21 
ROOT
HETATM    1  S1  UNL     1      -5.080   5.988   5.305  1.00  0.00    -0.083 SA
ENDROOT
BRANCH   1   2
HETATM    2  C7  UNL     1      -5.508   5.305   6.902  1.00  0.00     0.185 C 
BRANCH   2   3
HETATM    3  C6  UNL     1      -4.303   4.635   7.479  1.00  0.00     0.231 C 
HETATM    4  N1  UNL     1      -3.688   3.603   6.766  1.00  0.00    -0.327 N 
ATOM      5  H1  UNL     1      -4.082   3.341   5.862  1.00  0.00     0.169 HD
HETATM    6  O2  UNL     1      -3.924   5.052   8.578  1.00  0.00    -0.272 OA
BRANCH   4   7
HETATM    7  C5  UNL     1      -2.558   2.905   7.222  1.00  0.00     0.034 A 
HETATM    8  C4  UNL     1      -2.531   1.904   8.158  1.00  0.00     0.032 A 
HETATM    9  C3  UNL     1      -1.339   1.289   8.559  1.00  0.00     0.039 A 
HETATM   10  C2  UNL     1      -0.125   1.661   8.027  1.00  0.00     0.068 A 
HETATM   11  C17 UNL     1      -0.167   2.668   7.088  1.00  0.00     0.039 A 
HETATM   12  C16 UNL     1      -1.311   3.270   6.692  1.00  0.00     0.032 A 
BRANCH  10  13
HETATM   13  O1  UNL     1       1.060   1.061   8.415  1.00  0.00    -0.356 OA
HETATM   14  C1  UNL     1       2.304   1.354   7.842  1.00  0.00     0.210 C 
ENDBRANCH  10  13
ENDBRANCH   4   7
ENDBRANCH   2   3
ENDBRANCH   1   2
BRANCH   1  15
HETATM   15  C8  UNL     1      -3.906   7.356   5.480  1.00  0.00     0.165 A 
HETATM   16  N2  UNL     1      -4.210   8.627   5.777  1.00  0.00    -0.344 N 
HETATM   17  C9  UNL     1      -3.086   9.358   5.823  1.00  0.00     0.109 A 
ATOM     18  H2  UNL     1      -5.152   8.983   5.942  1.00  0.00     0.167 HD
HETATM   19  C10 UNL     1      -2.050   8.509   5.544  1.00  0.00     0.135 A 
HETATM   20  N3  UNL     1      -2.573   7.291   5.338  1.00  0.00    -0.248 N 
BRANCH  20  21
HETATM   21  N4  UNL     1      -1.884   6.113   5.023  1.00  0.00    -0.323 N 
ATOM     22  H4  UNL     1      -1.624   5.486   5.784  1.00  0.00     0.181 HD
BRANCH  21  23
HETATM   23  C11 UNL     1      -1.526   5.744   3.677  1.00  0.00     0.100 C 
HETATM   24  C12 UNL     1      -0.062   5.661   3.422  1.00  0.00     0.026 C 
HETATM   25  C13 UNL     1       0.200   4.151   3.356  1.00  0.00     0.002 C 
HETATM   26  C14 UNL     1      -1.010   3.686   2.557  1.00  0.00     0.002 C 
HETATM   27  C15 UNL     1      -2.129   4.408   3.301  1.00  0.00     0.026 C 
ENDBRANCH  21  23
ENDBRANCH  20  21
ENDBRANCH   1  15
TORSDOF 7
ENDMDL
