MODEL 1
REMARK VINA RESULT: -4.448938064      0.000      0.000
REMARK  4 active torsions:
REMARK  status: ('A' for Active; 'I' for Inactive)
REMARK    1  A    between atoms: N1_1  and  C1_5 
REMARK    2  A    between atoms: C1_5  and  C2_6 
REMARK    3  A    between atoms: C2_6  and  C3_7 
REMARK    4  A    between atoms: C3_7  and  N2_8 
ROOT
HETATM    1  C2  UNL     1       0.500   5.413   5.083  1.00  0.00     0.016 C 
HETATM    2  C8  UNL     1      -0.581   5.082   5.977  1.00  0.00     0.027 C 
HETATM    3  C9  UNL     1      -1.825   4.402   5.523  1.00  0.00     0.075 C 
HETATM    4  S1  UNL     1      -2.034   4.608   3.706  1.00  0.00    -0.169 SA
HETATM    5  C10 UNL     1      -0.404   3.924   3.199  1.00  0.00     0.075 C 
HETATM    6  C11 UNL     1       0.632   4.868   3.730  1.00  0.00     0.027 C 
ENDROOT
BRANCH   1   7
HETATM    7  C1  UNL     1       0.486   6.958   4.859  1.00  0.00     0.244 C 
BRANCH   7   8
HETATM    8  N1  UNL     1      -0.183   7.694   5.844  1.00  0.00    -0.078 N 
ATOM      9  H13 UNL     1      -1.174   7.766   5.618  1.00  0.00     0.274 HD
ATOM     10  H12 UNL     1      -0.236   7.156   6.710  1.00  0.00     0.274 HD
ATOM     11  H11 UNL     1       0.204   8.619   6.029  1.00  0.00     0.274 HD
ENDBRANCH   7   8
ENDBRANCH   1   7
BRANCH   1  12
HETATM   12  C3  UNL     1       1.819   5.232   5.815  1.00  0.00     0.069 C 
BRANCH  12  13
HETATM   13  N2  UNL     1       1.934   4.268   6.794  1.00  0.00    -0.389 N 
HETATM   14  C4  UNL     1       1.403   2.978   6.726  1.00  0.00     0.148 C 
HETATM   15  C5  UNL     1       2.061   2.013   7.717  1.00  0.00     0.187 C 
HETATM   16  O1  UNL     1       2.346   2.617   8.914  1.00  0.00    -0.388 OA
HETATM   17  C6  UNL     1       3.051   3.786   8.835  1.00  0.00     0.187 C 
HETATM   18  C7  UNL     1       3.255   4.220   7.398  1.00  0.00     0.148 C 
ENDBRANCH  12  13
ENDBRANCH   1  12
TORSDOF 4
ENDMDL
MODEL 2
REMARK VINA RESULT: -4.424312034      1.688      2.767
REMARK  4 active torsions:
REMARK  status: ('A' for Active; 'I' for Inactive)
REMARK    1  A    between atoms: N1_1  and  C1_5 
REMARK    2  A    between atoms: C1_5  and  C2_6 
REMARK    3  A    between atoms: C2_6  and  C3_7 
REMARK    4  A    between atoms: C3_7  and  N2_8 
ROOT
HETATM    1  C2  UNL     1      -0.703   4.550   5.105  1.00  0.00     0.016 C 
HETATM    2  C8  UNL     1       0.005   3.997   3.977  1.00  0.00     0.027 C 
HETATM    3  C9  UNL     1       0.688   4.844   2.961  1.00  0.00     0.075 C 
HETATM    4  S1  UNL     1       0.012   6.555   2.999  1.00  0.00    -0.169 SA
HETATM    5  C10 UNL     1       0.305   6.888   4.784  1.00  0.00     0.075 C 
HETATM    6  C11 UNL     1      -0.581   5.943   5.539  1.00  0.00     0.027 C 
ENDROOT
BRANCH   1   7
HETATM    7  C1  UNL     1      -2.233   4.376   4.846  1.00  0.00     0.244 C 
BRANCH   7   8
HETATM    8  N1  UNL     1      -3.029   4.350   5.997  1.00  0.00    -0.078 N 
ATOM      9  H13 UNL     1      -3.993   4.122   5.753  1.00  0.00     0.274 HD
ATOM     10  H12 UNL     1      -2.794   3.538   6.570  1.00  0.00     0.274 HD
ATOM     11  H11 UNL     1      -3.001   5.199   6.562  1.00  0.00     0.274 HD
ENDBRANCH   7   8
ENDBRANCH   1   7
BRANCH   1  12
HETATM   12  C3  UNL     1      -0.500   3.643   6.306  1.00  0.00     0.069 C 
BRANCH  12  13
HETATM   13  N2  UNL     1       0.775   3.363   6.748  1.00  0.00    -0.389 N 
HETATM   14  C4  UNL     1       1.813   4.291   6.864  1.00  0.00     0.148 C 
HETATM   15  C5  UNL     1       2.936   3.811   7.788  1.00  0.00     0.187 C 
HETATM   16  O1  UNL     1       3.177   2.468   7.654  1.00  0.00    -0.388 OA
HETATM   17  C6  UNL     1       2.082   1.655   7.760  1.00  0.00     0.187 C 
HETATM   18  C7  UNL     1       0.802   2.457   7.884  1.00  0.00     0.148 C 
ENDBRANCH  12  13
ENDBRANCH   1  12
TORSDOF 4
ENDMDL
MODEL 3
REMARK VINA RESULT: -4.191202920      1.368      2.032
REMARK  4 active torsions:
REMARK  status: ('A' for Active; 'I' for Inactive)
REMARK    1  A    between atoms: N1_1  and  C1_5 
REMARK    2  A    between atoms: C1_5  and  C2_6 
REMARK    3  A    between atoms: C2_6  and  C3_7 
REMARK    4  A    between atoms: C3_7  and  N2_8 
ROOT
HETATM    1  C2  UNL     1       0.434   5.458   5.271  1.00  0.00     0.016 C 
HETATM    2  C8  UNL     1       0.199   6.870   5.443  1.00  0.00     0.027 C 
HETATM    3  C9  UNL     1      -1.141   7.431   5.767  1.00  0.00     0.075 C 
HETATM    4  S1  UNL     1      -2.459   6.228   5.318  1.00  0.00    -0.169 SA
HETATM    5  C10 UNL     1      -1.826   4.804   6.295  1.00  0.00     0.075 C 
HETATM    6  C11 UNL     1      -0.515   4.420   5.677  1.00  0.00     0.027 C 
ENDROOT
BRANCH   1   7
HETATM    7  C1  UNL     1       0.647   5.188   3.748  1.00  0.00     0.244 C 
BRANCH   7   8
HETATM    8  N1  UNL     1       0.141   3.967   3.286  1.00  0.00    -0.078 N 
ATOM      9  H13 UNL     1       0.902   3.305   3.135  1.00  0.00     0.274 HD
ATOM     10  H12 UNL     1      -0.364   3.489   4.034  1.00  0.00     0.274 HD
ATOM     11  H11 UNL     1      -0.442   4.028   2.452  1.00  0.00     0.274 HD
ENDBRANCH   7   8
ENDBRANCH   1   7
BRANCH   1  12
HETATM   12  C3  UNL     1       1.805   5.115   5.828  1.00  0.00     0.069 C 
BRANCH  12  13
HETATM   13  N2  UNL     1       1.921   4.191   6.845  1.00  0.00    -0.389 N 
HETATM   14  C4  UNL     1       1.349   2.916   6.848  1.00  0.00     0.148 C 
HETATM   15  C5  UNL     1       2.009   1.975   7.860  1.00  0.00     0.187 C 
HETATM   16  O1  UNL     1       2.348   2.620   9.021  1.00  0.00    -0.388 OA
HETATM   17  C6  UNL     1       3.085   3.762   8.871  1.00  0.00     0.187 C 
HETATM   18  C7  UNL     1       3.258   4.128   7.411  1.00  0.00     0.148 C 
ENDBRANCH  12  13
ENDBRANCH   1  12
TORSDOF 4
ENDMDL
MODEL 4
REMARK VINA RESULT: -4.084080885      3.193      4.637
REMARK  4 active torsions:
REMARK  status: ('A' for Active; 'I' for Inactive)
REMARK    1  A    between atoms: N1_1  and  C1_5 
REMARK    2  A    between atoms: C1_5  and  C2_6 
REMARK    3  A    between atoms: C2_6  and  C3_7 
REMARK    4  A    between atoms: C3_7  and  N2_8 
ROOT
HETATM    1  C2  UNL     1      -0.355   4.898   1.724  1.00  0.00     0.016 C 
HETATM    2  C8  UNL     1       0.866   4.415   1.128  1.00  0.00     0.027 C 
HETATM    3  C9  UNL     1       1.131   4.482  -0.335  1.00  0.00     0.075 C 
HETATM    4  S1  UNL     1      -0.449   4.663  -1.260  1.00  0.00    -0.169 SA
HETATM    5  C10 UNL     1      -1.063   6.164  -0.393  1.00  0.00     0.075 C 
HETATM    6  C11 UNL     1      -1.316   5.756   1.028  1.00  0.00     0.027 C 
ENDROOT
BRANCH   1   7
HETATM    7  C1  UNL     1      -1.207   3.660   2.149  1.00  0.00     0.244 C 
BRANCH   7   8
HETATM    8  N1  UNL     1      -0.636   2.417   1.850  1.00  0.00    -0.078 N 
ATOM      9  H13 UNL     1      -1.273   1.665   2.113  1.00  0.00     0.274 HD
ATOM     10  H12 UNL     1      -0.604   2.278   0.839  1.00  0.00     0.274 HD
ATOM     11  H11 UNL     1       0.285   2.255   2.256  1.00  0.00     0.274 HD
ENDBRANCH   7   8
ENDBRANCH   1   7
BRANCH   1  12
HETATM   12  C3  UNL     1      -0.035   5.515   3.074  1.00  0.00     0.069 C 
BRANCH  12  13
HETATM   13  N2  UNL     1      -0.336   4.830   4.232  1.00  0.00    -0.389 N 
HETATM   14  C4  UNL     1       0.560   4.049   4.965  1.00  0.00     0.148 C 
HETATM   15  C5  UNL     1       0.089   3.798   6.401  1.00  0.00     0.187 C 
HETATM   16  O1  UNL     1      -1.267   3.607   6.474  1.00  0.00    -0.388 OA
HETATM   17  C6  UNL     1      -2.033   4.568   5.874  1.00  0.00     0.187 C 
HETATM   18  C7  UNL     1      -1.182   5.585   5.140  1.00  0.00     0.148 C 
ENDBRANCH  12  13
ENDBRANCH   1  12
TORSDOF 4
ENDMDL
MODEL 5
REMARK VINA RESULT: -3.964235271      4.338      6.307
REMARK  4 active torsions:
REMARK  status: ('A' for Active; 'I' for Inactive)
REMARK    1  A    between atoms: N1_1  and  C1_5 
REMARK    2  A    between atoms: C1_5  and  C2_6 
REMARK    3  A    between atoms: C2_6  and  C3_7 
REMARK    4  A    between atoms: C3_7  and  N2_8 
ROOT
HETATM    1  C2  UNL     1      -0.316   4.682   2.997  1.00  0.00     0.016 C 
HETATM    2  C8  UNL     1      -0.255   6.049   2.544  1.00  0.00     0.027 C 
HETATM    3  C9  UNL     1       0.231   7.162   3.405  1.00  0.00     0.075 C 
HETATM    4  S1  UNL     1       0.140   6.681   5.179  1.00  0.00    -0.169 SA
HETATM    5  C10 UNL     1       1.138   5.141   5.060  1.00  0.00     0.075 C 
HETATM    6  C11 UNL     1       0.351   4.194   4.205  1.00  0.00     0.027 C 
ENDROOT
BRANCH   1   7
HETATM    7  C1  UNL     1      -1.817   4.319   3.232  1.00  0.00     0.244 C 
BRANCH   7   8
HETATM    8  N1  UNL     1      -2.737   5.258   2.751  1.00  0.00    -0.078 N 
ATOM      9  H13 UNL     1      -3.179   5.747   3.529  1.00  0.00     0.274 HD
ATOM     10  H12 UNL     1      -2.247   6.036   2.308  1.00  0.00     0.274 HD
ATOM     11  H11 UNL     1      -3.446   4.885   2.121  1.00  0.00     0.274 HD
ENDBRANCH   7   8
ENDBRANCH   1   7
BRANCH   1  12
HETATM   12  C3  UNL     1       0.033   3.763   1.838  1.00  0.00     0.069 C 
BRANCH  12  13
HETATM   13  N2  UNL     1       0.519   4.295   0.662  1.00  0.00    -0.389 N 
HETATM   14  C4  UNL     1       1.794   4.068   0.139  1.00  0.00     0.148 C 
HETATM   15  C5  UNL     1       1.887   4.397  -1.354  1.00  0.00     0.187 C 
HETATM   16  O1  UNL     1       1.154   5.507  -1.686  1.00  0.00    -0.388 OA
HETATM   17  C6  UNL     1      -0.150   5.502  -1.272  1.00  0.00     0.187 C 
HETATM   18  C7  UNL     1      -0.458   4.292  -0.413  1.00  0.00     0.148 C 
ENDBRANCH  12  13
ENDBRANCH   1  12
TORSDOF 4
ENDMDL
