MODEL 1
REMARK VINA RESULT: -8.440672338      0.000      0.000
REMARK  16 active torsions:
REMARK  status: ('A' for Active; 'I' for Inactive)
REMARK    1  A    between atoms: C2_2  and  N1_3 
REMARK    2  A    between atoms: C2_2  and  C4_9 
REMARK    3  A    between atoms: N7_24  and  C9_25 
REMARK    4  A    between atoms: C9_25  and  C10_26 
REMARK    5  A    between atoms: C11_27  and  C12_28 
REMARK    6  A    between atoms: C12_28  and  N8_29 
REMARK    7  A    between atoms: N8_29  and  C13_32 
REMARK    8  A    between atoms: C13_32  and  O2_33 
REMARK    9  A    between atoms: C13_32  and  N9_35 
REMARK   10  A    between atoms: N9_35  and  C14_37 
REMARK   11  A    between atoms: C14_37  and  C15_38 
REMARK   12  A    between atoms: C15_38  and  N10_39 
REMARK   13  A    between atoms: C16_41  and  C17_42 
REMARK   14  A    between atoms: C18_43  and  O3_44 
REMARK   15  A    between atoms: C19_46  and  N11_47 
REMARK   16  A    between atoms: C22_54  and  N13_55 
ROOT
HETATM    1  C1  UNL     1     -40.226  26.770  -3.613  1.00  0.00     0.072 C 
HETATM    2  C2  UNL     1     -38.926  26.851  -4.238  1.00  0.00     0.264 C 
HETATM    3  C3  UNL     1     -38.785  28.268  -4.757  1.00  0.00     0.106 C 
HETATM    4  N2  UNL     1     -38.676  29.341  -5.175  1.00  0.00    -0.194 NA
ENDROOT
BRANCH   2   5
HETATM    5  N1  UNL     1     -39.037  26.090  -5.517  1.00  0.00    -0.051 N 
ATOM      6  H13 UNL     1     -39.872  25.508  -5.573  1.00  0.00     0.277 HD
ATOM      7  H12 UNL     1     -39.243  26.680  -6.324  1.00  0.00     0.277 HD
ATOM      8  H11 UNL     1     -38.167  25.565  -5.608  1.00  0.00     0.277 HD
ENDBRANCH   2   5
BRANCH   2   9
HETATM    9  C4  UNL     1     -37.690  26.452  -3.572  1.00  0.00     0.137 A 
HETATM   10  N3  UNL     1     -36.500  27.123  -3.775  1.00  0.00    -0.335 N 
HETATM   11  C5  UNL     1     -35.582  26.659  -2.963  1.00  0.00     0.148 A 
ATOM     12  H3  UNL     1     -36.357  27.869  -4.456  1.00  0.00     0.167 HD
HETATM   13  C6  UNL     1     -34.226  26.938  -2.739  1.00  0.00     0.290 A 
HETATM   14  C8  UNL     1     -36.120  25.657  -2.181  1.00  0.00     0.157 A 
HETATM   15  O1  UNL     1     -33.699  27.840  -3.429  1.00  0.00    -0.265 OA
HETATM   16  N4  UNL     1     -33.539  26.252  -1.814  1.00  0.00    -0.154 N 
HETATM   17  C7  UNL     1     -34.080  25.289  -1.060  1.00  0.00     0.680 A 
ATOM     18  H4  UNL     1     -32.553  26.476  -1.678  1.00  0.00     0.187 HD
HETATM   19  N5  UNL     1     -33.445  24.627  -0.193  1.00  0.00    -0.234 N 
HETATM   20  N6  UNL     1     -35.407  25.003  -1.267  1.00  0.00    -0.174 N 
ATOM     21  H52 UNL     1     -32.460  24.839  -0.039  1.00  0.00     0.174 HD
ATOM     22  H51 UNL     1     -33.857  23.892   0.382  1.00  0.00     0.174 HD
ATOM     23  H6  UNL     1     -35.855  24.276  -0.709  1.00  0.00     0.186 HD
HETATM   24  N7  UNL     1     -37.418  25.573  -2.609  1.00  0.00    -0.314 N 
BRANCH  24  25
HETATM   25  C9  UNL     1     -38.259  24.469  -2.194  1.00  0.00     0.159 C 
BRANCH  25  26
HETATM   26  C10 UNL     1     -38.369  23.357  -3.164  1.00  0.00    -0.009 C 
HETATM   27  C11 UNL     1     -39.476  23.116  -4.042  1.00  0.00    -0.002 C 
BRANCH  27  28
HETATM   28  C12 UNL     1     -40.858  22.814  -3.648  1.00  0.00     0.265 C 
BRANCH  28  29
HETATM   29  N8  UNL     1     -41.690  23.452  -4.734  1.00  0.00    -0.028 N 
ATOM     30  H82 UNL     1     -41.372  24.399  -4.935  1.00  0.00     0.282 HD
ATOM     31  H81 UNL     1     -41.505  23.023  -5.641  1.00  0.00     0.282 HD
BRANCH  29  32
HETATM   32  C13 UNL     1     -43.078  23.430  -4.429  1.00  0.00     0.422 C 
BRANCH  32  33
HETATM   33  O2  UNL     1     -43.320  23.026  -3.138  1.00  0.00    -0.355 OA
ATOM     34  H2  UNL     1     -44.249  22.996  -2.938  1.00  0.00     0.213 HD
ENDBRANCH  32  33
BRANCH  32  35
HETATM   35  N9  UNL     1     -43.735  24.692  -4.696  1.00  0.00    -0.373 N 
ATOM     36  H9  UNL     1     -44.244  25.207  -3.978  1.00  0.00     0.157 HD
BRANCH  35  37
HETATM   37  C14 UNL     1     -43.616  25.160  -6.038  1.00  0.00     0.137 C 
BRANCH  37  38
HETATM   38  C15 UNL     1     -42.851  26.453  -6.195  1.00  0.00     0.138 C 
BRANCH  38  39
HETATM   39  N10 UNL     1     -42.189  26.458  -7.477  1.00  0.00    -0.395 N 
HETATM   40  C16 UNL     1     -41.808  27.557  -8.030  1.00  0.00     0.118 C 
ATOM     41  H10 UNL     1     -42.020  25.573  -7.956  1.00  0.00     0.159 HD
BRANCH  40  42
HETATM   42  C17 UNL     1     -41.150  27.477  -9.314  1.00  0.00     0.110 A 
HETATM   43  C18 UNL     1     -39.797  27.144  -9.366  1.00  0.00     0.140 A 
HETATM   44  C19 UNL     1     -39.217  27.110 -10.607  1.00  0.00     0.136 A 
HETATM   45  N12 UNL     1     -39.929  27.387 -11.709  1.00  0.00    -0.325 N 
HETATM   46  C20 UNL     1     -41.243  27.704 -11.607  1.00  0.00     0.133 A 
ATOM     47  H12 UNL     1     -39.481  27.358 -12.625  1.00  0.00     0.169 HD
HETATM   48  C21 UNL     1     -42.210  28.025 -12.537  1.00  0.00     0.099 A 
HETATM   49  N15 UNL     1     -41.843  27.748 -10.409  1.00  0.00    -0.234 N 
HETATM   50  C22 UNL     1     -43.400  28.268 -11.875  1.00  0.00     0.117 A 
HETATM   51  N14 UNL     1     -43.118  28.084 -10.572  1.00  0.00    -0.277 N 
ATOM     52  H14 UNL     1     -43.790  28.189  -9.812  1.00  0.00     0.189 HD
BRANCH  43  53
HETATM   53  O3  UNL     1     -39.083  26.869  -8.219  1.00  0.00    -0.355 OA
ATOM     54  H3  UNL     1     -38.502  26.119  -8.167  1.00  0.00     0.218 HD
ENDBRANCH  43  53
BRANCH  44  55
HETATM   55  N11 UNL     1     -37.964  26.823 -10.670  1.00  0.00    -0.383 N 
ATOM     56 2H11 UNL     1     -37.252  27.472 -10.336  1.00  0.00     0.157 HD
ATOM     57 1H11 UNL     1     -37.707  25.913 -11.053  1.00  0.00     0.157 HD
ENDBRANCH  44  55
BRANCH  50  58
HETATM   58  N13 UNL     1     -44.491  28.604 -12.442  1.00  0.00    -0.384 N 
ATOM     59 2H13 UNL     1     -44.689  28.809 -13.421  1.00  0.00     0.157 HD
ATOM     60 1H13 UNL     1     -45.385  28.713 -11.964  1.00  0.00     0.157 HD
ENDBRANCH  50  58
ENDBRANCH  40  42
ENDBRANCH  38  39
ENDBRANCH  37  38
ENDBRANCH  35  37
ENDBRANCH  32  35
ENDBRANCH  29  32
ENDBRANCH  28  29
ENDBRANCH  27  28
ENDBRANCH  25  26
ENDBRANCH  24  25
ENDBRANCH   2   9
TORSDOF 16
ENDMDL
MODEL 2
REMARK VINA RESULT: -8.300372294      3.509     11.757
REMARK  16 active torsions:
REMARK  status: ('A' for Active; 'I' for Inactive)
REMARK    1  A    between atoms: C2_2  and  N1_3 
REMARK    2  A    between atoms: C2_2  and  C4_9 
REMARK    3  A    between atoms: N7_24  and  C9_25 
REMARK    4  A    between atoms: C9_25  and  C10_26 
REMARK    5  A    between atoms: C11_27  and  C12_28 
REMARK    6  A    between atoms: C12_28  and  N8_29 
REMARK    7  A    between atoms: N8_29  and  C13_32 
REMARK    8  A    between atoms: C13_32  and  O2_33 
REMARK    9  A    between atoms: C13_32  and  N9_35 
REMARK   10  A    between atoms: N9_35  and  C14_37 
REMARK   11  A    between atoms: C14_37  and  C15_38 
REMARK   12  A    between atoms: C15_38  and  N10_39 
REMARK   13  A    between atoms: C16_41  and  C17_42 
REMARK   14  A    between atoms: C18_43  and  O3_44 
REMARK   15  A    between atoms: C19_46  and  N11_47 
REMARK   16  A    between atoms: C22_54  and  N13_55 
ROOT
HETATM    1  C1  UNL     1     -39.069  26.877  -5.695  1.00  0.00     0.072 C 
HETATM    2  C2  UNL     1     -40.370  26.872  -5.069  1.00  0.00     0.264 C 
HETATM    3  C3  UNL     1     -41.324  27.526  -6.050  1.00  0.00     0.106 C 
HETATM    4  N2  UNL     1     -42.055  28.042  -6.782  1.00  0.00    -0.194 NA
ENDROOT
BRANCH   2   5
HETATM    5  N1  UNL     1     -40.314  27.908  -3.996  1.00  0.00    -0.051 N 
ATOM      6  H13 UNL     1     -39.833  28.762  -4.279  1.00  0.00     0.277 HD
ATOM      7  H12 UNL     1     -41.218  28.336  -3.795  1.00  0.00     0.277 HD
ATOM      8  H11 UNL     1     -39.891  27.452  -3.188  1.00  0.00     0.277 HD
ENDBRANCH   2   5
BRANCH   2   9
HETATM    9  C4  UNL     1     -40.989  25.671  -4.516  1.00  0.00     0.137 A 
HETATM   10  N3  UNL     1     -42.122  25.109  -5.073  1.00  0.00    -0.335 N 
HETATM   11  C5  UNL     1     -42.392  23.972  -4.481  1.00  0.00     0.148 A 
ATOM     12  H3  UNL     1     -42.666  25.519  -5.833  1.00  0.00     0.167 HD
HETATM   13  C6  UNL     1     -43.398  23.004  -4.612  1.00  0.00     0.290 A 
HETATM   14  C8  UNL     1     -41.451  23.725  -3.502  1.00  0.00     0.157 A 
HETATM   15  O1  UNL     1     -44.272  23.191  -5.489  1.00  0.00    -0.265 OA
HETATM   16  N4  UNL     1     -43.402  21.923  -3.817  1.00  0.00    -0.154 N 
HETATM   17  C7  UNL     1     -42.477  21.696  -2.879  1.00  0.00     0.680 A 
ATOM     18  H4  UNL     1     -44.150  21.239  -3.935  1.00  0.00     0.187 HD
HETATM   19  N5  UNL     1     -42.473  20.692  -2.115  1.00  0.00    -0.234 N 
HETATM   20  N6  UNL     1     -41.485  22.637  -2.738  1.00  0.00    -0.174 N 
ATOM     21  H52 UNL     1     -43.209  19.994  -2.220  1.00  0.00     0.174 HD
ATOM     22  H51 UNL     1     -41.768  20.519  -1.399  1.00  0.00     0.174 HD
ATOM     23  H6  UNL     1     -40.761  22.497  -2.033  1.00  0.00     0.186 HD
HETATM   24  N7  UNL     1     -40.620  24.810  -3.570  1.00  0.00    -0.314 N 
BRANCH  24  25
HETATM   25  C9  UNL     1     -39.631  25.045  -2.538  1.00  0.00     0.159 C 
BRANCH  25  26
HETATM   26  C10 UNL     1     -38.291  24.477  -2.804  1.00  0.00    -0.009 C 
HETATM   27  C11 UNL     1     -37.039  25.125  -2.546  1.00  0.00    -0.002 C 
BRANCH  27  28
HETATM   28  C12 UNL     1     -36.554  26.370  -3.158  1.00  0.00     0.265 C 
BRANCH  28  29
HETATM   29  N8  UNL     1     -35.132  26.048  -3.549  1.00  0.00    -0.028 N 
ATOM     30  H82 UNL     1     -34.873  26.516  -4.417  1.00  0.00     0.282 HD
ATOM     31  H81 UNL     1     -34.466  26.495  -2.919  1.00  0.00     0.282 HD
BRANCH  29  32
HETATM   32  C13 UNL     1     -34.902  24.648  -3.631  1.00  0.00     0.422 C 
BRANCH  32  33
HETATM   33  O2  UNL     1     -34.582  24.248  -4.907  1.00  0.00    -0.355 OA
ATOM     34  H2  UNL     1     -35.296  23.783  -5.328  1.00  0.00     0.213 HD
ENDBRANCH  32  33
BRANCH  32  35
HETATM   35  N9  UNL     1     -33.905  24.184  -2.691  1.00  0.00    -0.373 N 
ATOM     36  H9  UNL     1     -33.699  23.194  -2.555  1.00  0.00     0.157 HD
BRANCH  35  37
HETATM   37  C14 UNL     1     -33.233  25.214  -1.969  1.00  0.00     0.137 C 
BRANCH  37  38
HETATM   38  C15 UNL     1     -33.834  25.543  -0.622  1.00  0.00     0.138 C 
BRANCH  38  39
HETATM   39  N10 UNL     1     -33.004  24.983   0.416  1.00  0.00    -0.395 N 
HETATM   40  C16 UNL     1     -31.823  25.441   0.651  1.00  0.00     0.118 C 
ATOM     41  H10 UNL     1     -33.359  24.209   0.977  1.00  0.00     0.159 HD
BRANCH  40  42
HETATM   42  C17 UNL     1     -31.056  24.827   1.710  1.00  0.00     0.110 A 
HETATM   43  C18 UNL     1     -31.224  25.274   3.020  1.00  0.00     0.140 A 
HETATM   44  C19 UNL     1     -30.451  24.676   3.980  1.00  0.00     0.136 A 
HETATM   45  N12 UNL     1     -29.579  23.710   3.660  1.00  0.00    -0.325 N 
HETATM   46  C20 UNL     1     -29.453  23.308   2.371  1.00  0.00     0.133 A 
ATOM     47  H12 UNL     1     -29.010  23.276   4.387  1.00  0.00     0.169 HD
HETATM   48  C21 UNL     1     -28.664  22.360   1.754  1.00  0.00     0.099 A 
HETATM   49  N15 UNL     1     -30.191  23.871   1.406  1.00  0.00    -0.234 N 
HETATM   50  C22 UNL     1     -28.939  22.368   0.398  1.00  0.00     0.117 A 
HETATM   51  N14 UNL     1     -29.883  23.315   0.240  1.00  0.00    -0.277 N 
ATOM     52  H14 UNL     1     -30.305  23.570  -0.653  1.00  0.00     0.189 HD
BRANCH  43  53
HETATM   53  O3  UNL     1     -32.123  26.275   3.324  1.00  0.00    -0.355 OA
ATOM     54  H3  UNL     1     -32.855  26.119   3.910  1.00  0.00     0.218 HD
ENDBRANCH  43  53
BRANCH  44  55
HETATM   55  N11 UNL     1     -30.581  25.091   5.191  1.00  0.00    -0.383 N 
ATOM     56 2H11 UNL     1     -31.212  24.632   5.847  1.00  0.00     0.157 HD
ATOM     57 1H11 UNL     1     -30.016  25.890   5.479  1.00  0.00     0.157 HD
ENDBRANCH  44  55
BRANCH  50  58
HETATM   58  N13 UNL     1     -28.371  21.620  -0.463  1.00  0.00    -0.384 N 
ATOM     59 2H13 UNL     1     -28.376  20.605  -0.560  1.00  0.00     0.157 HD
ATOM     60 1H13 UNL     1     -27.800  21.956  -1.239  1.00  0.00     0.157 HD
ENDBRANCH  50  58
ENDBRANCH  40  42
ENDBRANCH  38  39
ENDBRANCH  37  38
ENDBRANCH  35  37
ENDBRANCH  32  35
ENDBRANCH  29  32
ENDBRANCH  28  29
ENDBRANCH  27  28
ENDBRANCH  25  26
ENDBRANCH  24  25
ENDBRANCH   2   9
TORSDOF 16
ENDMDL
MODEL 3
REMARK VINA RESULT: -8.279109296      3.927     11.545
REMARK  16 active torsions:
REMARK  status: ('A' for Active; 'I' for Inactive)
REMARK    1  A    between atoms: C2_2  and  N1_3 
REMARK    2  A    between atoms: C2_2  and  C4_9 
REMARK    3  A    between atoms: N7_24  and  C9_25 
REMARK    4  A    between atoms: C9_25  and  C10_26 
REMARK    5  A    between atoms: C11_27  and  C12_28 
REMARK    6  A    between atoms: C12_28  and  N8_29 
REMARK    7  A    between atoms: N8_29  and  C13_32 
REMARK    8  A    between atoms: C13_32  and  O2_33 
REMARK    9  A    between atoms: C13_32  and  N9_35 
REMARK   10  A    between atoms: N9_35  and  C14_37 
REMARK   11  A    between atoms: C14_37  and  C15_38 
REMARK   12  A    between atoms: C15_38  and  N10_39 
REMARK   13  A    between atoms: C16_41  and  C17_42 
REMARK   14  A    between atoms: C18_43  and  O3_44 
REMARK   15  A    between atoms: C19_46  and  N11_47 
REMARK   16  A    between atoms: C22_54  and  N13_55 
ROOT
HETATM    1  C1  UNL     1     -39.022  26.983  -5.542  1.00  0.00     0.072 C 
HETATM    2  C2  UNL     1     -40.376  26.938  -5.040  1.00  0.00     0.264 C 
HETATM    3  C3  UNL     1     -41.262  27.485  -6.142  1.00  0.00     0.106 C 
HETATM    4  N2  UNL     1     -41.944  27.920  -6.969  1.00  0.00    -0.194 NA
ENDROOT
BRANCH   2   5
HETATM    5  N1  UNL     1     -40.476  28.031  -4.029  1.00  0.00    -0.051 N 
ATOM      6  H13 UNL     1     -40.276  27.724  -3.077  1.00  0.00     0.277 HD
ATOM      7  H12 UNL     1     -39.724  28.718  -4.096  1.00  0.00     0.277 HD
ATOM      8  H11 UNL     1     -41.406  28.433  -4.140  1.00  0.00     0.277 HD
ENDBRANCH   2   5
BRANCH   2   9
HETATM    9  C4  UNL     1     -40.984  25.735  -4.479  1.00  0.00     0.137 A 
HETATM   10  N3  UNL     1     -42.088  25.137  -5.055  1.00  0.00    -0.335 N 
HETATM   11  C5  UNL     1     -42.350  24.007  -4.446  1.00  0.00     0.148 A 
ATOM     12  H3  UNL     1     -42.620  25.519  -5.837  1.00  0.00     0.167 HD
HETATM   13  C6  UNL     1     -43.331  23.014  -4.583  1.00  0.00     0.290 A 
HETATM   14  C8  UNL     1     -41.431  23.801  -3.437  1.00  0.00     0.157 A 
HETATM   15  O1  UNL     1     -44.185  23.163  -5.487  1.00  0.00    -0.265 OA
HETATM   16  N4  UNL     1     -43.334  21.950  -3.766  1.00  0.00    -0.154 N 
HETATM   17  C7  UNL     1     -42.430  21.763  -2.798  1.00  0.00     0.680 A 
ATOM     18  H4  UNL     1     -44.063  21.247  -3.889  1.00  0.00     0.187 HD
HETATM   19  N5  UNL     1     -42.425  20.776  -2.013  1.00  0.00    -0.234 N 
HETATM   20  N6  UNL     1     -41.463  22.728  -2.650  1.00  0.00    -0.174 N 
ATOM     21  H52 UNL     1     -43.143  20.059  -2.123  1.00  0.00     0.174 HD
ATOM     22  H51 UNL     1     -41.736  20.633  -1.275  1.00  0.00     0.174 HD
ATOM     23  H6  UNL     1     -40.755  22.620  -1.924  1.00  0.00     0.186 HD
HETATM   24  N7  UNL     1     -40.623  24.903  -3.505  1.00  0.00    -0.314 N 
BRANCH  24  25
HETATM   25  C9  UNL     1     -39.668  25.180  -2.452  1.00  0.00     0.159 C 
BRANCH  25  26
HETATM   26  C10 UNL     1     -38.441  24.353  -2.474  1.00  0.00    -0.009 C 
HETATM   27  C11 UNL     1     -37.151  24.751  -1.991  1.00  0.00    -0.002 C 
BRANCH  27  28
HETATM   28  C12 UNL     1     -36.329  25.857  -2.499  1.00  0.00     0.265 C 
BRANCH  28  29
HETATM   29  N8  UNL     1     -36.000  25.441  -3.912  1.00  0.00    -0.028 N 
ATOM     30  H82 UNL     1     -36.845  25.218  -4.438  1.00  0.00     0.282 HD
ATOM     31  H81 UNL     1     -35.671  26.234  -4.464  1.00  0.00     0.282 HD
BRANCH  29  32
HETATM   32  C13 UNL     1     -35.071  24.366  -3.953  1.00  0.00     0.422 C 
BRANCH  32  33
HETATM   33  O2  UNL     1     -35.642  23.203  -4.411  1.00  0.00    -0.355 OA
ATOM     34  H2  UNL     1     -36.289  22.856  -3.807  1.00  0.00     0.213 HD
ENDBRANCH  32  33
BRANCH  32  35
HETATM   35  N9  UNL     1     -33.880  24.678  -4.712  1.00  0.00    -0.373 N 
ATOM     36  H9  UNL     1     -33.916  25.109  -5.636  1.00  0.00     0.157 HD
BRANCH  35  37
HETATM   37  C14 UNL     1     -32.652  24.339  -4.071  1.00  0.00     0.137 C 
BRANCH  37  38
HETATM   38  C15 UNL     1     -32.750  24.128  -2.578  1.00  0.00     0.138 C 
BRANCH  38  39
HETATM   39  N10 UNL     1     -31.537  23.504  -2.107  1.00  0.00    -0.395 N 
HETATM   40  C16 UNL     1     -30.600  24.192  -1.555  1.00  0.00     0.118 C 
ATOM     41  H10 UNL     1     -31.420  22.496  -2.214  1.00  0.00     0.159 HD
BRANCH  40  42
HETATM   42  C17 UNL     1     -29.418  23.492  -1.108  1.00  0.00     0.110 A 
HETATM   43  C18 UNL     1     -28.502  23.029  -2.051  1.00  0.00     0.140 A 
HETATM   44  C19 UNL     1     -27.414  22.348  -1.573  1.00  0.00     0.136 A 
HETATM   45  N12 UNL     1     -27.252  22.142  -0.258  1.00  0.00    -0.325 N 
HETATM   46  C20 UNL     1     -28.171  22.613   0.621  1.00  0.00     0.133 A 
ATOM     47  H12 UNL     1     -26.437  21.631   0.082  1.00  0.00     0.169 HD
HETATM   48  C21 UNL     1     -28.271  22.562   1.996  1.00  0.00     0.099 A 
HETATM   49  N15 UNL     1     -29.248  23.283   0.189  1.00  0.00    -0.234 N 
HETATM   50  C22 UNL     1     -29.432  23.210   2.381  1.00  0.00     0.117 A 
HETATM   51  N14 UNL     1     -29.992  23.632   1.232  1.00  0.00    -0.277 N 
ATOM     52  H14 UNL     1     -30.869  24.149   1.170  1.00  0.00     0.189 HD
BRANCH  43  53
HETATM   53  O3  UNL     1     -28.692  23.246  -3.400  1.00  0.00    -0.355 OA
ATOM     54  H3  UNL     1     -28.244  22.720  -4.052  1.00  0.00     0.218 HD
ENDBRANCH  43  53
BRANCH  44  55
HETATM   55  N11 UNL     1     -26.569  21.898  -2.432  1.00  0.00    -0.383 N 
ATOM     56 2H11 UNL     1     -25.903  21.163  -2.191  1.00  0.00     0.157 HD
ATOM     57 1H11 UNL     1     -26.597  22.291  -3.373  1.00  0.00     0.157 HD
ENDBRANCH  44  55
BRANCH  50  58
HETATM   58  N13 UNL     1     -29.831  23.330   3.585  1.00  0.00    -0.384 N 
ATOM     59 2H13 UNL     1     -30.509  23.973   3.993  1.00  0.00     0.157 HD
ATOM     60 1H13 UNL     1     -29.514  22.752   4.363  1.00  0.00     0.157 HD
ENDBRANCH  50  58
ENDBRANCH  40  42
ENDBRANCH  38  39
ENDBRANCH  37  38
ENDBRANCH  35  37
ENDBRANCH  32  35
ENDBRANCH  29  32
ENDBRANCH  28  29
ENDBRANCH  27  28
ENDBRANCH  25  26
ENDBRANCH  24  25
ENDBRANCH   2   9
TORSDOF 16
ENDMDL
MODEL 4
REMARK VINA RESULT: -8.251696439      3.282     10.637
REMARK  16 active torsions:
REMARK  status: ('A' for Active; 'I' for Inactive)
REMARK    1  A    between atoms: C2_2  and  N1_3 
REMARK    2  A    between atoms: C2_2  and  C4_9 
REMARK    3  A    between atoms: N7_24  and  C9_25 
REMARK    4  A    between atoms: C9_25  and  C10_26 
REMARK    5  A    between atoms: C11_27  and  C12_28 
REMARK    6  A    between atoms: C12_28  and  N8_29 
REMARK    7  A    between atoms: N8_29  and  C13_32 
REMARK    8  A    between atoms: C13_32  and  O2_33 
REMARK    9  A    between atoms: C13_32  and  N9_35 
REMARK   10  A    between atoms: N9_35  and  C14_37 
REMARK   11  A    between atoms: C14_37  and  C15_38 
REMARK   12  A    between atoms: C15_38  and  N10_39 
REMARK   13  A    between atoms: C16_41  and  C17_42 
REMARK   14  A    between atoms: C18_43  and  O3_44 
REMARK   15  A    between atoms: C19_46  and  N11_47 
REMARK   16  A    between atoms: C22_54  and  N13_55 
ROOT
HETATM    1  C1  UNL     1     -38.724  27.003  -5.423  1.00  0.00     0.072 C 
HETATM    2  C2  UNL     1     -40.104  27.001  -4.995  1.00  0.00     0.264 C 
HETATM    3  C3  UNL     1     -40.913  27.569  -6.144  1.00  0.00     0.106 C 
HETATM    4  N2  UNL     1     -41.536  28.020  -7.008  1.00  0.00    -0.194 NA
ENDROOT
BRANCH   2   5
HETATM    5  N1  UNL     1     -40.225  28.100  -3.993  1.00  0.00    -0.051 N 
ATOM      6  H13 UNL     1     -40.047  27.799  -3.035  1.00  0.00     0.277 HD
ATOM      7  H12 UNL     1     -39.473  28.787  -4.049  1.00  0.00     0.277 HD
ATOM      8  H11 UNL     1     -41.153  28.502  -4.128  1.00  0.00     0.277 HD
ENDBRANCH   2   5
BRANCH   2   9
HETATM    9  C4  UNL     1     -40.776  25.819  -4.464  1.00  0.00     0.137 A 
HETATM   10  N3  UNL     1     -41.901  25.287  -5.064  1.00  0.00    -0.335 N 
HETATM   11  C5  UNL     1     -42.226  24.159  -4.480  1.00  0.00     0.148 A 
ATOM     12  H3  UNL     1     -42.405  25.709  -5.844  1.00  0.00     0.167 HD
HETATM   13  C6  UNL     1     -43.252  23.218  -4.648  1.00  0.00     0.290 A 
HETATM   14  C8  UNL     1     -41.330  23.889  -3.465  1.00  0.00     0.157 A 
HETATM   15  O1  UNL     1     -44.087  23.427  -5.558  1.00  0.00    -0.265 OA
HETATM   16  N4  UNL     1     -43.317  22.140  -3.851  1.00  0.00    -0.154 N 
HETATM   17  C7  UNL     1     -42.435  21.891  -2.878  1.00  0.00     0.680 A 
ATOM     18  H4  UNL     1     -44.078  21.476  -3.996  1.00  0.00     0.187 HD
HETATM   19  N5  UNL     1     -42.488  20.889  -2.113  1.00  0.00    -0.234 N 
HETATM   20  N6  UNL     1     -41.424  22.804  -2.700  1.00  0.00    -0.174 N 
ATOM     21  H52 UNL     1     -43.238  20.211  -2.244  1.00  0.00     0.174 HD
ATOM     22  H51 UNL     1     -41.815  20.699  -1.370  1.00  0.00     0.174 HD
ATOM     23  H6  UNL     1     -40.731  22.647  -1.969  1.00  0.00     0.186 HD
HETATM   24  N7  UNL     1     -40.468  24.951  -3.503  1.00  0.00    -0.314 N 
BRANCH  24  25
HETATM   25  C9  UNL     1     -39.513  25.161  -2.434  1.00  0.00     0.159 C 
BRANCH  25  26
HETATM   26  C10 UNL     1     -38.235  24.427  -2.572  1.00  0.00    -0.009 C 
HETATM   27  C11 UNL     1     -36.959  24.867  -2.089  1.00  0.00    -0.002 C 
BRANCH  27  28
HETATM   28  C12 UNL     1     -36.231  26.071  -2.511  1.00  0.00     0.265 C 
BRANCH  28  29
HETATM   29  N8  UNL     1     -35.479  25.624  -3.741  1.00  0.00    -0.028 N 
ATOM     30  H82 UNL     1     -36.107  25.512  -4.537  1.00  0.00     0.282 HD
ATOM     31  H81 UNL     1     -34.888  26.372  -4.105  1.00  0.00     0.282 HD
BRANCH  29  32
HETATM   32  C13 UNL     1     -34.726  24.441  -3.510  1.00  0.00     0.422 C 
BRANCH  32  33
HETATM   33  O2  UNL     1     -34.990  23.466  -4.443  1.00  0.00    -0.355 OA
ATOM     34  H2  UNL     1     -34.652  23.689  -5.302  1.00  0.00     0.213 HD
ENDBRANCH  32  33
BRANCH  32  35
HETATM   35  N9  UNL     1     -33.303  24.685  -3.423  1.00  0.00    -0.373 N 
ATOM     36  H9  UNL     1     -32.703  24.199  -2.757  1.00  0.00     0.157 HD
BRANCH  35  37
HETATM   37  C14 UNL     1     -32.802  25.657  -4.339  1.00  0.00     0.137 C 
BRANCH  37  38
HETATM   38  C15 UNL     1     -32.219  26.895  -3.698  1.00  0.00     0.138 C 
BRANCH  38  39
HETATM   39  N10 UNL     1     -32.055  26.662  -2.283  1.00  0.00    -0.395 N 
HETATM   40  C16 UNL     1     -32.672  27.379  -1.410  1.00  0.00     0.118 C 
ATOM     41  H10 UNL     1     -31.437  25.914  -1.968  1.00  0.00     0.159 HD
BRANCH  40  42
HETATM   42  C17 UNL     1     -32.456  27.080  -0.013  1.00  0.00     0.110 A 
HETATM   43  C18 UNL     1     -32.880  25.853   0.495  1.00  0.00     0.140 A 
HETATM   44  C19 UNL     1     -32.675  25.635   1.832  1.00  0.00     0.136 A 
HETATM   45  N12 UNL     1     -32.095  26.566   2.602  1.00  0.00    -0.325 N 
HETATM   46  C20 UNL     1     -31.698  27.744   2.061  1.00  0.00     0.133 A 
ATOM     47  H12 UNL     1     -31.951  26.388   3.597  1.00  0.00     0.169 HD
HETATM   48  C21 UNL     1     -31.086  28.863   2.587  1.00  0.00     0.099 A 
HETATM   49  N15 UNL     1     -31.883  27.993   0.757  1.00  0.00    -0.234 N 
HETATM   50  C22 UNL     1     -30.911  29.791   1.575  1.00  0.00     0.117 A 
HETATM   51  N14 UNL     1     -31.419  29.205   0.474  1.00  0.00    -0.277 N 
ATOM     52  H14 UNL     1     -31.445  29.633  -0.451  1.00  0.00     0.189 HD
BRANCH  43  53
HETATM   53  O3  UNL     1     -33.481  24.913  -0.315  1.00  0.00    -0.355 OA
ATOM     54  H3  UNL     1     -34.337  24.556  -0.105  1.00  0.00     0.218 HD
ENDBRANCH  43  53
BRANCH  44  55
HETATM   55  N11 UNL     1     -33.079  24.514   2.320  1.00  0.00    -0.383 N 
ATOM     56 2H11 UNL     1     -32.657  23.629   2.040  1.00  0.00     0.157 HD
ATOM     57 1H11 UNL     1     -33.828  24.543   3.012  1.00  0.00     0.157 HD
ENDBRANCH  44  55
BRANCH  50  58
HETATM   58  N13 UNL     1     -30.387  30.942   1.727  1.00  0.00    -0.384 N 
ATOM     59 2H13 UNL     1     -30.301  31.521   2.562  1.00  0.00     0.157 HD
ATOM     60 1H13 UNL     1     -29.937  31.478   0.986  1.00  0.00     0.157 HD
ENDBRANCH  50  58
ENDBRANCH  40  42
ENDBRANCH  38  39
ENDBRANCH  37  38
ENDBRANCH  35  37
ENDBRANCH  32  35
ENDBRANCH  29  32
ENDBRANCH  28  29
ENDBRANCH  27  28
ENDBRANCH  25  26
ENDBRANCH  24  25
ENDBRANCH   2   9
TORSDOF 16
ENDMDL
MODEL 5
REMARK VINA RESULT: -8.235300859      3.333      9.706
REMARK  16 active torsions:
REMARK  status: ('A' for Active; 'I' for Inactive)
REMARK    1  A    between atoms: C2_2  and  N1_3 
REMARK    2  A    between atoms: C2_2  and  C4_9 
REMARK    3  A    between atoms: N7_24  and  C9_25 
REMARK    4  A    between atoms: C9_25  and  C10_26 
REMARK    5  A    between atoms: C11_27  and  C12_28 
REMARK    6  A    between atoms: C12_28  and  N8_29 
REMARK    7  A    between atoms: N8_29  and  C13_32 
REMARK    8  A    between atoms: C13_32  and  O2_33 
REMARK    9  A    between atoms: C13_32  and  N9_35 
REMARK   10  A    between atoms: N9_35  and  C14_37 
REMARK   11  A    between atoms: C14_37  and  C15_38 
REMARK   12  A    between atoms: C15_38  and  N10_39 
REMARK   13  A    between atoms: C16_41  and  C17_42 
REMARK   14  A    between atoms: C18_43  and  O3_44 
REMARK   15  A    between atoms: C19_46  and  N11_47 
REMARK   16  A    between atoms: C22_54  and  N13_55 
ROOT
HETATM    1  C1  UNL     1     -39.087  26.919  -5.821  1.00  0.00     0.072 C 
HETATM    2  C2  UNL     1     -40.345  26.922  -5.112  1.00  0.00     0.264 C 
HETATM    3  C3  UNL     1     -41.350  27.602  -6.020  1.00  0.00     0.106 C 
HETATM    4  N2  UNL     1     -42.120  28.138  -6.697  1.00  0.00    -0.194 NA
ENDROOT
BRANCH   2   5
HETATM    5  N1  UNL     1     -40.205  27.942  -4.031  1.00  0.00    -0.051 N 
ATOM      6  H13 UNL     1     -40.356  27.566  -3.095  1.00  0.00     0.277 HD
ATOM      7  H12 UNL     1     -39.244  28.252  -3.886  1.00  0.00     0.277 HD
ATOM      8  H11 UNL     1     -40.845  28.698  -4.274  1.00  0.00     0.277 HD
ENDBRANCH   2   5
BRANCH   2   9
HETATM    9  C4  UNL     1     -40.944  25.722  -4.536  1.00  0.00     0.137 A 
HETATM   10  N3  UNL     1     -42.106  25.170  -5.040  1.00  0.00    -0.335 N 
HETATM   11  C5  UNL     1     -42.354  24.031  -4.442  1.00  0.00     0.148 A 
ATOM     12  H3  UNL     1     -42.684  25.588  -5.770  1.00  0.00     0.167 HD
HETATM   13  C6  UNL     1     -43.372  23.069  -4.528  1.00  0.00     0.290 A 
HETATM   14  C8  UNL     1     -41.368  23.773  -3.511  1.00  0.00     0.157 A 
HETATM   15  O1  UNL     1     -44.287  23.267  -5.360  1.00  0.00    -0.265 OA
HETATM   16  N4  UNL     1     -43.344  21.984  -3.740  1.00  0.00    -0.154 N 
HETATM   17  C7  UNL     1     -42.375  21.747  -2.850  1.00  0.00     0.680 A 
ATOM     18  H4  UNL     1     -44.101  21.305  -3.825  1.00  0.00     0.187 HD
HETATM   19  N5  UNL     1     -42.340  20.738  -2.093  1.00  0.00    -0.234 N 
HETATM   20  N6  UNL     1     -41.372  22.680  -2.752  1.00  0.00    -0.174 N 
ATOM     21  H52 UNL     1     -43.085  20.045  -2.165  1.00  0.00     0.174 HD
ATOM     22  H51 UNL     1     -41.602  20.556  -1.413  1.00  0.00     0.174 HD
ATOM     23  H6  UNL     1     -40.615  22.532  -2.085  1.00  0.00     0.186 HD
HETATM   24  N7  UNL     1     -40.535  24.853  -3.614  1.00  0.00    -0.314 N 
BRANCH  24  25
HETATM   25  C9  UNL     1     -39.495  25.075  -2.630  1.00  0.00     0.159 C 
BRANCH  25  26
HETATM   26  C10 UNL     1     -38.142  24.625  -3.025  1.00  0.00    -0.009 C 
HETATM   27  C11 UNL     1     -36.919  24.946  -2.348  1.00  0.00    -0.002 C 
BRANCH  27  28
HETATM   28  C12 UNL     1     -36.343  26.285  -2.169  1.00  0.00     0.265 C 
BRANCH  28  29
HETATM   29  N8  UNL     1     -36.379  26.881  -3.556  1.00  0.00    -0.028 N 
ATOM     30  H82 UNL     1     -35.542  26.637  -4.084  1.00  0.00     0.282 HD
ATOM     31  H81 UNL     1     -37.078  26.418  -4.139  1.00  0.00     0.282 HD
BRANCH  29  32
HETATM   32  C13 UNL     1     -36.581  28.287  -3.530  1.00  0.00     0.422 C 
BRANCH  32  33
HETATM   33  O2  UNL     1     -36.400  28.815  -2.274  1.00  0.00    -0.355 OA
ATOM     34  H2  UNL     1     -37.091  28.561  -1.674  1.00  0.00     0.213 HD
ENDBRANCH  32  33
BRANCH  32  35
HETATM   35  N9  UNL     1     -35.767  28.992  -4.497  1.00  0.00    -0.373 N 
ATOM     36  H9  UNL     1     -36.109  29.237  -5.427  1.00  0.00     0.157 HD
BRANCH  35  37
HETATM   37  C14 UNL     1     -34.451  29.317  -4.053  1.00  0.00     0.137 C 
BRANCH  37  38
HETATM   38  C15 UNL     1     -33.338  28.819  -4.945  1.00  0.00     0.138 C 
BRANCH  38  39
HETATM   39  N10 UNL     1     -32.926  27.509  -4.501  1.00  0.00    -0.395 N 
HETATM   40  C16 UNL     1     -32.903  27.202  -3.251  1.00  0.00     0.118 C 
ATOM     41  H10 UNL     1     -32.646  26.813  -5.192  1.00  0.00     0.159 HD
BRANCH  40  42
HETATM   42  C17 UNL     1     -32.481  25.869  -2.888  1.00  0.00     0.110 A 
HETATM   43  C18 UNL     1     -33.080  24.772  -3.508  1.00  0.00     0.140 A 
HETATM   44  C19 UNL     1     -32.661  23.531  -3.106  1.00  0.00     0.136 A 
HETATM   45  N12 UNL     1     -31.720  23.393  -2.160  1.00  0.00    -0.325 N 
HETATM   46  C20 UNL     1     -31.167  24.491  -1.588  1.00  0.00     0.133 A 
ATOM     47  H12 UNL     1     -31.421  22.462  -1.871  1.00  0.00     0.169 HD
HETATM   48  C21 UNL     1     -30.202  24.661  -0.617  1.00  0.00     0.099 A 
HETATM   49  N15 UNL     1     -31.553  25.720  -1.955  1.00  0.00    -0.234 N 
HETATM   50  C22 UNL     1     -30.019  26.016  -0.405  1.00  0.00     0.117 A 
HETATM   51  N14 UNL     1     -30.874  26.619  -1.252  1.00  0.00    -0.277 N 
ATOM     52  H14 UNL     1     -30.985  27.629  -1.342  1.00  0.00     0.189 HD
BRANCH  43  53
HETATM   53  O3  UNL     1     -34.050  24.938  -4.474  1.00  0.00    -0.355 OA
ATOM     54  H3  UNL     1     -34.035  24.434  -5.279  1.00  0.00     0.218 HD
ENDBRANCH  43  53
BRANCH  44  55
HETATM   55  N11 UNL     1     -33.217  22.509  -3.655  1.00  0.00    -0.383 N 
ATOM     56 2H11 UNL     1     -33.296  22.426  -4.668  1.00  0.00     0.157 HD
ATOM     57 1H11 UNL     1     -33.564  21.773  -3.039  1.00  0.00     0.157 HD
ENDBRANCH  44  55
BRANCH  50  58
HETATM   58  N13 UNL     1     -29.206  26.516   0.439  1.00  0.00    -0.384 N 
ATOM     59 2H13 UNL     1     -28.194  26.421   0.515  1.00  0.00     0.157 HD
ATOM     60 1H13 UNL     1     -29.471  27.134   1.206  1.00  0.00     0.157 HD
ENDBRANCH  50  58
ENDBRANCH  40  42
ENDBRANCH  38  39
ENDBRANCH  37  38
ENDBRANCH  35  37
ENDBRANCH  32  35
ENDBRANCH  29  32
ENDBRANCH  28  29
ENDBRANCH  27  28
ENDBRANCH  25  26
ENDBRANCH  24  25
ENDBRANCH   2   9
TORSDOF 16
ENDMDL
