MODEL 1
REMARK VINA RESULT: -8.962520659      0.000      0.000
REMARK  15 active torsions:
REMARK  status: ('A' for Active; 'I' for Inactive)
REMARK    1  A    between atoms: N1_1  and  C1_4 
REMARK    2  A    between atoms: C2_7  and  C3_8 
REMARK    3  A    between atoms: C3_8  and  C4_9 
REMARK    4  A    between atoms: C3_8  and  N4_16 
REMARK    5  A    between atoms: C4_9  and  C5_10 
REMARK    6  A    between atoms: C5_10  and  C6_11 
REMARK    7  A    between atoms: C6_11  and  N3_12 
REMARK       I    between atoms: N4_16  and  C7_18 
REMARK    8  A    between atoms: C7_18  and  C8_20 
REMARK    9  A    between atoms: C8_20  and  C9_21 
REMARK   10  A    between atoms: C9_21  and  O2_22 
REMARK   11  A    between atoms: C9_21  and  C10_24 
REMARK   12  A    between atoms: C10_24  and  C11_25 
REMARK   13  A    between atoms: C11_25  and  O3_26 
REMARK   14  A    between atoms: C11_25  and  C12_28 
REMARK   15  A    between atoms: C21_54  and  N14_55 
ROOT
HETATM    1  C9  UNL     1     -34.159  25.298  -1.210  1.00  0.00     0.129 C 
ENDROOT
BRANCH   1   2
HETATM    2  C8  UNL     1     -32.771  25.816  -1.226  1.00  0.00     0.134 C 
BRANCH   2   3
HETATM    3  C7  UNL     1     -32.330  25.971   0.180  1.00  0.00     0.220 C 
HETATM    4  N4  UNL     1     -31.015  26.385   0.548  1.00  0.00    -0.351 N 
ATOM      5  H4  UNL     1     -30.337  26.593  -0.185  1.00  0.00     0.163 HD
HETATM    6  O1  UNL     1     -33.133  25.737   1.115  1.00  0.00    -0.274 OA
BRANCH   4   7
HETATM    7  C3  UNL     1     -30.616  26.518   1.953  1.00  0.00     0.137 C 
BRANCH   7   8
HETATM    8  C2  UNL     1     -29.898  25.387   2.453  1.00  0.00     0.077 A 
HETATM    9  N2  UNL     1     -28.902  24.680   1.849  1.00  0.00    -0.192 N 
HETATM   10  C1  UNL     1     -28.360  23.569   2.353  1.00  0.00     0.677 A 
ATOM     11  H2  UNL     1     -28.549  25.022   0.955  1.00  0.00     0.184 HD
HETATM   12  N15 UNL     1     -28.773  23.045   3.538  1.00  0.00    -0.175 N 
HETATM   13  C21 UNL     1     -29.764  23.688   4.204  1.00  0.00     0.141 A 
ATOM     14  H15 UNL     1     -28.352  22.195   3.914  1.00  0.00     0.186 HD
HETATM   15  C20 UNL     1     -30.302  24.818   3.676  1.00  0.00     0.115 A 
HETATM   16  N13 UNL     1     -31.348  25.469   4.398  1.00  0.00    -0.096 NA
BRANCH  10  17
HETATM   17  N1  UNL     1     -27.411  22.905   1.768  1.00  0.00    -0.234 N 
ATOM     18  H12 UNL     1     -27.399  22.987   0.751  1.00  0.00     0.174 HD
ATOM     19  H11 UNL     1     -26.724  22.343   2.270  1.00  0.00     0.174 HD
ENDBRANCH  10  17
BRANCH  13  20
HETATM   20  N14 UNL     1     -30.139  23.173   5.316  1.00  0.00    -0.383 N 
ATOM     21 2H14 UNL     1     -30.353  23.822   6.073  1.00  0.00     0.157 HD
ATOM     22 1H14 UNL     1     -30.227  22.168   5.474  1.00  0.00     0.157 HD
ENDBRANCH  13  20
ENDBRANCH   7   8
BRANCH   7  23
HETATM   23  C4  UNL     1     -30.023  27.877   2.075  1.00  0.00     0.033 C 
BRANCH  23  24
HETATM   24  C5  UNL     1     -30.580  28.831   3.037  1.00  0.00     0.029 C 
BRANCH  24  25
HETATM   25  C6  UNL     1     -30.121  28.807   4.434  1.00  0.00     0.230 C 
BRANCH  25  26
HETATM   26  N3  UNL     1     -31.229  28.402   5.337  1.00  0.00    -0.079 N 
ATOM     27  H33 UNL     1     -31.990  29.082   5.334  1.00  0.00     0.274 HD
ATOM     28  H32 UNL     1     -31.742  27.599   4.972  1.00  0.00     0.274 HD
ATOM     29  H31 UNL     1     -30.876  28.232   6.278  1.00  0.00     0.274 HD
ENDBRANCH  25  26
ENDBRANCH  24  25
ENDBRANCH  23  24
ENDBRANCH   7  23
ENDBRANCH   4   7
ENDBRANCH   2   3
ENDBRANCH   1   2
BRANCH   1  30
HETATM   30  O2  UNL     1     -34.236  23.910  -1.056  1.00  0.00    -0.395 OA
ATOM     31  H2  UNL     1     -33.569  23.553  -0.481  1.00  0.00     0.210 HD
ENDBRANCH   1  30
BRANCH   1  32
HETATM   32  C10 UNL     1     -35.088  25.797  -2.277  1.00  0.00     0.070 C 
BRANCH  32  33
HETATM   33  C11 UNL     1     -36.051  24.834  -2.832  1.00  0.00     0.172 C 
BRANCH  33  34
HETATM   34  O3  UNL     1     -35.460  24.045  -3.852  1.00  0.00    -0.389 OA
ATOM     35  H3  UNL     1     -36.121  23.620  -4.385  1.00  0.00     0.210 HD
ENDBRANCH  33  34
BRANCH  33  36
HETATM   36  C12 UNL     1     -37.246  25.415  -3.433  1.00  0.00     0.066 A 
HETATM   37  N5  UNL     1     -37.228  26.650  -3.920  1.00  0.00    -0.321 N 
HETATM   38  C13 UNL     1     -38.275  27.216  -4.492  1.00  0.00     0.273 A 
ATOM     39  H5  UNL     1     -36.363  27.187  -3.850  1.00  0.00     0.169 HD
HETATM   40  O4  UNL     1     -38.220  28.405  -4.950  1.00  0.00    -0.266 OA
HETATM   41  C14 UNL     1     -39.465  26.550  -4.618  1.00  0.00     0.116 A 
HETATM   42  N6  UNL     1     -40.517  27.195  -5.181  1.00  0.00    -0.347 N 
HETATM   43  C18 UNL     1     -39.558  25.240  -4.126  1.00  0.00     0.053 A 
HETATM   44  C15 UNL     1     -41.680  26.569  -5.271  1.00  0.00     0.181 A 
ATOM     45  H6  UNL     1     -40.414  28.148  -5.530  1.00  0.00     0.167 HD
HETATM   46  N7  UNL     1     -41.801  25.335  -4.819  1.00  0.00    -0.348 N 
HETATM   47  C16 UNL     1     -40.760  24.611  -4.231  1.00  0.00     0.095 A 
ATOM     48  H7  UNL     1     -42.711  24.882  -4.903  1.00  0.00     0.167 HD
HETATM   49  C17 UNL     1     -41.072  23.287  -3.770  1.00  0.00     0.165 A 
HETATM   50  N8  UNL     1     -40.594  22.187  -3.335  1.00  0.00    -0.267 N 
HETATM   51  N11 UNL     1     -42.452  23.016  -3.637  1.00  0.00    -0.267 N 
HETATM   52  N9  UNL     1     -41.462  21.290  -2.958  1.00  0.00    -0.227 N 
ATOM     53  H8  UNL     1     -39.589  22.019  -3.284  1.00  0.00     0.190 HD
HETATM   54  N10 UNL     1     -42.655  21.835  -3.158  1.00  0.00    -0.227 N 
ATOM     55  H9  UNL     1     -41.264  20.361  -2.587  1.00  0.00     0.210 HD
ATOM     56  H10 UNL     1     -43.560  21.403  -2.969  1.00  0.00     0.210 HD
ATOM     57  H11 UNL     1     -43.193  23.671  -3.889  1.00  0.00     0.190 HD
HETATM   58  C19 UNL     1     -38.456  24.701  -3.547  1.00  0.00     0.086 A 
HETATM   59  N12 UNL     1     -38.384  23.449  -2.967  1.00  0.00    -0.099 NA
ENDBRANCH  33  36
ENDBRANCH  32  33
ENDBRANCH   1  32
TORSDOF 15
ENDMDL
MODEL 2
REMARK VINA RESULT: -8.800805308      2.146     11.289
REMARK  15 active torsions:
REMARK  status: ('A' for Active; 'I' for Inactive)
REMARK    1  A    between atoms: N1_1  and  C1_4 
REMARK    2  A    between atoms: C2_7  and  C3_8 
REMARK    3  A    between atoms: C3_8  and  C4_9 
REMARK    4  A    between atoms: C3_8  and  N4_16 
REMARK    5  A    between atoms: C4_9  and  C5_10 
REMARK    6  A    between atoms: C5_10  and  C6_11 
REMARK    7  A    between atoms: C6_11  and  N3_12 
REMARK       I    between atoms: N4_16  and  C7_18 
REMARK    8  A    between atoms: C7_18  and  C8_20 
REMARK    9  A    between atoms: C8_20  and  C9_21 
REMARK   10  A    between atoms: C9_21  and  O2_22 
REMARK   11  A    between atoms: C9_21  and  C10_24 
REMARK   12  A    between atoms: C10_24  and  C11_25 
REMARK   13  A    between atoms: C11_25  and  O3_26 
REMARK   14  A    between atoms: C11_25  and  C12_28 
REMARK   15  A    between atoms: C21_54  and  N14_55 
ROOT
HETATM    1  C9  UNL     1     -33.018  23.455  -2.943  1.00  0.00     0.129 C 
ENDROOT
BRANCH   1   2
HETATM    2  C8  UNL     1     -33.726  24.082  -4.083  1.00  0.00     0.134 C 
BRANCH   2   3
HETATM    3  C7  UNL     1     -34.852  24.875  -3.535  1.00  0.00     0.220 C 
HETATM    4  N4  UNL     1     -36.217  24.477  -3.646  1.00  0.00    -0.351 N 
ATOM      5  H4  UNL     1     -36.443  23.602  -4.119  1.00  0.00     0.163 HD
HETATM    6  O1  UNL     1     -34.623  25.952  -2.934  1.00  0.00    -0.274 OA
BRANCH   4   7
HETATM    7  C3  UNL     1     -37.304  25.294  -3.096  1.00  0.00     0.137 C 
BRANCH   7   8
HETATM    8  C2  UNL     1     -37.808  26.269  -4.014  1.00  0.00     0.077 A 
HETATM    9  N2  UNL     1     -38.387  26.066  -5.231  1.00  0.00    -0.192 N 
HETATM   10  C1  UNL     1     -38.734  27.046  -6.067  1.00  0.00     0.677 A 
ATOM     11  H2  UNL     1     -38.566  25.105  -5.520  1.00  0.00     0.184 HD
HETATM   12  N15 UNL     1     -38.530  28.356  -5.761  1.00  0.00    -0.175 N 
HETATM   13  C21 UNL     1     -37.955  28.644  -4.566  1.00  0.00     0.141 A 
ATOM     14  H15 UNL     1     -38.799  29.098  -6.407  1.00  0.00     0.186 HD
HETATM   15  C20 UNL     1     -37.610  27.633  -3.728  1.00  0.00     0.115 A 
HETATM   16  N13 UNL     1     -37.001  27.967  -2.480  1.00  0.00    -0.096 NA
BRANCH  10  17
HETATM   17  N1  UNL     1     -39.286  26.841  -7.223  1.00  0.00    -0.234 N 
ATOM     18  H12 UNL     1     -40.263  26.551  -7.184  1.00  0.00     0.174 HD
ATOM     19  H11 UNL     1     -38.796  26.955  -8.110  1.00  0.00     0.174 HD
ENDBRANCH  10  17
BRANCH  13  20
HETATM   20  N14 UNL     1     -37.769  29.884  -4.302  1.00  0.00    -0.383 N 
ATOM     21 2H14 UNL     1     -36.858  30.138  -3.920  1.00  0.00     0.157 HD
ATOM     22 1H14 UNL     1     -38.473  30.608  -4.449  1.00  0.00     0.157 HD
ENDBRANCH  13  20
ENDBRANCH   7   8
BRANCH   7  23
HETATM   23  C4  UNL     1     -38.243  24.336  -2.453  1.00  0.00     0.033 C 
BRANCH  23  24
HETATM   24  C5  UNL     1     -38.709  23.164  -3.197  1.00  0.00     0.029 C 
BRANCH  24  25
HETATM   25  C6  UNL     1     -40.081  23.137  -3.727  1.00  0.00     0.230 C 
BRANCH  25  26
HETATM   26  N3  UNL     1     -40.819  21.963  -3.192  1.00  0.00    -0.079 N 
ATOM     27  H33 UNL     1     -40.335  21.087  -3.393  1.00  0.00     0.274 HD
ATOM     28  H32 UNL     1     -40.785  21.925  -2.173  1.00  0.00     0.274 HD
ATOM     29  H31 UNL     1     -41.777  21.956  -3.542  1.00  0.00     0.274 HD
ENDBRANCH  25  26
ENDBRANCH  24  25
ENDBRANCH  23  24
ENDBRANCH   7  23
ENDBRANCH   4   7
ENDBRANCH   2   3
ENDBRANCH   1   2
BRANCH   1  30
HETATM   30  O2  UNL     1     -33.742  23.491  -1.747  1.00  0.00    -0.395 OA
ATOM     31  H2  UNL     1     -34.678  23.383  -1.865  1.00  0.00     0.210 HD
ENDBRANCH   1  30
BRANCH   1  32
HETATM   32  C10 UNL     1     -31.580  23.831  -2.740  1.00  0.00     0.070 C 
BRANCH  32  33
HETATM   33  C11 UNL     1     -31.285  24.819  -1.692  1.00  0.00     0.172 C 
BRANCH  33  34
HETATM   34  O3  UNL     1     -30.444  25.851  -2.179  1.00  0.00    -0.389 OA
ATOM     35  H3  UNL     1     -29.619  25.875  -1.708  1.00  0.00     0.210 HD
ENDBRANCH  33  34
BRANCH  33  36
HETATM   36  C12 UNL     1     -30.614  24.297  -0.506  1.00  0.00     0.066 A 
HETATM   37  N5  UNL     1     -30.031  23.105  -0.527  1.00  0.00    -0.321 N 
HETATM   38  C13 UNL     1     -29.394  22.596   0.511  1.00  0.00     0.273 A 
ATOM     39  H5  UNL     1     -30.077  22.557  -1.386  1.00  0.00     0.169 HD
HETATM   40  O4  UNL     1     -28.844  21.446   0.454  1.00  0.00    -0.266 OA
HETATM   41  C14 UNL     1     -29.295  23.279   1.693  1.00  0.00     0.116 A 
HETATM   42  N6  UNL     1     -28.660  22.690   2.737  1.00  0.00    -0.347 N 
HETATM   43  C18 UNL     1     -29.887  24.547   1.788  1.00  0.00     0.053 A 
HETATM   44  C15 UNL     1     -28.595  23.331   3.893  1.00  0.00     0.181 A 
ATOM     45  H6  UNL     1     -28.239  21.767   2.633  1.00  0.00     0.167 HD
HETATM   46  N7  UNL     1     -29.140  24.526   4.016  1.00  0.00    -0.348 N 
HETATM   47  C16 UNL     1     -29.806  25.193   2.983  1.00  0.00     0.095 A 
ATOM     48  H7  UNL     1     -29.072  24.993   4.920  1.00  0.00     0.167 HD
HETATM   49  C17 UNL     1     -30.364  26.479   3.296  1.00  0.00     0.165 A 
HETATM   50  N8  UNL     1     -30.895  27.537   2.820  1.00  0.00    -0.267 N 
HETATM   51  N11 UNL     1     -30.487  26.750   4.677  1.00  0.00    -0.267 N 
HETATM   52  N9  UNL     1     -31.323  28.408   3.690  1.00  0.00    -0.227 N 
ATOM     53  H8  UNL     1     -30.981  27.691   1.816  1.00  0.00     0.190 HD
HETATM   54  N10 UNL     1     -31.055  27.891   4.883  1.00  0.00    -0.227 N 
ATOM     55  H9  UNL     1     -31.771  29.304   3.495  1.00  0.00     0.210 HD
ATOM     56  H10 UNL     1     -31.258  28.314   5.789  1.00  0.00     0.210 HD
ATOM     57  H11 UNL     1     -30.169  26.123   5.416  1.00  0.00     0.190 HD
HETATM   58  C19 UNL     1     -30.531  25.029   0.695  1.00  0.00     0.086 A 
HETATM   59  N12 UNL     1     -31.209  26.231   0.628  1.00  0.00    -0.099 NA
ENDBRANCH  33  36
ENDBRANCH  32  33
ENDBRANCH   1  32
TORSDOF 15
ENDMDL
MODEL 3
REMARK VINA RESULT: -8.735202334      1.772      3.265
REMARK  15 active torsions:
REMARK  status: ('A' for Active; 'I' for Inactive)
REMARK    1  A    between atoms: N1_1  and  C1_4 
REMARK    2  A    between atoms: C2_7  and  C3_8 
REMARK    3  A    between atoms: C3_8  and  C4_9 
REMARK    4  A    between atoms: C3_8  and  N4_16 
REMARK    5  A    between atoms: C4_9  and  C5_10 
REMARK    6  A    between atoms: C5_10  and  C6_11 
REMARK    7  A    between atoms: C6_11  and  N3_12 
REMARK       I    between atoms: N4_16  and  C7_18 
REMARK    8  A    between atoms: C7_18  and  C8_20 
REMARK    9  A    between atoms: C8_20  and  C9_21 
REMARK   10  A    between atoms: C9_21  and  O2_22 
REMARK   11  A    between atoms: C9_21  and  C10_24 
REMARK   12  A    between atoms: C10_24  and  C11_25 
REMARK   13  A    between atoms: C11_25  and  O3_26 
REMARK   14  A    between atoms: C11_25  and  C12_28 
REMARK   15  A    between atoms: C21_54  and  N14_55 
ROOT
HETATM    1  C9  UNL     1     -33.937  25.022  -1.798  1.00  0.00     0.129 C 
ENDROOT
BRANCH   1   2
HETATM    2  C8  UNL     1     -32.805  24.806  -2.728  1.00  0.00     0.134 C 
BRANCH   2   3
HETATM    3  C7  UNL     1     -31.550  24.927  -1.948  1.00  0.00     0.220 C 
HETATM    4  N4  UNL     1     -31.300  24.197  -0.749  1.00  0.00    -0.351 N 
ATOM      5  H4  UNL     1     -32.010  23.552  -0.403  1.00  0.00     0.163 HD
HETATM    6  O1  UNL     1     -30.643  25.699  -2.342  1.00  0.00    -0.274 OA
BRANCH   4   7
HETATM    7  C3  UNL     1     -30.047  24.351  -0.002  1.00  0.00     0.137 C 
BRANCH   7   8
HETATM    8  C2  UNL     1     -30.239  24.553   1.401  1.00  0.00     0.077 A 
HETATM    9  N2  UNL     1     -30.051  23.666   2.418  1.00  0.00    -0.192 N 
HETATM   10  C1  UNL     1     -30.356  23.914   3.694  1.00  0.00     0.677 A 
ATOM     11  H2  UNL     1     -29.652  22.756   2.190  1.00  0.00     0.184 HD
HETATM   12  N15 UNL     1     -30.893  25.101   4.085  1.00  0.00    -0.175 N 
HETATM   13  C21 UNL     1     -31.113  26.040   3.131  1.00  0.00     0.141 A 
ATOM     14  H15 UNL     1     -31.123  25.280   5.062  1.00  0.00     0.186 HD
HETATM   15  C20 UNL     1     -30.795  25.770   1.839  1.00  0.00     0.115 A 
HETATM   16  N13 UNL     1     -31.045  26.776   0.857  1.00  0.00    -0.096 NA
BRANCH  10  17
HETATM   17  N1  UNL     1     -30.172  23.061   4.654  1.00  0.00    -0.234 N 
ATOM     18  H12 UNL     1     -30.025  22.099   4.346  1.00  0.00     0.174 HD
ATOM     19  H11 UNL     1     -30.170  23.315   5.641  1.00  0.00     0.174 HD
ENDBRANCH  10  17
BRANCH  13  20
HETATM   20  N14 UNL     1     -31.624  27.148   3.523  1.00  0.00    -0.383 N 
ATOM     21 2H14 UNL     1     -31.449  27.965   2.938  1.00  0.00     0.157 HD
ATOM     22 1H14 UNL     1     -32.180  27.248   4.373  1.00  0.00     0.157 HD
ENDBRANCH  13  20
ENDBRANCH   7   8
BRANCH   7  23
HETATM   23  C4  UNL     1     -29.161  23.252  -0.472  1.00  0.00     0.033 C 
BRANCH  23  24
HETATM   24  C5  UNL     1     -28.117  23.532  -1.460  1.00  0.00     0.029 C 
BRANCH  24  25
HETATM   25  C6  UNL     1     -28.249  23.006  -2.827  1.00  0.00     0.230 C 
BRANCH  25  26
HETATM   26  N3  UNL     1     -27.948  21.551  -2.852  1.00  0.00    -0.079 N 
ATOM     27  H33 UNL     1     -28.793  20.989  -2.955  1.00  0.00     0.274 HD
ATOM     28  H32 UNL     1     -27.477  21.275  -3.714  1.00  0.00     0.274 HD
ATOM     29  H31 UNL     1     -27.414  21.284  -2.025  1.00  0.00     0.274 HD
ENDBRANCH  25  26
ENDBRANCH  24  25
ENDBRANCH  23  24
ENDBRANCH   7  23
ENDBRANCH   4   7
ENDBRANCH   2   3
ENDBRANCH   1   2
BRANCH   1  30
HETATM   30  O2  UNL     1     -34.226  23.910  -1.002  1.00  0.00    -0.395 OA
ATOM     31  H2  UNL     1     -33.485  23.604  -0.492  1.00  0.00     0.210 HD
ENDBRANCH   1  30
BRANCH   1  32
HETATM   32  C10 UNL     1     -35.179  25.644  -2.365  1.00  0.00     0.070 C 
BRANCH  32  33
HETATM   33  C11 UNL     1     -36.217  24.732  -2.868  1.00  0.00     0.172 C 
BRANCH  33  34
HETATM   34  O3  UNL     1     -35.717  23.905  -3.906  1.00  0.00    -0.389 OA
ATOM     35  H3  UNL     1     -35.598  23.011  -3.607  1.00  0.00     0.210 HD
ENDBRANCH  33  34
BRANCH  33  36
HETATM   36  C12 UNL     1     -37.405  25.374  -3.421  1.00  0.00     0.066 A 
HETATM   37  N5  UNL     1     -37.351  26.618  -3.879  1.00  0.00    -0.321 N 
HETATM   38  C13 UNL     1     -38.391  27.238  -4.407  1.00  0.00     0.273 A 
ATOM     39  H5  UNL     1     -36.464  27.119  -3.821  1.00  0.00     0.169 HD
HETATM   40  O4  UNL     1     -38.301  28.435  -4.839  1.00  0.00    -0.266 OA
HETATM   41  C14 UNL     1     -39.608  26.623  -4.515  1.00  0.00     0.116 A 
HETATM   42  N6  UNL     1     -40.650  27.322  -5.032  1.00  0.00    -0.347 N 
HETATM   43  C18 UNL     1     -39.740  25.305  -4.051  1.00  0.00     0.053 A 
HETATM   44  C15 UNL     1     -41.838  26.743  -5.103  1.00  0.00     0.181 A 
ATOM     45  H6  UNL     1     -40.519  28.278  -5.362  1.00  0.00     0.167 HD
HETATM   46  N7  UNL     1     -41.996  25.505  -4.677  1.00  0.00    -0.348 N 
HETATM   47  C16 UNL     1     -40.969  24.727  -4.136  1.00  0.00     0.095 A 
ATOM     48  H7  UNL     1     -42.925  25.089  -4.746  1.00  0.00     0.167 HD
HETATM   49  C17 UNL     1     -41.320  23.404  -3.697  1.00  0.00     0.165 A 
HETATM   50  N8  UNL     1     -40.873  22.277  -3.302  1.00  0.00    -0.267 N 
HETATM   51  N11 UNL     1     -42.705  23.185  -3.532  1.00  0.00    -0.267 N 
HETATM   52  N9  UNL     1     -41.766  21.405  -2.922  1.00  0.00    -0.227 N 
ATOM     53  H8  UNL     1     -39.875  22.069  -3.284  1.00  0.00     0.190 HD
HETATM   54  N10 UNL     1     -42.941  22.001  -3.074  1.00  0.00    -0.227 N 
ATOM     55  H9  UNL     1     -41.594  20.460  -2.578  1.00  0.00     0.210 HD
ATOM     56  H10 UNL     1     -43.857  21.600  -2.870  1.00  0.00     0.210 HD
ATOM     57  H11 UNL     1     -43.426  23.874  -3.746  1.00  0.00     0.190 HD
HETATM   58  C19 UNL     1     -38.644  24.710  -3.516  1.00  0.00     0.086 A 
HETATM   59  N12 UNL     1     -38.606  23.442  -2.969  1.00  0.00    -0.099 NA
ENDBRANCH  33  36
ENDBRANCH  32  33
ENDBRANCH   1  32
TORSDOF 15
ENDMDL
MODEL 4
REMARK VINA RESULT: -8.592975024      2.351      4.631
REMARK  15 active torsions:
REMARK  status: ('A' for Active; 'I' for Inactive)
REMARK    1  A    between atoms: N1_1  and  C1_4 
REMARK    2  A    between atoms: C2_7  and  C3_8 
REMARK    3  A    between atoms: C3_8  and  C4_9 
REMARK    4  A    between atoms: C3_8  and  N4_16 
REMARK    5  A    between atoms: C4_9  and  C5_10 
REMARK    6  A    between atoms: C5_10  and  C6_11 
REMARK    7  A    between atoms: C6_11  and  N3_12 
REMARK       I    between atoms: N4_16  and  C7_18 
REMARK    8  A    between atoms: C7_18  and  C8_20 
REMARK    9  A    between atoms: C8_20  and  C9_21 
REMARK   10  A    between atoms: C9_21  and  O2_22 
REMARK   11  A    between atoms: C9_21  and  C10_24 
REMARK   12  A    between atoms: C10_24  and  C11_25 
REMARK   13  A    between atoms: C11_25  and  O3_26 
REMARK   14  A    between atoms: C11_25  and  C12_28 
REMARK   15  A    between atoms: C21_54  and  N14_55 
ROOT
HETATM    1  C9  UNL     1     -33.527  24.813  -3.251  1.00  0.00     0.129 C 
ENDROOT
BRANCH   1   2
HETATM    2  C8  UNL     1     -32.503  23.745  -3.322  1.00  0.00     0.134 C 
BRANCH   2   3
HETATM    3  C7  UNL     1     -31.347  24.171  -2.498  1.00  0.00     0.220 C 
HETATM    4  N4  UNL     1     -31.044  23.608  -1.223  1.00  0.00    -0.351 N 
ATOM      5  H4  UNL     1     -31.642  22.870  -0.851  1.00  0.00     0.163 HD
HETATM    6  O1  UNL     1     -30.577  25.067  -2.920  1.00  0.00    -0.274 OA
BRANCH   4   7
HETATM    7  C3  UNL     1     -29.894  24.064  -0.435  1.00  0.00     0.137 C 
BRANCH   7   8
HETATM    8  C2  UNL     1     -30.212  24.349   0.930  1.00  0.00     0.077 A 
HETATM    9  N2  UNL     1     -29.950  23.597   2.035  1.00  0.00    -0.192 N 
HETATM   10  C1  UNL     1     -30.378  23.897   3.264  1.00  0.00     0.677 A 
ATOM     11  H2  UNL     1     -29.391  22.753   1.917  1.00  0.00     0.184 HD
HETATM   12  N15 UNL     1     -31.130  25.004   3.510  1.00  0.00    -0.175 N 
HETATM   13  C21 UNL     1     -31.437  25.806   2.460  1.00  0.00     0.141 A 
ATOM     14  H15 UNL     1     -31.453  25.223   4.452  1.00  0.00     0.186 HD
HETATM   15  C20 UNL     1     -30.991  25.486   1.219  1.00  0.00     0.115 A 
HETATM   16  N13 UNL     1     -31.336  26.347   0.133  1.00  0.00    -0.096 NA
BRANCH  10  17
HETATM   17  N1  UNL     1     -30.122  23.173   4.309  1.00  0.00    -0.234 N 
ATOM     18  H12 UNL     1     -30.103  23.688   5.189  1.00  0.00     0.174 HD
ATOM     19  H11 UNL     1     -29.952  22.168   4.271  1.00  0.00     0.174 HD
ENDBRANCH  10  17
BRANCH  13  20
HETATM   20  N14 UNL     1     -32.150  26.840   2.717  1.00  0.00    -0.383 N 
ATOM     21 2H14 UNL     1     -31.651  27.677   3.019  1.00  0.00     0.157 HD
ATOM     22 1H14 UNL     1     -33.167  26.862   2.637  1.00  0.00     0.157 HD
ENDBRANCH  13  20
ENDBRANCH   7   8
BRANCH   7  23
HETATM   23  C4  UNL     1     -28.790  23.117  -0.750  1.00  0.00     0.033 C 
BRANCH  23  24
HETATM   24  C5  UNL     1     -27.726  23.521  -1.672  1.00  0.00     0.029 C 
BRANCH  24  25
HETATM   25  C6  UNL     1     -27.608  22.862  -2.982  1.00  0.00     0.230 C 
BRANCH  25  26
HETATM   26  N3  UNL     1     -27.970  21.425  -2.872  1.00  0.00    -0.079 N 
ATOM     27  H33 UNL     1     -27.528  20.982  -2.066  1.00  0.00     0.274 HD
ATOM     28  H32 UNL     1     -28.945  21.299  -2.598  1.00  0.00     0.274 HD
ATOM     29  H31 UNL     1     -27.753  20.937  -3.740  1.00  0.00     0.274 HD
ENDBRANCH  25  26
ENDBRANCH  24  25
ENDBRANCH  23  24
ENDBRANCH   7  23
ENDBRANCH   4   7
ENDBRANCH   2   3
ENDBRANCH   1   2
BRANCH   1  30
HETATM   30  O2  UNL     1     -33.494  25.541  -2.057  1.00  0.00    -0.395 OA
ATOM     31  H2  UNL     1     -33.051  26.378  -2.135  1.00  0.00     0.210 HD
ENDBRANCH   1  30
BRANCH   1  32
HETATM   32  C10 UNL     1     -34.927  24.446  -3.646  1.00  0.00     0.070 C 
BRANCH  32  33
HETATM   33  C11 UNL     1     -36.021  25.004  -2.836  1.00  0.00     0.172 C 
BRANCH  33  34
HETATM   34  O3  UNL     1     -35.955  24.544  -1.496  1.00  0.00    -0.389 OA
ATOM     35  H3  UNL     1     -36.519  25.055  -0.928  1.00  0.00     0.210 HD
ENDBRANCH  33  34
BRANCH  33  36
HETATM   36  C12 UNL     1     -37.368  24.682  -3.292  1.00  0.00     0.066 A 
HETATM   37  N5  UNL     1     -37.782  23.422  -3.347  1.00  0.00    -0.321 N 
HETATM   38  C13 UNL     1     -38.997  23.078  -3.733  1.00  0.00     0.273 A 
ATOM     39  H5  UNL     1     -37.130  22.685  -3.078  1.00  0.00     0.169 HD
HETATM   40  O4  UNL     1     -39.361  21.856  -3.772  1.00  0.00    -0.266 OA
HETATM   41  C14 UNL     1     -39.920  24.017  -4.106  1.00  0.00     0.116 A 
HETATM   42  N6  UNL     1     -41.140  23.603  -4.528  1.00  0.00    -0.347 N 
HETATM   43  C18 UNL     1     -39.552  25.371  -4.072  1.00  0.00     0.053 A 
HETATM   44  C15 UNL     1     -42.023  24.506  -4.926  1.00  0.00     0.181 A 
ATOM     45  H6  UNL     1     -41.375  22.610  -4.539  1.00  0.00     0.167 HD
HETATM   46  N7  UNL     1     -41.710  25.788  -4.905  1.00  0.00    -0.348 N 
HETATM   47  C16 UNL     1     -40.475  26.285  -4.481  1.00  0.00     0.095 A 
ATOM     48  H7  UNL     1     -42.413  26.457  -5.218  1.00  0.00     0.167 HD
HETATM   49  C17 UNL     1     -40.292  27.708  -4.547  1.00  0.00     0.165 A 
HETATM   50  N8  UNL     1     -39.547  28.688  -4.209  1.00  0.00    -0.267 N 
HETATM   51  N11 UNL     1     -41.228  28.387  -5.357  1.00  0.00    -0.267 N 
HETATM   52  N9  UNL     1     -39.880  29.855  -4.685  1.00  0.00    -0.227 N 
ATOM     53  H8  UNL     1     -38.737  28.565  -3.602  1.00  0.00     0.190 HD
HETATM   54  N10 UNL     1     -40.964  29.650  -5.422  1.00  0.00    -0.227 N 
ATOM     55  H9  UNL     1     -39.405  30.743  -4.523  1.00  0.00     0.210 HD
ATOM     56  H10 UNL     1     -41.489  30.354  -5.942  1.00  0.00     0.210 HD
ATOM     57  H11 UNL     1     -42.012  27.938  -5.830  1.00  0.00     0.190 HD
HETATM   58  C19 UNL     1     -38.293  25.676  -3.669  1.00  0.00     0.086 A 
HETATM   59  N12 UNL     1     -37.750  26.946  -3.623  1.00  0.00    -0.099 NA
ENDBRANCH  33  36
ENDBRANCH  32  33
ENDBRANCH   1  32
TORSDOF 15
ENDMDL
MODEL 5
REMARK VINA RESULT: -8.560930320      4.505      6.109
REMARK  15 active torsions:
REMARK  status: ('A' for Active; 'I' for Inactive)
REMARK    1  A    between atoms: N1_1  and  C1_4 
REMARK    2  A    between atoms: C2_7  and  C3_8 
REMARK    3  A    between atoms: C3_8  and  C4_9 
REMARK    4  A    between atoms: C3_8  and  N4_16 
REMARK    5  A    between atoms: C4_9  and  C5_10 
REMARK    6  A    between atoms: C5_10  and  C6_11 
REMARK    7  A    between atoms: C6_11  and  N3_12 
REMARK       I    between atoms: N4_16  and  C7_18 
REMARK    8  A    between atoms: C7_18  and  C8_20 
REMARK    9  A    between atoms: C8_20  and  C9_21 
REMARK   10  A    between atoms: C9_21  and  O2_22 
REMARK   11  A    between atoms: C9_21  and  C10_24 
REMARK   12  A    between atoms: C10_24  and  C11_25 
REMARK   13  A    between atoms: C11_25  and  O3_26 
REMARK   14  A    between atoms: C11_25  and  C12_28 
REMARK   15  A    between atoms: C21_54  and  N14_55 
ROOT
HETATM    1  C9  UNL     1     -35.011  29.450  -4.270  1.00  0.00     0.129 C 
ENDROOT
BRANCH   1   2
HETATM    2  C8  UNL     1     -33.622  29.931  -4.086  1.00  0.00     0.134 C 
BRANCH   2   3
HETATM    3  C7  UNL     1     -32.718  28.763  -4.221  1.00  0.00     0.220 C 
HETATM    4  N4  UNL     1     -32.843  27.792  -5.257  1.00  0.00    -0.351 N 
ATOM      5  H4  UNL     1     -33.583  27.897  -5.951  1.00  0.00     0.163 HD
HETATM    6  O1  UNL     1     -31.786  28.598  -3.398  1.00  0.00    -0.274 OA
BRANCH   4   7
HETATM    7  C3  UNL     1     -31.932  26.645  -5.350  1.00  0.00     0.137 C 
BRANCH   7   8
HETATM    8  C2  UNL     1     -32.428  25.468  -4.707  1.00  0.00     0.077 A 
HETATM    9  N2  UNL     1     -33.637  24.860  -4.867  1.00  0.00    -0.192 N 
HETATM   10  C1  UNL     1     -34.053  23.818  -4.144  1.00  0.00     0.677 A 
ATOM     11  H2  UNL     1     -34.263  25.224  -5.585  1.00  0.00     0.184 HD
HETATM   12  N15 UNL     1     -33.282  23.271  -3.166  1.00  0.00    -0.175 N 
HETATM   13  C21 UNL     1     -32.061  23.819  -2.942  1.00  0.00     0.141 A 
ATOM     14  H15 UNL     1     -33.609  22.475  -2.619  1.00  0.00     0.186 HD
HETATM   15  C20 UNL     1     -31.655  24.878  -3.689  1.00  0.00     0.115 A 
HETATM   16  N13 UNL     1     -30.368  25.437  -3.424  1.00  0.00    -0.096 NA
BRANCH  10  17
HETATM   17  N1  UNL     1     -35.207  23.248  -4.306  1.00  0.00    -0.234 N 
ATOM     18  H12 UNL     1     -35.940  23.863  -4.660  1.00  0.00     0.174 HD
ATOM     19  H11 UNL     1     -35.383  22.265  -4.102  1.00  0.00     0.174 HD
ENDBRANCH  10  17
BRANCH  13  20
HETATM   20  N14 UNL     1     -31.355  23.290  -2.013  1.00  0.00    -0.383 N 
ATOM     21 2H14 UNL     1     -30.429  23.687  -1.859  1.00  0.00     0.157 HD
ATOM     22 1H14 UNL     1     -31.669  22.507  -1.437  1.00  0.00     0.157 HD
ENDBRANCH  13  20
ENDBRANCH   7   8
BRANCH   7  23
HETATM   23  C4  UNL     1     -31.509  26.582  -6.775  1.00  0.00     0.033 C 
BRANCH  23  24
HETATM   24  C5  UNL     1     -30.301  25.840  -7.143  1.00  0.00     0.029 C 
BRANCH  24  25
HETATM   25  C6  UNL     1     -30.423  24.501  -7.739  1.00  0.00     0.230 C 
BRANCH  25  26
HETATM   26  N3  UNL     1     -31.800  24.287  -8.254  1.00  0.00    -0.079 N 
ATOM     27  H33 UNL     1     -32.286  25.169  -8.418  1.00  0.00     0.274 HD
ATOM     28  H32 UNL     1     -31.797  23.935  -9.212  1.00  0.00     0.274 HD
ATOM     29  H31 UNL     1     -32.323  23.677  -7.627  1.00  0.00     0.274 HD
ENDBRANCH  25  26
ENDBRANCH  24  25
ENDBRANCH  23  24
ENDBRANCH   7  23
ENDBRANCH   4   7
ENDBRANCH   2   3
ENDBRANCH   1   2
BRANCH   1  30
HETATM   30  O2  UNL     1     -35.782  30.272  -5.098  1.00  0.00    -0.395 OA
ATOM     31  H2  UNL     1     -36.624  30.505  -4.724  1.00  0.00     0.210 HD
ENDBRANCH   1  30
BRANCH   1  32
HETATM   32  C10 UNL     1     -35.759  29.034  -3.038  1.00  0.00     0.070 C 
BRANCH  32  33
HETATM   33  C11 UNL     1     -36.349  27.688  -3.034  1.00  0.00     0.172 C 
BRANCH  33  34
HETATM   34  O3  UNL     1     -35.530  26.765  -3.733  1.00  0.00    -0.389 OA
ATOM     35  H3  UNL     1     -35.727  25.870  -3.481  1.00  0.00     0.210 HD
ENDBRANCH  33  34
BRANCH  33  36
HETATM   36  C12 UNL     1     -37.669  27.577  -3.646  1.00  0.00     0.066 A 
HETATM   37  N5  UNL     1     -38.257  28.638  -4.184  1.00  0.00    -0.321 N 
HETATM   38  C13 UNL     1     -39.441  28.588  -4.767  1.00  0.00     0.273 A 
ATOM     39  H5  UNL     1     -37.772  29.534  -4.145  1.00  0.00     0.169 HD
HETATM   40  O4  UNL     1     -39.975  29.629  -5.275  1.00  0.00    -0.266 OA
HETATM   41  C14 UNL     1     -40.144  27.418  -4.854  1.00  0.00     0.116 A 
HETATM   42  N6  UNL     1     -41.371  27.434  -5.432  1.00  0.00    -0.347 N 
HETATM   43  C18 UNL     1     -39.583  26.254  -4.307  1.00  0.00     0.053 A 
HETATM   44  C15 UNL     1     -42.071  26.312  -5.484  1.00  0.00     0.181 A 
ATOM     45  H6  UNL     1     -41.749  28.298  -5.821  1.00  0.00     0.167 HD
HETATM   46  N7  UNL     1     -41.573  25.199  -4.980  1.00  0.00    -0.348 N 
HETATM   47  C16 UNL     1     -40.317  25.109  -4.373  1.00  0.00     0.095 A 
ATOM     48  H7  UNL     1     -42.138  24.352  -5.036  1.00  0.00     0.167 HD
HETATM   49  C17 UNL     1     -39.938  23.824  -3.854  1.00  0.00     0.165 A 
HETATM   50  N8  UNL     1     -38.984  23.123  -3.379  1.00  0.00    -0.267 N 
HETATM   51  N11 UNL     1     -41.006  22.913  -3.697  1.00  0.00    -0.267 N 
HETATM   52  N9  UNL     1     -39.300  21.931  -2.957  1.00  0.00    -0.227 N 
ATOM     53  H8  UNL     1     -38.028  23.476  -3.332  1.00  0.00     0.190 HD
HETATM   54  N10 UNL     1     -40.604  21.806  -3.167  1.00  0.00    -0.227 N 
ATOM     55  H9  UNL     1     -38.673  21.237  -2.549  1.00  0.00     0.210 HD
ATOM     56  H10 UNL     1     -41.180  20.992  -2.951  1.00  0.00     0.210 HD
ATOM     57  H11 UNL     1     -41.971  23.105  -3.967  1.00  0.00     0.190 HD
HETATM   58  C19 UNL     1     -38.366  26.354  -3.717  1.00  0.00     0.086 A 
HETATM   59  N12 UNL     1     -37.691  25.326  -3.088  1.00  0.00    -0.099 NA
ENDBRANCH  33  36
ENDBRANCH  32  33
ENDBRANCH   1  32
TORSDOF 15
ENDMDL
