MODEL 1
REMARK VINA RESULT: -8.595942653      0.000      0.000
REMARK  16 active torsions:
REMARK  status: ('A' for Active; 'I' for Inactive)
REMARK       I    between atoms: N1_1  and  C1_5 
REMARK       I    between atoms: C1_5  and  N2_6 
REMARK       I    between atoms: C1_5  and  N3_10 
REMARK    1  A    between atoms: C4_17  and  O2_18 
REMARK    2  A    between atoms: C5_20  and  N5_21 
REMARK    3  A    between atoms: N5_21  and  C6_23 
REMARK    4  A    between atoms: C6_23  and  O3_24 
REMARK    5  A    between atoms: C6_23  and  C7_26 
REMARK    6  A    between atoms: C10_29  and  O4_30 
REMARK    7  A    between atoms: N7_36  and  C12_37 
REMARK    8  A    between atoms: C12_37  and  C13_38 
REMARK    9  A    between atoms: C13_38  and  O6_39 
REMARK   10  A    between atoms: C13_38  and  C14_41 
REMARK       I    between atoms: C14_41  and  N8_43 
REMARK   11  A    between atoms: N8_43  and  C15_45 
REMARK   12  A    between atoms: C15_45  and  C16_46 
REMARK   13  A    between atoms: C15_45  and  C23_53 
REMARK   14  A    between atoms: C16_46  and  C17_47 
REMARK   15  A    between atoms: C23_53  and  O8_54 
REMARK   16  A    between atoms: C23_53  and  O9_56 
ROOT
HETATM    1  N1  UNL     1     -47.434  22.047  -5.127  1.00  0.00    -0.033 N 
ATOM      2  H11 UNL     1     -47.473  22.640  -4.299  1.00  0.00     0.278 HD
ATOM      3  H12 UNL     1     -46.867  21.214  -4.972  1.00  0.00     0.278 HD
ATOM      4  H13 UNL     1     -48.327  21.589  -5.309  1.00  0.00     0.278 HD
HETATM    5  C1  UNL     1     -46.969  22.816  -6.284  1.00  0.00     0.481 C 
HETATM    6  N2  UNL     1     -46.915  21.973  -7.461  1.00  0.00    -0.033 N 
ATOM      7  H21 UNL     1     -46.591  22.508  -8.267  1.00  0.00     0.278 HD
ATOM      8  H22 UNL     1     -47.808  21.515  -7.643  1.00  0.00     0.278 HD
ATOM      9  H23 UNL     1     -46.347  21.140  -7.306  1.00  0.00     0.278 HD
HETATM   10  N3  UNL     1     -45.833  23.544  -5.965  1.00  0.00    -0.322 N 
ATOM     11  H3  UNL     1     -45.977  24.523  -6.215  1.00  0.00     0.165 HD
HETATM   12  C2  UNL     1     -44.710  23.406  -5.483  1.00  0.00     0.179 C 
HETATM   13  C3  UNL     1     -44.309  22.151  -5.076  1.00  0.00     0.291 C 
HETATM   14  O1  UNL     1     -44.688  21.142  -5.706  1.00  0.00    -0.264 OA
HETATM   15  N4  UNL     1     -43.504  21.829  -4.012  1.00  0.00    -0.299 N 
ATOM     16  H4  UNL     1     -43.489  20.848  -3.735  1.00  0.00     0.171 HD
HETATM   17  C4  UNL     1     -42.719  22.680  -3.283  1.00  0.00     0.175 C 
HETATM   18  C5  UNL     1     -42.222  23.874  -3.767  1.00  0.00     0.151 C 
HETATM   19  C11 UNL     1     -42.886  24.723  -4.652  1.00  0.00     0.280 C 
HETATM   20  O5  UNL     1     -42.335  25.848  -4.745  1.00  0.00    -0.265 OA
HETATM   21  N7  UNL     1     -43.983  24.566  -5.409  1.00  0.00    -0.291 N 
ENDROOT
BRANCH  21  22
HETATM   22  C12 UNL     1     -44.403  25.710  -6.169  1.00  0.00     0.175 C 
BRANCH  22  23
HETATM   23  C13 UNL     1     -43.914  25.710  -7.598  1.00  0.00     0.228 C 
BRANCH  23  24
HETATM   24  O6  UNL     1     -44.932  25.887  -8.501  1.00  0.00    -0.384 OA
ATOM     25  H6  UNL     1     -44.640  26.311  -9.299  1.00  0.00     0.210 HD
ENDBRANCH  23  24
BRANCH  23  26
HETATM   26  C14 UNL     1     -42.964  26.851  -7.731  1.00  0.00     0.248 C 
HETATM   27  O7  UNL     1     -43.375  28.035  -7.759  1.00  0.00    -0.271 OA
HETATM   28  N8  UNL     1     -41.566  26.635  -7.832  1.00  0.00    -0.349 N 
ATOM     29  H8  UNL     1     -41.227  25.674  -7.814  1.00  0.00     0.163 HD
BRANCH  28  30
HETATM   30  C15 UNL     1     -40.582  27.704  -7.959  1.00  0.00     0.143 C 
BRANCH  30  31
HETATM   31  C16 UNL     1     -40.060  27.628  -9.349  1.00  0.00     0.068 C 
BRANCH  31  32
HETATM   32  C17 UNL     1     -40.903  28.180 -10.414  1.00  0.00    -0.056 A 
HETATM   33  C18 UNL     1     -41.424  29.462 -10.391  1.00  0.00     0.007 A 
HETATM   34  C19 UNL     1     -42.218  29.959 -11.397  1.00  0.00     0.001 A 
HETATM   35  C20 UNL     1     -42.497  29.128 -12.468  1.00  0.00     0.000 A 
HETATM   36  C21 UNL     1     -42.004  27.848 -12.535  1.00  0.00     0.001 A 
HETATM   37  C22 UNL     1     -41.212  27.390 -11.506  1.00  0.00     0.007 A 
ENDBRANCH  31  32
ENDBRANCH  30  31
BRANCH  30  38
HETATM   38  C23 UNL     1     -39.571  27.645  -6.871  1.00  0.00     0.276 C 
BRANCH  38  39
HETATM   39  O8  UNL     1     -40.144  27.445  -5.612  1.00  0.00    -0.369 OA
ATOM     40  H8  UNL     1     -40.220  28.249  -5.111  1.00  0.00     0.212 HD
ENDBRANCH  38  39
BRANCH  38  41
HETATM   41  O9  UNL     1     -38.603  26.671  -7.054  1.00  0.00    -0.369 OA
ATOM     42  H9  UNL     1     -38.455  26.126  -6.290  1.00  0.00     0.212 HD
ENDBRANCH  38  41
ENDBRANCH  30  38
ENDBRANCH  28  30
ENDBRANCH  23  26
ENDBRANCH  22  23
ENDBRANCH  21  22
BRANCH  18  43
HETATM   43  N5  UNL     1     -40.948  24.257  -3.334  1.00  0.00    -0.351 N 
ATOM     44  H5  UNL     1     -40.898  24.798  -2.471  1.00  0.00     0.163 HD
BRANCH  43  45
HETATM   45  C6  UNL     1     -39.721  23.967  -3.978  1.00  0.00     0.269 C 
BRANCH  45  46
HETATM   46  O3  UNL     1     -39.570  24.553  -5.244  1.00  0.00    -0.371 OA
ATOM     47  H3  UNL     1     -40.022  24.100  -5.947  1.00  0.00     0.212 HD
ENDBRANCH  45  46
BRANCH  45  48
HETATM   48  C7  UNL     1     -38.592  24.560  -3.154  1.00  0.00     0.060 A 
HETATM   49  C8  UNL     1     -38.511  25.901  -2.842  1.00  0.00     0.034 A 
HETATM   50  C9  UNL     1     -37.346  26.067  -2.085  1.00  0.00     0.058 A 
HETATM   51  C10 UNL     1     -36.766  24.821  -1.966  1.00  0.00     0.140 A 
HETATM   52  N6  UNL     1     -37.534  23.938  -2.615  1.00  0.00    -0.337 N 
ATOM     53  H6  UNL     1     -37.343  22.938  -2.690  1.00  0.00     0.168 HD
BRANCH  51  54
HETATM   54  O4  UNL     1     -35.597  24.536  -1.293  1.00  0.00    -0.346 OA
ATOM     55  H4  UNL     1     -34.983  23.844  -1.511  1.00  0.00     0.219 HD
ENDBRANCH  51  54
ENDBRANCH  45  48
ENDBRANCH  43  45
ENDBRANCH  18  43
BRANCH  17  56
HETATM   56  O2  UNL     1     -42.412  22.325  -1.990  1.00  0.00    -0.344 OA
ATOM     57  H2  UNL     1     -42.495  22.988  -1.314  1.00  0.00     0.219 HD
ENDBRANCH  17  56
TORSDOF 16
ENDMDL
MODEL 2
REMARK VINA RESULT: -8.393010120      2.125      5.832
REMARK  16 active torsions:
REMARK  status: ('A' for Active; 'I' for Inactive)
REMARK       I    between atoms: N1_1  and  C1_5 
REMARK       I    between atoms: C1_5  and  N2_6 
REMARK       I    between atoms: C1_5  and  N3_10 
REMARK    1  A    between atoms: C4_17  and  O2_18 
REMARK    2  A    between atoms: C5_20  and  N5_21 
REMARK    3  A    between atoms: N5_21  and  C6_23 
REMARK    4  A    between atoms: C6_23  and  O3_24 
REMARK    5  A    between atoms: C6_23  and  C7_26 
REMARK    6  A    between atoms: C10_29  and  O4_30 
REMARK    7  A    between atoms: N7_36  and  C12_37 
REMARK    8  A    between atoms: C12_37  and  C13_38 
REMARK    9  A    between atoms: C13_38  and  O6_39 
REMARK   10  A    between atoms: C13_38  and  C14_41 
REMARK       I    between atoms: C14_41  and  N8_43 
REMARK   11  A    between atoms: N8_43  and  C15_45 
REMARK   12  A    between atoms: C15_45  and  C16_46 
REMARK   13  A    between atoms: C15_45  and  C23_53 
REMARK   14  A    between atoms: C16_46  and  C17_47 
REMARK   15  A    between atoms: C23_53  and  O8_54 
REMARK   16  A    between atoms: C23_53  and  O9_56 
ROOT
HETATM    1  N1  UNL     1     -38.341  27.789  -5.664  1.00  0.00    -0.033 N 
ATOM      2  H11 UNL     1     -38.383  27.072  -6.388  1.00  0.00     0.278 HD
ATOM      3  H12 UNL     1     -38.150  27.390  -4.745  1.00  0.00     0.278 HD
ATOM      4  H13 UNL     1     -37.508  28.370  -5.753  1.00  0.00     0.278 HD
HETATM    5  C1  UNL     1     -39.567  28.589  -5.668  1.00  0.00     0.481 C 
HETATM    6  N2  UNL     1     -39.508  29.608  -4.639  1.00  0.00    -0.033 N 
ATOM      7  H21 UNL     1     -40.361  30.166  -4.642  1.00  0.00     0.278 HD
ATOM      8  H22 UNL     1     -38.674  30.190  -4.727  1.00  0.00     0.278 HD
ATOM      9  H23 UNL     1     -39.316  29.210  -3.720  1.00  0.00     0.278 HD
HETATM   10  N3  UNL     1     -40.688  27.772  -5.694  1.00  0.00    -0.322 N 
ATOM     11  H3  UNL     1     -41.295  28.055  -6.464  1.00  0.00     0.165 HD
HETATM   12  C2  UNL     1     -41.195  26.821  -5.102  1.00  0.00     0.179 C 
HETATM   13  C3  UNL     1     -40.531  26.280  -4.020  1.00  0.00     0.291 C 
HETATM   14  O1  UNL     1     -39.869  27.019  -3.263  1.00  0.00    -0.264 OA
HETATM   15  N4  UNL     1     -40.491  24.964  -3.631  1.00  0.00    -0.299 N 
ATOM     16  H4  UNL     1     -39.784  24.717  -2.940  1.00  0.00     0.171 HD
HETATM   17  C4  UNL     1     -41.296  23.949  -4.069  1.00  0.00     0.175 C 
HETATM   18  C5  UNL     1     -42.566  24.137  -4.580  1.00  0.00     0.151 C 
HETATM   19  C11 UNL     1     -42.968  25.226  -5.353  1.00  0.00     0.280 C 
HETATM   20  O5  UNL     1     -44.087  25.045  -5.895  1.00  0.00    -0.265 OA
HETATM   21  N7  UNL     1     -42.395  26.410  -5.621  1.00  0.00    -0.291 N 
ENDROOT
BRANCH  21  22
HETATM   22  C12 UNL     1     -43.104  27.272  -6.525  1.00  0.00     0.175 C 
BRANCH  22  23
HETATM   23  C13 UNL     1     -43.093  26.798  -7.959  1.00  0.00     0.228 C 
BRANCH  23  24
HETATM   24  O6  UNL     1     -44.295  27.000  -8.588  1.00  0.00    -0.384 OA
ATOM     25  H6  UNL     1     -44.236  27.637  -9.290  1.00  0.00     0.210 HD
ENDBRANCH  23  24
BRANCH  23  26
HETATM   26  C14 UNL     1     -42.051  27.593  -8.671  1.00  0.00     0.248 C 
HETATM   27  O7  UNL     1     -42.026  28.844  -8.591  1.00  0.00    -0.271 OA
HETATM   28  N8  UNL     1     -41.057  26.962  -9.460  1.00  0.00    -0.349 N 
ATOM     29  H8  UNL     1     -41.076  25.945  -9.531  1.00  0.00     0.163 HD
BRANCH  28  30
HETATM   30  C15 UNL     1     -40.008  27.678 -10.178  1.00  0.00     0.143 C 
BRANCH  30  31
HETATM   31  C16 UNL     1     -40.310  27.523 -11.624  1.00  0.00     0.068 C 
BRANCH  31  32
HETATM   32  C17 UNL     1     -41.519  28.180 -12.132  1.00  0.00    -0.056 A 
HETATM   33  C18 UNL     1     -42.579  27.497 -12.701  1.00  0.00     0.007 A 
HETATM   34  C19 UNL     1     -43.703  28.132 -13.177  1.00  0.00     0.001 A 
HETATM   35  C20 UNL     1     -43.756  29.511 -13.073  1.00  0.00     0.000 A 
HETATM   36  C21 UNL     1     -42.728  30.232 -12.516  1.00  0.00     0.001 A 
HETATM   37  C22 UNL     1     -41.621  29.556 -12.051  1.00  0.00     0.007 A 
ENDBRANCH  31  32
ENDBRANCH  30  31
BRANCH  30  38
HETATM   38  C23 UNL     1     -38.655  27.246  -9.737  1.00  0.00     0.276 C 
BRANCH  38  39
HETATM   39  O8  UNL     1     -38.682  26.525  -8.539  1.00  0.00    -0.369 OA
ATOM     40  H8  UNL     1     -39.566  26.354  -8.234  1.00  0.00     0.212 HD
ENDBRANCH  38  39
BRANCH  38  41
HETATM   41  O9  UNL     1     -37.975  26.484 -10.672  1.00  0.00    -0.369 OA
ATOM     42  H9  UNL     1     -37.721  25.624 -10.359  1.00  0.00     0.212 HD
ENDBRANCH  38  41
ENDBRANCH  30  38
ENDBRANCH  28  30
ENDBRANCH  23  26
ENDBRANCH  22  23
ENDBRANCH  21  22
BRANCH  18  43
HETATM   43  N5  UNL     1     -43.521  23.156  -4.294  1.00  0.00    -0.351 N 
ATOM     44  H5  UNL     1     -44.234  23.394  -3.605  1.00  0.00     0.163 HD
BRANCH  43  45
HETATM   45  C6  UNL     1     -43.594  21.865  -4.869  1.00  0.00     0.269 C 
BRANCH  45  46
HETATM   46  O3  UNL     1     -43.591  20.810  -3.943  1.00  0.00    -0.371 OA
ATOM     47  H3  UNL     1     -44.315  20.201  -4.033  1.00  0.00     0.212 HD
ENDBRANCH  45  46
BRANCH  45  48
HETATM   48  C7  UNL     1     -44.926  21.731  -5.585  1.00  0.00     0.060 A 
HETATM   49  C8  UNL     1     -46.093  22.299  -5.119  1.00  0.00     0.034 A 
HETATM   50  C9  UNL     1     -47.097  21.958  -6.031  1.00  0.00     0.058 A 
HETATM   51  C10 UNL     1     -46.502  21.196  -7.015  1.00  0.00     0.140 A 
HETATM   52  N6  UNL     1     -45.201  21.076  -6.722  1.00  0.00    -0.337 N 
ATOM     53  H6  UNL     1     -44.520  20.563  -7.282  1.00  0.00     0.168 HD
BRANCH  51  54
HETATM   54  O4  UNL     1     -47.139  20.653  -8.111  1.00  0.00    -0.346 OA
ATOM     55  H4  UNL     1     -46.922  20.823  -9.020  1.00  0.00     0.219 HD
ENDBRANCH  51  54
ENDBRANCH  45  48
ENDBRANCH  43  45
ENDBRANCH  18  43
BRANCH  17  56
HETATM   56  O2  UNL     1     -40.810  22.664  -3.997  1.00  0.00    -0.344 OA
ATOM     57  H2  UNL     1     -39.933  22.501  -4.324  1.00  0.00     0.219 HD
ENDBRANCH  17  56
TORSDOF 16
ENDMDL
MODEL 3
REMARK VINA RESULT: -8.382682166      1.068      1.140
REMARK  16 active torsions:
REMARK  status: ('A' for Active; 'I' for Inactive)
REMARK       I    between atoms: N1_1  and  C1_5 
REMARK       I    between atoms: C1_5  and  N2_6 
REMARK       I    between atoms: C1_5  and  N3_10 
REMARK    1  A    between atoms: C4_17  and  O2_18 
REMARK    2  A    between atoms: C5_20  and  N5_21 
REMARK    3  A    between atoms: N5_21  and  C6_23 
REMARK    4  A    between atoms: C6_23  and  O3_24 
REMARK    5  A    between atoms: C6_23  and  C7_26 
REMARK    6  A    between atoms: C10_29  and  O4_30 
REMARK    7  A    between atoms: N7_36  and  C12_37 
REMARK    8  A    between atoms: C12_37  and  C13_38 
REMARK    9  A    between atoms: C13_38  and  O6_39 
REMARK   10  A    between atoms: C13_38  and  C14_41 
REMARK       I    between atoms: C14_41  and  N8_43 
REMARK   11  A    between atoms: N8_43  and  C15_45 
REMARK   12  A    between atoms: C15_45  and  C16_46 
REMARK   13  A    between atoms: C15_45  and  C23_53 
REMARK   14  A    between atoms: C16_46  and  C17_47 
REMARK   15  A    between atoms: C23_53  and  O8_54 
REMARK   16  A    between atoms: C23_53  and  O9_56 
ROOT
HETATM    1  N1  UNL     1     -47.414  22.067  -5.181  1.00  0.00    -0.033 N 
ATOM      2  H11 UNL     1     -47.453  22.604  -4.314  1.00  0.00     0.278 HD
ATOM      3  H12 UNL     1     -46.923  21.182  -5.058  1.00  0.00     0.278 HD
ATOM      4  H13 UNL     1     -48.329  21.698  -5.440  1.00  0.00     0.278 HD
HETATM    5  C1  UNL     1     -46.827  22.873  -6.254  1.00  0.00     0.481 C 
HETATM    6  N2  UNL     1     -46.773  22.110  -7.485  1.00  0.00    -0.033 N 
ATOM      7  H21 UNL     1     -46.364  22.671  -8.232  1.00  0.00     0.278 HD
ATOM      8  H22 UNL     1     -47.687  21.741  -7.744  1.00  0.00     0.278 HD
ATOM      9  H23 UNL     1     -46.282  21.225  -7.362  1.00  0.00     0.278 HD
HETATM   10  N3  UNL     1     -45.656  23.482  -5.826  1.00  0.00    -0.322 N 
ATOM     11  H3  UNL     1     -45.710  24.484  -6.011  1.00  0.00     0.165 HD
HETATM   12  C2  UNL     1     -44.576  23.220  -5.300  1.00  0.00     0.179 C 
HETATM   13  C3  UNL     1     -44.298  21.911  -4.965  1.00  0.00     0.291 C 
HETATM   14  O1  UNL     1     -44.719  20.982  -5.685  1.00  0.00    -0.264 OA
HETATM   15  N4  UNL     1     -43.581  21.453  -3.888  1.00  0.00    -0.299 N 
ATOM     16  H4  UNL     1     -43.659  20.457  -3.683  1.00  0.00     0.171 HD
HETATM   17  C4  UNL     1     -42.775  22.185  -3.061  1.00  0.00     0.175 C 
HETATM   18  C5  UNL     1     -42.159  23.364  -3.432  1.00  0.00     0.151 C 
HETATM   19  C11 UNL     1     -42.704  24.323  -4.285  1.00  0.00     0.280 C 
HETATM   20  O5  UNL     1     -42.063  25.403  -4.269  1.00  0.00    -0.265 OA
HETATM   21  N7  UNL     1     -43.766  24.309  -5.106  1.00  0.00    -0.291 N 
ENDROOT
BRANCH  21  22
HETATM   22  C12 UNL     1     -44.053  25.532  -5.801  1.00  0.00     0.175 C 
BRANCH  22  23
HETATM   23  C13 UNL     1     -43.487  25.589  -7.201  1.00  0.00     0.228 C 
BRANCH  23  24
HETATM   24  O6  UNL     1     -44.464  25.696  -8.158  1.00  0.00    -0.384 OA
ATOM     25  H6  UNL     1     -44.169  26.168  -8.927  1.00  0.00     0.210 HD
ENDBRANCH  23  24
BRANCH  23  26
HETATM   26  C14 UNL     1     -42.625  26.804  -7.271  1.00  0.00     0.248 C 
HETATM   27  O7  UNL     1     -42.941  27.857  -6.666  1.00  0.00    -0.271 OA
HETATM   28  N8  UNL     1     -41.423  26.810  -8.022  1.00  0.00    -0.349 N 
ATOM     29  H8  UNL     1     -41.165  25.958  -8.518  1.00  0.00     0.163 HD
BRANCH  28  30
HETATM   30  C15 UNL     1     -40.533  27.961  -8.129  1.00  0.00     0.143 C 
BRANCH  30  31
HETATM   31  C16 UNL     1     -40.043  27.981  -9.532  1.00  0.00     0.068 C 
BRANCH  31  32
HETATM   32  C17 UNL     1     -41.047  28.121 -10.592  1.00  0.00    -0.056 A 
HETATM   33  C18 UNL     1     -42.033  29.091 -10.588  1.00  0.00     0.007 A 
HETATM   34  C19 UNL     1     -42.971  29.202 -11.588  1.00  0.00     0.001 A 
HETATM   35  C20 UNL     1     -42.909  28.296 -12.632  1.00  0.00     0.000 A 
HETATM   36  C21 UNL     1     -41.949  27.315 -12.679  1.00  0.00     0.001 A 
HETATM   37  C22 UNL     1     -41.029  27.239 -11.657  1.00  0.00     0.007 A 
ENDBRANCH  31  32
ENDBRANCH  30  31
BRANCH  30  38
HETATM   38  C23 UNL     1     -39.492  27.943  -7.068  1.00  0.00     0.276 C 
BRANCH  38  39
HETATM   39  O8  UNL     1     -40.026  28.092  -5.785  1.00  0.00    -0.369 OA
ATOM     40  H8  UNL     1     -40.897  28.471  -5.791  1.00  0.00     0.212 HD
ENDBRANCH  38  39
BRANCH  38  41
HETATM   41  O9  UNL     1     -38.707  26.802  -7.068  1.00  0.00    -0.369 OA
ATOM     42  H9  UNL     1     -38.618  26.394  -6.215  1.00  0.00     0.212 HD
ENDBRANCH  38  41
ENDBRANCH  30  38
ENDBRANCH  28  30
ENDBRANCH  23  26
ENDBRANCH  22  23
ENDBRANCH  21  22
BRANCH  18  43
HETATM   43  N5  UNL     1     -40.885  23.611  -2.909  1.00  0.00    -0.351 N 
ATOM     44  H5  UNL     1     -40.842  24.062  -1.995  1.00  0.00     0.163 HD
BRANCH  43  45
HETATM   45  C6  UNL     1     -39.650  23.296  -3.525  1.00  0.00     0.269 C 
BRANCH  45  46
HETATM   46  O3  UNL     1     -39.731  23.044  -4.904  1.00  0.00    -0.371 OA
ATOM     47  H3  UNL     1     -39.208  23.624  -5.444  1.00  0.00     0.212 HD
ENDBRANCH  45  46
BRANCH  45  48
HETATM   48  C7  UNL     1     -38.736  24.504  -3.418  1.00  0.00     0.060 A 
HETATM   49  C8  UNL     1     -37.714  24.597  -2.497  1.00  0.00     0.034 A 
HETATM   50  C9  UNL     1     -37.106  25.841  -2.698  1.00  0.00     0.058 A 
HETATM   51  C10 UNL     1     -37.782  26.455  -3.732  1.00  0.00     0.140 A 
HETATM   52  N6  UNL     1     -38.753  25.630  -4.144  1.00  0.00    -0.337 N 
ATOM     53  H6  UNL     1     -39.409  25.830  -4.900  1.00  0.00     0.168 HD
BRANCH  51  54
HETATM   54  O4  UNL     1     -37.503  27.701  -4.251  1.00  0.00    -0.346 OA
ATOM     55  H4  UNL     1     -38.009  28.152  -4.917  1.00  0.00     0.219 HD
ENDBRANCH  51  54
ENDBRANCH  45  48
ENDBRANCH  43  45
ENDBRANCH  18  43
BRANCH  17  56
HETATM   56  O2  UNL     1     -42.568  21.719  -1.783  1.00  0.00    -0.344 OA
ATOM     57  H2  UNL     1     -43.066  20.961  -1.500  1.00  0.00     0.219 HD
ENDBRANCH  17  56
TORSDOF 16
ENDMDL
MODEL 4
REMARK VINA RESULT: -8.377649825      1.805      2.070
REMARK  16 active torsions:
REMARK  status: ('A' for Active; 'I' for Inactive)
REMARK       I    between atoms: N1_1  and  C1_5 
REMARK       I    between atoms: C1_5  and  N2_6 
REMARK       I    between atoms: C1_5  and  N3_10 
REMARK    1  A    between atoms: C4_17  and  O2_18 
REMARK    2  A    between atoms: C5_20  and  N5_21 
REMARK    3  A    between atoms: N5_21  and  C6_23 
REMARK    4  A    between atoms: C6_23  and  O3_24 
REMARK    5  A    between atoms: C6_23  and  C7_26 
REMARK    6  A    between atoms: C10_29  and  O4_30 
REMARK    7  A    between atoms: N7_36  and  C12_37 
REMARK    8  A    between atoms: C12_37  and  C13_38 
REMARK    9  A    between atoms: C13_38  and  O6_39 
REMARK   10  A    between atoms: C13_38  and  C14_41 
REMARK       I    between atoms: C14_41  and  N8_43 
REMARK   11  A    between atoms: N8_43  and  C15_45 
REMARK   12  A    between atoms: C15_45  and  C16_46 
REMARK   13  A    between atoms: C15_45  and  C23_53 
REMARK   14  A    between atoms: C16_46  and  C17_47 
REMARK   15  A    between atoms: C23_53  and  O8_54 
REMARK   16  A    between atoms: C23_53  and  O9_56 
ROOT
HETATM    1  N1  UNL     1     -47.425  21.917  -5.218  1.00  0.00    -0.033 N 
ATOM      2  H11 UNL     1     -47.481  22.463  -4.358  1.00  0.00     0.278 HD
ATOM      3  H12 UNL     1     -46.934  21.035  -5.077  1.00  0.00     0.278 HD
ATOM      4  H13 UNL     1     -48.333  21.543  -5.490  1.00  0.00     0.278 HD
HETATM    5  C1  UNL     1     -46.820  22.714  -6.288  1.00  0.00     0.481 C 
HETATM    6  N2  UNL     1     -46.741  21.939  -7.510  1.00  0.00    -0.033 N 
ATOM      7  H21 UNL     1     -46.320  22.494  -8.255  1.00  0.00     0.278 HD
ATOM      8  H22 UNL     1     -47.650  21.564  -7.782  1.00  0.00     0.278 HD
ATOM      9  H23 UNL     1     -46.250  21.056  -7.369  1.00  0.00     0.278 HD
HETATM   10  N3  UNL     1     -45.659  23.331  -5.845  1.00  0.00    -0.322 N 
ATOM     11  H3  UNL     1     -45.712  24.331  -6.041  1.00  0.00     0.165 HD
HETATM   12  C2  UNL     1     -44.588  23.077  -5.296  1.00  0.00     0.179 C 
HETATM   13  C3  UNL     1     -44.313  21.773  -4.943  1.00  0.00     0.291 C 
HETATM   14  O1  UNL     1     -44.718  20.835  -5.661  1.00  0.00    -0.264 OA
HETATM   15  N4  UNL     1     -43.615  21.327  -3.849  1.00  0.00    -0.299 N 
ATOM     16  H4  UNL     1     -43.693  20.334  -3.634  1.00  0.00     0.171 HD
HETATM   17  C4  UNL     1     -42.826  22.070  -3.014  1.00  0.00     0.175 C 
HETATM   18  C5  UNL     1     -42.207  23.248  -3.385  1.00  0.00     0.151 C 
HETATM   19  C11 UNL     1     -42.739  24.196  -4.258  1.00  0.00     0.280 C 
HETATM   20  O5  UNL     1     -42.101  25.278  -4.241  1.00  0.00    -0.265 OA
HETATM   21  N7  UNL     1     -43.785  24.170  -5.098  1.00  0.00    -0.291 N 
ENDROOT
BRANCH  21  22
HETATM   22  C12 UNL     1     -44.062  25.386  -5.811  1.00  0.00     0.175 C 
BRANCH  22  23
HETATM   23  C13 UNL     1     -43.614  25.366  -7.254  1.00  0.00     0.228 C 
BRANCH  23  24
HETATM   24  O6  UNL     1     -44.667  25.425  -8.131  1.00  0.00    -0.384 OA
ATOM     25  H6  UNL     1     -44.944  24.565  -8.425  1.00  0.00     0.210 HD
ENDBRANCH  23  24
BRANCH  23  26
HETATM   26  C14 UNL     1     -42.763  26.573  -7.460  1.00  0.00     0.248 C 
HETATM   27  O7  UNL     1     -42.937  27.326  -8.447  1.00  0.00    -0.271 OA
HETATM   28  N8  UNL     1     -41.730  26.908  -6.548  1.00  0.00    -0.349 N 
ATOM     29  H8  UNL     1     -41.583  26.296  -5.746  1.00  0.00     0.163 HD
BRANCH  28  30
HETATM   30  C15 UNL     1     -40.865  28.074  -6.687  1.00  0.00     0.143 C 
BRANCH  30  31
HETATM   31  C16 UNL     1     -39.560  27.570  -7.189  1.00  0.00     0.068 C 
BRANCH  31  32
HETATM   32  C17 UNL     1     -39.182  27.932  -8.559  1.00  0.00    -0.056 A 
HETATM   33  C18 UNL     1     -38.794  27.010  -9.514  1.00  0.00     0.007 A 
HETATM   34  C19 UNL     1     -38.437  27.370 -10.793  1.00  0.00     0.001 A 
HETATM   35  C20 UNL     1     -38.474  28.715 -11.117  1.00  0.00     0.000 A 
HETATM   36  C21 UNL     1     -38.852  29.667 -10.202  1.00  0.00     0.001 A 
HETATM   37  C22 UNL     1     -39.202  29.263  -8.932  1.00  0.00     0.007 A 
ENDBRANCH  31  32
ENDBRANCH  30  31
BRANCH  30  38
HETATM   38  C23 UNL     1     -40.825  28.874  -5.434  1.00  0.00     0.276 C 
BRANCH  38  39
HETATM   39  O8  UNL     1     -41.008  28.093  -4.289  1.00  0.00    -0.369 OA
ATOM     40  H8  UNL     1     -40.946  28.598  -3.487  1.00  0.00     0.212 HD
ENDBRANCH  38  39
BRANCH  38  41
HETATM   41  O9  UNL     1     -39.658  29.600  -5.267  1.00  0.00    -0.369 OA
ATOM     42  H9  UNL     1     -39.422  29.749  -4.359  1.00  0.00     0.212 HD
ENDBRANCH  38  41
ENDBRANCH  30  38
ENDBRANCH  28  30
ENDBRANCH  23  26
ENDBRANCH  22  23
ENDBRANCH  21  22
BRANCH  18  43
HETATM   43  N5  UNL     1     -40.944  23.504  -2.841  1.00  0.00    -0.351 N 
ATOM     44  H5  UNL     1     -40.918  23.877  -1.892  1.00  0.00     0.163 HD
BRANCH  43  45
HETATM   45  C6  UNL     1     -39.697  23.295  -3.480  1.00  0.00     0.269 C 
BRANCH  45  46
HETATM   46  O3  UNL     1     -39.772  23.141  -4.874  1.00  0.00    -0.371 OA
ATOM     47  H3  UNL     1     -39.129  23.641  -5.362  1.00  0.00     0.212 HD
ENDBRANCH  45  46
BRANCH  45  48
HETATM   48  C7  UNL     1     -38.843  24.534  -3.285  1.00  0.00     0.060 A 
HETATM   49  C8  UNL     1     -37.676  24.538  -2.550  1.00  0.00     0.034 A 
HETATM   50  C9  UNL     1     -37.179  25.845  -2.593  1.00  0.00     0.058 A 
HETATM   51  C10 UNL     1     -38.063  26.584  -3.352  1.00  0.00     0.140 A 
HETATM   52  N6  UNL     1     -39.049  25.773  -3.754  1.00  0.00    -0.337 N 
ATOM     53  H6  UNL     1     -39.841  26.056  -4.332  1.00  0.00     0.168 HD
BRANCH  51  54
HETATM   54  O4  UNL     1     -37.947  27.926  -3.646  1.00  0.00    -0.346 OA
ATOM     55  H4  UNL     1     -37.539  28.583  -3.094  1.00  0.00     0.219 HD
ENDBRANCH  51  54
ENDBRANCH  45  48
ENDBRANCH  43  45
ENDBRANCH  18  43
BRANCH  17  56
HETATM   56  O2  UNL     1     -42.642  21.618  -1.728  1.00  0.00    -0.344 OA
ATOM     57  H2  UNL     1     -42.899  22.189  -1.014  1.00  0.00     0.219 HD
ENDBRANCH  17  56
TORSDOF 16
ENDMDL
MODEL 5
REMARK VINA RESULT: -8.337940908      3.469      8.376
REMARK  16 active torsions:
REMARK  status: ('A' for Active; 'I' for Inactive)
REMARK       I    between atoms: N1_1  and  C1_5 
REMARK       I    between atoms: C1_5  and  N2_6 
REMARK       I    between atoms: C1_5  and  N3_10 
REMARK    1  A    between atoms: C4_17  and  O2_18 
REMARK    2  A    between atoms: C5_20  and  N5_21 
REMARK    3  A    between atoms: N5_21  and  C6_23 
REMARK    4  A    between atoms: C6_23  and  O3_24 
REMARK    5  A    between atoms: C6_23  and  C7_26 
REMARK    6  A    between atoms: C10_29  and  O4_30 
REMARK    7  A    between atoms: N7_36  and  C12_37 
REMARK    8  A    between atoms: C12_37  and  C13_38 
REMARK    9  A    between atoms: C13_38  and  O6_39 
REMARK   10  A    between atoms: C13_38  and  C14_41 
REMARK       I    between atoms: C14_41  and  N8_43 
REMARK   11  A    between atoms: N8_43  and  C15_45 
REMARK   12  A    between atoms: C15_45  and  C16_46 
REMARK   13  A    between atoms: C15_45  and  C23_53 
REMARK   14  A    between atoms: C16_46  and  C17_47 
REMARK   15  A    between atoms: C23_53  and  O8_54 
REMARK   16  A    between atoms: C23_53  and  O9_56 
ROOT
HETATM    1  N1  UNL     1     -39.717  29.525  -4.376  1.00  0.00    -0.033 N 
ATOM      2  H11 UNL     1     -40.453  29.415  -3.678  1.00  0.00     0.278 HD
ATOM      3  H12 UNL     1     -40.084  29.481  -5.326  1.00  0.00     0.278 HD
ATOM      4  H13 UNL     1     -39.354  30.478  -4.399  1.00  0.00     0.278 HD
HETATM    5  C1  UNL     1     -38.655  28.541  -4.155  1.00  0.00     0.481 C 
HETATM    6  N2  UNL     1     -37.609  28.697  -5.146  1.00  0.00    -0.033 N 
ATOM      7  H21 UNL     1     -36.869  28.012  -4.992  1.00  0.00     0.278 HD
ATOM      8  H22 UNL     1     -37.246  29.650  -5.169  1.00  0.00     0.278 HD
ATOM      9  H23 UNL     1     -37.976  28.653  -6.096  1.00  0.00     0.278 HD
HETATM   10  N3  UNL     1     -39.188  27.273  -3.982  1.00  0.00    -0.322 N 
ATOM     11  H3  UNL     1     -38.825  26.868  -3.118  1.00  0.00     0.165 HD
HETATM   12  C2  UNL     1     -39.951  26.472  -4.519  1.00  0.00     0.179 C 
HETATM   13  C3  UNL     1     -40.555  26.823  -5.708  1.00  0.00     0.291 C 
HETATM   14  O1  UNL     1     -39.940  27.529  -6.534  1.00  0.00    -0.264 OA
HETATM   15  N4  UNL     1     -41.813  26.488  -6.143  1.00  0.00    -0.299 N 
ATOM     16  H4  UNL     1     -42.170  27.009  -6.943  1.00  0.00     0.171 HD
HETATM   17  C4  UNL     1     -42.641  25.533  -5.619  1.00  0.00     0.175 C 
HETATM   18  C5  UNL     1     -42.198  24.434  -4.911  1.00  0.00     0.151 C 
HETATM   19  C11 UNL     1     -41.101  24.421  -4.049  1.00  0.00     0.280 C 
HETATM   20  O5  UNL     1     -41.054  23.381  -3.346  1.00  0.00    -0.265 OA
HETATM   21  N7  UNL     1     -40.106  25.295  -3.834  1.00  0.00    -0.291 N 
ENDROOT
BRANCH  21  22
HETATM   22  C12 UNL     1     -39.167  24.952  -2.803  1.00  0.00     0.175 C 
BRANCH  22  23
HETATM   23  C13 UNL     1     -38.127  23.943  -3.232  1.00  0.00     0.228 C 
BRANCH  23  24
HETATM   24  O6  UNL     1     -38.388  23.415  -4.471  1.00  0.00    -0.384 OA
ATOM     25  H6  UNL     1     -38.924  22.633  -4.428  1.00  0.00     0.210 HD
ENDBRANCH  23  24
BRANCH  23  26
HETATM   26  C14 UNL     1     -36.823  24.663  -3.292  1.00  0.00     0.248 C 
HETATM   27  O7  UNL     1     -36.745  25.884  -3.014  1.00  0.00    -0.271 OA
HETATM   28  N8  UNL     1     -35.630  23.994  -3.666  1.00  0.00    -0.349 N 
ATOM     29  H8  UNL     1     -35.690  23.003  -3.897  1.00  0.00     0.163 HD
BRANCH  28  30
HETATM   30  C15 UNL     1     -34.323  24.637  -3.741  1.00  0.00     0.143 C 
BRANCH  30  31
HETATM   31  C16 UNL     1     -33.542  23.878  -4.753  1.00  0.00     0.068 C 
BRANCH  31  32
HETATM   32  C17 UNL     1     -32.726  24.656  -5.691  1.00  0.00    -0.056 A 
HETATM   33  C18 UNL     1     -32.343  25.966  -5.468  1.00  0.00     0.007 A 
HETATM   34  C19 UNL     1     -31.582  26.681  -6.364  1.00  0.00     0.001 A 
HETATM   35  C20 UNL     1     -31.194  26.046  -7.530  1.00  0.00     0.000 A 
HETATM   36  C21 UNL     1     -31.550  24.746  -7.796  1.00  0.00     0.001 A 
HETATM   37  C22 UNL     1     -32.313  24.066  -6.872  1.00  0.00     0.007 A 
ENDBRANCH  31  32
ENDBRANCH  30  31
BRANCH  30  38
HETATM   38  C23 UNL     1     -33.705  24.770  -2.396  1.00  0.00     0.276 C 
BRANCH  38  39
HETATM   39  O8  UNL     1     -33.956  26.012  -1.806  1.00  0.00    -0.369 OA
ATOM     40  H8  UNL     1     -34.549  25.954  -1.066  1.00  0.00     0.212 HD
ENDBRANCH  38  39
BRANCH  38  41
HETATM   41  O9  UNL     1     -34.095  23.791  -1.498  1.00  0.00    -0.369 OA
ATOM     42  H9  UNL     1     -34.045  22.907  -1.844  1.00  0.00     0.212 HD
ENDBRANCH  38  41
ENDBRANCH  30  38
ENDBRANCH  28  30
ENDBRANCH  23  26
ENDBRANCH  22  23
ENDBRANCH  21  22
BRANCH  18  43
HETATM   43  N5  UNL     1     -42.906  23.239  -5.077  1.00  0.00    -0.351 N 
ATOM     44  H5  UNL     1     -42.575  22.604  -5.803  1.00  0.00     0.163 HD
BRANCH  43  45
HETATM   45  C6  UNL     1     -44.039  22.826  -4.334  1.00  0.00     0.269 C 
BRANCH  45  46
HETATM   46  O3  UNL     1     -44.760  23.871  -3.735  1.00  0.00    -0.371 OA
ATOM     47  H3  UNL     1     -45.704  23.785  -3.792  1.00  0.00     0.212 HD
ENDBRANCH  45  46
BRANCH  45  48
HETATM   48  C7  UNL     1     -45.031  22.184  -5.287  1.00  0.00     0.060 A 
HETATM   49  C8  UNL     1     -46.393  22.391  -5.209  1.00  0.00     0.034 A 
HETATM   50  C9  UNL     1     -46.971  21.639  -6.237  1.00  0.00     0.058 A 
HETATM   51  C10 UNL     1     -45.940  21.004  -6.898  1.00  0.00     0.140 A 
HETATM   52  N6  UNL     1     -44.789  21.350  -6.308  1.00  0.00    -0.337 N 
ATOM     53  H6  UNL     1     -43.864  21.026  -6.593  1.00  0.00     0.168 HD
BRANCH  51  54
HETATM   54  O4  UNL     1     -46.073  20.161  -7.981  1.00  0.00    -0.346 OA
ATOM     55  H4  UNL     1     -45.522  19.411  -8.173  1.00  0.00     0.219 HD
ENDBRANCH  51  54
ENDBRANCH  45  48
ENDBRANCH  43  45
ENDBRANCH  18  43
BRANCH  17  56
HETATM   56  O2  UNL     1     -43.996  25.680  -5.808  1.00  0.00    -0.344 OA
ATOM     57  H2  UNL     1     -44.533  24.897  -5.808  1.00  0.00     0.219 HD
ENDBRANCH  17  56
TORSDOF 16
ENDMDL
