MODEL 1
REMARK VINA RESULT: -7.635204283      0.000      0.000
REMARK  18 active torsions:
REMARK  status: ('A' for Active; 'I' for Inactive)
REMARK    1  A    between atoms: N1_1  and  C1_4 
REMARK    2  A    between atoms: C5_13  and  N4_14 
REMARK    3  A    between atoms: N4_14  and  C6_16 
REMARK    4  A    between atoms: C6_16  and  C7_17 
REMARK    5  A    between atoms: C7_17  and  N5_18 
REMARK    6  A    between atoms: N5_18  and  C8_19 
REMARK    7  A    between atoms: N5_18  and  C13_30 
REMARK    8  A    between atoms: C8_19  and  C9_20 
REMARK    9  A    between atoms: C9_20  and  C10_21 
REMARK   10  A    between atoms: C10_21  and  N6_22 
REMARK   11  A    between atoms: C11_24  and  C12_25 
REMARK   12  A    between atoms: C12_25  and  N7_26 
REMARK   13  A    between atoms: C14_31  and  O1_32 
REMARK   14  A    between atoms: C15_34  and  O2_35 
REMARK   15  A    between atoms: C18_39  and  O3_40 
REMARK   16  A    between atoms: C19_42  and  C20_43 
REMARK   17  A    between atoms: C20_43  and  O4_44 
REMARK   18  A    between atoms: C20_43  and  C21_46 
ROOT
HETATM    1  N5  UNL     1     -39.021  26.258  -4.470  1.00  0.00    -0.375 N 
ENDROOT
BRANCH   1   2
HETATM    2  C7  UNL     1     -38.569  26.488  -5.819  1.00  0.00     0.143 C 
BRANCH   2   3
HETATM    3  C6  UNL     1     -39.161  27.723  -6.437  1.00  0.00     0.141 C 
BRANCH   3   4
HETATM    4  N4  UNL     1     -40.402  27.437  -7.133  1.00  0.00    -0.372 N 
ATOM      5  H4  UNL     1     -41.243  27.359  -6.561  1.00  0.00     0.161 HD
BRANCH   4   6
HETATM    6  C5  UNL     1     -40.542  27.274  -8.391  1.00  0.00     0.146 C 
HETATM    7  C4  UNL     1     -41.791  27.625  -8.875  1.00  0.00     0.112 C 
HETATM    8  C3  UNL     1     -42.095  27.957 -10.180  1.00  0.00     0.145 C 
HETATM    9  N11 UNL     1     -42.976  27.699  -8.095  1.00  0.00    -0.363 N 
HETATM   10  C2  UNL     1     -41.277  28.025 -11.292  1.00  0.00     0.150 C 
HETATM   11  O6  UNL     1     -43.444  28.236 -10.221  1.00  0.00    -0.326 OA
HETATM   12  N2  UNL     1     -39.972  27.671 -11.327  1.00  0.00    -0.174 N 
HETATM   13  N3  UNL     1     -41.805  28.466 -12.387  1.00  0.00    -0.383 N 
HETATM   14  C1  UNL     1     -39.206  27.078 -10.387  1.00  0.00     0.679 C 
ATOM     15  H2  UNL     1     -39.492  27.885 -12.201  1.00  0.00     0.186 HD
HETATM   16  N10 UNL     1     -39.503  26.799  -9.085  1.00  0.00    -0.175 N 
ATOM     17  H10 UNL     1     -38.871  26.167  -8.593  1.00  0.00     0.186 HD
ATOM     18  H32 UNL     1     -41.201  28.516 -13.207  1.00  0.00     0.157 HD
ATOM     19  H31 UNL     1     -42.788  28.733 -12.360  1.00  0.00     0.157 HD
HETATM   20  C23 UNL     1     -43.946  28.398  -8.914  1.00  0.00     0.298 C 
ATOM     21  H11 UNL     1     -43.115  27.335  -7.152  1.00  0.00     0.162 HD
BRANCH  14  22
HETATM   22  N1  UNL     1     -38.034  26.735 -10.795  1.00  0.00    -0.234 N 
ATOM     23  H12 UNL     1     -37.940  26.532 -11.790  1.00  0.00     0.174 HD
ATOM     24  H11 UNL     1     -37.324  26.706 -10.063  1.00  0.00     0.174 HD
ENDBRANCH  14  22
ENDBRANCH   4   6
ENDBRANCH   3   4
ENDBRANCH   2   3
ENDBRANCH   1   2
BRANCH   1  25
HETATM   25  C8  UNL     1     -38.666  27.200  -3.419  1.00  0.00     0.125 C 
BRANCH  25  26
HETATM   26  C9  UNL     1     -37.243  27.632  -3.544  1.00  0.00     0.039 C 
BRANCH  26  27
HETATM   27  C10 UNL     1     -36.369  26.669  -2.736  1.00  0.00     0.120 C 
BRANCH  27  28
HETATM   28  N6  UNL     1     -35.645  25.791  -3.606  1.00  0.00    -0.401 N 
HETATM   29  C11 UNL     1     -34.631  25.175  -3.135  1.00  0.00     0.082 C 
ATOM     30  H6  UNL     1     -35.933  25.660  -4.576  1.00  0.00     0.158 HD
BRANCH  29  31
HETATM   31  C12 UNL     1     -34.177  25.332  -1.735  1.00  0.00     0.273 C 
BRANCH  31  32
HETATM   32  N7  UNL     1     -34.330  24.082  -1.023  1.00  0.00    -0.075 N 
ATOM     33  H73 UNL     1     -35.249  23.666  -1.175  1.00  0.00     0.274 HD
ATOM     34  H72 UNL     1     -33.762  23.339  -1.429  1.00  0.00     0.274 HD
ATOM     35  H71 UNL     1     -34.131  24.218  -0.032  1.00  0.00     0.274 HD
ENDBRANCH  31  32
ENDBRANCH  29  31
ENDBRANCH  27  28
ENDBRANCH  26  27
ENDBRANCH  25  26
ENDBRANCH   1  25
BRANCH   1  36
HETATM   36  C13 UNL     1     -39.792  25.097  -4.197  1.00  0.00     0.101 A 
HETATM   37  C14 UNL     1     -39.223  23.939  -3.740  1.00  0.00     0.131 A 
HETATM   38  C15 UNL     1     -40.048  22.833  -3.474  1.00  0.00     0.128 A 
HETATM   39  C16 UNL     1     -41.408  22.869  -3.658  1.00  0.00     0.074 A 
HETATM   40  C17 UNL     1     -41.999  24.047  -4.125  1.00  0.00     0.015 A 
HETATM   41  N9  UNL     1     -42.439  21.912  -3.471  1.00  0.00    -0.386 N 
HETATM   42  C18 UNL     1     -41.186  25.116  -4.379  1.00  0.00     0.104 A 
HETATM   43  C19 UNL     1     -43.457  23.837  -4.231  1.00  0.00     0.079 C 
HETATM   44  C22 UNL     1     -43.705  22.595  -3.429  1.00  0.00     0.132 C 
ATOM     45  H9  UNL     1     -42.306  20.904  -3.382  1.00  0.00     0.159 HD
BRANCH  37  46
HETATM   46  O1  UNL     1     -37.872  23.831  -3.537  1.00  0.00    -0.356 OA
ATOM     47  H1  UNL     1     -37.505  23.181  -2.949  1.00  0.00     0.218 HD
ENDBRANCH  37  46
BRANCH  38  48
HETATM   48  O2  UNL     1     -39.444  21.655  -3.004  1.00  0.00    -0.356 OA
ATOM     49  H2  UNL     1     -39.817  20.823  -3.272  1.00  0.00     0.218 HD
ENDBRANCH  38  48
BRANCH  42  50
HETATM   50  O3  UNL     1     -41.697  26.319  -4.844  1.00  0.00    -0.358 OA
ATOM     51  H3  UNL     1     -42.504  26.596  -4.428  1.00  0.00     0.217 HD
ENDBRANCH  42  50
BRANCH  43  52
HETATM   52  C20 UNL     1     -43.891  23.725  -5.654  1.00  0.00     0.217 C 
BRANCH  52  53
HETATM   53  O4  UNL     1     -42.823  23.190  -6.437  1.00  0.00    -0.386 OA
ATOM     54  H4  UNL     1     -42.865  22.241  -6.424  1.00  0.00     0.210 HD
ENDBRANCH  52  53
BRANCH  52  55
HETATM   55  C21 UNL     1     -44.314  24.981  -6.294  1.00  0.00     0.260 C 
HETATM   56  N8  UNL     1     -44.591  26.171  -5.542  1.00  0.00    -0.060 NA
HETATM   57  O5  UNL     1     -44.450  25.066  -7.536  1.00  0.00    -0.274 OA
ENDBRANCH  52  55
ENDBRANCH  43  52
ENDBRANCH   1  36
TORSDOF 18
ENDMDL
MODEL 2
REMARK VINA RESULT: -7.517630140      0.934      1.190
REMARK  18 active torsions:
REMARK  status: ('A' for Active; 'I' for Inactive)
REMARK    1  A    between atoms: N1_1  and  C1_4 
REMARK    2  A    between atoms: C5_13  and  N4_14 
REMARK    3  A    between atoms: N4_14  and  C6_16 
REMARK    4  A    between atoms: C6_16  and  C7_17 
REMARK    5  A    between atoms: C7_17  and  N5_18 
REMARK    6  A    between atoms: N5_18  and  C8_19 
REMARK    7  A    between atoms: N5_18  and  C13_30 
REMARK    8  A    between atoms: C8_19  and  C9_20 
REMARK    9  A    between atoms: C9_20  and  C10_21 
REMARK   10  A    between atoms: C10_21  and  N6_22 
REMARK   11  A    between atoms: C11_24  and  C12_25 
REMARK   12  A    between atoms: C12_25  and  N7_26 
REMARK   13  A    between atoms: C14_31  and  O1_32 
REMARK   14  A    between atoms: C15_34  and  O2_35 
REMARK   15  A    between atoms: C18_39  and  O3_40 
REMARK   16  A    between atoms: C19_42  and  C20_43 
REMARK   17  A    between atoms: C20_43  and  O4_44 
REMARK   18  A    between atoms: C20_43  and  C21_46 
ROOT
HETATM    1  N5  UNL     1     -38.985  26.269  -4.515  1.00  0.00    -0.375 N 
ENDROOT
BRANCH   1   2
HETATM    2  C7  UNL     1     -38.669  26.471  -5.907  1.00  0.00     0.143 C 
BRANCH   2   3
HETATM    3  C6  UNL     1     -39.302  27.705  -6.482  1.00  0.00     0.141 C 
BRANCH   3   4
HETATM    4  N4  UNL     1     -40.522  27.399  -7.206  1.00  0.00    -0.372 N 
ATOM      5  H4  UNL     1     -41.370  27.280  -6.651  1.00  0.00     0.161 HD
BRANCH   4   6
HETATM    6  C5  UNL     1     -40.637  27.264  -8.470  1.00  0.00     0.146 C 
HETATM    7  C4  UNL     1     -41.874  27.630  -8.972  1.00  0.00     0.112 C 
HETATM    8  C3  UNL     1     -42.150  27.992 -10.276  1.00  0.00     0.145 C 
HETATM    9  N11 UNL     1     -43.075  27.693  -8.215  1.00  0.00    -0.363 N 
HETATM   10  C2  UNL     1     -41.308  28.081 -11.369  1.00  0.00     0.150 C 
HETATM   11  O6  UNL     1     -43.497  28.277 -10.338  1.00  0.00    -0.326 OA
HETATM   12  N2  UNL     1     -40.005  27.721 -11.384  1.00  0.00    -0.174 N 
HETATM   13  N3  UNL     1     -41.812  28.547 -12.464  1.00  0.00    -0.383 N 
HETATM   14  C1  UNL     1     -39.261  27.105 -10.442  1.00  0.00     0.679 C 
ATOM     15  H2  UNL     1     -39.506  27.952 -12.243  1.00  0.00     0.186 HD
HETATM   16  N10 UNL     1     -39.586  26.800  -9.152  1.00  0.00    -0.175 N 
ATOM     17  H10 UNL     1     -38.966  26.155  -8.661  1.00  0.00     0.186 HD
ATOM     18  H32 UNL     1     -41.191  28.613 -13.271  1.00  0.00     0.157 HD
ATOM     19  H31 UNL     1     -42.795  28.818 -12.452  1.00  0.00     0.157 HD
HETATM   20  C23 UNL     1     -44.025  28.414  -9.038  1.00  0.00     0.298 C 
ATOM     21  H11 UNL     1     -43.235  27.309  -7.284  1.00  0.00     0.162 HD
BRANCH  14  22
HETATM   22  N1  UNL     1     -38.082  26.766 -10.833  1.00  0.00    -0.234 N 
ATOM     23  H12 UNL     1     -37.971  26.570 -11.827  1.00  0.00     0.174 HD
ATOM     24  H11 UNL     1     -37.384  26.733 -10.090  1.00  0.00     0.174 HD
ENDBRANCH  14  22
ENDBRANCH   4   6
ENDBRANCH   3   4
ENDBRANCH   2   3
ENDBRANCH   1   2
BRANCH   1  25
HETATM   25  C8  UNL     1     -38.629  27.287  -3.538  1.00  0.00     0.125 C 
BRANCH  25  26
HETATM   26  C9  UNL     1     -37.219  27.740  -3.726  1.00  0.00     0.039 C 
BRANCH  26  27
HETATM   27  C10 UNL     1     -36.310  26.882  -2.843  1.00  0.00     0.120 C 
BRANCH  27  28
HETATM   28  N6  UNL     1     -35.424  26.092  -3.644  1.00  0.00    -0.401 N 
HETATM   29  C11 UNL     1     -34.486  25.455  -3.059  1.00  0.00     0.082 C 
ATOM     30  H6  UNL     1     -35.540  26.040  -4.656  1.00  0.00     0.158 HD
BRANCH  29  31
HETATM   31  C12 UNL     1     -34.279  25.500  -1.594  1.00  0.00     0.273 C 
BRANCH  31  32
HETATM   32  N7  UNL     1     -34.348  24.164  -1.044  1.00  0.00    -0.075 N 
ATOM     33  H73 UNL     1     -34.716  23.492  -1.717  1.00  0.00     0.274 HD
ATOM     34  H72 UNL     1     -33.422  23.755  -0.917  1.00  0.00     0.274 HD
ATOM     35  H71 UNL     1     -34.885  24.170  -0.177  1.00  0.00     0.274 HD
ENDBRANCH  31  32
ENDBRANCH  29  31
ENDBRANCH  27  28
ENDBRANCH  26  27
ENDBRANCH  25  26
ENDBRANCH   1  25
BRANCH   1  36
HETATM   36  C13 UNL     1     -39.626  25.061  -4.129  1.00  0.00     0.101 A 
HETATM   37  C14 UNL     1     -38.920  23.976  -3.685  1.00  0.00     0.131 A 
HETATM   38  C15 UNL     1     -39.619  22.818  -3.302  1.00  0.00     0.128 A 
HETATM   39  C16 UNL     1     -40.988  22.734  -3.360  1.00  0.00     0.074 A 
HETATM   40  C17 UNL     1     -41.718  23.837  -3.813  1.00  0.00     0.015 A 
HETATM   41  N9  UNL     1     -41.912  21.703  -3.043  1.00  0.00    -0.386 N 
HETATM   42  C18 UNL     1     -41.026  24.956  -4.181  1.00  0.00     0.104 A 
HETATM   43  C19 UNL     1     -43.156  23.502  -3.776  1.00  0.00     0.079 C 
HETATM   44  C22 UNL     1     -43.223  22.280  -2.909  1.00  0.00     0.132 C 
ATOM     45  H9  UNL     1     -41.684  20.715  -2.930  1.00  0.00     0.159 HD
BRANCH  37  46
HETATM   46  O1  UNL     1     -37.551  23.990  -3.603  1.00  0.00    -0.356 OA
ATOM     47  H1  UNL     1     -37.040  23.190  -3.645  1.00  0.00     0.218 HD
ENDBRANCH  37  46
BRANCH  38  48
HETATM   48  O2  UNL     1     -38.875  21.716  -2.847  1.00  0.00    -0.356 OA
ATOM     49  H2  UNL     1     -39.075  21.367  -1.987  1.00  0.00     0.218 HD
ENDBRANCH  38  48
BRANCH  42  50
HETATM   50  O3  UNL     1     -41.679  26.091  -4.641  1.00  0.00    -0.358 OA
ATOM     51  H3  UNL     1     -42.605  26.129  -4.433  1.00  0.00     0.217 HD
ENDBRANCH  42  50
BRANCH  43  52
HETATM   52  C20 UNL     1     -43.704  23.291  -5.147  1.00  0.00     0.217 C 
BRANCH  52  53
HETATM   53  O4  UNL     1     -44.059  24.550  -5.718  1.00  0.00    -0.386 OA
ATOM     54  H4  UNL     1     -43.271  25.047  -5.905  1.00  0.00     0.210 HD
ENDBRANCH  52  53
BRANCH  52  55
HETATM   55  C21 UNL     1     -44.890  22.423  -5.234  1.00  0.00     0.260 C 
HETATM   56  N8  UNL     1     -44.820  21.069  -5.702  1.00  0.00    -0.060 NA
HETATM   57  O5  UNL     1     -46.024  22.835  -4.897  1.00  0.00    -0.274 OA
ENDBRANCH  52  55
ENDBRANCH  43  52
ENDBRANCH   1  36
TORSDOF 18
ENDMDL
MODEL 3
REMARK VINA RESULT: -7.359426214      1.211      2.071
REMARK  18 active torsions:
REMARK  status: ('A' for Active; 'I' for Inactive)
REMARK    1  A    between atoms: N1_1  and  C1_4 
REMARK    2  A    between atoms: C5_13  and  N4_14 
REMARK    3  A    between atoms: N4_14  and  C6_16 
REMARK    4  A    between atoms: C6_16  and  C7_17 
REMARK    5  A    between atoms: C7_17  and  N5_18 
REMARK    6  A    between atoms: N5_18  and  C8_19 
REMARK    7  A    between atoms: N5_18  and  C13_30 
REMARK    8  A    between atoms: C8_19  and  C9_20 
REMARK    9  A    between atoms: C9_20  and  C10_21 
REMARK   10  A    between atoms: C10_21  and  N6_22 
REMARK   11  A    between atoms: C11_24  and  C12_25 
REMARK   12  A    between atoms: C12_25  and  N7_26 
REMARK   13  A    between atoms: C14_31  and  O1_32 
REMARK   14  A    between atoms: C15_34  and  O2_35 
REMARK   15  A    between atoms: C18_39  and  O3_40 
REMARK   16  A    between atoms: C19_42  and  C20_43 
REMARK   17  A    between atoms: C20_43  and  O4_44 
REMARK   18  A    between atoms: C20_43  and  C21_46 
ROOT
HETATM    1  N5  UNL     1     -38.934  26.178  -4.412  1.00  0.00    -0.375 N 
ENDROOT
BRANCH   1   2
HETATM    2  C7  UNL     1     -38.466  26.378  -5.760  1.00  0.00     0.143 C 
BRANCH   2   3
HETATM    3  C6  UNL     1     -39.171  27.499  -6.468  1.00  0.00     0.141 C 
BRANCH   3   4
HETATM    4  N4  UNL     1     -39.340  27.223  -7.882  1.00  0.00    -0.372 N 
ATOM      5  H4  UNL     1     -38.702  26.545  -8.299  1.00  0.00     0.161 HD
BRANCH   4   6
HETATM    6  C5  UNL     1     -40.211  27.746  -8.655  1.00  0.00     0.146 C 
HETATM    7  C4  UNL     1     -39.677  28.404  -9.751  1.00  0.00     0.112 C 
HETATM    8  C3  UNL     1     -40.333  28.680 -10.934  1.00  0.00     0.145 C 
HETATM    9  N11 UNL     1     -38.351  28.907  -9.834  1.00  0.00    -0.363 N 
HETATM   10  C2  UNL     1     -41.628  28.389 -11.320  1.00  0.00     0.150 C 
HETATM   11  O6  UNL     1     -39.438  29.344 -11.745  1.00  0.00    -0.326 OA
HETATM   12  N2  UNL     1     -42.572  27.829 -10.530  1.00  0.00    -0.174 N 
HETATM   13  N3  UNL     1     -41.960  28.677 -12.535  1.00  0.00    -0.383 N 
HETATM   14  C1  UNL     1     -42.546  27.541  -9.212  1.00  0.00     0.679 C 
ATOM     15  H2  UNL     1     -43.441  27.587 -11.007  1.00  0.00     0.186 HD
HETATM   16  N10 UNL     1     -41.501  27.607  -8.338  1.00  0.00    -0.175 N 
ATOM     17  H10 UNL     1     -41.726  27.544  -7.345  1.00  0.00     0.186 HD
ATOM     18  H32 UNL     1     -42.916  28.462 -12.820  1.00  0.00     0.157 HD
ATOM     19  H31 UNL     1     -41.248  29.099 -13.130  1.00  0.00     0.157 HD
HETATM   20  C23 UNL     1     -38.131  29.216 -11.232  1.00  0.00     0.298 C 
ATOM     21  H11 UNL     1     -37.689  29.025  -9.067  1.00  0.00     0.162 HD
BRANCH  14  22
HETATM   22  N1  UNL     1     -43.674  27.149  -8.731  1.00  0.00    -0.234 N 
ATOM     23  H12 UNL     1     -43.634  26.516  -7.933  1.00  0.00     0.174 HD
ATOM     24  H11 UNL     1     -44.491  27.525  -9.212  1.00  0.00     0.174 HD
ENDBRANCH  14  22
ENDBRANCH   4   6
ENDBRANCH   3   4
ENDBRANCH   2   3
ENDBRANCH   1   2
BRANCH   1  25
HETATM   25  C8  UNL     1     -38.624  27.161  -3.384  1.00  0.00     0.125 C 
BRANCH  25  26
HETATM   26  C9  UNL     1     -37.206  27.615  -3.489  1.00  0.00     0.039 C 
BRANCH  26  27
HETATM   27  C10 UNL     1     -36.327  26.657  -2.682  1.00  0.00     0.120 C 
BRANCH  27  28
HETATM   28  N6  UNL     1     -35.516  25.858  -3.551  1.00  0.00    -0.401 N 
HETATM   29  C11 UNL     1     -34.513  25.249  -3.052  1.00  0.00     0.082 C 
ATOM     30  H6  UNL     1     -35.736  25.778  -4.544  1.00  0.00     0.158 HD
BRANCH  29  31
HETATM   31  C12 UNL     1     -34.156  25.334  -1.618  1.00  0.00     0.273 C 
BRANCH  31  32
HETATM   32  N7  UNL     1     -34.284  24.033  -0.998  1.00  0.00    -0.075 N 
ATOM     33  H73 UNL     1     -33.378  23.643  -0.737  1.00  0.00     0.274 HD
ATOM     34  H72 UNL     1     -34.696  24.092  -0.067  1.00  0.00     0.274 HD
ATOM     35  H71 UNL     1     -34.808  23.406  -1.609  1.00  0.00     0.274 HD
ENDBRANCH  31  32
ENDBRANCH  29  31
ENDBRANCH  27  28
ENDBRANCH  26  27
ENDBRANCH  25  26
ENDBRANCH   1  25
BRANCH   1  36
HETATM   36  C13 UNL     1     -39.677  25.004  -4.115  1.00  0.00     0.101 A 
HETATM   37  C14 UNL     1     -39.071  23.843  -3.717  1.00  0.00     0.131 A 
HETATM   38  C15 UNL     1     -39.870  22.724  -3.422  1.00  0.00     0.128 A 
HETATM   39  C16 UNL     1     -41.238  22.751  -3.520  1.00  0.00     0.074 A 
HETATM   40  C17 UNL     1     -41.867  23.932  -3.926  1.00  0.00     0.015 A 
HETATM   41  N9  UNL     1     -42.248  21.780  -3.290  1.00  0.00    -0.386 N 
HETATM   42  C18 UNL     1     -41.080  25.013  -4.209  1.00  0.00     0.104 A 
HETATM   43  C19 UNL     1     -43.327  23.711  -3.946  1.00  0.00     0.079 C 
HETATM   44  C22 UNL     1     -43.514  22.450  -3.156  1.00  0.00     0.132 C 
ATOM     45  H9  UNL     1     -42.101  20.773  -3.229  1.00  0.00     0.159 HD
BRANCH  37  46
HETATM   46  O1  UNL     1     -37.709  23.744  -3.599  1.00  0.00    -0.356 OA
ATOM     47  H1  UNL     1     -37.205  23.135  -4.126  1.00  0.00     0.218 HD
ENDBRANCH  37  46
BRANCH  38  48
HETATM   48  O2  UNL     1     -39.227  21.543  -3.014  1.00  0.00    -0.356 OA
ATOM     49  H2  UNL     1     -38.446  21.274  -3.483  1.00  0.00     0.218 HD
ENDBRANCH  38  48
BRANCH  42  50
HETATM   50  O3  UNL     1     -41.628  26.220  -4.617  1.00  0.00    -0.358 OA
ATOM     51  H3  UNL     1     -41.216  26.991  -4.246  1.00  0.00     0.217 HD
ENDBRANCH  42  50
BRANCH  43  52
HETATM   52  C20 UNL     1     -43.847  23.622  -5.342  1.00  0.00     0.217 C 
BRANCH  52  53
HETATM   53  O4  UNL     1     -42.779  23.289  -6.229  1.00  0.00    -0.386 OA
ATOM     54  H4  UNL     1     -42.590  22.360  -6.164  1.00  0.00     0.210 HD
ENDBRANCH  52  53
BRANCH  52  55
HETATM   55  C21 UNL     1     -44.484  24.842  -5.865  1.00  0.00     0.260 C 
HETATM   56  N8  UNL     1     -45.037  24.915  -7.187  1.00  0.00    -0.060 NA
HETATM   57  O5  UNL     1     -44.572  25.879  -5.168  1.00  0.00    -0.274 OA
ENDBRANCH  52  55
ENDBRANCH  43  52
ENDBRANCH   1  36
TORSDOF 18
ENDMDL
MODEL 4
REMARK VINA RESULT: -7.318899583      1.307      2.314
REMARK  18 active torsions:
REMARK  status: ('A' for Active; 'I' for Inactive)
REMARK    1  A    between atoms: N1_1  and  C1_4 
REMARK    2  A    between atoms: C5_13  and  N4_14 
REMARK    3  A    between atoms: N4_14  and  C6_16 
REMARK    4  A    between atoms: C6_16  and  C7_17 
REMARK    5  A    between atoms: C7_17  and  N5_18 
REMARK    6  A    between atoms: N5_18  and  C8_19 
REMARK    7  A    between atoms: N5_18  and  C13_30 
REMARK    8  A    between atoms: C8_19  and  C9_20 
REMARK    9  A    between atoms: C9_20  and  C10_21 
REMARK   10  A    between atoms: C10_21  and  N6_22 
REMARK   11  A    between atoms: C11_24  and  C12_25 
REMARK   12  A    between atoms: C12_25  and  N7_26 
REMARK   13  A    between atoms: C14_31  and  O1_32 
REMARK   14  A    between atoms: C15_34  and  O2_35 
REMARK   15  A    between atoms: C18_39  and  O3_40 
REMARK   16  A    between atoms: C19_42  and  C20_43 
REMARK   17  A    between atoms: C20_43  and  O4_44 
REMARK   18  A    between atoms: C20_43  and  C21_46 
ROOT
HETATM    1  N5  UNL     1     -39.500  25.703  -3.899  1.00  0.00    -0.375 N 
ENDROOT
BRANCH   1   2
HETATM    2  C7  UNL     1     -38.734  25.871  -5.108  1.00  0.00     0.143 C 
BRANCH   2   3
HETATM    3  C6  UNL     1     -38.770  27.275  -5.638  1.00  0.00     0.141 C 
BRANCH   3   4
HETATM    4  N4  UNL     1     -38.825  27.304  -7.088  1.00  0.00    -0.372 N 
ATOM      5  H4  UNL     1     -38.051  26.865  -7.588  1.00  0.00     0.161 HD
BRANCH   4   6
HETATM    6  C5  UNL     1     -39.748  27.825  -7.799  1.00  0.00     0.146 C 
HETATM    7  C4  UNL     1     -39.572  27.669  -9.164  1.00  0.00     0.112 C 
HETATM    8  C3  UNL     1     -40.562  27.735 -10.125  1.00  0.00     0.145 C 
HETATM    9  N11 UNL     1     -38.329  27.413  -9.802  1.00  0.00    -0.363 N 
HETATM   10  C2  UNL     1     -41.918  27.961  -9.989  1.00  0.00     0.150 C 
HETATM   11  O6  UNL     1     -39.953  27.524 -11.344  1.00  0.00    -0.326 OA
HETATM   12  N2  UNL     1     -42.548  28.268  -8.832  1.00  0.00    -0.174 N 
HETATM   13  N3  UNL     1     -42.641  27.871 -11.056  1.00  0.00    -0.383 N 
HETATM   14  C1  UNL     1     -42.041  28.541  -7.611  1.00  0.00     0.679 C 
ATOM     15  H2  UNL     1     -43.566  28.297  -8.892  1.00  0.00     0.186 HD
HETATM   16  N10 UNL     1     -40.753  28.444  -7.172  1.00  0.00    -0.175 N 
ATOM     17  H10 UNL     1     -40.535  28.887  -6.280  1.00  0.00     0.186 HD
ATOM     18  H32 UNL     1     -43.643  28.037 -10.955  1.00  0.00     0.157 HD
ATOM     19  H31 UNL     1     -42.167  27.639 -11.928  1.00  0.00     0.157 HD
HETATM   20  C23 UNL     1     -38.654  27.010 -11.155  1.00  0.00     0.298 C 
ATOM     21  H11 UNL     1     -37.399  27.496  -9.391  1.00  0.00     0.162 HD
BRANCH  14  22
HETATM   22  N1  UNL     1     -42.911  28.947  -6.753  1.00  0.00    -0.234 N 
ATOM     23  H12 UNL     1     -43.892  28.836  -7.011  1.00  0.00     0.174 HD
ATOM     24  H11 UNL     1     -42.512  29.340  -5.901  1.00  0.00     0.174 HD
ENDBRANCH  14  22
ENDBRANCH   4   6
ENDBRANCH   3   4
ENDBRANCH   2   3
ENDBRANCH   1   2
BRANCH   1  25
HETATM   25  C8  UNL     1     -39.158  26.475  -2.713  1.00  0.00     0.125 C 
BRANCH  25  26
HETATM   26  C9  UNL     1     -37.679  26.635  -2.587  1.00  0.00     0.039 C 
BRANCH  26  27
HETATM   27  C10 UNL     1     -37.115  25.402  -1.878  1.00  0.00     0.120 C 
BRANCH  27  28
HETATM   28  N6  UNL     1     -36.309  24.626  -2.773  1.00  0.00    -0.401 N 
HETATM   29  C11 UNL     1     -35.042  24.665  -2.632  1.00  0.00     0.082 C 
ATOM     30  H6  UNL     1     -36.738  24.058  -3.503  1.00  0.00     0.158 HD
BRANCH  29  31
HETATM   31  C12 UNL     1     -34.375  25.474  -1.587  1.00  0.00     0.273 C 
BRANCH  31  32
HETATM   32  N7  UNL     1     -33.869  24.612  -0.542  1.00  0.00    -0.075 N 
ATOM     33  H73 UNL     1     -33.303  25.123   0.135  1.00  0.00     0.274 HD
ATOM     34  H72 UNL     1     -34.609  24.300   0.087  1.00  0.00     0.274 HD
ATOM     35  H71 UNL     1     -33.360  23.829  -0.952  1.00  0.00     0.274 HD
ENDBRANCH  31  32
ENDBRANCH  29  31
ENDBRANCH  27  28
ENDBRANCH  26  27
ENDBRANCH  25  26
ENDBRANCH   1  25
BRANCH   1  36
HETATM   36  C13 UNL     1     -40.567  24.766  -3.891  1.00  0.00     0.101 A 
HETATM   37  C14 UNL     1     -40.411  23.492  -3.414  1.00  0.00     0.131 A 
HETATM   38  C15 UNL     1     -41.515  22.622  -3.420  1.00  0.00     0.128 A 
HETATM   39  C16 UNL     1     -42.747  23.001  -3.890  1.00  0.00     0.074 A 
HETATM   40  C17 UNL     1     -42.917  24.300  -4.380  1.00  0.00     0.015 A 
HETATM   41  N9  UNL     1     -43.992  22.328  -4.006  1.00  0.00    -0.386 N 
HETATM   42  C18 UNL     1     -41.837  25.136  -4.367  1.00  0.00     0.104 A 
HETATM   43  C19 UNL     1     -44.319  24.463  -4.815  1.00  0.00     0.079 C 
HETATM   44  C22 UNL     1     -45.033  23.304  -4.186  1.00  0.00     0.132 C 
ATOM     45  H9  UNL     1     -44.126  21.317  -3.970  1.00  0.00     0.159 HD
BRANCH  37  46
HETATM   46  O1  UNL     1     -39.208  23.046  -2.932  1.00  0.00    -0.356 OA
ATOM     47  H1  UNL     1     -38.410  23.106  -3.444  1.00  0.00     0.218 HD
ENDBRANCH  37  46
BRANCH  38  48
HETATM   48  O2  UNL     1     -41.332  21.320  -2.924  1.00  0.00    -0.356 OA
ATOM     49  H2  UNL     1     -42.073  20.892  -2.510  1.00  0.00     0.218 HD
ENDBRANCH  38  48
BRANCH  42  50
HETATM   50  O3  UNL     1     -41.926  26.439  -4.836  1.00  0.00    -0.358 OA
ATOM     51  H3  UNL     1     -42.601  26.582  -5.488  1.00  0.00     0.217 HD
ENDBRANCH  42  50
BRANCH  43  52
HETATM   52  C20 UNL     1     -44.429  24.494  -6.303  1.00  0.00     0.217 C 
BRANCH  52  53
HETATM   53  O4  UNL     1     -43.249  23.937  -6.880  1.00  0.00    -0.386 OA
ATOM     54  H4  UNL     1     -42.900  24.536  -7.530  1.00  0.00     0.210 HD
ENDBRANCH  52  53
BRANCH  52  55
HETATM   55  C21 UNL     1     -44.620  25.826  -6.901  1.00  0.00     0.260 C 
HETATM   56  N8  UNL     1     -44.950  26.981  -6.116  1.00  0.00    -0.060 NA
HETATM   57  O5  UNL     1     -44.499  26.009  -8.134  1.00  0.00    -0.274 OA
ENDBRANCH  52  55
ENDBRANCH  43  52
ENDBRANCH   1  36
TORSDOF 18
ENDMDL
MODEL 5
REMARK VINA RESULT: -7.311658052      4.823     10.079
REMARK  18 active torsions:
REMARK  status: ('A' for Active; 'I' for Inactive)
REMARK    1  A    between atoms: N1_1  and  C1_4 
REMARK    2  A    between atoms: C5_13  and  N4_14 
REMARK    3  A    between atoms: N4_14  and  C6_16 
REMARK    4  A    between atoms: C6_16  and  C7_17 
REMARK    5  A    between atoms: C7_17  and  N5_18 
REMARK    6  A    between atoms: N5_18  and  C8_19 
REMARK    7  A    between atoms: N5_18  and  C13_30 
REMARK    8  A    between atoms: C8_19  and  C9_20 
REMARK    9  A    between atoms: C9_20  and  C10_21 
REMARK   10  A    between atoms: C10_21  and  N6_22 
REMARK   11  A    between atoms: C11_24  and  C12_25 
REMARK   12  A    between atoms: C12_25  and  N7_26 
REMARK   13  A    between atoms: C14_31  and  O1_32 
REMARK   14  A    between atoms: C15_34  and  O2_35 
REMARK   15  A    between atoms: C18_39  and  O3_40 
REMARK   16  A    between atoms: C19_42  and  C20_43 
REMARK   17  A    between atoms: C20_43  and  O4_44 
REMARK   18  A    between atoms: C20_43  and  C21_46 
ROOT
HETATM    1  N5  UNL     1     -33.142  26.579  -2.013  1.00  0.00    -0.375 N 
ENDROOT
BRANCH   1   2
HETATM    2  C7  UNL     1     -34.558  26.464  -2.254  1.00  0.00     0.143 C 
BRANCH   2   3
HETATM    3  C6  UNL     1     -34.966  25.100  -2.731  1.00  0.00     0.141 C 
BRANCH   3   4
HETATM    4  N4  UNL     1     -35.993  25.172  -3.755  1.00  0.00    -0.372 N 
ATOM      5  H4  UNL     1     -35.682  25.368  -4.707  1.00  0.00     0.161 HD
BRANCH   4   6
HETATM    6  C5  UNL     1     -37.247  25.014  -3.579  1.00  0.00     0.146 C 
HETATM    7  C4  UNL     1     -38.020  26.082  -4.002  1.00  0.00     0.112 C 
HETATM    8  C3  UNL     1     -39.361  26.037  -4.330  1.00  0.00     0.145 C 
HETATM    9  N11 UNL     1     -37.552  27.413  -4.167  1.00  0.00    -0.363 N 
HETATM   10  C2  UNL     1     -40.241  24.971  -4.325  1.00  0.00     0.150 C 
HETATM   11  O6  UNL     1     -39.729  27.314  -4.695  1.00  0.00    -0.326 OA
HETATM   12  N2  UNL     1     -39.957  23.724  -3.886  1.00  0.00    -0.174 N 
HETATM   13  N3  UNL     1     -41.432  25.187  -4.779  1.00  0.00    -0.383 N 
HETATM   14  C1  UNL     1     -38.859  23.250  -3.261  1.00  0.00     0.679 C 
ATOM     15  H2  UNL     1     -40.689  23.033  -4.053  1.00  0.00     0.186 HD
HETATM   16  N10 UNL     1     -37.667  23.872  -3.026  1.00  0.00    -0.175 N 
ATOM     17  H10 UNL     1     -37.036  23.422  -2.363  1.00  0.00     0.186 HD
ATOM     18  H32 UNL     1     -42.081  24.401  -4.776  1.00  0.00     0.157 HD
ATOM     19  H31 UNL     1     -41.645  26.128  -5.111  1.00  0.00     0.157 HD
HETATM   20  C23 UNL     1     -38.583  28.106  -4.913  1.00  0.00     0.298 C 
ATOM     21  H11 UNL     1     -36.671  27.801  -3.830  1.00  0.00     0.162 HD
BRANCH  14  22
HETATM   22  N1  UNL     1     -38.969  22.040  -2.836  1.00  0.00    -0.234 N 
ATOM     23  H12 UNL     1     -39.040  21.312  -3.546  1.00  0.00     0.174 HD
ATOM     24  H11 UNL     1     -38.973  21.949  -1.820  1.00  0.00     0.174 HD
ENDBRANCH  14  22
ENDBRANCH   4   6
ENDBRANCH   3   4
ENDBRANCH   2   3
ENDBRANCH   1   2
BRANCH   1  25
HETATM   25  C8  UNL     1     -32.202  26.335  -3.097  1.00  0.00     0.125 C 
BRANCH  25  26
HETATM   26  C9  UNL     1     -32.421  27.292  -4.221  1.00  0.00     0.039 C 
BRANCH  26  27
HETATM   27  C10 UNL     1     -32.149  26.564  -5.539  1.00  0.00     0.120 C 
BRANCH  27  28
HETATM   28  N6  UNL     1     -32.945  25.376  -5.636  1.00  0.00    -0.401 N 
HETATM   29  C11 UNL     1     -32.534  24.434  -6.392  1.00  0.00     0.082 C 
ATOM     30  H6  UNL     1     -33.816  25.287  -5.114  1.00  0.00     0.158 HD
BRANCH  29  31
HETATM   31  C12 UNL     1     -31.277  24.519  -7.168  1.00  0.00     0.273 C 
BRANCH  31  32
HETATM   32  N7  UNL     1     -31.571  24.555  -8.584  1.00  0.00    -0.075 N 
ATOM     33  H73 UNL     1     -32.559  24.390  -8.774  1.00  0.00     0.274 HD
ATOM     34  H72 UNL     1     -31.501  25.498  -8.965  1.00  0.00     0.274 HD
ATOM     35  H71 UNL     1     -30.971  23.897  -9.082  1.00  0.00     0.274 HD
ENDBRANCH  31  32
ENDBRANCH  29  31
ENDBRANCH  27  28
ENDBRANCH  26  27
ENDBRANCH  25  26
ENDBRANCH   1  25
BRANCH   1  36
HETATM   36  C13 UNL     1     -32.697  26.912  -0.705  1.00  0.00     0.101 A 
HETATM   37  C14 UNL     1     -32.569  28.210  -0.292  1.00  0.00     0.131 A 
HETATM   38  C15 UNL     1     -32.140  28.468   1.022  1.00  0.00     0.128 A 
HETATM   39  C16 UNL     1     -31.841  27.463   1.908  1.00  0.00     0.074 A 
HETATM   40  C17 UNL     1     -31.968  26.133   1.495  1.00  0.00     0.015 A 
HETATM   41  N9  UNL     1     -31.394  27.457   3.256  1.00  0.00    -0.386 N 
HETATM   42  C18 UNL     1     -32.387  25.897   0.216  1.00  0.00     0.104 A 
HETATM   43  C19 UNL     1     -31.598  25.249   2.619  1.00  0.00     0.079 C 
HETATM   44  C22 UNL     1     -31.626  26.153   3.816  1.00  0.00     0.132 C 
ATOM     45  H9  UNL     1     -30.976  28.248   3.746  1.00  0.00     0.159 HD
BRANCH  37  46
HETATM   46  O1  UNL     1     -32.848  29.263  -1.124  1.00  0.00    -0.356 OA
ATOM     47  H1  UNL     1     -32.309  30.046  -1.138  1.00  0.00     0.218 HD
ENDBRANCH  37  46
BRANCH  38  48
HETATM   48  O2  UNL     1     -32.017  29.808   1.427  1.00  0.00    -0.356 OA
ATOM     49  H2  UNL     1     -31.146  30.187   1.458  1.00  0.00     0.218 HD
ENDBRANCH  38  48
BRANCH  42  50
HETATM   50  O3  UNL     1     -32.538  24.605  -0.268  1.00  0.00    -0.358 OA
ATOM     51  H3  UNL     1     -33.217  24.097   0.158  1.00  0.00     0.217 HD
ENDBRANCH  42  50
BRANCH  43  52
HETATM   52  C20 UNL     1     -30.274  24.601   2.392  1.00  0.00     0.217 C 
BRANCH  52  53
HETATM   53  O4  UNL     1     -30.444  23.446   1.570  1.00  0.00    -0.386 OA
ATOM     54  H4  UNL     1     -30.280  22.664   2.084  1.00  0.00     0.210 HD
ENDBRANCH  52  53
BRANCH  52  55
HETATM   55  C21 UNL     1     -29.558  24.171   3.604  1.00  0.00     0.260 C 
HETATM   56  N8  UNL     1     -28.285  24.717   3.980  1.00  0.00    -0.060 NA
HETATM   57  O5  UNL     1     -30.036  23.302   4.369  1.00  0.00    -0.274 OA
ENDBRANCH  52  55
ENDBRANCH  43  52
ENDBRANCH   1  36
TORSDOF 18
ENDMDL
