MODEL 1
REMARK VINA RESULT: -8.178361468      0.000      0.000
REMARK  18 active torsions:
REMARK  status: ('A' for Active; 'I' for Inactive)
REMARK    1  A    between atoms: C5_10  and  C6_11 
REMARK    2  A    between atoms: C6_11  and  N4_12 
REMARK    3  A    between atoms: N4_12  and  C7_14 
REMARK    4  A    between atoms: C9_16  and  N5_17 
REMARK    5  A    between atoms: N5_17  and  C10_19 
REMARK    6  A    between atoms: C10_19  and  C11_20 
REMARK    7  A    between atoms: C11_20  and  O1_21 
REMARK    8  A    between atoms: C11_20  and  C12_23 
REMARK    9  A    between atoms: C12_23  and  O2_24 
REMARK   10  A    between atoms: C14_27  and  N6_28 
REMARK   11  A    between atoms: N6_28  and  C15_30 
REMARK   12  A    between atoms: C15_30  and  O3_31 
REMARK   13  A    between atoms: C15_30  and  C16_33 
REMARK   14  A    between atoms: C16_33  and  C17_34 
REMARK   15  A    between atoms: C17_34  and  O4_35 
REMARK   16  A    between atoms: C17_34  and  C18_37 
REMARK   17  A    between atoms: C19_40  and  N8_41 
REMARK   18  A    between atoms: C22_50  and  N11_51 
ROOT
HETATM    1  N1  UNL     1     -42.543  21.825  -2.693  1.00  0.00    -0.188 NA
HETATM    2  C1  UNL     1     -42.083  22.752  -3.218  1.00  0.00     0.139 C 
HETATM    3  C2  UNL     1     -41.502  23.901  -3.849  1.00  0.00     0.211 A 
HETATM    4  N2  UNL     1     -41.958  24.626  -4.881  1.00  0.00    -0.275 N 
ATOM      5  H2  UNL     1     -42.827  24.445  -5.381  1.00  0.00     0.189 HD
HETATM    6  N3  UNL     1     -41.118  25.613  -5.158  1.00  0.00    -0.283 N 
ATOM      7  H3  UNL     1     -41.236  26.305  -5.898  1.00  0.00     0.188 HD
HETATM    8  C3  UNL     1     -40.083  25.547  -4.299  1.00  0.00     0.129 A 
HETATM    9  C4  UNL     1     -38.892  26.152  -3.945  1.00  0.00     0.060 A 
HETATM   10  C5  UNL     1     -38.391  25.432  -2.884  1.00  0.00    -0.021 A 
HETATM   11  C23 UNL     1     -39.297  24.423  -2.637  1.00  0.00     0.110 A 
HETATM   12  N13 UNL     1     -40.325  24.497  -3.501  1.00  0.00    -0.282 N 
ENDROOT
BRANCH  10  13
HETATM   13  C6  UNL     1     -37.120  25.663  -2.113  1.00  0.00     0.161 C 
BRANCH  13  14
HETATM   14  N4  UNL     1     -36.036  25.817  -3.030  1.00  0.00    -0.372 N 
ATOM     15  H4  UNL     1     -36.269  26.193  -3.949  1.00  0.00     0.161 HD
BRANCH  14  16
HETATM   16  C7  UNL     1     -34.805  25.538  -2.826  1.00  0.00     0.104 C 
HETATM   17  C8  UNL     1     -34.060  26.641  -2.411  1.00  0.00     0.077 C 
HETATM   18  C9  UNL     1     -32.768  26.661  -1.933  1.00  0.00     0.033 C 
HETATM   19  C13 UNL     1     -31.956  25.544  -1.700  1.00  0.00     0.062 C 
HETATM   20  C14 UNL     1     -32.067  24.259  -2.148  1.00  0.00     0.076 C 
HETATM   21  C22 UNL     1     -33.182  23.759  -2.801  1.00  0.00     0.127 C 
HETATM   22  N12 UNL     1     -34.394  24.295  -3.019  1.00  0.00    -0.327 N 
ATOM     23  H12 UNL     1     -35.097  23.653  -3.386  1.00  0.00     0.169 HD
BRANCH  18  24
HETATM   24  N5  UNL     1     -32.210  27.932  -1.651  1.00  0.00    -0.387 N 
ATOM     25  H5  UNL     1     -31.433  28.259  -2.225  1.00  0.00     0.159 HD
BRANCH  24  26
HETATM   26  C10 UNL     1     -32.687  28.780  -0.596  1.00  0.00     0.153 C 
BRANCH  26  27
HETATM   27  C11 UNL     1     -31.713  28.849   0.546  1.00  0.00     0.159 C 
BRANCH  27  28
HETATM   28  O1  UNL     1     -32.087  28.073   1.623  1.00  0.00    -0.392 OA
ATOM     29  H1  UNL     1     -31.361  27.596   2.009  1.00  0.00     0.210 HD
ENDBRANCH  27  28
BRANCH  27  30
HETATM   30  C12 UNL     1     -30.350  28.395   0.067  1.00  0.00     0.197 C 
BRANCH  30  31
HETATM   31  O2  UNL     1     -30.005  27.161   0.620  1.00  0.00    -0.398 OA
ATOM     32  H2  UNL     1     -30.531  26.460   0.252  1.00  0.00     0.209 HD
ENDBRANCH  30  31
ENDBRANCH  27  30
ENDBRANCH  26  27
ENDBRANCH  24  26
ENDBRANCH  18  24
BRANCH  20  33
HETATM   33  N6  UNL     1     -31.011  23.376  -1.942  1.00  0.00    -0.358 N 
ATOM     34  H6  UNL     1     -31.265  22.453  -1.593  1.00  0.00     0.162 HD
BRANCH  33  35
HETATM   35  C15 UNL     1     -29.589  23.604  -2.162  1.00  0.00     0.245 C 
BRANCH  35  36
HETATM   36  O3  UNL     1     -29.004  22.770  -3.063  1.00  0.00    -0.373 OA
ATOM     37  H3  UNL     1     -28.054  22.761  -3.046  1.00  0.00     0.212 HD
ENDBRANCH  35  36
BRANCH  35  38
HETATM   38  C16 UNL     1     -28.958  23.734  -0.825  1.00  0.00     0.065 C 
BRANCH  38  39
HETATM   39  C17 UNL     1     -29.515  23.147   0.358  1.00  0.00     0.095 C 
BRANCH  39  40
HETATM   40  O4  UNL     1     -29.597  21.822   0.277  1.00  0.00    -0.358 OA
ATOM     41  H4  UNL     1     -30.431  21.530  -0.074  1.00  0.00     0.217 HD
ENDBRANCH  39  40
BRANCH  39  42
HETATM   42  C18 UNL     1     -30.001  23.671   1.603  1.00  0.00     0.112 A 
HETATM   43  N7  UNL     1     -31.097  24.419   1.779  1.00  0.00    -0.187 N 
HETATM   44  C19 UNL     1     -31.486  24.859   3.014  1.00  0.00     0.679 A 
ATOM     45  H7  UNL     1     -31.660  24.669   0.966  1.00  0.00     0.184 HD
HETATM   46  N9  UNL     1     -30.801  24.577   4.136  1.00  0.00    -0.155 N 
HETATM   47  C20 UNL     1     -29.695  23.830   4.013  1.00  0.00     0.286 A 
ATOM     48  H9  UNL     1     -31.111  24.917   5.046  1.00  0.00     0.187 HD
HETATM   49  O5  UNL     1     -29.026  23.548   5.067  1.00  0.00    -0.266 OA
HETATM   50  C21 UNL     1     -29.299  23.386   2.792  1.00  0.00     0.144 A 
HETATM   51  N10 UNL     1     -28.114  22.595   2.705  1.00  0.00    -0.094 NA
BRANCH  44  52
HETATM   52  N8  UNL     1     -32.554  25.576   3.103  1.00  0.00    -0.234 N 
ATOM     53  H82 UNL     1     -32.882  26.074   2.275  1.00  0.00     0.174 HD
ATOM     54  H81 UNL     1     -33.036  25.621   4.000  1.00  0.00     0.174 HD
ENDBRANCH  44  52
ENDBRANCH  39  42
ENDBRANCH  38  39
ENDBRANCH  35  38
ENDBRANCH  33  35
ENDBRANCH  20  33
BRANCH  21  55
HETATM   55  N11 UNL     1     -33.006  22.577  -3.271  1.00  0.00    -0.384 N 
ATOM     56 2H11 UNL     1     -32.195  22.075  -2.908  1.00  0.00     0.157 HD
ATOM     57 1H11 UNL     1     -33.716  22.305  -3.952  1.00  0.00     0.157 HD
ENDBRANCH  21  55
ENDBRANCH  14  16
ENDBRANCH  13  14
ENDBRANCH  10  13
TORSDOF 18
ENDMDL
MODEL 2
REMARK VINA RESULT: -8.018111833      3.345      5.200
REMARK  18 active torsions:
REMARK  status: ('A' for Active; 'I' for Inactive)
REMARK    1  A    between atoms: C5_10  and  C6_11 
REMARK    2  A    between atoms: C6_11  and  N4_12 
REMARK    3  A    between atoms: N4_12  and  C7_14 
REMARK    4  A    between atoms: C9_16  and  N5_17 
REMARK    5  A    between atoms: N5_17  and  C10_19 
REMARK    6  A    between atoms: C10_19  and  C11_20 
REMARK    7  A    between atoms: C11_20  and  O1_21 
REMARK    8  A    between atoms: C11_20  and  C12_23 
REMARK    9  A    between atoms: C12_23  and  O2_24 
REMARK   10  A    between atoms: C14_27  and  N6_28 
REMARK   11  A    between atoms: N6_28  and  C15_30 
REMARK   12  A    between atoms: C15_30  and  O3_31 
REMARK   13  A    between atoms: C15_30  and  C16_33 
REMARK   14  A    between atoms: C16_33  and  C17_34 
REMARK   15  A    between atoms: C17_34  and  O4_35 
REMARK   16  A    between atoms: C17_34  and  C18_37 
REMARK   17  A    between atoms: C19_40  and  N8_41 
REMARK   18  A    between atoms: C22_50  and  N11_51 
ROOT
HETATM    1  N1  UNL     1     -43.671  26.305  -6.841  1.00  0.00    -0.188 NA
HETATM    2  C1  UNL     1     -43.667  25.521  -5.986  1.00  0.00     0.139 C 
HETATM    3  C2  UNL     1     -43.641  24.545  -4.935  1.00  0.00     0.211 A 
HETATM    4  N2  UNL     1     -44.662  23.954  -4.298  1.00  0.00    -0.275 N 
ATOM      5  H2  UNL     1     -45.648  24.131  -4.489  1.00  0.00     0.189 HD
HETATM    6  N3  UNL     1     -44.209  23.106  -3.386  1.00  0.00    -0.283 N 
ATOM      7  H3  UNL     1     -44.783  22.532  -2.769  1.00  0.00     0.188 HD
HETATM    8  C3  UNL     1     -42.863  23.131  -3.412  1.00  0.00     0.129 A 
HETATM    9  C4  UNL     1     -41.730  22.592  -2.833  1.00  0.00     0.060 A 
HETATM   10  C5  UNL     1     -40.655  23.177  -3.463  1.00  0.00    -0.021 A 
HETATM   11  C23 UNL     1     -41.178  24.045  -4.397  1.00  0.00     0.110 A 
HETATM   12  N13 UNL     1     -42.522  24.014  -4.362  1.00  0.00    -0.282 N 
ENDROOT
BRANCH  10  13
HETATM   13  C6  UNL     1     -39.188  22.947  -3.220  1.00  0.00     0.161 C 
BRANCH  13  14
HETATM   14  N4  UNL     1     -38.706  23.921  -2.295  1.00  0.00    -0.372 N 
ATOM     15  H4  UNL     1     -39.256  24.052  -1.446  1.00  0.00     0.161 HD
BRANCH  14  16
HETATM   16  C7  UNL     1     -37.661  24.647  -2.412  1.00  0.00     0.104 C 
HETATM   17  C8  UNL     1     -37.864  25.763  -3.223  1.00  0.00     0.077 C 
HETATM   18  C9  UNL     1     -37.023  26.839  -3.414  1.00  0.00     0.033 C 
HETATM   19  C13 UNL     1     -35.803  27.058  -2.764  1.00  0.00     0.062 C 
HETATM   20  C14 UNL     1     -35.001  26.198  -2.070  1.00  0.00     0.076 C 
HETATM   21  C22 UNL     1     -35.375  24.915  -1.702  1.00  0.00     0.127 C 
HETATM   22  N12 UNL     1     -36.555  24.280  -1.784  1.00  0.00    -0.327 N 
ATOM     23  H12 UNL     1     -36.608  23.388  -1.291  1.00  0.00     0.169 HD
BRANCH  18  24
HETATM   24  N5  UNL     1     -37.434  27.812  -4.357  1.00  0.00    -0.387 N 
ATOM     25  H5  UNL     1     -36.726  28.423  -4.764  1.00  0.00     0.159 HD
BRANCH  24  26
HETATM   26  C10 UNL     1     -38.800  27.980  -4.767  1.00  0.00     0.153 C 
BRANCH  26  27
HETATM   27  C11 UNL     1     -38.987  27.660  -6.223  1.00  0.00     0.159 C 
BRANCH  27  28
HETATM   28  O1  UNL     1     -38.634  26.367  -6.544  1.00  0.00    -0.392 OA
ATOM     29  H1  UNL     1     -39.326  25.891  -6.988  1.00  0.00     0.210 HD
ENDBRANCH  27  28
BRANCH  27  30
HETATM   30  C12 UNL     1     -40.438  27.878  -6.599  1.00  0.00     0.197 C 
BRANCH  30  31
HETATM   31  O2  UNL     1     -40.811  27.062  -7.667  1.00  0.00    -0.398 OA
ATOM     32  H2  UNL     1     -41.747  27.108  -7.824  1.00  0.00     0.209 HD
ENDBRANCH  30  31
ENDBRANCH  27  30
ENDBRANCH  26  27
ENDBRANCH  24  26
ENDBRANCH  18  24
BRANCH  20  33
HETATM   33  N6  UNL     1     -33.728  26.614  -1.691  1.00  0.00    -0.358 N 
ATOM     34  H6  UNL     1     -33.633  26.936  -0.728  1.00  0.00     0.162 HD
BRANCH  33  35
HETATM   35  C15 UNL     1     -32.515  26.648  -2.495  1.00  0.00     0.245 C 
BRANCH  35  36
HETATM   36  O3  UNL     1     -32.490  25.779  -3.541  1.00  0.00    -0.373 OA
ATOM     37  H3  UNL     1     -31.711  25.820  -4.082  1.00  0.00     0.212 HD
ENDBRANCH  35  36
BRANCH  35  38
HETATM   38  C16 UNL     1     -31.368  26.632  -1.552  1.00  0.00     0.065 C 
BRANCH  38  39
HETATM   39  C17 UNL     1     -31.178  25.597  -0.579  1.00  0.00     0.095 C 
BRANCH  39  40
HETATM   40  O4  UNL     1     -31.478  24.392  -1.053  1.00  0.00    -0.358 OA
ATOM     41  H4  UNL     1     -31.427  23.716  -0.386  1.00  0.00     0.217 HD
ENDBRANCH  39  40
BRANCH  39  42
HETATM   42  C18 UNL     1     -30.736  25.577   0.787  1.00  0.00     0.112 A 
HETATM   43  N7  UNL     1     -29.468  25.529   1.214  1.00  0.00    -0.187 N 
HETATM   44  C19 UNL     1     -29.149  25.528   2.544  1.00  0.00     0.679 A 
ATOM     45  H7  UNL     1     -28.717  25.491   0.525  1.00  0.00     0.184 HD
HETATM   46  N9  UNL     1     -30.077  25.574   3.515  1.00  0.00    -0.155 N 
HETATM   47  C20 UNL     1     -31.362  25.624   3.139  1.00  0.00     0.286 A 
ATOM     48  H9  UNL     1     -29.813  25.572   4.500  1.00  0.00     0.187 HD
HETATM   49  O5  UNL     1     -32.264  25.669   4.046  1.00  0.00    -0.266 OA
HETATM   50  C21 UNL     1     -31.692  25.626   1.822  1.00  0.00     0.144 A 
HETATM   51  N10 UNL     1     -33.074  25.678   1.465  1.00  0.00    -0.094 NA
BRANCH  44  52
HETATM   52  N8  UNL     1     -27.904  25.479   2.876  1.00  0.00    -0.234 N 
ATOM     53  H82 UNL     1     -27.262  24.936   2.299  1.00  0.00     0.174 HD
ATOM     54  H81 UNL     1     -27.602  25.988   3.707  1.00  0.00     0.174 HD
ENDBRANCH  44  52
ENDBRANCH  39  42
ENDBRANCH  38  39
ENDBRANCH  35  38
ENDBRANCH  33  35
ENDBRANCH  20  33
BRANCH  21  55
HETATM   55  N11 UNL     1     -34.412  24.232  -1.198  1.00  0.00    -0.384 N 
ATOM     56 2H11 UNL     1     -34.119  23.418  -1.740  1.00  0.00     0.157 HD
ATOM     57 1H11 UNL     1     -34.072  24.607  -0.313  1.00  0.00     0.157 HD
ENDBRANCH  21  55
ENDBRANCH  14  16
ENDBRANCH  13  14
ENDBRANCH  10  13
TORSDOF 18
ENDMDL
MODEL 3
REMARK VINA RESULT: -7.901627086      5.468     12.063
REMARK  18 active torsions:
REMARK  status: ('A' for Active; 'I' for Inactive)
REMARK    1  A    between atoms: C5_10  and  C6_11 
REMARK    2  A    between atoms: C6_11  and  N4_12 
REMARK    3  A    between atoms: N4_12  and  C7_14 
REMARK    4  A    between atoms: C9_16  and  N5_17 
REMARK    5  A    between atoms: N5_17  and  C10_19 
REMARK    6  A    between atoms: C10_19  and  C11_20 
REMARK    7  A    between atoms: C11_20  and  O1_21 
REMARK    8  A    between atoms: C11_20  and  C12_23 
REMARK    9  A    between atoms: C12_23  and  O2_24 
REMARK   10  A    between atoms: C14_27  and  N6_28 
REMARK   11  A    between atoms: N6_28  and  C15_30 
REMARK   12  A    between atoms: C15_30  and  O3_31 
REMARK   13  A    between atoms: C15_30  and  C16_33 
REMARK   14  A    between atoms: C16_33  and  C17_34 
REMARK   15  A    between atoms: C17_34  and  O4_35 
REMARK   16  A    between atoms: C17_34  and  C18_37 
REMARK   17  A    between atoms: C19_40  and  N8_41 
REMARK   18  A    between atoms: C22_50  and  N11_51 
ROOT
HETATM    1  N1  UNL     1     -33.146  25.239   3.072  1.00  0.00    -0.188 NA
HETATM    2  C1  UNL     1     -32.690  25.168   2.008  1.00  0.00     0.139 C 
HETATM    3  C2  UNL     1     -32.147  25.076   0.684  1.00  0.00     0.211 A 
HETATM    4  N2  UNL     1     -30.888  24.825   0.296  1.00  0.00    -0.275 N 
ATOM      5  H2  UNL     1     -30.107  24.657   0.929  1.00  0.00     0.189 HD
HETATM    6  N3  UNL     1     -30.803  24.825  -1.026  1.00  0.00    -0.283 N 
ATOM      7  H3  UNL     1     -29.955  24.660  -1.568  1.00  0.00     0.188 HD
HETATM    8  C3  UNL     1     -32.024  25.082  -1.532  1.00  0.00     0.129 A 
HETATM    9  C4  UNL     1     -32.728  25.239  -2.711  1.00  0.00     0.060 A 
HETATM   10  C5  UNL     1     -34.032  25.500  -2.354  1.00  0.00    -0.021 A 
HETATM   11  C23 UNL     1     -34.066  25.488  -0.976  1.00  0.00     0.110 A 
HETATM   12  N13 UNL     1     -32.842  25.234  -0.481  1.00  0.00    -0.282 N 
ENDROOT
BRANCH  10  13
HETATM   13  C6  UNL     1     -35.216  25.749  -3.248  1.00  0.00     0.161 C 
BRANCH  13  14
HETATM   14  N4  UNL     1     -36.025  24.573  -3.296  1.00  0.00    -0.372 N 
ATOM     15  H4  UNL     1     -35.530  23.682  -3.292  1.00  0.00     0.161 HD
BRANCH  14  16
HETATM   16  C7  UNL     1     -37.301  24.515  -3.342  1.00  0.00     0.104 C 
HETATM   17  C8  UNL     1     -37.898  25.771  -3.432  1.00  0.00     0.077 C 
HETATM   18  C9  UNL     1     -39.221  26.067  -3.683  1.00  0.00     0.033 C 
HETATM   19  C13 UNL     1     -40.233  25.143  -3.971  1.00  0.00     0.062 C 
HETATM   20  C14 UNL     1     -40.281  23.792  -3.777  1.00  0.00     0.076 C 
HETATM   21  C22 UNL     1     -39.189  23.021  -3.411  1.00  0.00     0.127 C 
HETATM   22  N12 UNL     1     -37.886  23.328  -3.303  1.00  0.00    -0.327 N 
ATOM     23  H12 UNL     1     -37.258  22.535  -3.173  1.00  0.00     0.169 HD
BRANCH  18  24
HETATM   24  N5  UNL     1     -39.589  27.433  -3.645  1.00  0.00    -0.387 N 
ATOM     25  H5  UNL     1     -40.109  27.774  -2.837  1.00  0.00     0.159 HD
BRANCH  24  26
HETATM   26  C10 UNL     1     -39.266  28.361  -4.692  1.00  0.00     0.153 C 
BRANCH  26  27
HETATM   27  C11 UNL     1     -40.279  29.467  -4.788  1.00  0.00     0.159 C 
BRANCH  27  28
HETATM   28  O1  UNL     1     -39.745  30.652  -5.247  1.00  0.00    -0.392 OA
ATOM     29  H1  UNL     1     -39.964  31.397  -4.698  1.00  0.00     0.210 HD
ENDBRANCH  27  28
BRANCH  27  30
HETATM   30  C12 UNL     1     -41.395  29.042  -5.718  1.00  0.00     0.197 C 
BRANCH  30  31
HETATM   31  O2  UNL     1     -42.022  27.883  -5.259  1.00  0.00    -0.398 OA
ATOM     32  H2  UNL     1     -42.452  27.419  -5.968  1.00  0.00     0.209 HD
ENDBRANCH  30  31
ENDBRANCH  27  30
ENDBRANCH  26  27
ENDBRANCH  24  26
ENDBRANCH  18  24
BRANCH  20  33
HETATM   33  N6  UNL     1     -41.488  23.124  -3.959  1.00  0.00    -0.358 N 
ATOM     34  H6  UNL     1     -41.644  22.731  -4.886  1.00  0.00     0.162 HD
BRANCH  33  35
HETATM   35  C15 UNL     1     -42.557  22.915  -2.992  1.00  0.00     0.245 C 
BRANCH  35  36
HETATM   36  O3  UNL     1     -42.441  21.789  -2.238  1.00  0.00    -0.373 OA
ATOM     37  H3  UNL     1     -41.658  21.741  -1.703  1.00  0.00     0.212 HD
ENDBRANCH  35  36
BRANCH  35  38
HETATM   38  C16 UNL     1     -43.839  23.143  -3.705  1.00  0.00     0.065 C 
BRANCH  38  39
HETATM   39  C17 UNL     1     -43.945  23.134  -5.134  1.00  0.00     0.095 C 
BRANCH  39  40
HETATM   40  O4  UNL     1     -43.891  21.905  -5.640  1.00  0.00    -0.358 OA
ATOM     41  H4  UNL     1     -44.115  21.239  -5.000  1.00  0.00     0.217 HD
ENDBRANCH  39  40
BRANCH  39  42
HETATM   42  C18 UNL     1     -44.097  24.153  -6.134  1.00  0.00     0.112 A 
HETATM   43  N7  UNL     1     -43.125  24.923  -6.640  1.00  0.00    -0.187 N 
HETATM   44  C19 UNL     1     -43.370  25.861  -7.605  1.00  0.00     0.679 A 
ATOM     45  H7  UNL     1     -42.173  24.807  -6.294  1.00  0.00     0.184 HD
HETATM   46  N9  UNL     1     -44.595  26.079  -8.114  1.00  0.00    -0.155 N 
HETATM   47  C20 UNL     1     -45.602  25.333  -7.640  1.00  0.00     0.286 A 
ATOM     48  H9  UNL     1     -44.752  26.785  -8.833  1.00  0.00     0.187 HD
HETATM   49  O5  UNL     1     -46.778  25.522  -8.109  1.00  0.00    -0.266 OA
HETATM   50  C21 UNL     1     -45.372  24.398  -6.682  1.00  0.00     0.144 A 
HETATM   51  N10 UNL     1     -46.473  23.626  -6.204  1.00  0.00    -0.094 NA
BRANCH  44  52
HETATM   52  N8  UNL     1     -42.382  26.565  -8.042  1.00  0.00    -0.234 N 
ATOM     53  H82 UNL     1     -41.947  27.243  -7.417  1.00  0.00     0.174 HD
ATOM     54  H81 UNL     1     -42.067  26.418  -9.001  1.00  0.00     0.174 HD
ENDBRANCH  44  52
ENDBRANCH  39  42
ENDBRANCH  38  39
ENDBRANCH  35  38
ENDBRANCH  33  35
ENDBRANCH  20  33
BRANCH  21  55
HETATM   55  N11 UNL     1     -39.497  21.807  -3.131  1.00  0.00    -0.384 N 
ATOM     56 2H11 UNL     1     -39.930  21.277  -3.888  1.00  0.00     0.157 HD
ATOM     57 1H11 UNL     1     -39.260  21.542  -2.175  1.00  0.00     0.157 HD
ENDBRANCH  21  55
ENDBRANCH  14  16
ENDBRANCH  13  14
ENDBRANCH  10  13
TORSDOF 18
ENDMDL
MODEL 4
REMARK VINA RESULT: -7.859439739      5.263      9.401
REMARK  18 active torsions:
REMARK  status: ('A' for Active; 'I' for Inactive)
REMARK    1  A    between atoms: C5_10  and  C6_11 
REMARK    2  A    between atoms: C6_11  and  N4_12 
REMARK    3  A    between atoms: N4_12  and  C7_14 
REMARK    4  A    between atoms: C9_16  and  N5_17 
REMARK    5  A    between atoms: N5_17  and  C10_19 
REMARK    6  A    between atoms: C10_19  and  C11_20 
REMARK    7  A    between atoms: C11_20  and  O1_21 
REMARK    8  A    between atoms: C11_20  and  C12_23 
REMARK    9  A    between atoms: C12_23  and  O2_24 
REMARK   10  A    between atoms: C14_27  and  N6_28 
REMARK   11  A    between atoms: N6_28  and  C15_30 
REMARK   12  A    between atoms: C15_30  and  O3_31 
REMARK   13  A    between atoms: C15_30  and  C16_33 
REMARK   14  A    between atoms: C16_33  and  C17_34 
REMARK   15  A    between atoms: C17_34  and  O4_35 
REMARK   16  A    between atoms: C17_34  and  C18_37 
REMARK   17  A    between atoms: C19_40  and  N8_41 
REMARK   18  A    between atoms: C22_50  and  N11_51 
ROOT
HETATM    1  N1  UNL     1     -37.845  26.829 -11.191  1.00  0.00    -0.188 NA
HETATM    2  C1  UNL     1     -38.975  27.077 -11.103  1.00  0.00     0.139 C 
HETATM    3  C2  UNL     1     -40.370  27.380 -10.973  1.00  0.00     0.211 A 
HETATM    4  N2  UNL     1     -41.334  27.367 -11.905  1.00  0.00    -0.275 N 
ATOM      5  H2  UNL     1     -41.193  27.126 -12.886  1.00  0.00     0.189 HD
HETATM    6  N3  UNL     1     -42.498  27.711 -11.372  1.00  0.00    -0.283 N 
ATOM      7  H3  UNL     1     -43.385  27.777 -11.870  1.00  0.00     0.188 HD
HETATM    8  C3  UNL     1     -42.309  27.960 -10.062  1.00  0.00     0.129 A 
HETATM    9  C4  UNL     1     -42.953  28.338  -8.898  1.00  0.00     0.060 A 
HETATM   10  C5  UNL     1     -41.992  28.363  -7.913  1.00  0.00    -0.021 A 
HETATM   11  C23 UNL     1     -40.807  28.000  -8.517  1.00  0.00     0.110 A 
HETATM   12  N13 UNL     1     -41.006  27.755  -9.824  1.00  0.00    -0.282 N 
ENDROOT
BRANCH  10  13
HETATM   13  C6  UNL     1     -42.152  28.707  -6.457  1.00  0.00     0.161 C 
BRANCH  13  14
HETATM   14  N4  UNL     1     -42.654  27.568  -5.757  1.00  0.00    -0.372 N 
ATOM     15  H4  UNL     1     -43.654  27.386  -5.845  1.00  0.00     0.161 HD
BRANCH  14  16
HETATM   16  C7  UNL     1     -41.989  26.752  -5.033  1.00  0.00     0.104 C 
HETATM   17  C8  UNL     1     -42.522  25.463  -5.041  1.00  0.00     0.077 C 
HETATM   18  C9  UNL     1     -41.964  24.311  -4.529  1.00  0.00     0.033 C 
HETATM   19  C13 UNL     1     -40.696  24.195  -3.948  1.00  0.00     0.062 C 
HETATM   20  C14 UNL     1     -39.854  25.153  -3.459  1.00  0.00     0.076 C 
HETATM   21  C22 UNL     1     -40.041  26.515  -3.638  1.00  0.00     0.127 C 
HETATM   22  N12 UNL     1     -40.923  27.195  -4.387  1.00  0.00    -0.327 N 
ATOM     23  H12 UNL     1     -40.745  28.197  -4.471  1.00  0.00     0.169 HD
BRANCH  18  24
HETATM   24  N5  UNL     1     -42.750  23.135  -4.597  1.00  0.00    -0.387 N 
ATOM     25  H5  UNL     1     -42.280  22.233  -4.530  1.00  0.00     0.159 HD
BRANCH  24  26
HETATM   26  C10 UNL     1     -44.176  23.153  -4.758  1.00  0.00     0.153 C 
BRANCH  26  27
HETATM   27  C11 UNL     1     -44.587  22.711  -6.134  1.00  0.00     0.159 C 
BRANCH  27  28
HETATM   28  O1  UNL     1     -43.526  22.597  -7.006  1.00  0.00    -0.392 OA
ATOM     29  H1  UNL     1     -43.724  22.917  -7.878  1.00  0.00     0.210 HD
ENDBRANCH  27  28
BRANCH  27  30
HETATM   30  C12 UNL     1     -45.287  21.372  -6.039  1.00  0.00     0.197 C 
BRANCH  30  31
HETATM   31  O2  UNL     1     -44.385  20.318  -6.188  1.00  0.00    -0.398 OA
ATOM     32  H2  UNL     1     -44.771  19.600  -6.675  1.00  0.00     0.209 HD
ENDBRANCH  30  31
ENDBRANCH  27  30
ENDBRANCH  26  27
ENDBRANCH  24  26
ENDBRANCH  18  24
BRANCH  20  33
HETATM   33  N6  UNL     1     -38.728  24.763  -2.740  1.00  0.00    -0.358 N 
ATOM     34  H6  UNL     1     -38.877  24.570  -1.750  1.00  0.00     0.162 HD
BRANCH  33  35
HETATM   35  C15 UNL     1     -37.364  24.594  -3.223  1.00  0.00     0.245 C 
BRANCH  35  36
HETATM   36  O3  UNL     1     -37.137  23.451  -3.923  1.00  0.00    -0.373 OA
ATOM     37  H3  UNL     1     -36.226  23.281  -4.133  1.00  0.00     0.212 HD
ENDBRANCH  35  36
BRANCH  35  38
HETATM   38  C16 UNL     1     -36.461  24.903  -2.086  1.00  0.00     0.065 C 
BRANCH  38  39
HETATM   39  C17 UNL     1     -35.037  24.755  -2.162  1.00  0.00     0.095 C 
BRANCH  39  40
HETATM   40  O4  UNL     1     -34.522  24.221  -1.058  1.00  0.00    -0.358 OA
ATOM     41  H4  UNL     1     -33.579  24.117  -1.111  1.00  0.00     0.217 HD
ENDBRANCH  39  40
BRANCH  39  42
HETATM   42  C18 UNL     1     -34.051  25.053  -3.161  1.00  0.00     0.112 A 
HETATM   43  N7  UNL     1     -33.979  24.529  -4.391  1.00  0.00    -0.187 N 
HETATM   44  C19 UNL     1     -33.005  24.892  -5.280  1.00  0.00     0.679 A 
ATOM     45  H7  UNL     1     -34.673  23.837  -4.674  1.00  0.00     0.184 HD
HETATM   46  N9  UNL     1     -32.053  25.795  -4.987  1.00  0.00    -0.155 N 
HETATM   47  C20 UNL     1     -32.081  26.349  -3.767  1.00  0.00     0.286 A 
ATOM     48  H9  UNL     1     -31.336  26.048  -5.667  1.00  0.00     0.187 HD
HETATM   49  O5  UNL     1     -31.185  27.211  -3.465  1.00  0.00    -0.266 OA
HETATM   50  C21 UNL     1     -33.044  25.998  -2.876  1.00  0.00     0.144 A 
HETATM   51  N10 UNL     1     -33.037  26.611  -1.587  1.00  0.00    -0.094 NA
BRANCH  44  52
HETATM   52  N8  UNL     1     -33.001  24.342  -6.446  1.00  0.00    -0.234 N 
ATOM     53  H82 UNL     1     -33.311  24.890  -7.249  1.00  0.00     0.174 HD
ATOM     54  H81 UNL     1     -32.687  23.375  -6.527  1.00  0.00     0.174 HD
ENDBRANCH  44  52
ENDBRANCH  39  42
ENDBRANCH  38  39
ENDBRANCH  35  38
ENDBRANCH  33  35
ENDBRANCH  20  33
BRANCH  21  55
HETATM   55  N11 UNL     1     -39.219  27.232  -2.961  1.00  0.00    -0.384 N 
ATOM     56 2H11 UNL     1     -38.415  26.735  -2.576  1.00  0.00     0.157 HD
ATOM     57 1H11 UNL     1     -39.493  28.213  -2.904  1.00  0.00     0.157 HD
ENDBRANCH  21  55
ENDBRANCH  14  16
ENDBRANCH  13  14
ENDBRANCH  10  13
TORSDOF 18
ENDMDL
MODEL 5
REMARK VINA RESULT: -7.851847304      5.778     12.428
REMARK  18 active torsions:
REMARK  status: ('A' for Active; 'I' for Inactive)
REMARK    1  A    between atoms: C5_10  and  C6_11 
REMARK    2  A    between atoms: C6_11  and  N4_12 
REMARK    3  A    between atoms: N4_12  and  C7_14 
REMARK    4  A    between atoms: C9_16  and  N5_17 
REMARK    5  A    between atoms: N5_17  and  C10_19 
REMARK    6  A    between atoms: C10_19  and  C11_20 
REMARK    7  A    between atoms: C11_20  and  O1_21 
REMARK    8  A    between atoms: C11_20  and  C12_23 
REMARK    9  A    between atoms: C12_23  and  O2_24 
REMARK   10  A    between atoms: C14_27  and  N6_28 
REMARK   11  A    between atoms: N6_28  and  C15_30 
REMARK   12  A    between atoms: C15_30  and  O3_31 
REMARK   13  A    between atoms: C15_30  and  C16_33 
REMARK   14  A    between atoms: C16_33  and  C17_34 
REMARK   15  A    between atoms: C17_34  and  O4_35 
REMARK   16  A    between atoms: C17_34  and  C18_37 
REMARK   17  A    between atoms: C19_40  and  N8_41 
REMARK   18  A    between atoms: C22_50  and  N11_51 
ROOT
HETATM    1  N1  UNL     1     -33.151  25.347   3.174  1.00  0.00    -0.188 NA
HETATM    2  C1  UNL     1     -32.705  25.729   2.173  1.00  0.00     0.139 C 
HETATM    3  C2  UNL     1     -32.167  26.186   0.925  1.00  0.00     0.211 A 
HETATM    4  N2  UNL     1     -31.057  26.901   0.688  1.00  0.00    -0.275 N 
ATOM      5  H2  UNL     1     -30.414  27.233   1.407  1.00  0.00     0.189 HD
HETATM    6  N3  UNL     1     -30.914  27.115  -0.611  1.00  0.00    -0.283 N 
ATOM      7  H3  UNL     1     -30.152  27.631  -1.050  1.00  0.00     0.188 HD
HETATM    8  C3  UNL     1     -31.945  26.535  -1.255  1.00  0.00     0.129 A 
HETATM    9  C4  UNL     1     -32.491  26.313  -2.506  1.00  0.00     0.060 A 
HETATM   10  C5  UNL     1     -33.638  25.578  -2.303  1.00  0.00    -0.021 A 
HETATM   11  C23 UNL     1     -33.740  25.384  -0.943  1.00  0.00     0.110 A 
HETATM   12  N13 UNL     1     -32.707  25.968  -0.310  1.00  0.00    -0.282 N 
ENDROOT
BRANCH  10  13
HETATM   13  C6  UNL     1     -34.613  25.064  -3.327  1.00  0.00     0.161 C 
BRANCH  13  14
HETATM   14  N4  UNL     1     -35.741  24.496  -2.660  1.00  0.00    -0.372 N 
ATOM     15  H4  UNL     1     -35.549  23.991  -1.795  1.00  0.00     0.161 HD
BRANCH  14  16
HETATM   16  C7  UNL     1     -36.964  24.552  -3.026  1.00  0.00     0.104 C 
HETATM   17  C8  UNL     1     -37.403  25.855  -3.253  1.00  0.00     0.077 C 
HETATM   18  C9  UNL     1     -38.589  26.264  -3.825  1.00  0.00     0.033 C 
HETATM   19  C13 UNL     1     -39.575  25.430  -4.366  1.00  0.00     0.062 C 
HETATM   20  C14 UNL     1     -39.793  24.092  -4.201  1.00  0.00     0.076 C 
HETATM   21  C22 UNL     1     -38.901  23.233  -3.579  1.00  0.00     0.127 C 
HETATM   22  N12 UNL     1     -37.645  23.423  -3.145  1.00  0.00    -0.327 N 
ATOM     23  H12 UNL     1     -37.145  22.579  -2.867  1.00  0.00     0.169 HD
BRANCH  18  24
HETATM   24  N5  UNL     1     -38.829  27.659  -3.871  1.00  0.00    -0.387 N 
ATOM     25  H5  UNL     1     -39.001  28.151  -2.995  1.00  0.00     0.159 HD
BRANCH  24  26
HETATM   26  C10 UNL     1     -38.842  28.412  -5.093  1.00  0.00     0.153 C 
BRANCH  26  27
HETATM   27  C11 UNL     1     -39.974  29.401  -5.125  1.00  0.00     0.159 C 
BRANCH  27  28
HETATM   28  O1  UNL     1     -39.720  30.488  -5.933  1.00  0.00    -0.392 OA
ATOM     29  H1  UNL     1     -39.777  31.317  -5.472  1.00  0.00     0.210 HD
ENDBRANCH  27  28
BRANCH  27  30
HETATM   30  C12 UNL     1     -41.227  28.708  -5.618  1.00  0.00     0.197 C 
BRANCH  30  31
HETATM   31  O2  UNL     1     -41.903  28.082  -4.570  1.00  0.00    -0.398 OA
ATOM     32  H2  UNL     1     -42.828  27.984  -4.766  1.00  0.00     0.209 HD
ENDBRANCH  30  31
ENDBRANCH  27  30
ENDBRANCH  26  27
ENDBRANCH  24  26
ENDBRANCH  18  24
BRANCH  20  33
HETATM   33  N6  UNL     1     -40.971  23.533  -4.686  1.00  0.00    -0.358 N 
ATOM     34  H6  UNL     1     -40.914  23.108  -5.611  1.00  0.00     0.162 HD
BRANCH  33  35
HETATM   35  C15 UNL     1     -42.274  23.476  -4.039  1.00  0.00     0.245 C 
BRANCH  35  36
HETATM   36  O3  UNL     1     -42.646  22.246  -3.595  1.00  0.00    -0.373 OA
ATOM     37  H3  UNL     1     -43.201  22.245  -2.824  1.00  0.00     0.212 HD
ENDBRANCH  35  36
BRANCH  35  38
HETATM   38  C16 UNL     1     -43.223  24.215  -4.910  1.00  0.00     0.065 C 
BRANCH  38  39
HETATM   39  C17 UNL     1     -43.879  23.611  -6.033  1.00  0.00     0.095 C 
BRANCH  39  40
HETATM   40  O4  UNL     1     -43.021  23.214  -6.968  1.00  0.00    -0.358 OA
ATOM     41  H4  UNL     1     -42.148  23.068  -6.622  1.00  0.00     0.217 HD
ENDBRANCH  39  40
BRANCH  39  42
HETATM   42  C18 UNL     1     -45.249  23.343  -6.367  1.00  0.00     0.112 A 
HETATM   43  N7  UNL     1     -46.126  24.210  -6.887  1.00  0.00    -0.187 N 
HETATM   44  C19 UNL     1     -47.412  23.852  -7.187  1.00  0.00     0.679 A 
ATOM     45  H7  UNL     1     -45.827  25.169  -7.066  1.00  0.00     0.184 HD
HETATM   46  N9  UNL     1     -47.887  22.611  -6.982  1.00  0.00    -0.155 N 
HETATM   47  C20 UNL     1     -47.048  21.706  -6.463  1.00  0.00     0.286 A 
ATOM     48  H9  UNL     1     -48.850  22.369  -7.213  1.00  0.00     0.187 HD
HETATM   49  O5  UNL     1     -47.477  20.518  -6.259  1.00  0.00    -0.266 OA
HETATM   50  C21 UNL     1     -45.768  22.049  -6.162  1.00  0.00     0.144 A 
HETATM   51  N10 UNL     1     -44.907  21.054  -5.609  1.00  0.00    -0.094 NA
BRANCH  44  52
HETATM   52  N8  UNL     1     -48.198  24.744  -7.685  1.00  0.00    -0.234 N 
ATOM     53  H82 UNL     1     -48.810  25.266  -7.057  1.00  0.00     0.174 HD
ATOM     54  H81 UNL     1     -48.181  24.899  -8.693  1.00  0.00     0.174 HD
ENDBRANCH  44  52
ENDBRANCH  39  42
ENDBRANCH  38  39
ENDBRANCH  35  38
ENDBRANCH  33  35
ENDBRANCH  20  33
BRANCH  21  55
HETATM   55  N11 UNL     1     -39.378  22.055  -3.395  1.00  0.00    -0.384 N 
ATOM     56 2H11 UNL     1     -40.388  21.965  -3.513  1.00  0.00     0.157 HD
ATOM     57 1H11 UNL     1     -38.667  21.366  -3.153  1.00  0.00     0.157 HD
ENDBRANCH  21  55
ENDBRANCH  14  16
ENDBRANCH  13  14
ENDBRANCH  10  13
TORSDOF 18
ENDMDL
