MODEL 1
REMARK VINA RESULT: -8.011801046      0.000      0.000
REMARK  11 active torsions:
REMARK  status: ('A' for Active; 'I' for Inactive)
REMARK    1  A    between atoms: C2_2  and  C3_3 
REMARK    2  A    between atoms: C2_2  and  C24_30 
REMARK    3  A    between atoms: C4_4  and  C5_5 
REMARK    4  A    between atoms: C5_5  and  O1_7 
REMARK    5  A    between atoms: C5_5  and  C12_15 
REMARK    6  A    between atoms: O1_7  and  C7_8 
REMARK    7  A    between atoms: C7_8  and  O3_10 
REMARK    8  A    between atoms: O3_10  and  C8_11 
REMARK    9  A    between atoms: C12_15  and  C13_17 
REMARK   10  A    between atoms: C20_24  and  O5_25 
REMARK   11  A    between atoms: C24_30  and  O6_31 
ROOT
HETATM    1  C5  UNL     1       9.035 161.232  31.980  1.00  0.00     0.148 C 
HETATM    2  C6  UNL     1       7.532 161.336  32.197  1.00  0.00     0.060 C 
ENDROOT
BRANCH   1   3
HETATM    3  C4  UNL     1       9.505 160.576  33.261  1.00  0.00     0.015 C 
HETATM    4  C3  UNL     1      10.448 161.117  34.004  1.00  0.00    -0.021 C 
BRANCH   4   5
HETATM    5  C2  UNL     1      10.967 160.555  35.260  1.00  0.00     0.027 C 
HETATM    6  C1  UNL     1      10.964 159.051  35.217  1.00  0.00     0.016 C 
BRANCH   5   7
HETATM    7  C24 UNL     1      12.296 161.113  35.680  1.00  0.00     0.172 C 
BRANCH   7   8
HETATM    8  O6  UNL     1      12.943 160.356  36.638  1.00  0.00    -0.400 OA
ATOM      9  H6  UNL     1      13.828 160.648  36.826  1.00  0.00     0.209 HD
ENDBRANCH   7   8
ENDBRANCH   5   7
ENDBRANCH   4   5
ENDBRANCH   1   3
BRANCH   1  10
HETATM   10  O1  UNL     1       9.653 162.479  31.928  1.00  0.00    -0.275 OA
BRANCH  10  11
HETATM   11  C7  UNL     1       9.148 163.596  31.319  1.00  0.00     0.408 C 
HETATM   12  O2  UNL     1       8.908 163.552  30.101  1.00  0.00    -0.229 OA
BRANCH  11  13
HETATM   13  O3  UNL     1       8.898 164.760  32.002  1.00  0.00    -0.288 OA
BRANCH  13  14
HETATM   14  C8  UNL     1       9.919 165.691  32.290  1.00  0.00     0.062 C 
HETATM   15  C9  UNL     1      10.746 165.324  33.479  1.00  0.00     0.046 C 
HETATM   16  C10 UNL     1      10.760 165.892  31.039  1.00  0.00     0.046 C 
HETATM   17  C11 UNL     1       9.274 167.042  32.587  1.00  0.00     0.046 C 
ENDBRANCH  13  14
ENDBRANCH  11  13
ENDBRANCH  10  11
ENDBRANCH   1  10
BRANCH   1  18
HETATM   18  C12 UNL     1       9.260 160.354  30.835  1.00  0.00     0.174 C 
HETATM   19  O4  UNL     1       8.210 160.100  30.247  1.00  0.00    -0.293 OA
BRANCH  18  20
HETATM   20  C13 UNL     1      10.496 159.758  30.308  1.00  0.00     0.025 C 
HETATM   21  C14 UNL     1      10.752 158.477  31.091  1.00  0.00     0.024 C 
HETATM   22  C15 UNL     1      11.733 160.585  30.561  1.00  0.00     0.017 C 
HETATM   23  C16 UNL     1      11.893 161.708  29.548  1.00  0.00     0.002 C 
HETATM   24  C17 UNL     1      12.125 161.013  28.233  1.00  0.00     0.012 C 
HETATM   25  C18 UNL     1      10.864 160.334  27.855  1.00  0.00    -0.013 C 
HETATM   26  C19 UNL     1       9.853 161.383  27.403  1.00  0.00     0.018 C 
HETATM   27  C20 UNL     1      11.025 159.426  26.641  1.00  0.00     0.126 C 
HETATM   28  C23 UNL     1      10.350 159.384  28.863  1.00  0.00     0.012 C 
HETATM   29  C21 UNL     1      11.629 158.186  27.183  1.00  0.00     0.033 C 
HETATM   30  C22 UNL     1      10.881 158.037  28.512  1.00  0.00     0.009 C 
BRANCH  27  31
HETATM   31  O5  UNL     1      11.714 160.017  25.615  1.00  0.00    -0.395 OA
ATOM     32  H5  UNL     1      11.945 159.409  24.922  1.00  0.00     0.210 HD
ENDBRANCH  27  31
ENDBRANCH  18  20
ENDBRANCH   1  18
TORSDOF 11
ENDMDL
MODEL 2
REMARK VINA RESULT: -7.654227310      1.938      4.852
REMARK  11 active torsions:
REMARK  status: ('A' for Active; 'I' for Inactive)
REMARK    1  A    between atoms: C2_2  and  C3_3 
REMARK    2  A    between atoms: C2_2  and  C24_30 
REMARK    3  A    between atoms: C4_4  and  C5_5 
REMARK    4  A    between atoms: C5_5  and  O1_7 
REMARK    5  A    between atoms: C5_5  and  C12_15 
REMARK    6  A    between atoms: O1_7  and  C7_8 
REMARK    7  A    between atoms: C7_8  and  O3_10 
REMARK    8  A    between atoms: O3_10  and  C8_11 
REMARK    9  A    between atoms: C12_15  and  C13_17 
REMARK   10  A    between atoms: C20_24  and  O5_25 
REMARK   11  A    between atoms: C24_30  and  O6_31 
ROOT
HETATM    1  C5  UNL     1      10.870 163.442  31.814  1.00  0.00     0.148 C 
HETATM    2  C6  UNL     1      11.365 163.736  30.405  1.00  0.00     0.060 C 
ENDROOT
BRANCH   1   3
HETATM    3  C4  UNL     1      10.318 164.782  32.253  1.00  0.00     0.015 C 
HETATM    4  C3  UNL     1      10.745 165.908  31.722  1.00  0.00    -0.021 C 
BRANCH   4   5
HETATM    5  C2  UNL     1      10.269 167.252  32.083  1.00  0.00     0.027 C 
HETATM    6  C1  UNL     1       8.897 167.188  32.698  1.00  0.00     0.016 C 
BRANCH   5   7
HETATM    7  C24 UNL     1      11.234 168.043  32.917  1.00  0.00     0.172 C 
BRANCH   7   8
HETATM    8  O6  UNL     1      11.613 167.411  34.086  1.00  0.00    -0.400 OA
ATOM      9  H6  UNL     1      12.438 167.719  34.441  1.00  0.00     0.209 HD
ENDBRANCH   7   8
ENDBRANCH   5   7
ENDBRANCH   4   5
ENDBRANCH   1   3
BRANCH   1  10
HETATM   10  O1  UNL     1      11.909 163.139  32.691  1.00  0.00    -0.275 OA
BRANCH  10  11
HETATM   11  C7  UNL     1      11.907 163.368  34.041  1.00  0.00     0.408 C 
HETATM   12  O2  UNL     1      12.221 164.497  34.454  1.00  0.00    -0.229 OA
BRANCH  11  13
HETATM   13  O3  UNL     1      11.572 162.399  34.953  1.00  0.00    -0.288 OA
BRANCH  13  14
HETATM   14  C8  UNL     1      12.542 161.561  35.543  1.00  0.00     0.062 C 
HETATM   15  C9  UNL     1      13.710 161.280  34.654  1.00  0.00     0.046 C 
HETATM   16  C10 UNL     1      12.960 162.164  36.875  1.00  0.00     0.046 C 
HETATM   17  C11 UNL     1      11.890 160.221  35.871  1.00  0.00     0.046 C 
ENDBRANCH  13  14
ENDBRANCH  11  13
ENDBRANCH  10  11
ENDBRANCH   1  10
BRANCH   1  18
HETATM   18  C12 UNL     1       9.803 162.450  31.713  1.00  0.00     0.174 C 
HETATM   19  O4  UNL     1       8.728 162.972  31.422  1.00  0.00    -0.293 OA
BRANCH  18  20
HETATM   20  C13 UNL     1       9.824 160.992  31.901  1.00  0.00     0.025 C 
HETATM   21  C14 UNL     1       9.190 160.700  33.254  1.00  0.00     0.024 C 
HETATM   22  C15 UNL     1      11.210 160.408  32.021  1.00  0.00     0.017 C 
HETATM   23  C16 UNL     1      11.869 160.201  30.666  1.00  0.00     0.002 C 
HETATM   24  C17 UNL     1      11.036 159.145  29.989  1.00  0.00     0.012 C 
HETATM   25  C18 UNL     1       9.715 159.743  29.685  1.00  0.00    -0.013 C 
HETATM   26  C19 UNL     1       9.868 160.718  28.522  1.00  0.00     0.018 C 
HETATM   27  C20 UNL     1       8.708 158.716  29.178  1.00  0.00     0.126 C 
HETATM   28  C23 UNL     1       9.004 160.295  30.856  1.00  0.00     0.012 C 
HETATM   29  C21 UNL     1       8.216 158.043  30.404  1.00  0.00     0.033 C 
HETATM   30  C22 UNL     1       8.112 159.221  31.379  1.00  0.00     0.009 C 
BRANCH  27  31
HETATM   31  O5  UNL     1       9.222 157.887  28.218  1.00  0.00    -0.395 OA
ATOM     32  H5  UNL     1      10.144 157.695  28.345  1.00  0.00     0.210 HD
ENDBRANCH  27  31
ENDBRANCH  18  20
ENDBRANCH   1  18
TORSDOF 11
ENDMDL
MODEL 3
REMARK VINA RESULT: -7.651918995      1.956      6.239
REMARK  11 active torsions:
REMARK  status: ('A' for Active; 'I' for Inactive)
REMARK    1  A    between atoms: C2_2  and  C3_3 
REMARK    2  A    between atoms: C2_2  and  C24_30 
REMARK    3  A    between atoms: C4_4  and  C5_5 
REMARK    4  A    between atoms: C5_5  and  O1_7 
REMARK    5  A    between atoms: C5_5  and  C12_15 
REMARK    6  A    between atoms: O1_7  and  C7_8 
REMARK    7  A    between atoms: C7_8  and  O3_10 
REMARK    8  A    between atoms: O3_10  and  C8_11 
REMARK    9  A    between atoms: C12_15  and  C13_17 
REMARK   10  A    between atoms: C20_24  and  O5_25 
REMARK   11  A    between atoms: C24_30  and  O6_31 
ROOT
HETATM    1  C5  UNL     1       9.898 159.541  30.832  1.00  0.00     0.148 C 
HETATM    2  C6  UNL     1       9.246 158.491  29.944  1.00  0.00     0.060 C 
ENDROOT
BRANCH   1   3
HETATM    3  C4  UNL     1      10.956 160.128  29.923  1.00  0.00     0.015 C 
HETATM    4  C3  UNL     1      10.795 160.165  28.617  1.00  0.00    -0.021 C 
BRANCH   4   5
HETATM    5  C2  UNL     1      11.764 160.715  27.657  1.00  0.00     0.027 C 
HETATM    6  C1  UNL     1      13.129 160.832  28.279  1.00  0.00     0.016 C 
BRANCH   5   7
HETATM    7  C24 UNL     1      11.797 159.999  26.337  1.00  0.00     0.172 C 
BRANCH   7   8
HETATM    8  O6  UNL     1      10.553 159.606  25.883  1.00  0.00    -0.400 OA
ATOM      9  H6  UNL     1      10.576 158.862  25.292  1.00  0.00     0.209 HD
ENDBRANCH   7   8
ENDBRANCH   5   7
ENDBRANCH   4   5
ENDBRANCH   1   3
BRANCH   1  10
HETATM   10  O1  UNL     1      10.576 158.978  31.911  1.00  0.00    -0.275 OA
BRANCH  10  11
HETATM   11  C7  UNL     1      11.892 158.601  31.919  1.00  0.00     0.408 C 
HETATM   12  O2  UNL     1      12.198 157.500  31.433  1.00  0.00    -0.229 OA
BRANCH  11  13
HETATM   13  O3  UNL     1      12.884 159.392  32.443  1.00  0.00    -0.288 OA
BRANCH  13  14
HETATM   14  C8  UNL     1      13.184 159.398  33.822  1.00  0.00     0.062 C 
HETATM   15  C9  UNL     1      11.999 159.134  34.694  1.00  0.00     0.046 C 
HETATM   16  C10 UNL     1      14.320 158.420  34.075  1.00  0.00     0.046 C 
HETATM   17  C11 UNL     1      13.721 160.777  34.195  1.00  0.00     0.046 C 
ENDBRANCH  13  14
ENDBRANCH  11  13
ENDBRANCH  10  11
ENDBRANCH   1  10
BRANCH   1  18
HETATM   18  C12 UNL     1       8.884 160.540  31.160  1.00  0.00     0.174 C 
HETATM   19  O4  UNL     1       7.884 160.417  30.453  1.00  0.00    -0.293 OA
BRANCH  18  20
HETATM   20  C13 UNL     1       8.882 161.617  32.160  1.00  0.00     0.025 C 
HETATM   21  C14 UNL     1       9.000 160.964  33.530  1.00  0.00     0.024 C 
HETATM   22  C15 UNL     1       7.583 162.381  32.237  1.00  0.00     0.017 C 
HETATM   23  C16 UNL     1       7.473 163.443  31.154  1.00  0.00     0.002 C 
HETATM   24  C17 UNL     1       8.555 164.439  31.478  1.00  0.00     0.012 C 
HETATM   25  C18 UNL     1       9.859 163.779  31.236  1.00  0.00    -0.013 C 
HETATM   26  C19 UNL     1      10.080 163.656  29.731  1.00  0.00     0.018 C 
HETATM   27  C20 UNL     1      11.040 164.615  31.717  1.00  0.00     0.126 C 
HETATM   28  C23 UNL     1      10.064 162.524  31.988  1.00  0.00     0.012 C 
HETATM   29  C21 UNL     1      11.093 164.373  33.178  1.00  0.00     0.033 C 
HETATM   30  C22 UNL     1      10.768 162.877  33.253  1.00  0.00     0.009 C 
BRANCH  27  31
HETATM   31  O5  UNL     1      10.958 165.929  31.342  1.00  0.00    -0.395 OA
ATOM     32  H5  UNL     1      11.587 166.165  30.669  1.00  0.00     0.210 HD
ENDBRANCH  27  31
ENDBRANCH  18  20
ENDBRANCH   1  18
TORSDOF 11
ENDMDL
MODEL 4
REMARK VINA RESULT: -7.598366402      2.130      6.034
REMARK  11 active torsions:
REMARK  status: ('A' for Active; 'I' for Inactive)
REMARK    1  A    between atoms: C2_2  and  C3_3 
REMARK    2  A    between atoms: C2_2  and  C24_30 
REMARK    3  A    between atoms: C4_4  and  C5_5 
REMARK    4  A    between atoms: C5_5  and  O1_7 
REMARK    5  A    between atoms: C5_5  and  C12_15 
REMARK    6  A    between atoms: O1_7  and  C7_8 
REMARK    7  A    between atoms: C7_8  and  O3_10 
REMARK    8  A    between atoms: O3_10  and  C8_11 
REMARK    9  A    between atoms: C12_15  and  C13_17 
REMARK   10  A    between atoms: C20_24  and  O5_25 
REMARK   11  A    between atoms: C24_30  and  O6_31 
ROOT
HETATM    1  C5  UNL     1      10.284 162.591  30.754  1.00  0.00     0.148 C 
HETATM    2  C6  UNL     1       9.849 163.778  29.907  1.00  0.00     0.060 C 
ENDROOT
BRANCH   1   3
HETATM    3  C4  UNL     1      10.465 161.499  29.721  1.00  0.00     0.015 C 
HETATM    4  C3  UNL     1      10.775 161.780  28.472  1.00  0.00    -0.021 C 
BRANCH   4   5
HETATM    5  C2  UNL     1      10.971 160.790  27.403  1.00  0.00     0.027 C 
HETATM    6  C1  UNL     1      12.421 160.409  27.282  1.00  0.00     0.016 C 
BRANCH   5   7
HETATM    7  C24 UNL     1      10.071 159.592  27.501  1.00  0.00     0.172 C 
BRANCH   7   8
HETATM    8  O6  UNL     1       8.844 159.761  26.889  1.00  0.00    -0.400 OA
ATOM      9  H6  UNL     1       8.122 159.356  27.355  1.00  0.00     0.209 HD
ENDBRANCH   7   8
ENDBRANCH   5   7
ENDBRANCH   4   5
ENDBRANCH   1   3
BRANCH   1  10
HETATM   10  O1  UNL     1       9.279 162.154  31.614  1.00  0.00    -0.275 OA
BRANCH  10  11
HETATM   11  C7  UNL     1       8.013 161.786  31.243  1.00  0.00     0.408 C 
HETATM   12  O2  UNL     1       7.073 162.559  31.492  1.00  0.00    -0.229 OA
BRANCH  11  13
HETATM   13  O3  UNL     1       7.745 160.600  30.608  1.00  0.00    -0.288 OA
BRANCH  13  14
HETATM   14  C8  UNL     1       7.798 159.362  31.284  1.00  0.00     0.062 C 
HETATM   15  C9  UNL     1       8.544 158.303  30.538  1.00  0.00     0.046 C 
HETATM   16  C10 UNL     1       8.360 159.594  32.678  1.00  0.00     0.046 C 
HETATM   17  C11 UNL     1       6.371 158.857  31.481  1.00  0.00     0.046 C 
ENDBRANCH  13  14
ENDBRANCH  11  13
ENDBRANCH  10  11
ENDBRANCH   1  10
BRANCH   1  18
HETATM   18  C12 UNL     1      11.560 162.931  31.377  1.00  0.00     0.174 C 
HETATM   19  O4  UNL     1      12.199 163.727  30.690  1.00  0.00    -0.293 OA
BRANCH  18  20
HETATM   20  C13 UNL     1      12.164 162.484  32.640  1.00  0.00     0.025 C 
HETATM   21  C14 UNL     1      11.783 163.499  33.709  1.00  0.00     0.024 C 
HETATM   22  C15 UNL     1      13.673 162.509  32.643  1.00  0.00     0.017 C 
HETATM   23  C16 UNL     1      14.272 161.283  31.972  1.00  0.00     0.002 C 
HETATM   24  C17 UNL     1      13.879 160.128  32.854  1.00  0.00     0.012 C 
HETATM   25  C18 UNL     1      12.413 159.952  32.736  1.00  0.00    -0.013 C 
HETATM   26  C19 UNL     1      12.096 159.339  31.375  1.00  0.00     0.018 C 
HETATM   27  C20 UNL     1      11.860 158.942  33.736  1.00  0.00     0.126 C 
HETATM   28  C23 UNL     1      11.619 161.153  33.066  1.00  0.00     0.012 C 
HETATM   29  C21 UNL     1      11.752 159.698  35.005  1.00  0.00     0.033 C 
HETATM   30  C22 UNL     1      11.256 161.061  34.508  1.00  0.00     0.009 C 
BRANCH  27  31
HETATM   31  O5  UNL     1      12.596 157.789  33.799  1.00  0.00    -0.395 OA
ATOM     32  H5  UNL     1      13.530 157.946  33.883  1.00  0.00     0.210 HD
ENDBRANCH  27  31
ENDBRANCH  18  20
ENDBRANCH   1  18
TORSDOF 11
ENDMDL
MODEL 5
REMARK VINA RESULT: -7.585729012      1.540      2.386
REMARK  11 active torsions:
REMARK  status: ('A' for Active; 'I' for Inactive)
REMARK    1  A    between atoms: C2_2  and  C3_3 
REMARK    2  A    between atoms: C2_2  and  C24_30 
REMARK    3  A    between atoms: C4_4  and  C5_5 
REMARK    4  A    between atoms: C5_5  and  O1_7 
REMARK    5  A    between atoms: C5_5  and  C12_15 
REMARK    6  A    between atoms: O1_7  and  C7_8 
REMARK    7  A    between atoms: C7_8  and  O3_10 
REMARK    8  A    between atoms: O3_10  and  C8_11 
REMARK    9  A    between atoms: C12_15  and  C13_17 
REMARK   10  A    between atoms: C20_24  and  O5_25 
REMARK   11  A    between atoms: C24_30  and  O6_31 
ROOT
HETATM    1  C5  UNL     1       9.885 161.655  32.806  1.00  0.00     0.148 C 
HETATM    2  C6  UNL     1       8.974 161.547  34.020  1.00  0.00     0.060 C 
ENDROOT
BRANCH   1   3
HETATM    3  C4  UNL     1      11.204 162.069  33.423  1.00  0.00     0.015 C 
HETATM    4  C3  UNL     1      11.287 162.441  34.683  1.00  0.00    -0.021 C 
BRANCH   4   5
HETATM    5  C2  UNL     1      12.520 162.857  35.366  1.00  0.00     0.027 C 
HETATM    6  C1  UNL     1      12.443 164.300  35.784  1.00  0.00     0.016 C 
BRANCH   5   7
HETATM    7  C24 UNL     1      12.932 161.956  36.495  1.00  0.00     0.172 C 
BRANCH   7   8
HETATM    8  O6  UNL     1      13.002 160.621  36.149  1.00  0.00    -0.400 OA
ATOM      9  H6  UNL     1      13.251 160.470  35.245  1.00  0.00     0.209 HD
ENDBRANCH   7   8
ENDBRANCH   5   7
ENDBRANCH   4   5
ENDBRANCH   1   3
BRANCH   1  10
HETATM   10  O1  UNL     1       9.511 162.688  31.950  1.00  0.00    -0.275 OA
BRANCH  10  11
HETATM   11  C7  UNL     1       8.444 163.527  32.127  1.00  0.00     0.408 C 
HETATM   12  O2  UNL     1       7.322 163.149  31.751  1.00  0.00    -0.229 OA
BRANCH  11  13
HETATM   13  O3  UNL     1       8.566 164.765  32.705  1.00  0.00    -0.288 OA
BRANCH  13  14
HETATM   14  C8  UNL     1       9.438 165.747  32.189  1.00  0.00     0.062 C 
HETATM   15  C9  UNL     1      10.831 165.650  32.723  1.00  0.00     0.046 C 
HETATM   16  C10 UNL     1       9.395 165.686  30.671  1.00  0.00     0.046 C 
HETATM   17  C11 UNL     1       8.902 167.123  32.573  1.00  0.00     0.046 C 
ENDBRANCH  13  14
ENDBRANCH  11  13
ENDBRANCH  10  11
ENDBRANCH   1  10
BRANCH   1  18
HETATM   18  C12 UNL     1       9.987 160.328  32.206  1.00  0.00     0.174 C 
HETATM   19  O4  UNL     1      10.364 159.490  33.025  1.00  0.00    -0.293 OA
BRANCH  18  20
HETATM   20  C13 UNL     1       9.720 159.868  30.835  1.00  0.00     0.025 C 
HETATM   21  C14 UNL     1       8.227 160.030  30.585  1.00  0.00     0.024 C 
HETATM   22  C15 UNL     1       9.961 158.394  30.624  1.00  0.00     0.017 C 
HETATM   23  C16 UNL     1      11.432 158.076  30.399  1.00  0.00     0.002 C 
HETATM   24  C17 UNL     1      11.775 158.739  29.092  1.00  0.00     0.012 C 
HETATM   25  C18 UNL     1      11.729 160.204  29.307  1.00  0.00    -0.013 C 
HETATM   26  C19 UNL     1      12.948 160.623  30.123  1.00  0.00     0.018 C 
HETATM   27  C20 UNL     1      11.862 160.993  28.009  1.00  0.00     0.126 C 
HETATM   28  C23 UNL     1      10.442 160.710  29.826  1.00  0.00     0.012 C 
HETATM   29  C21 UNL     1      10.507 160.953  27.411  1.00  0.00     0.033 C 
HETATM   30  C22 UNL     1       9.620 161.115  28.650  1.00  0.00     0.009 C 
BRANCH  27  31
HETATM   31  O5  UNL     1      12.873 160.540  27.205  1.00  0.00    -0.395 OA
ATOM     32  H5  UNL     1      12.788 159.621  26.980  1.00  0.00     0.210 HD
ENDBRANCH  27  31
ENDBRANCH  18  20
ENDBRANCH   1  18
TORSDOF 11
ENDMDL
