MODEL 1
REMARK VINA RESULT: -7.958535921      0.000      0.000
REMARK  6 active torsions:
REMARK  status: ('A' for Active; 'I' for Inactive)
REMARK       I    between atoms: C1_2  and  N2_4 
REMARK       I    between atoms: C2_6  and  N4_8 
REMARK    1  A    between atoms: N4_8  and  N5_10 
REMARK    2  A    between atoms: C3_12  and  C4_13 
REMARK    3  A    between atoms: C3_12  and  C8_30 
REMARK       I    between atoms: C4_13  and  N6_15 
REMARK    4  A    between atoms: N6_15  and  N7_17 
REMARK    5  A    between atoms: C5_24  and  C6_25 
REMARK    6  A    between atoms: C6_25  and  C7_26 
ROOT
HETATM    1  N5  UNL     1     -25.122   5.683  11.443  1.00  0.00    -0.291 N 
ATOM      2  H5  UNL     1     -25.403   6.663  11.466  1.00  0.00     0.187 HD
HETATM    3  C3  UNL     1     -24.959   5.300  12.613  1.00  0.00     0.146 C 
ENDROOT
BRANCH   3   4
HETATM    4  C4  UNL     1     -24.553   3.957  13.074  1.00  0.00     0.292 C 
HETATM    5  O2  UNL     1     -23.511   3.531  12.562  1.00  0.00    -0.264 OA
HETATM    6  N6  UNL     1     -25.283   3.240  13.999  1.00  0.00    -0.240 N 
ATOM      7  H6  UNL     1     -26.110   3.751  14.308  1.00  0.00     0.192 HD
BRANCH   6   8
HETATM    8  N7  UNL     1     -25.181   2.009  14.613  1.00  0.00    -0.164 N 
HETATM    9  N8  UNL     1     -24.750   0.909  13.910  1.00  0.00    -0.205 N 
HETATM   10  N9  UNL     1     -24.730  -0.113  14.667  1.00  0.00    -0.225 N 
ATOM     11  H8  UNL     1     -24.485   0.912  12.925  1.00  0.00     0.212 HD
HETATM   12  N10 UNL     1     -25.120   0.215  15.853  1.00  0.00    -0.270 N 
ATOM     13  H9  UNL     1     -24.447  -1.050  14.380  1.00  0.00     0.210 HD
HETATM   14  C5  UNL     1     -25.408   1.564  15.824  1.00  0.00     0.147 A 
ATOM     15  H10 UNL     1     -25.201  -0.406  16.660  1.00  0.00     0.190 HD
BRANCH  14  16
HETATM   16  C6  UNL     1     -25.886   2.291  17.031  1.00  0.00     0.198 C 
BRANCH  16  17
HETATM   17  C7  UNL     1     -27.109   1.513  17.577  1.00  0.00     0.394 C 
HETATM   18  F1  UNL     1     -26.640   0.283  17.966  1.00  0.00    -0.171 F 
HETATM   19  F2  UNL     1     -27.570   2.237  18.656  1.00  0.00    -0.171 F 
HETATM   20  F3  UNL     1     -28.042   1.440  16.567  1.00  0.00    -0.171 F 
ENDBRANCH  16  17
ENDBRANCH  14  16
ENDBRANCH   6   8
ENDBRANCH   3   4
BRANCH   3  21
HETATM   21  C8  UNL     1     -25.209   6.332  13.641  1.00  0.00     0.082 A 
HETATM   22  C9  UNL     1     -24.423   6.787  14.625  1.00  0.00     0.121 A 
HETATM   23  N11 UNL     1     -25.097   7.754  15.328  1.00  0.00    -0.360 N 
HETATM   24  C10 UNL     1     -26.295   7.888  14.771  1.00  0.00     0.180 A 
ATOM     25  H11 UNL     1     -24.743   8.275  16.131  1.00  0.00     0.166 HD
HETATM   26  N12 UNL     1     -26.374   7.032  13.748  1.00  0.00    -0.349 N 
ATOM     27  H12 UNL     1     -27.184   6.919  13.139  1.00  0.00     0.166 HD
ENDBRANCH   3  21
BRANCH   1  28
HETATM   28  N4  UNL     1     -25.069   5.298  10.176  1.00  0.00    -0.273 N 
HETATM   29  C2  UNL     1     -23.877   5.261   9.407  1.00  0.00     0.210 C 
HETATM   30  N2  UNL     1     -23.876   5.208   8.119  1.00  0.00    -0.284 N 
HETATM   31  N3  UNL     1     -22.615   5.283  10.059  1.00  0.00    -0.062 NA
HETATM   32  C1  UNL     1     -22.724   5.170   7.332  1.00  0.00     0.335 C 
ATOM     33  H2  UNL     1     -24.778   5.192   7.643  1.00  0.00     0.172 HD
HETATM   34  N1  UNL     1     -22.741   5.724   6.035  1.00  0.00    -0.040 NA
HETATM   35  O1  UNL     1     -21.680   4.644   7.778  1.00  0.00    -0.251 OA
ATOM     36  H4  UNL     1     -25.938   5.010   9.726  1.00  0.00     0.189 HD
ENDBRANCH   1  28
TORSDOF 6
ENDMDL
MODEL 2
REMARK VINA RESULT: -7.840423255      3.328      7.420
REMARK  6 active torsions:
REMARK  status: ('A' for Active; 'I' for Inactive)
REMARK       I    between atoms: C1_2  and  N2_4 
REMARK       I    between atoms: C2_6  and  N4_8 
REMARK    1  A    between atoms: N4_8  and  N5_10 
REMARK    2  A    between atoms: C3_12  and  C4_13 
REMARK    3  A    between atoms: C3_12  and  C8_30 
REMARK       I    between atoms: C4_13  and  N6_15 
REMARK    4  A    between atoms: N6_15  and  N7_17 
REMARK    5  A    between atoms: C5_24  and  C6_25 
REMARK    6  A    between atoms: C6_25  and  C7_26 
ROOT
HETATM    1  N5  UNL     1     -23.663   3.978  14.211  1.00  0.00    -0.291 N 
ATOM      2  H5  UNL     1     -22.837   3.383  14.149  1.00  0.00     0.187 HD
HETATM    3  C3  UNL     1     -23.679   4.722  13.216  1.00  0.00     0.146 C 
ENDROOT
BRANCH   3   4
HETATM    4  C4  UNL     1     -24.683   5.748  12.874  1.00  0.00     0.292 C 
HETATM    5  O2  UNL     1     -25.845   5.330  12.811  1.00  0.00    -0.264 OA
HETATM    6  N6  UNL     1     -24.346   7.066  12.643  1.00  0.00    -0.240 N 
ATOM      7  H6  UNL     1     -23.344   7.223  12.739  1.00  0.00     0.192 HD
BRANCH   6   8
HETATM    8  N7  UNL     1     -25.018   8.225  12.315  1.00  0.00    -0.164 N 
HETATM    9  N8  UNL     1     -25.034   8.683  11.018  1.00  0.00    -0.205 N 
HETATM   10  N9  UNL     1     -25.709   9.757  10.942  1.00  0.00    -0.225 N 
ATOM     11  H8  UNL     1     -24.571   8.227  10.232  1.00  0.00     0.212 HD
HETATM   12  N10 UNL     1     -26.165  10.070  12.109  1.00  0.00    -0.270 N 
ATOM     13  H9  UNL     1     -25.868  10.291  10.088  1.00  0.00     0.210 HD
HETATM   14  C5  UNL     1     -25.728   9.098  12.985  1.00  0.00     0.147 A 
ATOM     15  H10 UNL     1     -26.738  10.882  12.340  1.00  0.00     0.190 HD
BRANCH  14  16
HETATM   16  C6  UNL     1     -26.072   9.133  14.433  1.00  0.00     0.198 C 
BRANCH  16  17
HETATM   17  C7  UNL     1     -27.195   8.090  14.659  1.00  0.00     0.394 C 
HETATM   18  F1  UNL     1     -26.610   7.031  15.309  1.00  0.00    -0.171 F 
HETATM   19  F2  UNL     1     -28.134   8.708  15.456  1.00  0.00    -0.171 F 
HETATM   20  F3  UNL     1     -27.704   7.751  13.426  1.00  0.00    -0.171 F 
ENDBRANCH  16  17
ENDBRANCH  14  16
ENDBRANCH   6   8
ENDBRANCH   3   4
BRANCH   3  21
HETATM   21  C8  UNL     1     -22.548   4.531  12.285  1.00  0.00     0.082 A 
HETATM   22  C9  UNL     1     -22.372   4.964  11.029  1.00  0.00     0.121 A 
HETATM   23  N11 UNL     1     -21.153   4.532  10.571  1.00  0.00    -0.360 N 
HETATM   24  C10 UNL     1     -20.585   3.836  11.549  1.00  0.00     0.180 A 
ATOM     25  H11 UNL     1     -20.756   4.712   9.648  1.00  0.00     0.166 HD
HETATM   26  N12 UNL     1     -21.420   3.829  12.592  1.00  0.00    -0.349 N 
ATOM     27  H12 UNL     1     -21.241   3.368  13.484  1.00  0.00     0.166 HD
ENDBRANCH   3  21
BRANCH   1  28
HETATM   28  N4  UNL     1     -24.316   3.666  15.321  1.00  0.00    -0.273 N 
HETATM   29  C2  UNL     1     -25.060   2.470  15.494  1.00  0.00     0.210 C 
HETATM   30  N2  UNL     1     -25.942   2.324  16.423  1.00  0.00    -0.284 N 
HETATM   31  N3  UNL     1     -24.845   1.371  14.621  1.00  0.00    -0.062 NA
HETATM   32  C1  UNL     1     -26.692   1.162  16.623  1.00  0.00     0.335 C 
ATOM     33  H2  UNL     1     -26.104   3.108  17.054  1.00  0.00     0.172 HD
HETATM   34  N1  UNL     1     -27.988   1.249  17.172  1.00  0.00    -0.040 NA
HETATM   35  O1  UNL     1     -26.211   0.050  16.315  1.00  0.00    -0.251 OA
ATOM     36  H4  UNL     1     -24.281   4.325  16.099  1.00  0.00     0.189 HD
ENDBRANCH   1  28
TORSDOF 6
ENDMDL
MODEL 3
REMARK VINA RESULT: -7.826878548      2.180      2.682
REMARK  6 active torsions:
REMARK  status: ('A' for Active; 'I' for Inactive)
REMARK       I    between atoms: C1_2  and  N2_4 
REMARK       I    between atoms: C2_6  and  N4_8 
REMARK    1  A    between atoms: N4_8  and  N5_10 
REMARK    2  A    between atoms: C3_12  and  C4_13 
REMARK    3  A    between atoms: C3_12  and  C8_30 
REMARK       I    between atoms: C4_13  and  N6_15 
REMARK    4  A    between atoms: N6_15  and  N7_17 
REMARK    5  A    between atoms: C5_24  and  C6_25 
REMARK    6  A    between atoms: C6_25  and  C7_26 
ROOT
HETATM    1  N5  UNL     1     -23.105   6.849  13.367  1.00  0.00    -0.291 N 
ATOM      2  H5  UNL     1     -23.526   7.763  13.201  1.00  0.00     0.187 HD
HETATM    3  C3  UNL     1     -23.953   6.127  13.917  1.00  0.00     0.146 C 
ENDROOT
BRANCH   3   4
HETATM    4  C4  UNL     1     -23.799   4.722  14.345  1.00  0.00     0.292 C 
HETATM    5  O2  UNL     1     -22.801   4.503  15.042  1.00  0.00    -0.264 OA
HETATM    6  N6  UNL     1     -24.699   3.739  13.993  1.00  0.00    -0.240 N 
ATOM      7  H6  UNL     1     -25.456   4.106  13.417  1.00  0.00     0.192 HD
BRANCH   6   8
HETATM    8  N7  UNL     1     -24.837   2.385  14.219  1.00  0.00    -0.164 N 
HETATM    9  N8  UNL     1     -24.680   1.483  13.193  1.00  0.00    -0.205 N 
HETATM   10  N9  UNL     1     -24.846   0.298  13.622  1.00  0.00    -0.225 N 
ATOM     11  H8  UNL     1     -24.461   1.729  12.227  1.00  0.00     0.212 HD
HETATM   12  N10 UNL     1     -25.108   0.325  14.887  1.00  0.00    -0.270 N 
ATOM     13  H9  UNL     1     -24.782  -0.547  13.054  1.00  0.00     0.210 HD
HETATM   14  C5  UNL     1     -25.103   1.650  15.270  1.00  0.00     0.147 A 
ATOM     15  H10 UNL     1     -25.285  -0.480  15.488  1.00  0.00     0.190 HD
BRANCH  14  16
HETATM   16  C6  UNL     1     -25.363   2.061  16.677  1.00  0.00     0.198 C 
BRANCH  16  17
HETATM   17  C7  UNL     1     -26.898   2.199  16.834  1.00  0.00     0.394 C 
HETATM   18  F1  UNL     1     -27.120   2.578  18.135  1.00  0.00    -0.171 F 
HETATM   19  F2  UNL     1     -27.284   3.186  15.953  1.00  0.00    -0.171 F 
HETATM   20  F3  UNL     1     -27.460   0.980  16.524  1.00  0.00    -0.171 F 
ENDBRANCH  16  17
ENDBRANCH  14  16
ENDBRANCH   6   8
ENDBRANCH   3   4
BRANCH   3  21
HETATM   21  C8  UNL     1     -25.257   6.779  14.155  1.00  0.00     0.082 A 
HETATM   22  C9  UNL     1     -25.734   7.400  15.242  1.00  0.00     0.121 A 
HETATM   23  N11 UNL     1     -27.005   7.847  14.984  1.00  0.00    -0.360 N 
HETATM   24  C10 UNL     1     -27.303   7.498  13.738  1.00  0.00     0.180 A 
ATOM     25  H11 UNL     1     -27.610   8.354  15.630  1.00  0.00     0.166 HD
HETATM   26  N12 UNL     1     -26.252   6.851  13.226  1.00  0.00    -0.349 N 
ATOM     27  H12 UNL     1     -26.202   6.468  12.282  1.00  0.00     0.166 HD
ENDBRANCH   3  21
BRANCH   1  28
HETATM   28  N4  UNL     1     -21.860   6.879  12.915  1.00  0.00    -0.273 N 
HETATM   29  C2  UNL     1     -21.332   5.950  11.980  1.00  0.00     0.210 C 
HETATM   30  N2  UNL     1     -20.067   5.782  11.799  1.00  0.00    -0.284 N 
HETATM   31  N3  UNL     1     -22.214   5.158  11.197  1.00  0.00    -0.062 NA
HETATM   32  C1  UNL     1     -19.514   4.879  10.888  1.00  0.00     0.335 C 
ATOM     33  H2  UNL     1     -19.427   6.347  12.357  1.00  0.00     0.172 HD
HETATM   34  N1  UNL     1     -18.257   4.298  11.153  1.00  0.00    -0.040 NA
HETATM   35  O1  UNL     1     -20.134   4.590   9.842  1.00  0.00    -0.251 OA
ATOM     36  H4  UNL     1     -21.243   7.615  13.259  1.00  0.00     0.189 HD
ENDBRANCH   1  28
TORSDOF 6
ENDMDL
MODEL 4
REMARK VINA RESULT: -7.755145558      4.520      8.049
REMARK  6 active torsions:
REMARK  status: ('A' for Active; 'I' for Inactive)
REMARK       I    between atoms: C1_2  and  N2_4 
REMARK       I    between atoms: C2_6  and  N4_8 
REMARK    1  A    between atoms: N4_8  and  N5_10 
REMARK    2  A    between atoms: C3_12  and  C4_13 
REMARK    3  A    between atoms: C3_12  and  C8_30 
REMARK       I    between atoms: C4_13  and  N6_15 
REMARK    4  A    between atoms: N6_15  and  N7_17 
REMARK    5  A    between atoms: C5_24  and  C6_25 
REMARK    6  A    between atoms: C6_25  and  C7_26 
ROOT
HETATM    1  N5  UNL     1     -24.489   4.709  13.480  1.00  0.00    -0.291 N 
ATOM      2  H5  UNL     1     -25.373   5.217  13.526  1.00  0.00     0.187 HD
HETATM    3  C3  UNL     1     -23.929   5.003  12.412  1.00  0.00     0.146 C 
ENDROOT
BRANCH   3   4
HETATM    4  C4  UNL     1     -22.629   4.515  11.911  1.00  0.00     0.292 C 
HETATM    5  O2  UNL     1     -22.197   3.513  12.494  1.00  0.00    -0.264 OA
HETATM    6  N6  UNL     1     -21.954   5.131  10.878  1.00  0.00    -0.240 N 
ATOM      7  H6  UNL     1     -22.463   5.940  10.522  1.00  0.00     0.192 HD
BRANCH   6   8
HETATM    8  N7  UNL     1     -20.768   4.933  10.203  1.00  0.00    -0.164 N 
HETATM    9  N8  UNL     1     -19.733   4.244  10.791  1.00  0.00    -0.205 N 
HETATM   10  N9  UNL     1     -18.744   4.178   9.995  1.00  0.00    -0.225 N 
ATOM     11  H8  UNL     1     -19.756   3.845  11.729  1.00  0.00     0.212 HD
HETATM   12  N10 UNL     1     -19.033   4.778   8.888  1.00  0.00    -0.270 N 
ATOM     13  H9  UNL     1     -17.856   3.719  10.198  1.00  0.00     0.210 HD
HETATM   14  C5  UNL     1     -20.319   5.260   9.016  1.00  0.00     0.147 A 
ATOM     15  H10 UNL     1     -18.425   4.878   8.075  1.00  0.00     0.190 HD
BRANCH  14  16
HETATM   16  C6  UNL     1     -20.990   6.009   7.919  1.00  0.00     0.198 C 
BRANCH  16  17
HETATM   17  C7  UNL     1     -21.778   4.974   7.077  1.00  0.00     0.394 C 
HETATM   18  F1  UNL     1     -22.854   4.596   7.842  1.00  0.00    -0.171 F 
HETATM   19  F2  UNL     1     -22.182   5.639   5.939  1.00  0.00    -0.171 F 
HETATM   20  F3  UNL     1     -20.926   3.932   6.793  1.00  0.00    -0.171 F 
ENDBRANCH  16  17
ENDBRANCH  14  16
ENDBRANCH   6   8
ENDBRANCH   3   4
BRANCH   3  21
HETATM   21  C8  UNL     1     -24.675   5.958  11.566  1.00  0.00     0.082 A 
HETATM   22  C9  UNL     1     -24.909   7.267  11.730  1.00  0.00     0.121 A 
HETATM   23  N11 UNL     1     -25.655   7.726  10.674  1.00  0.00    -0.360 N 
HETATM   24  C10 UNL     1     -25.875   6.696   9.866  1.00  0.00     0.180 A 
ATOM     25  H11 UNL     1     -25.981   8.683  10.535  1.00  0.00     0.166 HD
HETATM   26  N12 UNL     1     -25.287   5.620  10.395  1.00  0.00    -0.349 N 
ATOM     27  H12 UNL     1     -25.294   4.686   9.986  1.00  0.00     0.166 HD
ENDBRANCH   3  21
BRANCH   1  28
HETATM   28  N4  UNL     1     -24.372   3.983  14.583  1.00  0.00    -0.273 N 
HETATM   29  C2  UNL     1     -24.817   2.641  14.700  1.00  0.00     0.210 C 
HETATM   30  N2  UNL     1     -25.001   2.062  15.837  1.00  0.00    -0.284 N 
HETATM   31  N3  UNL     1     -25.078   1.878  13.531  1.00  0.00    -0.062 NA
HETATM   32  C1  UNL     1     -25.436   0.743  15.990  1.00  0.00     0.335 C 
ATOM     33  H2  UNL     1     -24.816   2.602  16.682  1.00  0.00     0.172 HD
HETATM   34  N1  UNL     1     -26.189   0.380  17.126  1.00  0.00    -0.040 NA
HETATM   35  O1  UNL     1     -25.157  -0.110  15.119  1.00  0.00    -0.251 OA
ATOM     36  H4  UNL     1     -23.936   4.416  15.397  1.00  0.00     0.189 HD
ENDBRANCH   1  28
TORSDOF 6
ENDMDL
MODEL 5
REMARK VINA RESULT: -7.701370579      3.761      6.265
REMARK  6 active torsions:
REMARK  status: ('A' for Active; 'I' for Inactive)
REMARK       I    between atoms: C1_2  and  N2_4 
REMARK       I    between atoms: C2_6  and  N4_8 
REMARK    1  A    between atoms: N4_8  and  N5_10 
REMARK    2  A    between atoms: C3_12  and  C4_13 
REMARK    3  A    between atoms: C3_12  and  C8_30 
REMARK       I    between atoms: C4_13  and  N6_15 
REMARK    4  A    between atoms: N6_15  and  N7_17 
REMARK    5  A    between atoms: C5_24  and  C6_25 
REMARK    6  A    between atoms: C6_25  and  C7_26 
ROOT
HETATM    1  N5  UNL     1     -24.577   2.714  13.620  1.00  0.00    -0.291 N 
ATOM      2  H5  UNL     1     -24.365   1.752  13.883  1.00  0.00     0.187 HD
HETATM    3  C3  UNL     1     -25.386   3.171  14.444  1.00  0.00     0.146 C 
ENDROOT
BRANCH   3   4
HETATM    4  C4  UNL     1     -25.978   4.524  14.472  1.00  0.00     0.292 C 
HETATM    5  O2  UNL     1     -27.214   4.544  14.491  1.00  0.00    -0.264 OA
HETATM    6  N6  UNL     1     -25.208   5.668  14.474  1.00  0.00    -0.240 N 
ATOM      7  H6  UNL     1     -24.211   5.455  14.455  1.00  0.00     0.192 HD
BRANCH   6   8
HETATM    8  N7  UNL     1     -25.442   7.027  14.494  1.00  0.00    -0.164 N 
HETATM    9  N8  UNL     1     -26.600   7.532  15.037  1.00  0.00    -0.205 N 
HETATM   10  N9  UNL     1     -26.607   8.800  14.953  1.00  0.00    -0.225 N 
ATOM     11  H8  UNL     1     -27.346   6.969  15.447  1.00  0.00     0.212 HD
HETATM   12  N10 UNL     1     -25.520   9.206  14.386  1.00  0.00    -0.270 N 
ATOM     13  H9  UNL     1     -27.356   9.407  15.285  1.00  0.00     0.210 HD
HETATM   14  C5  UNL     1     -24.776   8.082  14.092  1.00  0.00     0.147 A 
ATOM     15  H10 UNL     1     -25.260  10.173  14.191  1.00  0.00     0.190 HD
BRANCH  14  16
HETATM   16  C6  UNL     1     -23.446   8.171  13.431  1.00  0.00     0.198 C 
BRANCH  16  17
HETATM   17  C7  UNL     1     -22.473   8.817  14.451  1.00  0.00     0.394 C 
HETATM   18  F1  UNL     1     -21.215   8.386  14.109  1.00  0.00    -0.171 F 
HETATM   19  F2  UNL     1     -22.598  10.179  14.285  1.00  0.00    -0.171 F 
HETATM   20  F3  UNL     1     -22.859   8.411  15.709  1.00  0.00    -0.171 F 
ENDBRANCH  16  17
ENDBRANCH  14  16
ENDBRANCH   6   8
ENDBRANCH   3   4
BRANCH   3  21
HETATM   21  C8  UNL     1     -25.781   2.228  15.510  1.00  0.00     0.082 A 
HETATM   22  C9  UNL     1     -25.221   1.075  15.903  1.00  0.00     0.121 A 
HETATM   23  N11 UNL     1     -25.951   0.552  16.941  1.00  0.00    -0.360 N 
HETATM   24  C10 UNL     1     -26.955   1.386  17.181  1.00  0.00     0.180 A 
ATOM     25  H11 UNL     1     -25.758  -0.319  17.436  1.00  0.00     0.166 HD
HETATM   26  N12 UNL     1     -26.862   2.405  16.321  1.00  0.00    -0.349 N 
ATOM     27  H12 UNL     1     -27.504   3.197  16.277  1.00  0.00     0.166 HD
ENDBRANCH   3  21
BRANCH   1  28
HETATM   28  N4  UNL     1     -23.887   3.005  12.528  1.00  0.00    -0.273 N 
HETATM   29  C2  UNL     1     -22.945   4.064  12.443  1.00  0.00     0.210 C 
HETATM   30  N2  UNL     1     -22.531   4.544  11.320  1.00  0.00    -0.284 N 
HETATM   31  N3  UNL     1     -22.420   4.639  13.630  1.00  0.00    -0.062 NA
HETATM   32  C1  UNL     1     -21.606   5.583  11.199  1.00  0.00     0.335 C 
ATOM     33  H2  UNL     1     -22.904   4.137  10.462  1.00  0.00     0.172 HD
HETATM   34  N1  UNL     1     -21.664   6.448  10.086  1.00  0.00    -0.040 NA
HETATM   35  O1  UNL     1     -20.731   5.744  12.078  1.00  0.00    -0.251 OA
ATOM     36  H4  UNL     1     -24.040   2.434  11.697  1.00  0.00     0.189 HD
ENDBRANCH   1  28
TORSDOF 6
ENDMDL
