MODEL 1
REMARK VINA RESULT: -7.645808698      0.000      0.000
REMARK  8 active torsions:
REMARK  status: ('A' for Active; 'I' for Inactive)
REMARK    1  A    between atoms: N1_1  and  S1_4 
REMARK    2  A    between atoms: S1_4  and  C1_7 
REMARK    3  A    between atoms: C4_10  and  N2_11 
REMARK       I    between atoms: N2_11  and  C5_13 
REMARK    4  A    between atoms: C5_13  and  C6_15 
REMARK    5  A    between atoms: C7_19  and  N3_20 
REMARK    6  A    between atoms: N3_20  and  C8_22 
REMARK    7  A    between atoms: C9_26  and  N6_27 
REMARK    8  A    between atoms: N6_27  and  N7_29 
ROOT
HETATM    1  C1  UNL     1     -21.131   5.476  11.790  1.00  0.00     0.081 A 
HETATM    2  C2  UNL     1     -21.418   6.798  11.932  1.00  0.00     0.027 A 
HETATM    3  C3  UNL     1     -22.493   7.244  12.696  1.00  0.00     0.033 A 
HETATM    4  C4  UNL     1     -23.304   6.352  13.337  1.00  0.00     0.061 A 
HETATM    5  C7  UNL     1     -23.024   4.947  13.208  1.00  0.00     0.058 A 
HETATM    6  C10 UNL     1     -21.948   4.562  12.438  1.00  0.00     0.057 A 
ENDROOT
BRANCH   5   7
HETATM    7  N3  UNL     1     -23.827   4.068  13.955  1.00  0.00    -0.362 N 
ATOM      8  H3  UNL     1     -23.547   3.929  14.925  1.00  0.00     0.162 HD
BRANCH   7   9
HETATM    9  C8  UNL     1     -24.975   3.351  13.537  1.00  0.00     0.268 A 
HETATM   10  N4  UNL     1     -25.339   3.345  12.167  1.00  0.00    -0.106 NA
HETATM   11  N5  UNL     1     -25.391   1.992  12.184  1.00  0.00    -0.286 N 
HETATM   12  C9  UNL     1     -25.062   1.928  13.399  1.00  0.00     0.153 A 
ATOM     13  H5  UNL     1     -25.613   1.289  11.480  1.00  0.00     0.184 HD
BRANCH  12  14
HETATM   14  N6  UNL     1     -24.869   0.802  14.281  1.00  0.00    -0.225 N 
ATOM     15  H6  UNL     1     -24.567  -0.099  13.910  1.00  0.00     0.194 HD
BRANCH  14  16
HETATM   16  N7  UNL     1     -25.101   0.962  15.651  1.00  0.00    -0.037 N 
HETATM   17  O4  UNL     1     -24.361   1.690  16.350  1.00  0.00    -0.516 OA
HETATM   18  O5  UNL     1     -26.147   0.319  16.252  1.00  0.00    -0.516 OA
ENDBRANCH  14  16
ENDBRANCH  12  14
ENDBRANCH   7   9
ENDBRANCH   5   7
BRANCH   4  19
HETATM   19  N2  UNL     1     -24.451   6.745  14.042  1.00  0.00    -0.318 N 
HETATM   20  C5  UNL     1     -25.734   6.951  13.546  1.00  0.00     0.330 C 
HETATM   21  O3  UNL     1     -26.037   6.812  12.359  1.00  0.00    -0.263 OA
ATOM     22  H2  UNL     1     -24.329   6.899  15.044  1.00  0.00     0.169 HD
BRANCH  20  23
HETATM   23  C6  UNL     1     -26.864   7.369  14.457  1.00  0.00     0.472 C 
HETATM   24  F1  UNL     1     -28.039   7.322  13.710  1.00  0.00    -0.162 F 
HETATM   25  F2  UNL     1     -26.728   8.671  14.878  1.00  0.00    -0.162 F 
HETATM   26  F3  UNL     1     -26.946   6.567  15.562  1.00  0.00    -0.162 F 
ENDBRANCH  20  23
ENDBRANCH   4  19
BRANCH   1  27
HETATM   27  S1  UNL     1     -19.767   4.966  10.816  1.00  0.00     0.256 S 
HETATM   28  O1  UNL     1     -19.561   5.861   9.629  1.00  0.00    -0.201 OA
HETATM   29  O2  UNL     1     -20.011   3.573  10.310  1.00  0.00    -0.201 OA
BRANCH  27  30
HETATM   30  N1  UNL     1     -18.306   4.977  11.744  1.00  0.00    -0.324 N 
ATOM     31  H12 UNL     1     -17.362   5.028  11.359  1.00  0.00     0.169 HD
ATOM     32  H11 UNL     1     -18.563   4.923  12.729  1.00  0.00     0.169 HD
ENDBRANCH  27  30
ENDBRANCH   1  27
TORSDOF 8
ENDMDL
MODEL 2
REMARK VINA RESULT: -7.448340344      0.766      1.216
REMARK  8 active torsions:
REMARK  status: ('A' for Active; 'I' for Inactive)
REMARK    1  A    between atoms: N1_1  and  S1_4 
REMARK    2  A    between atoms: S1_4  and  C1_7 
REMARK    3  A    between atoms: C4_10  and  N2_11 
REMARK       I    between atoms: N2_11  and  C5_13 
REMARK    4  A    between atoms: C5_13  and  C6_15 
REMARK    5  A    between atoms: C7_19  and  N3_20 
REMARK    6  A    between atoms: N3_20  and  C8_22 
REMARK    7  A    between atoms: C9_26  and  N6_27 
REMARK    8  A    between atoms: N6_27  and  N7_29 
ROOT
HETATM    1  C1  UNL     1     -21.047   5.724  11.611  1.00  0.00     0.081 A 
HETATM    2  C2  UNL     1     -21.411   7.033  11.604  1.00  0.00     0.027 A 
HETATM    3  C3  UNL     1     -22.529   7.495  12.296  1.00  0.00     0.033 A 
HETATM    4  C4  UNL     1     -23.304   6.631  13.013  1.00  0.00     0.061 A 
HETATM    5  C7  UNL     1     -22.942   5.238  13.041  1.00  0.00     0.058 A 
HETATM    6  C10 UNL     1     -21.828   4.837  12.338  1.00  0.00     0.057 A 
ENDROOT
BRANCH   5   7
HETATM    7  N3  UNL     1     -23.713   4.398  13.862  1.00  0.00    -0.362 N 
ATOM      8  H3  UNL     1     -23.498   4.435  14.859  1.00  0.00     0.162 HD
BRANCH   7   9
HETATM    9  C8  UNL     1     -24.751   3.508  13.489  1.00  0.00     0.268 A 
HETATM   10  N4  UNL     1     -24.471   2.434  12.607  1.00  0.00    -0.106 NA
HETATM   11  N5  UNL     1     -25.028   1.566  13.485  1.00  0.00    -0.286 N 
HETATM   12  C9  UNL     1     -25.297   2.474  14.315  1.00  0.00     0.153 A 
ATOM     13  H5  UNL     1     -25.175   0.557  13.476  1.00  0.00     0.184 HD
BRANCH  12  14
HETATM   14  N6  UNL     1     -25.935   2.430  15.610  1.00  0.00    -0.225 N 
ATOM     15  H6  UNL     1     -26.722   3.044  15.819  1.00  0.00     0.194 HD
BRANCH  14  16
HETATM   16  N7  UNL     1     -25.459   1.534  16.573  1.00  0.00    -0.037 N 
HETATM   17  O4  UNL     1     -26.008   1.439  17.694  1.00  0.00    -0.516 OA
HETATM   18  O5  UNL     1     -24.377   0.743  16.303  1.00  0.00    -0.516 OA
ENDBRANCH  14  16
ENDBRANCH  12  14
ENDBRANCH   7   9
ENDBRANCH   5   7
BRANCH   4  19
HETATM   19  N2  UNL     1     -24.488   7.029  13.650  1.00  0.00    -0.318 N 
HETATM   20  C5  UNL     1     -25.778   7.044  13.130  1.00  0.00     0.330 C 
HETATM   21  O3  UNL     1     -26.054   6.697  11.980  1.00  0.00    -0.263 OA
ATOM     22  H2  UNL     1     -24.392   7.346  14.615  1.00  0.00     0.169 HD
BRANCH  20  23
HETATM   23  C6  UNL     1     -26.950   7.500  13.967  1.00  0.00     0.472 C 
HETATM   24  F1  UNL     1     -27.003   6.677  15.091  1.00  0.00    -0.162 F 
HETATM   25  F2  UNL     1     -28.146   7.328  13.309  1.00  0.00    -0.162 F 
HETATM   26  F3  UNL     1     -26.839   8.816  14.320  1.00  0.00    -0.162 F 
ENDBRANCH  20  23
ENDBRANCH   4  19
BRANCH   1  27
HETATM   27  S1  UNL     1     -19.633   5.193  10.723  1.00  0.00     0.256 S 
HETATM   28  O1  UNL     1     -19.224   6.187   9.676  1.00  0.00    -0.201 OA
HETATM   29  O2  UNL     1     -19.937   3.893  10.035  1.00  0.00    -0.201 OA
BRANCH  27  30
HETATM   30  N1  UNL     1     -18.286   4.963  11.786  1.00  0.00    -0.324 N 
ATOM     31  H12 UNL     1     -17.767   5.708  12.252  1.00  0.00     0.169 HD
ATOM     32  H11 UNL     1     -18.113   3.960  11.855  1.00  0.00     0.169 HD
ENDBRANCH  27  30
ENDBRANCH   1  27
TORSDOF 8
ENDMDL
MODEL 3
REMARK VINA RESULT: -7.346669209      3.387      5.813
REMARK  8 active torsions:
REMARK  status: ('A' for Active; 'I' for Inactive)
REMARK    1  A    between atoms: N1_1  and  S1_4 
REMARK    2  A    between atoms: S1_4  and  C1_7 
REMARK    3  A    between atoms: C4_10  and  N2_11 
REMARK       I    between atoms: N2_11  and  C5_13 
REMARK    4  A    between atoms: C5_13  and  C6_15 
REMARK    5  A    between atoms: C7_19  and  N3_20 
REMARK    6  A    between atoms: N3_20  and  C8_22 
REMARK    7  A    between atoms: C9_26  and  N6_27 
REMARK    8  A    between atoms: N6_27  and  N7_29 
ROOT
HETATM    1  C1  UNL     1     -24.191   4.425  12.084  1.00  0.00     0.081 A 
HETATM    2  C2  UNL     1     -24.318   3.078  12.221  1.00  0.00     0.027 A 
HETATM    3  C3  UNL     1     -25.052   2.505  13.257  1.00  0.00     0.033 A 
HETATM    4  C4  UNL     1     -25.677   3.293  14.181  1.00  0.00     0.061 A 
HETATM    5  C7  UNL     1     -25.562   4.723  14.060  1.00  0.00     0.058 A 
HETATM    6  C10 UNL     1     -24.823   5.234  13.017  1.00  0.00     0.057 A 
ENDROOT
BRANCH   5   7
HETATM    7  N3  UNL     1     -26.292   5.497  14.978  1.00  0.00    -0.362 N 
ATOM      8  H3  UNL     1     -26.613   5.007  15.813  1.00  0.00     0.162 HD
BRANCH   7   9
HETATM    9  C8  UNL     1     -26.640   6.868  14.896  1.00  0.00     0.268 A 
HETATM   10  N4  UNL     1     -25.719   7.853  15.334  1.00  0.00    -0.106 NA
HETATM   11  N5  UNL     1     -25.843   8.498  14.149  1.00  0.00    -0.286 N 
HETATM   12  C9  UNL     1     -26.660   7.651  13.698  1.00  0.00     0.153 A 
ATOM     13  H5  UNL     1     -25.430   9.348  13.767  1.00  0.00     0.184 HD
BRANCH  12  14
HETATM   14  N6  UNL     1     -27.342   7.561  12.429  1.00  0.00    -0.225 N 
ATOM     15  H6  UNL     1     -28.360   7.506  12.392  1.00  0.00     0.194 HD
BRANCH  14  16
HETATM   16  N7  UNL     1     -26.589   7.551  11.250  1.00  0.00    -0.037 N 
HETATM   17  O4  UNL     1     -25.744   8.445  11.016  1.00  0.00    -0.516 OA
HETATM   18  O5  UNL     1     -26.766   6.558  10.328  1.00  0.00    -0.516 OA
ENDBRANCH  14  16
ENDBRANCH  12  14
ENDBRANCH   7   9
ENDBRANCH   5   7
BRANCH   4  19
HETATM   19  N2  UNL     1     -26.350   2.765  15.292  1.00  0.00    -0.318 N 
HETATM   20  C5  UNL     1     -25.827   1.992  16.323  1.00  0.00     0.330 C 
HETATM   21  O3  UNL     1     -24.644   1.651  16.389  1.00  0.00    -0.263 OA
ATOM     22  H2  UNL     1     -27.346   2.975  15.352  1.00  0.00     0.169 HD
BRANCH  20  23
HETATM   23  C6  UNL     1     -26.702   1.511  17.457  1.00  0.00     0.472 C 
HETATM   24  F1  UNL     1     -26.416   0.162  17.659  1.00  0.00    -0.162 F 
HETATM   25  F2  UNL     1     -28.037   1.577  17.136  1.00  0.00    -0.162 F 
HETATM   26  F3  UNL     1     -26.498   2.238  18.597  1.00  0.00    -0.162 F 
ENDBRANCH  20  23
ENDBRANCH   4  19
BRANCH   1  27
HETATM   27  S1  UNL     1     -23.255   5.096  10.764  1.00  0.00     0.256 S 
HETATM   28  O1  UNL     1     -21.931   4.408  10.610  1.00  0.00    -0.201 OA
HETATM   29  O2  UNL     1     -22.994   6.552  11.030  1.00  0.00    -0.201 OA
BRANCH  27  30
HETATM   30  N1  UNL     1     -24.105   4.945   9.264  1.00  0.00    -0.324 N 
ATOM     31  H12 UNL     1     -24.437   4.069   8.859  1.00  0.00     0.169 HD
ATOM     32  H11 UNL     1     -24.208   5.880   8.870  1.00  0.00     0.169 HD
ENDBRANCH  27  30
ENDBRANCH   1  27
TORSDOF 8
ENDMDL
MODEL 4
REMARK VINA RESULT: -7.286312567      1.163      1.474
REMARK  8 active torsions:
REMARK  status: ('A' for Active; 'I' for Inactive)
REMARK    1  A    between atoms: N1_1  and  S1_4 
REMARK    2  A    between atoms: S1_4  and  C1_7 
REMARK    3  A    between atoms: C4_10  and  N2_11 
REMARK       I    between atoms: N2_11  and  C5_13 
REMARK    4  A    between atoms: C5_13  and  C6_15 
REMARK    5  A    between atoms: C7_19  and  N3_20 
REMARK    6  A    between atoms: N3_20  and  C8_22 
REMARK    7  A    between atoms: C9_26  and  N6_27 
REMARK    8  A    between atoms: N6_27  and  N7_29 
ROOT
HETATM    1  C1  UNL     1     -21.589   5.638  10.782  1.00  0.00     0.081 A 
HETATM    2  C2  UNL     1     -21.853   6.964  10.923  1.00  0.00     0.027 A 
HETATM    3  C3  UNL     1     -22.750   7.443  11.875  1.00  0.00     0.033 A 
HETATM    4  C4  UNL     1     -23.399   6.580  12.711  1.00  0.00     0.061 A 
HETATM    5  C7  UNL     1     -23.137   5.170  12.587  1.00  0.00     0.058 A 
HETATM    6  C10 UNL     1     -22.242   4.752  11.626  1.00  0.00     0.057 A 
ENDROOT
BRANCH   5   7
HETATM    7  N3  UNL     1     -23.756   4.325  13.523  1.00  0.00    -0.362 N 
ATOM      8  H3  UNL     1     -23.417   4.402  14.481  1.00  0.00     0.162 HD
BRANCH   7   9
HETATM    9  C8  UNL     1     -24.791   3.380  13.310  1.00  0.00     0.268 A 
HETATM   10  N4  UNL     1     -24.540   2.230  12.521  1.00  0.00    -0.106 NA
HETATM   11  N5  UNL     1     -25.013   1.442  13.515  1.00  0.00    -0.286 N 
HETATM   12  C9  UNL     1     -25.252   2.422  14.269  1.00  0.00     0.153 A 
ATOM     13  H5  UNL     1     -25.132   0.434  13.615  1.00  0.00     0.184 HD
BRANCH  12  14
HETATM   14  N6  UNL     1     -25.800   2.492  15.603  1.00  0.00    -0.225 N 
ATOM     15  H6  UNL     1     -26.482   3.212  15.844  1.00  0.00     0.194 HD
BRANCH  14  16
HETATM   16  N7  UNL     1     -25.385   1.561  16.560  1.00  0.00    -0.037 N 
HETATM   17  O4  UNL     1     -24.385   0.835  16.363  1.00  0.00    -0.516 OA
HETATM   18  O5  UNL     1     -26.072   1.428  17.735  1.00  0.00    -0.516 OA
ENDBRANCH  14  16
ENDBRANCH  12  14
ENDBRANCH   7   9
ENDBRANCH   5   7
BRANCH   4  19
HETATM   19  N2  UNL     1     -24.376   7.002  13.623  1.00  0.00    -0.318 N 
HETATM   20  C5  UNL     1     -25.747   7.116  13.419  1.00  0.00     0.330 C 
HETATM   21  O3  UNL     1     -26.303   6.850  12.351  1.00  0.00    -0.263 OA
ATOM     22  H2  UNL     1     -24.040   7.258  14.552  1.00  0.00     0.169 HD
BRANCH  20  23
HETATM   23  C6  UNL     1     -26.663   7.584  14.525  1.00  0.00     0.472 C 
HETATM   24  F1  UNL     1     -26.057   8.683  15.131  1.00  0.00    -0.162 F 
HETATM   25  F2  UNL     1     -26.805   6.633  15.509  1.00  0.00    -0.162 F 
HETATM   26  F3  UNL     1     -27.907   7.901  14.053  1.00  0.00    -0.162 F 
ENDBRANCH  20  23
ENDBRANCH   4  19
BRANCH   1  27
HETATM   27  S1  UNL     1     -20.454   5.086   9.566  1.00  0.00     0.256 S 
HETATM   28  O1  UNL     1     -21.143   4.705   8.288  1.00  0.00    -0.201 OA
HETATM   29  O2  UNL     1     -19.726   3.876  10.079  1.00  0.00    -0.201 OA
BRANCH  27  30
HETATM   30  N1  UNL     1     -19.299   6.319   9.193  1.00  0.00    -0.324 N 
ATOM     31  H12 UNL     1     -18.401   6.449   9.661  1.00  0.00     0.169 HD
ATOM     32  H11 UNL     1     -19.679   6.881   8.432  1.00  0.00     0.169 HD
ENDBRANCH  27  30
ENDBRANCH   1  27
TORSDOF 8
ENDMDL
MODEL 5
REMARK VINA RESULT: -7.237133474      1.043      1.406
REMARK  8 active torsions:
REMARK  status: ('A' for Active; 'I' for Inactive)
REMARK    1  A    between atoms: N1_1  and  S1_4 
REMARK    2  A    between atoms: S1_4  and  C1_7 
REMARK    3  A    between atoms: C4_10  and  N2_11 
REMARK       I    between atoms: N2_11  and  C5_13 
REMARK    4  A    between atoms: C5_13  and  C6_15 
REMARK    5  A    between atoms: C7_19  and  N3_20 
REMARK    6  A    between atoms: N3_20  and  C8_22 
REMARK    7  A    between atoms: C9_26  and  N6_27 
REMARK    8  A    between atoms: N6_27  and  N7_29 
ROOT
HETATM    1  C1  UNL     1     -21.357   5.351  11.238  1.00  0.00     0.081 A 
HETATM    2  C2  UNL     1     -21.843   6.618  11.160  1.00  0.00     0.027 A 
HETATM    3  C3  UNL     1     -23.015   7.003  11.808  1.00  0.00     0.033 A 
HETATM    4  C4  UNL     1     -23.720   6.103  12.554  1.00  0.00     0.061 A 
HETATM    5  C7  UNL     1     -23.228   4.755  12.657  1.00  0.00     0.058 A 
HETATM    6  C10 UNL     1     -22.066   4.429  11.994  1.00  0.00     0.057 A 
ENDROOT
BRANCH   5   7
HETATM    7  N3  UNL     1     -23.934   3.885  13.506  1.00  0.00    -0.362 N 
ATOM      8  H3  UNL     1     -23.595   3.832  14.466  1.00  0.00     0.162 HD
BRANCH   7   9
HETATM    9  C8  UNL     1     -25.056   3.073  13.203  1.00  0.00     0.268 A 
HETATM   10  N4  UNL     1     -25.464   2.915  11.855  1.00  0.00    -0.106 NA
HETATM   11  N5  UNL     1     -25.443   1.569  12.005  1.00  0.00    -0.286 N 
HETATM   12  C9  UNL     1     -25.071   1.642  13.206  1.00  0.00     0.153 A 
ATOM     13  H5  UNL     1     -25.650   0.790  11.380  1.00  0.00     0.184 HD
BRANCH  12  14
HETATM   14  N6  UNL     1     -24.788   0.618  14.185  1.00  0.00    -0.225 N 
ATOM     15  H6  UNL     1     -24.396  -0.278  13.896  1.00  0.00     0.194 HD
BRANCH  14  16
HETATM   16  N7  UNL     1     -25.059   0.872  15.533  1.00  0.00    -0.037 N 
HETATM   17  O4  UNL     1     -25.995   0.289  16.125  1.00  0.00    -0.516 OA
HETATM   18  O5  UNL     1     -24.299   1.769  16.231  1.00  0.00    -0.516 OA
ENDBRANCH  14  16
ENDBRANCH  12  14
ENDBRANCH   7   9
ENDBRANCH   5   7
BRANCH   4  19
HETATM   19  N2  UNL     1     -24.950   6.416  13.150  1.00  0.00    -0.318 N 
HETATM   20  C5  UNL     1     -25.183   7.190  14.282  1.00  0.00     0.330 C 
HETATM   21  O3  UNL     1     -24.286   7.722  14.941  1.00  0.00    -0.263 OA
ATOM     22  H2  UNL     1     -25.778   6.027  12.697  1.00  0.00     0.169 HD
BRANCH  20  23
HETATM   23  C6  UNL     1     -26.586   7.434  14.785  1.00  0.00     0.472 C 
HETATM   24  F1  UNL     1     -26.916   6.372  15.626  1.00  0.00    -0.162 F 
HETATM   25  F2  UNL     1     -27.506   7.414  13.763  1.00  0.00    -0.162 F 
HETATM   26  F3  UNL     1     -26.690   8.632  15.434  1.00  0.00    -0.162 F 
ENDBRANCH  20  23
ENDBRANCH   4  19
BRANCH   1  27
HETATM   27  S1  UNL     1     -19.880   4.917  10.402  1.00  0.00     0.256 S 
HETATM   28  O1  UNL     1     -20.156   4.282   9.070  1.00  0.00    -0.201 OA
HETATM   29  O2  UNL     1     -19.109   3.931  11.234  1.00  0.00    -0.201 OA
BRANCH  27  30
HETATM   30  N1  UNL     1     -18.892   6.311  10.126  1.00  0.00    -0.324 N 
ATOM     31  H12 UNL     1     -17.918   6.295   9.823  1.00  0.00     0.169 HD
ATOM     32  H11 UNL     1     -19.459   7.136  10.322  1.00  0.00     0.169 HD
ENDBRANCH  27  30
ENDBRANCH   1  27
TORSDOF 8
ENDMDL
