MODEL 1
REMARK VINA RESULT: -7.471140685      0.000      0.000
REMARK  7 active torsions:
REMARK  status: ('A' for Active; 'I' for Inactive)
REMARK    1  A    between atoms: C2_2  and  N1_3 
REMARK       I    between atoms: N1_3  and  C3_4 
REMARK    2  A    between atoms: N1_3  and  N3_7 
REMARK    3  A    between atoms: N3_7  and  C4_8 
REMARK    4  A    between atoms: N3_7  and  N11_33 
REMARK    5  A    between atoms: C7_13  and  C8_14 
REMARK    6  A    between atoms: C9_20  and  N6_21 
REMARK    7  A    between atoms: N8_26  and  O2_27 
ROOT
HETATM    1  C4  UNL     1     -24.539   3.787  13.896  1.00  0.00     0.740 A 
HETATM    2  N4  UNL     1     -24.580   3.974  12.582  1.00  0.00    -0.168 N 
ATOM      3  H4  UNL     1     -25.372   3.739  11.985  1.00  0.00     0.186 HD
HETATM    4  C5  UNL     1     -23.401   4.530  12.139  1.00  0.00     0.169 A 
HETATM    5  C6  UNL     1     -23.105   4.851  10.760  1.00  0.00     0.159 A 
HETATM    6  C7  UNL     1     -21.966   5.440  10.299  1.00  0.00     0.167 A 
HETATM    7  N5  UNL     1     -21.786   5.675   8.954  1.00  0.00    -0.183 N 
ATOM      8  H5  UNL     1     -20.923   6.116   8.637  1.00  0.00     0.184 HD
HETATM    9  C9  UNL     1     -22.711   5.339   8.059  1.00  0.00     0.693 A 
HETATM   10  N7  UNL     1     -23.827   4.762   8.521  1.00  0.00    -0.105 N 
ATOM     11  H7  UNL     1     -24.550   4.497   7.852  1.00  0.00     0.208 HD
HETATM   12  N8  UNL     1     -24.033   4.521   9.801  1.00  0.00    -0.143 N 
HETATM   13  N9  UNL     1     -22.693   4.648  13.258  1.00  0.00    -0.269 N 
ATOM     14  H9  UNL     1     -21.749   5.033  13.288  1.00  0.00     0.189 HD
HETATM   15  N10 UNL     1     -23.336   4.218  14.326  1.00  0.00    -0.127 N 
ATOM     16  H10 UNL     1     -22.991   4.211  15.286  1.00  0.00     0.206 HD
ENDROOT
BRANCH   1  17
HETATM   17  N3  UNL     1     -25.531   3.243  14.770  1.00  0.00     0.048 N 
BRANCH  17  18
HETATM   18  N1  UNL     1     -25.374   1.991  15.390  1.00  0.00    -0.204 N 
HETATM   19  C3  UNL     1     -25.131   0.851  14.547  1.00  0.00     0.351 C 
HETATM   20  N2  UNL     1     -25.053   0.991  13.152  1.00  0.00    -0.038 NA
HETATM   21  O1  UNL     1     -24.991  -0.276  15.098  1.00  0.00    -0.249 OA
BRANCH  18  22
HETATM   22  C2  UNL     1     -25.455   1.854  16.817  1.00  0.00     0.152 C 
HETATM   23  C1  UNL     1     -26.619   0.936  17.215  1.00  0.00     0.029 C 
ENDBRANCH  18  22
ENDBRANCH  17  18
BRANCH  17  24
HETATM   24  N11 UNL     1     -26.706   3.935  15.052  1.00  0.00    -0.001 N 
HETATM   25  O3  UNL     1     -27.051   4.850  14.285  1.00  0.00    -0.515 OA
HETATM   26  O4  UNL     1     -27.498   3.653  16.132  1.00  0.00    -0.515 OA
ENDBRANCH  17  24
ENDBRANCH   1  17
BRANCH   6  27
HETATM   27  C8  UNL     1     -20.902   5.863  11.226  1.00  0.00     0.435 C 
HETATM   28  F1  UNL     1     -21.262   6.798  12.150  1.00  0.00    -0.165 F 
HETATM   29  F2  UNL     1     -19.905   6.501  10.440  1.00  0.00    -0.165 F 
HETATM   30  F3  UNL     1     -20.218   4.771  11.750  1.00  0.00    -0.165 F 
ENDBRANCH   6  27
BRANCH  12  31
HETATM   31  O2  UNL     1     -25.082   3.982  10.199  1.00  0.00    -0.267 OA
ATOM     32  H2  UNL     1     -25.646   4.505  10.757  1.00  0.00     0.247 HD
ENDBRANCH  12  31
BRANCH   9  33
HETATM   33  N6  UNL     1     -22.537   5.565   6.783  1.00  0.00    -0.233 N 
ATOM     34  H62 UNL     1     -22.269   4.818   6.142  1.00  0.00     0.174 HD
ATOM     35  H61 UNL     1     -22.665   6.496   6.386  1.00  0.00     0.174 HD
ENDBRANCH   9  33
TORSDOF 7
ENDMDL
MODEL 2
REMARK VINA RESULT: -7.289450070      4.035      7.659
REMARK  7 active torsions:
REMARK  status: ('A' for Active; 'I' for Inactive)
REMARK    1  A    between atoms: C2_2  and  N1_3 
REMARK       I    between atoms: N1_3  and  C3_4 
REMARK    2  A    between atoms: N1_3  and  N3_7 
REMARK    3  A    between atoms: N3_7  and  C4_8 
REMARK    4  A    between atoms: N3_7  and  N11_33 
REMARK    5  A    between atoms: C7_13  and  C8_14 
REMARK    6  A    between atoms: C9_20  and  N6_21 
REMARK    7  A    between atoms: N8_26  and  O2_27 
ROOT
HETATM    1  C4  UNL     1     -19.742   5.890  11.723  1.00  0.00     0.740 A 
HETATM    2  N4  UNL     1     -20.803   5.194  12.114  1.00  0.00    -0.168 N 
ATOM      3  H4  UNL     1     -20.951   4.203  11.922  1.00  0.00     0.186 HD
HETATM    4  C5  UNL     1     -21.674   5.998  12.814  1.00  0.00     0.169 A 
HETATM    5  C6  UNL     1     -22.936   5.561  13.371  1.00  0.00     0.159 A 
HETATM    6  C7  UNL     1     -23.796   6.323  14.104  1.00  0.00     0.167 A 
HETATM    7  N5  UNL     1     -24.986   5.802  14.563  1.00  0.00    -0.183 N 
ATOM      8  H5  UNL     1     -25.612   6.394  15.108  1.00  0.00     0.184 HD
HETATM    9  C9  UNL     1     -25.338   4.543  14.311  1.00  0.00     0.693 A 
HETATM   10  N7  UNL     1     -24.486   3.803  13.591  1.00  0.00    -0.105 N 
ATOM     11  H7  UNL     1     -24.735   2.835  13.386  1.00  0.00     0.208 HD
HETATM   12  N8  UNL     1     -23.339   4.269  13.135  1.00  0.00    -0.143 N 
HETATM   13  N9  UNL     1     -21.061   7.177  12.801  1.00  0.00    -0.269 N 
ATOM     14  H9  UNL     1     -21.443   8.014  13.241  1.00  0.00     0.189 HD
HETATM   15  N10 UNL     1     -19.908   7.155  12.162  1.00  0.00    -0.127 N 
ATOM     16  H10 UNL     1     -19.268   7.938  12.026  1.00  0.00     0.206 HD
ENDROOT
BRANCH   1  17
HETATM   17  N3  UNL     1     -18.598   5.466  10.978  1.00  0.00     0.048 N 
BRANCH  17  18
HETATM   18  N1  UNL     1     -17.347   6.095  11.109  1.00  0.00    -0.204 N 
HETATM   19  C3  UNL     1     -17.060   7.205  10.241  1.00  0.00     0.351 C 
HETATM   20  N2  UNL     1     -18.003   7.643   9.297  1.00  0.00    -0.038 NA
HETATM   21  O1  UNL     1     -15.938   7.772  10.352  1.00  0.00    -0.249 OA
BRANCH  18  22
HETATM   22  C2  UNL     1     -16.387   5.643  12.076  1.00  0.00     0.152 C 
HETATM   23  C1  UNL     1     -16.487   6.460  13.371  1.00  0.00     0.029 C 
ENDBRANCH  18  22
ENDBRANCH  17  18
BRANCH  17  24
HETATM   24  N11 UNL     1     -18.670   4.401  10.084  1.00  0.00    -0.001 N 
HETATM   25  O3  UNL     1     -19.783   3.903   9.848  1.00  0.00    -0.515 OA
HETATM   26  O4  UNL     1     -17.572   3.879   9.454  1.00  0.00    -0.515 OA
ENDBRANCH  17  24
ENDBRANCH   1  17
BRANCH   6  27
HETATM   27  C8  UNL     1     -23.472   7.718  14.446  1.00  0.00     0.435 C 
HETATM   28  F1  UNL     1     -22.345   7.895  15.191  1.00  0.00    -0.165 F 
HETATM   29  F2  UNL     1     -24.527   8.191  15.272  1.00  0.00    -0.165 F 
HETATM   30  F3  UNL     1     -23.564   8.550  13.335  1.00  0.00    -0.165 F 
ENDBRANCH   6  27
BRANCH  12  31
HETATM   31  O2  UNL     1     -22.569   3.555  12.468  1.00  0.00    -0.267 OA
ATOM     32  H2  UNL     1     -22.784   2.631  12.411  1.00  0.00     0.247 HD
ENDBRANCH  12  31
BRANCH   9  33
HETATM   33  N6  UNL     1     -26.468   4.052  14.749  1.00  0.00    -0.233 N 
ATOM     34  H62 UNL     1     -26.714   4.083  15.738  1.00  0.00     0.174 HD
ATOM     35  H61 UNL     1     -27.141   3.622  14.114  1.00  0.00     0.174 HD
ENDBRANCH   9  33
TORSDOF 7
ENDMDL
MODEL 3
REMARK VINA RESULT: -7.132030952      2.435      3.757
REMARK  7 active torsions:
REMARK  status: ('A' for Active; 'I' for Inactive)
REMARK    1  A    between atoms: C2_2  and  N1_3 
REMARK       I    between atoms: N1_3  and  C3_4 
REMARK    2  A    between atoms: N1_3  and  N3_7 
REMARK    3  A    between atoms: N3_7  and  C4_8 
REMARK    4  A    between atoms: N3_7  and  N11_33 
REMARK    5  A    between atoms: C7_13  and  C8_14 
REMARK    6  A    between atoms: C9_20  and  N6_21 
REMARK    7  A    between atoms: N8_26  and  O2_27 
ROOT
HETATM    1  C4  UNL     1     -23.005   4.312  12.130  1.00  0.00     0.740 A 
HETATM    2  N4  UNL     1     -22.536   4.588  10.919  1.00  0.00    -0.168 N 
ATOM      3  H4  UNL     1     -23.101   4.624  10.071  1.00  0.00     0.186 HD
HETATM    4  C5  UNL     1     -21.180   4.820  10.970  1.00  0.00     0.169 A 
HETATM    5  C6  UNL     1     -20.352   5.135   9.826  1.00  0.00     0.159 A 
HETATM    6  C7  UNL     1     -19.017   5.411   9.853  1.00  0.00     0.167 A 
HETATM    7  N5  UNL     1     -18.326   5.673   8.691  1.00  0.00    -0.183 N 
ATOM      8  H5  UNL     1     -17.328   5.875   8.740  1.00  0.00     0.184 HD
HETATM    9  C9  UNL     1     -18.931   5.669   7.506  1.00  0.00     0.693 A 
HETATM   10  N7  UNL     1     -20.241   5.399   7.489  1.00  0.00    -0.105 N 
ATOM     11  H7  UNL     1     -20.726   5.391   6.592  1.00  0.00     0.208 HD
HETATM   12  N8  UNL     1     -20.935   5.142   8.582  1.00  0.00    -0.143 N 
HETATM   13  N9  UNL     1     -20.903   4.662  12.260  1.00  0.00    -0.269 N 
ATOM     14  H9  UNL     1     -19.966   4.765  12.651  1.00  0.00     0.189 HD
HETATM   15  N10 UNL     1     -21.962   4.359  12.984  1.00  0.00    -0.127 N 
ATOM     16  H10 UNL     1     -21.988   4.194  13.991  1.00  0.00     0.206 HD
ENDROOT
BRANCH   1  17
HETATM   17  N3  UNL     1     -24.340   4.011  12.543  1.00  0.00     0.048 N 
BRANCH  17  18
HETATM   18  N1  UNL     1     -25.161   4.965  13.169  1.00  0.00    -0.204 N 
HETATM   19  C3  UNL     1     -25.744   5.991  12.345  1.00  0.00     0.351 C 
HETATM   20  N2  UNL     1     -25.499   6.030  10.963  1.00  0.00    -0.038 NA
HETATM   21  O1  UNL     1     -26.481   6.851  12.901  1.00  0.00    -0.249 OA
BRANCH  18  22
HETATM   22  C2  UNL     1     -25.409   4.919  14.581  1.00  0.00     0.152 C 
HETATM   23  C1  UNL     1     -26.622   4.033  14.897  1.00  0.00     0.029 C 
ENDBRANCH  18  22
ENDBRANCH  17  18
BRANCH  17  24
HETATM   24  N11 UNL     1     -24.893   2.749  12.341  1.00  0.00    -0.001 N 
HETATM   25  O3  UNL     1     -24.354   1.773  12.890  1.00  0.00    -0.515 OA
HETATM   26  O4  UNL     1     -26.003   2.535  11.570  1.00  0.00    -0.515 OA
ENDBRANCH  17  24
ENDBRANCH   1  17
BRANCH   6  27
HETATM   27  C8  UNL     1     -18.277   5.458  11.126  1.00  0.00     0.435 C 
HETATM   28  F1  UNL     1     -18.668   6.428  11.999  1.00  0.00    -0.165 F 
HETATM   29  F2  UNL     1     -16.932   5.784  10.805  1.00  0.00    -0.165 F 
HETATM   30  F3  UNL     1     -18.153   4.192  11.690  1.00  0.00    -0.165 F 
ENDBRANCH   6  27
BRANCH  12  31
HETATM   31  O2  UNL     1     -22.153   4.893   8.533  1.00  0.00    -0.267 OA
ATOM     32  H2  UNL     1     -22.732   5.505   8.972  1.00  0.00     0.247 HD
ENDBRANCH  12  31
BRANCH   9  33
HETATM   33  N6  UNL     1     -18.272   5.920   6.405  1.00  0.00    -0.233 N 
ATOM     34  H62 UNL     1     -17.268   6.103   6.415  1.00  0.00     0.174 HD
ATOM     35  H61 UNL     1     -18.740   5.941   5.499  1.00  0.00     0.174 HD
ENDBRANCH   9  33
TORSDOF 7
ENDMDL
MODEL 4
REMARK VINA RESULT: -7.049869966      3.330      4.586
REMARK  7 active torsions:
REMARK  status: ('A' for Active; 'I' for Inactive)
REMARK    1  A    between atoms: C2_2  and  N1_3 
REMARK       I    between atoms: N1_3  and  C3_4 
REMARK    2  A    between atoms: N1_3  and  N3_7 
REMARK    3  A    between atoms: N3_7  and  C4_8 
REMARK    4  A    between atoms: N3_7  and  N11_33 
REMARK    5  A    between atoms: C7_13  and  C8_14 
REMARK    6  A    between atoms: C9_20  and  N6_21 
REMARK    7  A    between atoms: N8_26  and  O2_27 
ROOT
HETATM    1  C4  UNL     1     -24.584   4.664  10.673  1.00  0.00     0.740 A 
HETATM    2  N4  UNL     1     -23.534   4.729   9.863  1.00  0.00    -0.168 N 
ATOM      3  H4  UNL     1     -22.666   4.212   9.994  1.00  0.00     0.186 HD
HETATM    4  C5  UNL     1     -23.784   5.596   8.822  1.00  0.00     0.169 A 
HETATM    5  C6  UNL     1     -22.846   5.910   7.766  1.00  0.00     0.159 A 
HETATM    6  C7  UNL     1     -23.080   6.729   6.702  1.00  0.00     0.167 A 
HETATM    7  N5  UNL     1     -22.097   6.973   5.768  1.00  0.00    -0.183 N 
ATOM      8  H5  UNL     1     -22.300   7.591   4.983  1.00  0.00     0.184 HD
HETATM    9  C9  UNL     1     -20.890   6.423   5.868  1.00  0.00     0.693 A 
HETATM   10  N7  UNL     1     -20.669   5.620   6.916  1.00  0.00    -0.105 N 
ATOM     11  H7  UNL     1     -19.751   5.187   7.013  1.00  0.00     0.208 HD
HETATM   12  N8  UNL     1     -21.586   5.363   7.830  1.00  0.00    -0.143 N 
HETATM   13  N9  UNL     1     -25.018   6.016   9.079  1.00  0.00    -0.269 N 
ATOM     14  H9  UNL     1     -25.518   6.682   8.490  1.00  0.00     0.189 HD
HETATM   15  N10 UNL     1     -25.530   5.485  10.171  1.00  0.00    -0.127 N 
ATOM     16  H10 UNL     1     -26.457   5.660  10.560  1.00  0.00     0.206 HD
ENDROOT
BRANCH   1  17
HETATM   17  N3  UNL     1     -24.768   3.899  11.867  1.00  0.00     0.048 N 
BRANCH  17  18
HETATM   18  N1  UNL     1     -24.366   4.374  13.127  1.00  0.00    -0.204 N 
HETATM   19  C3  UNL     1     -22.960   4.372  13.427  1.00  0.00     0.351 C 
HETATM   20  N2  UNL     1     -22.023   3.912  12.487  1.00  0.00    -0.038 NA
HETATM   21  O1  UNL     1     -22.592   4.796  14.558  1.00  0.00    -0.249 OA
BRANCH  18  22
HETATM   22  C2  UNL     1     -25.327   4.844  14.084  1.00  0.00     0.152 C 
HETATM   23  C1  UNL     1     -25.684   6.315  13.827  1.00  0.00     0.029 C 
ENDBRANCH  18  22
ENDBRANCH  17  18
BRANCH  17  24
HETATM   24  N11 UNL     1     -25.362   2.640  11.835  1.00  0.00    -0.001 N 
HETATM   25  O3  UNL     1     -26.310   2.453  11.055  1.00  0.00    -0.515 OA
HETATM   26  O4  UNL     1     -24.947   1.599  12.622  1.00  0.00    -0.515 OA
ENDBRANCH  17  24
ENDBRANCH   1  17
BRANCH   6  27
HETATM   27  C8  UNL     1     -24.397   7.359   6.505  1.00  0.00     0.435 C 
HETATM   28  F1  UNL     1     -25.441   6.502   6.331  1.00  0.00    -0.165 F 
HETATM   29  F2  UNL     1     -24.322   8.087   5.287  1.00  0.00    -0.165 F 
HETATM   30  F3  UNL     1     -24.627   8.362   7.441  1.00  0.00    -0.165 F 
ENDBRANCH   6  27
BRANCH  12  31
HETATM   31  O2  UNL     1     -21.350   4.612   8.793  1.00  0.00    -0.267 OA
ATOM     32  H2  UNL     1     -20.807   3.853   8.619  1.00  0.00     0.247 HD
ENDBRANCH  12  31
BRANCH   9  33
HETATM   33  N6  UNL     1     -19.960   6.657   4.980  1.00  0.00    -0.233 N 
ATOM     34  H62 UNL     1     -19.312   7.439   5.080  1.00  0.00     0.174 HD
ATOM     35  H61 UNL     1     -19.851   6.064   4.157  1.00  0.00     0.174 HD
ENDBRANCH   9  33
TORSDOF 7
ENDMDL
MODEL 5
REMARK VINA RESULT: -7.030988561      3.950      5.032
REMARK  7 active torsions:
REMARK  status: ('A' for Active; 'I' for Inactive)
REMARK    1  A    between atoms: C2_2  and  N1_3 
REMARK       I    between atoms: N1_3  and  C3_4 
REMARK    2  A    between atoms: N1_3  and  N3_7 
REMARK    3  A    between atoms: N3_7  and  C4_8 
REMARK    4  A    between atoms: N3_7  and  N11_33 
REMARK    5  A    between atoms: C7_13  and  C8_14 
REMARK    6  A    between atoms: C9_20  and  N6_21 
REMARK    7  A    between atoms: N8_26  and  O2_27 
ROOT
HETATM    1  C4  UNL     1     -24.876   4.672  10.982  1.00  0.00     0.740 A 
HETATM    2  N4  UNL     1     -25.626   5.747  10.776  1.00  0.00    -0.168 N 
ATOM      3  H4  UNL     1     -26.297   6.126  11.445  1.00  0.00     0.186 HD
HETATM    4  C5  UNL     1     -25.371   6.280   9.532  1.00  0.00     0.169 A 
HETATM    5  C6  UNL     1     -26.027   7.448   8.983  1.00  0.00     0.159 A 
HETATM    6  C7  UNL     1     -25.765   8.021   7.775  1.00  0.00     0.167 A 
HETATM    7  N5  UNL     1     -26.474   9.121   7.346  1.00  0.00    -0.183 N 
ATOM      8  H5  UNL     1     -26.258   9.530   6.437  1.00  0.00     0.184 HD
HETATM    9  C9  UNL     1     -27.435   9.664   8.090  1.00  0.00     0.693 A 
HETATM   10  N7  UNL     1     -27.684   9.094   9.276  1.00  0.00    -0.105 N 
ATOM     11  H7  UNL     1     -28.416   9.493   9.863  1.00  0.00     0.208 HD
HETATM   12  N8  UNL     1     -27.026   8.040   9.718  1.00  0.00    -0.143 N 
HETATM   13  N9  UNL     1     -24.447   5.460   9.045  1.00  0.00    -0.269 N 
ATOM     14  H9  UNL     1     -24.029   5.569   8.121  1.00  0.00     0.189 HD
HETATM   15  N10 UNL     1     -24.124   4.489   9.877  1.00  0.00    -0.127 N 
ATOM     16  H10 UNL     1     -23.441   3.748   9.717  1.00  0.00     0.206 HD
ENDROOT
BRANCH   1  17
HETATM   17  N3  UNL     1     -24.809   3.812  12.122  1.00  0.00     0.048 N 
BRANCH  17  18
HETATM   18  N1  UNL     1     -24.331   4.257  13.366  1.00  0.00    -0.204 N 
HETATM   19  C3  UNL     1     -22.910   4.409  13.524  1.00  0.00     0.351 C 
HETATM   20  N2  UNL     1     -22.033   4.122  12.464  1.00  0.00    -0.038 NA
HETATM   21  O1  UNL     1     -22.474   4.807  14.640  1.00  0.00    -0.249 OA
BRANCH  18  22
HETATM   22  C2  UNL     1     -25.232   4.550  14.445  1.00  0.00     0.152 C 
HETATM   23  C1  UNL     1     -25.819   5.961  14.302  1.00  0.00     0.029 C 
ENDBRANCH  18  22
ENDBRANCH  17  18
BRANCH  17  24
HETATM   24  N11 UNL     1     -25.221   2.483  12.051  1.00  0.00    -0.001 N 
HETATM   25  O3  UNL     1     -26.111   2.183  11.239  1.00  0.00    -0.515 OA
HETATM   26  O4  UNL     1     -24.689   1.494  12.834  1.00  0.00    -0.515 OA
ENDBRANCH  17  24
ENDBRANCH   1  17
BRANCH   6  27
HETATM   27  C8  UNL     1     -24.702   7.496   6.900  1.00  0.00     0.435 C 
HETATM   28  F1  UNL     1     -23.434   7.599   7.387  1.00  0.00    -0.165 F 
HETATM   29  F2  UNL     1     -24.704   8.300   5.729  1.00  0.00    -0.165 F 
HETATM   30  F3  UNL     1     -25.027   6.238   6.402  1.00  0.00    -0.165 F 
ENDBRANCH   6  27
BRANCH  12  31
HETATM   31  O2  UNL     1     -27.282   7.533  10.825  1.00  0.00    -0.267 OA
ATOM     32  H2  UNL     1     -27.864   8.022  11.395  1.00  0.00     0.247 HD
ENDBRANCH  12  31
BRANCH   9  33
HETATM   33  N6  UNL     1     -28.105  10.708   7.680  1.00  0.00    -0.233 N 
ATOM     34  H62 UNL     1     -28.979  10.611   7.164  1.00  0.00     0.174 HD
ATOM     35  H61 UNL     1     -27.775  11.656   7.864  1.00  0.00     0.174 HD
ENDBRANCH   9  33
TORSDOF 7
ENDMDL
