MODEL 1
REMARK VINA RESULT: -7.719705465      0.000      0.000
REMARK  5 active torsions:
REMARK  status: ('A' for Active; 'I' for Inactive)
REMARK    1  A    between atoms: O1_2  and  C2_3 
REMARK    2  A    between atoms: C7_10  and  O2_11 
REMARK    3  A    between atoms: N2_18  and  C12_19 
REMARK    4  A    between atoms: C12_19  and  C13_20 
REMARK    5  A    between atoms: C18_26  and  C19_27 
ROOT
HETATM    1  C2  UNL     1       3.475 -10.115  -8.653  1.00  0.00     0.124 A 
HETATM    2  C3  UNL     1       3.410 -10.884  -9.806  1.00  0.00     0.042 A 
HETATM    3  C4  UNL     1       2.161 -11.668 -10.059  1.00  0.00     0.071 C 
HETATM    4  N1  UNL     1       4.440 -10.921 -10.666  1.00  0.00    -0.360 N 
ATOM      5  H1  UNL     1       4.338 -11.503 -11.498  1.00  0.00     0.165 HD
HETATM    6  C5  UNL     1       5.589 -10.254 -10.517  1.00  0.00     0.032 A 
HETATM    7  C6  UNL     1       5.672  -9.485  -9.376  1.00  0.00     0.032 A 
HETATM    8  C7  UNL     1       4.630  -9.416  -8.456  1.00  0.00     0.112 A 
HETATM    9  C8  UNL     1       6.722  -8.604  -8.790  1.00  0.00     0.186 C 
HETATM   10  O3  UNL     1       7.686  -8.397  -9.744  1.00  0.00    -0.362 OA
HETATM   11  C9  UNL     1       8.318  -9.512  -9.327  1.00  0.00     0.118 C 
HETATM   12  C10 UNL     1       9.744  -9.075  -8.938  1.00  0.00     0.087 C 
HETATM   13  C11 UNL     1       9.618  -8.361  -7.643  1.00  0.00     0.067 C 
HETATM   14  N2  UNL     1       8.398  -8.780  -7.080  1.00  0.00    -0.363 N 
HETATM   15  C16 UNL     1       7.627  -9.532  -7.992  1.00  0.00     0.159 C 
HETATM   16  C17 UNL     1       8.358 -10.741 -10.061  1.00  0.00     0.196 A 
HETATM   17  O4  UNL     1       8.972 -10.373 -11.401  1.00  0.00    -0.364 OA
HETATM   18  C18 UNL     1       7.765 -11.201 -11.235  1.00  0.00     0.106 A 
HETATM   19  C22 UNL     1       6.479 -10.574 -11.700  1.00  0.00     0.030 C 
HETATM   20  C23 UNL     1       6.710  -9.293 -12.490  1.00  0.00     0.025 C 
HETATM   21  C24 UNL     1       5.611 -11.411 -12.606  1.00  0.00     0.025 C 
ENDROOT
BRANCH  14  22
HETATM   22  C12 UNL     1       8.335  -9.092  -5.709  1.00  0.00     0.068 C 
BRANCH  22  23
HETATM   23  C13 UNL     1       7.629  -8.057  -4.896  1.00  0.00     0.024 A 
HETATM   24  C14 UNL     1       7.198  -6.746  -5.360  1.00  0.00     0.010 A 
HETATM   25  C15 UNL     1       8.396  -6.870  -4.425  1.00  0.00     0.010 A 
ENDBRANCH  22  23
ENDBRANCH  14  22
BRANCH   8  26
HETATM   26  O2  UNL     1       4.782  -8.633  -7.349  1.00  0.00    -0.357 OA
ATOM     27  H2  UNL     1       5.396  -7.908  -7.354  1.00  0.00     0.217 HD
ENDBRANCH   8  26
BRANCH  18  28
HETATM   28  C19 UNL     1       8.149 -12.607 -11.647  1.00  0.00     0.016 C 
HETATM   29  C20 UNL     1       8.603 -12.693 -13.086  1.00  0.00     0.012 C 
HETATM   30  C21 UNL     1       8.887 -13.423 -10.667  1.00  0.00     0.012 C 
ENDBRANCH  18  28
BRANCH   1  31
HETATM   31  O1  UNL     1       2.396 -10.104  -7.796  1.00  0.00    -0.351 OA
HETATM   32  C1  UNL     1       2.326 -10.809  -6.580  1.00  0.00     0.210 C 
ENDBRANCH   1  31
TORSDOF 5
ENDMDL
MODEL 2
REMARK VINA RESULT: -6.789540626      1.936      3.820
REMARK  5 active torsions:
REMARK  status: ('A' for Active; 'I' for Inactive)
REMARK    1  A    between atoms: O1_2  and  C2_3 
REMARK    2  A    between atoms: C7_10  and  O2_11 
REMARK    3  A    between atoms: N2_18  and  C12_19 
REMARK    4  A    between atoms: C12_19  and  C13_20 
REMARK    5  A    between atoms: C18_26  and  C19_27 
ROOT
HETATM    1  C2  UNL     1       4.038 -11.376 -12.110  1.00  0.00     0.124 A 
HETATM    2  C3  UNL     1       5.194 -11.696 -12.806  1.00  0.00     0.042 A 
HETATM    3  C4  UNL     1       5.086 -12.666 -13.940  1.00  0.00     0.071 C 
HETATM    4  N1  UNL     1       6.373 -11.151 -12.468  1.00  0.00    -0.360 N 
ATOM      5  H1  UNL     1       7.191 -11.422 -13.014  1.00  0.00     0.165 HD
HETATM    6  C5  UNL     1       6.559 -10.279 -11.471  1.00  0.00     0.032 A 
HETATM    7  C6  UNL     1       5.420  -9.949 -10.767  1.00  0.00     0.032 A 
HETATM    8  C7  UNL     1       4.176 -10.489 -11.081  1.00  0.00     0.112 A 
HETATM    9  C8  UNL     1       5.137  -9.060  -9.605  1.00  0.00     0.186 C 
HETATM   10  O3  UNL     1       6.246  -8.282  -9.384  1.00  0.00    -0.362 OA
HETATM   11  C9  UNL     1       6.748  -9.247  -8.588  1.00  0.00     0.118 C 
HETATM   12  C10 UNL     1       6.996  -8.585  -7.219  1.00  0.00     0.087 C 
HETATM   13  C11 UNL     1       5.661  -8.415  -6.593  1.00  0.00     0.067 C 
HETATM   14  N2  UNL     1       4.805  -9.323  -7.242  1.00  0.00    -0.363 N 
HETATM   15  C16 UNL     1       5.415  -9.909  -8.372  1.00  0.00     0.159 C 
HETATM   16  C17 UNL     1       7.848 -10.093  -8.938  1.00  0.00     0.196 A 
HETATM   17  O4  UNL     1       8.993  -9.139  -9.233  1.00  0.00    -0.364 OA
HETATM   18  C18 UNL     1       8.615 -10.277 -10.087  1.00  0.00     0.106 A 
HETATM   19  C22 UNL     1       8.029  -9.919 -11.425  1.00  0.00     0.030 C 
HETATM   20  C23 UNL     1       8.171  -8.436 -11.743  1.00  0.00     0.025 C 
HETATM   21  C24 UNL     1       8.622 -10.609 -12.627  1.00  0.00     0.025 C 
ENDROOT
BRANCH  14  22
HETATM   22  C12 UNL     1       3.894 -10.084  -6.484  1.00  0.00     0.068 C 
BRANCH  22  23
HETATM   23  C13 UNL     1       2.673 -10.481  -7.247  1.00  0.00     0.024 A 
HETATM   24  C14 UNL     1       1.412 -10.935  -6.677  1.00  0.00     0.010 A 
HETATM   25  C15 UNL     1       2.341 -11.928  -7.366  1.00  0.00     0.010 A 
ENDBRANCH  22  23
ENDBRANCH  14  22
BRANCH   8  26
HETATM   26  O2  UNL     1       3.092 -10.116 -10.342  1.00  0.00    -0.357 OA
ATOM     27  H2  UNL     1       2.688  -9.267 -10.476  1.00  0.00     0.217 HD
ENDBRANCH   8  26
BRANCH  18  28
HETATM   28  C19 UNL     1       9.730 -11.294  -9.964  1.00  0.00     0.016 C 
HETATM   29  C20 UNL     1      10.856 -10.825  -9.071  1.00  0.00     0.012 C 
HETATM   30  C21 UNL     1       9.347 -12.713  -9.860  1.00  0.00     0.012 C 
ENDBRANCH  18  28
BRANCH   1  31
HETATM   31  O1  UNL     1       2.847 -11.957 -12.488  1.00  0.00    -0.351 OA
HETATM   32  C1  UNL     1       2.190 -12.980 -11.780  1.00  0.00     0.210 C 
ENDBRANCH   1  31
TORSDOF 5
ENDMDL
MODEL 3
REMARK VINA RESULT: -6.663323928      2.698      5.763
REMARK  5 active torsions:
REMARK  status: ('A' for Active; 'I' for Inactive)
REMARK    1  A    between atoms: O1_2  and  C2_3 
REMARK    2  A    between atoms: C7_10  and  O2_11 
REMARK    3  A    between atoms: N2_18  and  C12_19 
REMARK    4  A    between atoms: C12_19  and  C13_20 
REMARK    5  A    between atoms: C18_26  and  C19_27 
ROOT
HETATM    1  C2  UNL     1      12.535  -9.271 -10.338  1.00  0.00     0.124 A 
HETATM    2  C3  UNL     1      12.268  -9.160 -11.694  1.00  0.00     0.042 A 
HETATM    3  C4  UNL     1      13.388  -8.760 -12.602  1.00  0.00     0.071 C 
HETATM    4  N1  UNL     1      11.038  -9.405 -12.175  1.00  0.00    -0.360 N 
ATOM      5  H1  UNL     1      10.898  -9.308 -13.181  1.00  0.00     0.165 HD
HETATM    6  C5  UNL     1       9.984  -9.766 -11.437  1.00  0.00     0.032 A 
HETATM    7  C6  UNL     1      10.231  -9.880 -10.086  1.00  0.00     0.032 A 
HETATM    8  C7  UNL     1      11.489  -9.636  -9.542  1.00  0.00     0.112 A 
HETATM    9  C8  UNL     1       9.396 -10.232  -8.902  1.00  0.00     0.186 C 
HETATM   10  O3  UNL     1       8.206 -10.743  -9.357  1.00  0.00    -0.362 OA
HETATM   11  C9  UNL     1       7.703  -9.493  -9.403  1.00  0.00     0.118 C 
HETATM   12  C10 UNL     1       6.448  -9.505  -8.509  1.00  0.00     0.087 C 
HETATM   13  C11 UNL     1       6.937  -9.524  -7.108  1.00  0.00     0.067 C 
HETATM   14  N2  UNL     1       8.261  -9.049  -7.148  1.00  0.00    -0.363 N 
HETATM   15  C16 UNL     1       8.739  -8.929  -8.470  1.00  0.00     0.159 C 
HETATM   16  C17 UNL     1       7.447  -8.769 -10.610  1.00  0.00     0.196 A 
HETATM   17  O4  UNL     1       6.488  -9.648 -11.395  1.00  0.00    -0.364 OA
HETATM   18  C18 UNL     1       7.684  -9.004 -11.963  1.00  0.00     0.106 A 
HETATM   19  C22 UNL     1       8.796  -9.936 -12.361  1.00  0.00     0.030 C 
HETATM   20  C23 UNL     1       8.368 -11.397 -12.330  1.00  0.00     0.025 C 
HETATM   21  C24 UNL     1       9.367  -9.752 -13.744  1.00  0.00     0.025 C 
ENDROOT
BRANCH  14  22
HETATM   22  C12 UNL     1       8.701  -8.132  -6.174  1.00  0.00     0.068 C 
BRANCH  22  23
HETATM   23  C13 UNL     1       7.594  -7.574  -5.341  1.00  0.00     0.024 A 
HETATM   24  C14 UNL     1       7.053  -6.224  -5.422  1.00  0.00     0.010 A 
HETATM   25  C15 UNL     1       7.930  -6.627  -4.242  1.00  0.00     0.010 A 
ENDBRANCH  22  23
ENDBRANCH  14  22
BRANCH   8  26
HETATM   26  O2  UNL     1      11.660  -9.770  -8.195  1.00  0.00    -0.357 OA
ATOM     27  H2  UNL     1      11.053 -10.291  -7.683  1.00  0.00     0.217 HD
ENDBRANCH   8  26
BRANCH  18  28
HETATM   28  C19 UNL     1       7.185  -7.929 -12.905  1.00  0.00     0.016 C 
HETATM   29  C20 UNL     1       5.687  -7.741 -12.840  1.00  0.00     0.012 C 
HETATM   30  C21 UNL     1       8.003  -6.710 -13.037  1.00  0.00     0.012 C 
ENDBRANCH  18  28
BRANCH   1  31
HETATM   31  O1  UNL     1      13.811  -9.011  -9.885  1.00  0.00    -0.351 OA
HETATM   32  C1  UNL     1      14.744  -9.990  -9.498  1.00  0.00     0.210 C 
ENDBRANCH   1  31
TORSDOF 5
ENDMDL
MODEL 4
REMARK VINA RESULT: -6.516892457      2.463      5.390
REMARK  5 active torsions:
REMARK  status: ('A' for Active; 'I' for Inactive)
REMARK    1  A    between atoms: O1_2  and  C2_3 
REMARK    2  A    between atoms: C7_10  and  O2_11 
REMARK    3  A    between atoms: N2_18  and  C12_19 
REMARK    4  A    between atoms: C12_19  and  C13_20 
REMARK    5  A    between atoms: C18_26  and  C19_27 
ROOT
HETATM    1  C2  UNL     1      10.554  -9.772  -9.682  1.00  0.00     0.124 A 
HETATM    2  C3  UNL     1      10.932  -9.331 -10.941  1.00  0.00     0.042 A 
HETATM    3  C4  UNL     1      12.362  -8.944 -11.152  1.00  0.00     0.071 C 
HETATM    4  N1  UNL     1      10.037  -9.254 -11.940  1.00  0.00    -0.360 N 
ATOM      5  H1  UNL     1      10.370  -8.923 -12.845  1.00  0.00     0.165 HD
HETATM    6  C5  UNL     1       8.744  -9.578 -11.839  1.00  0.00     0.032 A 
HETATM    7  C6  UNL     1       8.350 -10.017 -10.593  1.00  0.00     0.032 A 
HETATM    8  C7  UNL     1       9.242 -10.114  -9.529  1.00  0.00     0.112 A 
HETATM    9  C8  UNL     1       7.053 -10.465 -10.011  1.00  0.00     0.186 C 
HETATM   10  O3  UNL     1       6.167 -10.656 -11.041  1.00  0.00    -0.362 OA
HETATM   11  C9  UNL     1       5.813  -9.357 -10.959  1.00  0.00     0.118 C 
HETATM   12  C10 UNL     1       4.292  -9.344 -10.713  1.00  0.00     0.087 C 
HETATM   13  C11 UNL     1       4.097  -9.745  -9.297  1.00  0.00     0.067 C 
HETATM   14  N2  UNL     1       5.323  -9.506  -8.650  1.00  0.00    -0.363 N 
HETATM   15  C16 UNL     1       6.351  -9.190  -9.564  1.00  0.00     0.159 C 
HETATM   16  C17 UNL     1       6.171  -8.360 -11.921  1.00  0.00     0.196 A 
HETATM   17  O4  UNL     1       5.616  -8.875 -13.238  1.00  0.00    -0.364 OA
HETATM   18  C18 UNL     1       6.976  -8.339 -13.057  1.00  0.00     0.106 A 
HETATM   19  C22 UNL     1       8.091  -9.342 -13.184  1.00  0.00     0.030 C 
HETATM   20  C23 UNL     1       7.609 -10.680 -13.726  1.00  0.00     0.025 C 
HETATM   21  C24 UNL     1       9.233  -8.967 -14.095  1.00  0.00     0.025 C 
ENDROOT
BRANCH  14  22
HETATM   22  C12 UNL     1       5.332  -8.906  -7.376  1.00  0.00     0.068 C 
BRANCH  22  23
HETATM   23  C13 UNL     1       6.311  -7.785  -7.254  1.00  0.00     0.024 A 
HETATM   24  C14 UNL     1       6.970  -7.348  -6.031  1.00  0.00     0.010 A 
HETATM   25  C15 UNL     1       5.860  -6.502  -6.646  1.00  0.00     0.010 A 
ENDBRANCH  22  23
ENDBRANCH  14  22
BRANCH   8  26
HETATM   26  O2  UNL     1       8.781 -10.558  -8.324  1.00  0.00    -0.357 OA
ATOM     27  H2  UNL     1       9.163 -11.328  -7.918  1.00  0.00     0.217 HD
ENDBRANCH   8  26
BRANCH  18  28
HETATM   28  C19 UNL     1       7.019  -7.018 -13.797  1.00  0.00     0.016 C 
HETATM   29  C20 UNL     1       5.643  -6.485 -14.125  1.00  0.00     0.012 C 
HETATM   30  C21 UNL     1       8.029  -6.034 -13.371  1.00  0.00     0.012 C 
ENDBRANCH  18  28
BRANCH   1  31
HETATM   31  O1  UNL     1      11.502  -9.837  -8.684  1.00  0.00    -0.351 OA
HETATM   32  C1  UNL     1      12.208 -10.997  -8.317  1.00  0.00     0.210 C 
ENDBRANCH   1  31
TORSDOF 5
ENDMDL
MODEL 5
REMARK VINA RESULT: -6.514634066      1.182      1.420
REMARK  5 active torsions:
REMARK  status: ('A' for Active; 'I' for Inactive)
REMARK    1  A    between atoms: O1_2  and  C2_3 
REMARK    2  A    between atoms: C7_10  and  O2_11 
REMARK    3  A    between atoms: N2_18  and  C12_19 
REMARK    4  A    between atoms: C12_19  and  C13_20 
REMARK    5  A    between atoms: C18_26  and  C19_27 
ROOT
HETATM    1  C2  UNL     1       3.287 -10.665  -9.299  1.00  0.00     0.124 A 
HETATM    2  C3  UNL     1       3.130 -11.161 -10.584  1.00  0.00     0.042 A 
HETATM    3  C4  UNL     1       1.918 -11.988 -10.877  1.00  0.00     0.071 C 
HETATM    4  N1  UNL     1       4.042 -10.904 -11.536  1.00  0.00    -0.360 N 
ATOM      5  H1  UNL     1       3.876 -11.293 -12.464  1.00  0.00     0.165 HD
HETATM    6  C5  UNL     1       5.150 -10.177 -11.361  1.00  0.00     0.032 A 
HETATM    7  C6  UNL     1       5.323  -9.677 -10.088  1.00  0.00     0.032 A 
HETATM    8  C7  UNL     1       4.405  -9.916  -9.070  1.00  0.00     0.112 A 
HETATM    9  C8  UNL     1       6.373  -8.849  -9.429  1.00  0.00     0.186 C 
HETATM   10  O3  UNL     1       7.191  -8.341 -10.407  1.00  0.00    -0.362 OA
HETATM   11  C9  UNL     1       7.949  -9.453 -10.332  1.00  0.00     0.118 C 
HETATM   12  C10 UNL     1       9.377  -8.974 -10.007  1.00  0.00     0.087 C 
HETATM   13  C11 UNL     1       9.368  -8.583  -8.576  1.00  0.00     0.067 C 
HETATM   14  N2  UNL     1       8.262  -9.234  -7.998  1.00  0.00    -0.363 N 
HETATM   15  C16 UNL     1       7.437  -9.837  -8.972  1.00  0.00     0.159 C 
HETATM   16  C17 UNL     1       7.983 -10.477 -11.331  1.00  0.00     0.196 A 
HETATM   17  O4  UNL     1       8.392  -9.762 -12.607  1.00  0.00    -0.364 OA
HETATM   18  C18 UNL     1       7.279 -10.721 -12.508  1.00  0.00     0.106 A 
HETATM   19  C22 UNL     1       5.903 -10.136 -12.674  1.00  0.00     0.030 C 
HETATM   20  C23 UNL     1       5.939  -8.695 -13.164  1.00  0.00     0.025 C 
HETATM   21  C24 UNL     1       4.989 -10.832 -13.651  1.00  0.00     0.025 C 
ENDROOT
BRANCH  14  22
HETATM   22  C12 UNL     1       8.397  -9.848  -6.738  1.00  0.00     0.068 C 
BRANCH  22  23
HETATM   23  C13 UNL     1       7.785  -9.061  -5.625  1.00  0.00     0.024 A 
HETATM   24  C14 UNL     1       7.173  -7.745  -5.739  1.00  0.00     0.010 A 
HETATM   25  C15 UNL     1       8.535  -7.900  -5.073  1.00  0.00     0.010 A 
ENDBRANCH  22  23
ENDBRANCH  14  22
BRANCH   8  26
HETATM   26  O2  UNL     1       4.640  -9.389  -7.834  1.00  0.00    -0.357 OA
ATOM     27  H2  UNL     1       5.046  -8.534  -7.746  1.00  0.00     0.217 HD
ENDBRANCH   8  26
BRANCH  18  28
HETATM   28  C19 UNL     1       7.707 -11.955 -13.275  1.00  0.00     0.016 C 
HETATM   29  C20 UNL     1       6.969 -13.201 -12.840  1.00  0.00     0.012 C 
HETATM   30  C21 UNL     1       7.960 -11.803 -14.718  1.00  0.00     0.012 C 
ENDBRANCH  18  28
BRANCH   1  31
HETATM   31  O1  UNL     1       2.328 -10.951  -8.351  1.00  0.00    -0.351 OA
HETATM   32  C1  UNL     1       1.287 -10.084  -7.970  1.00  0.00     0.210 C 
ENDBRANCH   1  31
TORSDOF 5
ENDMDL
