MODEL 1
REMARK VINA RESULT: -6.460133105      0.000      0.000
REMARK  5 active torsions:
REMARK  status: ('A' for Active; 'I' for Inactive)
REMARK    1  A    between atoms: C2_2  and  O2_4 
REMARK    2  A    between atoms: O2_4  and  C3_5 
REMARK    3  A    between atoms: C3_5  and  C4_6 
REMARK    4  A    between atoms: N1_19  and  C16_20 
REMARK    5  A    between atoms: C16_20  and  C17_21 
ROOT
HETATM    1  C3  UNL     1       8.526  -9.245  -9.206  1.00  0.00     0.135 C 
HETATM    2  C9  UNL     1       9.713  -8.742 -10.025  1.00  0.00     0.038 C 
HETATM    3  C10 UNL     1      11.054  -9.196  -9.673  1.00  0.00     0.011 C 
HETATM    4  C11 UNL     1      11.539 -10.592  -9.826  1.00  0.00     0.032 C 
HETATM    5  C12 UNL     1      10.604 -11.706  -9.648  1.00  0.00     0.122 C 
HETATM    6  C13 UNL     1      10.167 -12.673 -10.641  1.00  0.00     0.034 C 
HETATM    7  C14 UNL     1       8.637 -12.740 -10.788  1.00  0.00     0.031 C 
HETATM    8  C15 UNL     1       7.937 -11.369 -10.815  1.00  0.00     0.122 C 
HETATM    9  N1  UNL     1       7.698 -11.154 -12.218  1.00  0.00    -0.385 N 
HETATM   10  C20 UNL     1       8.843 -10.872 -13.028  1.00  0.00     0.123 C 
HETATM   11  C21 UNL     1       9.790  -9.862 -12.354  1.00  0.00     0.032 C 
HETATM   12  C22 UNL     1       9.055  -9.386 -11.167  1.00  0.00     0.001 C 
HETATM   13  C23 UNL     1       7.922  -8.550 -11.730  1.00  0.00     0.019 C 
HETATM   14  C24 UNL     1       8.703 -10.387 -10.115  1.00  0.00     0.124 C 
HETATM   15  O4  UNL     1       9.475 -11.052  -9.325  1.00  0.00    -0.369 OA
ENDROOT
BRANCH   1  16
HETATM   16  O2  UNL     1       7.347  -8.548  -9.216  1.00  0.00    -0.304 OA
BRANCH  16  17
HETATM   17  C2  UNL     1       6.118  -8.756  -8.735  1.00  0.00     0.255 C 
HETATM   18  C1  UNL     1       5.270  -9.863  -9.213  1.00  0.00     0.126 C 
HETATM   19  O1  UNL     1       5.703  -7.987  -7.865  1.00  0.00    -0.266 OA
ENDBRANCH  16  17
ENDBRANCH   1  16
BRANCH   1  20
HETATM   20  C4  UNL     1       8.814  -9.334  -7.718  1.00  0.00     0.164 C 
HETATM   21  C5  UNL     1       9.147  -7.986  -7.146  1.00  0.00     0.062 C 
HETATM   22  C6  UNL     1       8.520  -7.675  -5.849  1.00  0.00    -0.026 C 
HETATM   23  C7  UNL     1       8.190  -8.670  -5.052  1.00  0.00    -0.005 C 
HETATM   24  C8  UNL     1       8.523 -10.031  -5.629  1.00  0.00     0.195 C 
HETATM   25  O3  UNL     1       7.986  -9.990  -6.898  1.00  0.00    -0.379 OA
ENDBRANCH   1  20
BRANCH   9  26
HETATM   26  C16 UNL     1       6.716 -11.913 -12.856  1.00  0.00     0.063 C 
BRANCH  26  27
HETATM   27  C17 UNL     1       5.441 -11.144 -13.123  1.00  0.00     0.024 A 
HETATM   28  C18 UNL     1       4.302 -11.862 -13.793  1.00  0.00     0.010 A 
HETATM   29  C19 UNL     1       4.196 -11.468 -12.388  1.00  0.00     0.010 A 
ENDBRANCH  26  27
ENDBRANCH   9  26
TORSDOF 5
ENDMDL
MODEL 2
REMARK VINA RESULT: -5.998761481      1.712      4.760
REMARK  5 active torsions:
REMARK  status: ('A' for Active; 'I' for Inactive)
REMARK    1  A    between atoms: C2_2  and  O2_4 
REMARK    2  A    between atoms: O2_4  and  C3_5 
REMARK    3  A    between atoms: C3_5  and  C4_6 
REMARK    4  A    between atoms: N1_19  and  C16_20 
REMARK    5  A    between atoms: C16_20  and  C17_21 
ROOT
HETATM    1  C3  UNL     1       7.548  -9.786  -9.136  1.00  0.00     0.135 C 
HETATM    2  C9  UNL     1       6.872 -10.756 -10.102  1.00  0.00     0.038 C 
HETATM    3  C10 UNL     1       5.790 -10.265 -10.950  1.00  0.00     0.011 C 
HETATM    4  C11 UNL     1       5.962  -9.286 -12.053  1.00  0.00     0.032 C 
HETATM    5  C12 UNL     1       6.980  -8.238 -11.938  1.00  0.00     0.122 C 
HETATM    6  C13 UNL     1       8.166  -8.051 -12.757  1.00  0.00     0.034 C 
HETATM    7  C14 UNL     1       9.466  -7.993 -11.937  1.00  0.00     0.031 C 
HETATM    8  C15 UNL     1       9.565  -9.050 -10.822  1.00  0.00     0.122 C 
HETATM    9  N1  UNL     1      10.408 -10.061 -11.406  1.00  0.00    -0.385 N 
HETATM   10  C20 UNL     1       9.834 -10.847 -12.453  1.00  0.00     0.123 C 
HETATM   11  C21 UNL     1       8.400 -11.294 -12.118  1.00  0.00     0.032 C 
HETATM   12  C22 UNL     1       8.199 -10.901 -10.710  1.00  0.00     0.001 C 
HETATM   13  C23 UNL     1       9.097 -11.835  -9.922  1.00  0.00     0.019 C 
HETATM   14  C24 UNL     1       8.268  -9.448 -10.373  1.00  0.00     0.124 C 
HETATM   15  O4  UNL     1       7.477  -8.488 -10.715  1.00  0.00    -0.369 OA
ENDROOT
BRANCH   1  16
HETATM   16  O2  UNL     1       8.244 -10.270  -8.059  1.00  0.00    -0.304 OA
BRANCH  16  17
HETATM   17  C2  UNL     1       9.041  -9.739  -7.129  1.00  0.00     0.255 C 
HETATM   18  C1  UNL     1       8.737  -9.839  -5.690  1.00  0.00     0.126 C 
HETATM   19  O1  UNL     1      10.058  -9.153  -7.508  1.00  0.00    -0.266 OA
ENDBRANCH  16  17
ENDBRANCH   1  16
BRANCH   1  20
HETATM   20  C4  UNL     1       6.581  -8.826  -8.467  1.00  0.00     0.164 C 
HETATM   21  C5  UNL     1       5.475  -9.566  -7.771  1.00  0.00     0.062 C 
HETATM   22  C6  UNL     1       5.121  -9.063  -6.432  1.00  0.00    -0.026 C 
HETATM   23  C7  UNL     1       5.351  -7.797  -6.150  1.00  0.00    -0.005 C 
HETATM   24  C8  UNL     1       5.971  -7.034  -7.304  1.00  0.00     0.195 C 
HETATM   25  O3  UNL     1       7.027  -7.831  -7.694  1.00  0.00    -0.379 OA
ENDBRANCH   1  20
BRANCH   9  26
HETATM   26  C16 UNL     1      11.767  -9.788 -11.570  1.00  0.00     0.063 C 
BRANCH  26  27
HETATM   27  C17 UNL     1      12.412  -9.188 -10.341  1.00  0.00     0.024 A 
HETATM   28  C18 UNL     1      13.851  -9.522 -10.056  1.00  0.00     0.010 A 
HETATM   29  C19 UNL     1      13.479  -8.169 -10.470  1.00  0.00     0.010 A 
ENDBRANCH  26  27
ENDBRANCH   9  26
TORSDOF 5
ENDMDL
MODEL 3
REMARK VINA RESULT: -5.946505445      0.844      1.222
REMARK  5 active torsions:
REMARK  status: ('A' for Active; 'I' for Inactive)
REMARK    1  A    between atoms: C2_2  and  O2_4 
REMARK    2  A    between atoms: O2_4  and  C3_5 
REMARK    3  A    between atoms: C3_5  and  C4_6 
REMARK    4  A    between atoms: N1_19  and  C16_20 
REMARK    5  A    between atoms: C16_20  and  C17_21 
ROOT
HETATM    1  C3  UNL     1       8.591  -9.293  -9.252  1.00  0.00     0.135 C 
HETATM    2  C9  UNL     1       9.775  -8.782 -10.070  1.00  0.00     0.038 C 
HETATM    3  C10 UNL     1      11.125  -9.173  -9.675  1.00  0.00     0.011 C 
HETATM    4  C11 UNL     1      11.661 -10.556  -9.761  1.00  0.00     0.032 C 
HETATM    5  C12 UNL     1      10.763 -11.694  -9.553  1.00  0.00     0.122 C 
HETATM    6  C13 UNL     1      10.378 -12.716 -10.513  1.00  0.00     0.034 C 
HETATM    7  C14 UNL     1       8.855 -12.844 -10.685  1.00  0.00     0.031 C 
HETATM    8  C15 UNL     1       8.108 -11.501 -10.782  1.00  0.00     0.122 C 
HETATM    9  N1  UNL     1       7.890 -11.352 -12.198  1.00  0.00    -0.385 N 
HETATM   10  C20 UNL     1       9.040 -11.063 -12.997  1.00  0.00     0.123 C 
HETATM   11  C21 UNL     1       9.938  -9.993 -12.348  1.00  0.00     0.032 C 
HETATM   12  C22 UNL     1       9.163  -9.496 -11.196  1.00  0.00     0.001 C 
HETATM   13  C23 UNL     1       8.013  -8.724 -11.813  1.00  0.00     0.019 C 
HETATM   14  C24 UNL     1       8.826 -10.464 -10.110  1.00  0.00     0.124 C 
HETATM   15  O4  UNL     1       9.605 -11.069  -9.279  1.00  0.00    -0.369 OA
ENDROOT
BRANCH   1  16
HETATM   16  O2  UNL     1       7.388  -8.640  -9.313  1.00  0.00    -0.304 OA
BRANCH  16  17
HETATM   17  C2  UNL     1       6.147  -8.897  -8.892  1.00  0.00     0.255 C 
HETATM   18  C1  UNL     1       5.354 -10.014  -9.436  1.00  0.00     0.126 C 
HETATM   19  O1  UNL     1       5.672  -8.166  -8.020  1.00  0.00    -0.266 OA
ENDBRANCH  16  17
ENDBRANCH   1  16
BRANCH   1  20
HETATM   20  C4  UNL     1       8.852  -9.311  -7.757  1.00  0.00     0.164 C 
HETATM   21  C5  UNL     1       9.114  -7.929  -7.233  1.00  0.00     0.062 C 
HETATM   22  C6  UNL     1       8.448  -7.596  -5.962  1.00  0.00    -0.026 C 
HETATM   23  C7  UNL     1       8.146  -8.572  -5.131  1.00  0.00    -0.005 C 
HETATM   24  C8  UNL     1       8.550  -9.939  -5.647  1.00  0.00     0.195 C 
HETATM   25  O3  UNL     1       8.038  -9.971  -6.926  1.00  0.00    -0.379 OA
ENDBRANCH   1  20
BRANCH   9  26
HETATM   26  C16 UNL     1       6.948 -12.171 -12.821  1.00  0.00     0.063 C 
BRANCH  26  27
HETATM   27  C17 UNL     1       7.491 -12.899 -14.030  1.00  0.00     0.024 A 
HETATM   28  C18 UNL     1       7.571 -14.401 -13.982  1.00  0.00     0.010 A 
HETATM   29  C19 UNL     1       6.604 -13.745 -14.862  1.00  0.00     0.010 A 
ENDBRANCH  26  27
ENDBRANCH   9  26
TORSDOF 5
ENDMDL
MODEL 4
REMARK VINA RESULT: -5.836136378      1.560      4.456
REMARK  5 active torsions:
REMARK  status: ('A' for Active; 'I' for Inactive)
REMARK    1  A    between atoms: C2_2  and  O2_4 
REMARK    2  A    between atoms: O2_4  and  C3_5 
REMARK    3  A    between atoms: C3_5  and  C4_6 
REMARK    4  A    between atoms: N1_19  and  C16_20 
REMARK    5  A    between atoms: C16_20  and  C17_21 
ROOT
HETATM    1  C3  UNL     1       8.273 -10.020  -9.438  1.00  0.00     0.135 C 
HETATM    2  C9  UNL     1       7.117 -10.925  -9.858  1.00  0.00     0.038 C 
HETATM    3  C10 UNL     1       5.750 -10.434  -9.710  1.00  0.00     0.011 C 
HETATM    4  C11 UNL     1       5.165  -9.320 -10.499  1.00  0.00     0.032 C 
HETATM    5  C12 UNL     1       6.019  -8.208 -10.923  1.00  0.00     0.122 C 
HETATM    6  C13 UNL     1       6.375  -7.822 -12.279  1.00  0.00     0.034 C 
HETATM    7  C14 UNL     1       7.894  -7.746 -12.508  1.00  0.00     0.031 C 
HETATM    8  C15 UNL     1       8.691  -8.915 -11.899  1.00  0.00     0.122 C 
HETATM    9  N1  UNL     1       8.929  -9.772 -13.032  1.00  0.00    -0.385 N 
HETATM   10  C20 UNL     1       7.799 -10.476 -13.552  1.00  0.00     0.123 C 
HETATM   11  C21 UNL     1       6.934 -11.084 -12.432  1.00  0.00     0.032 C 
HETATM   12  C22 UNL     1       7.714 -10.880 -11.197  1.00  0.00     0.001 C 
HETATM   13  C23 UNL     1       8.897 -11.818 -11.334  1.00  0.00     0.019 C 
HETATM   14  C24 UNL     1       8.004  -9.476 -10.777  1.00  0.00     0.124 C 
HETATM   15  O4  UNL     1       7.195  -8.556 -10.375  1.00  0.00    -0.369 OA
ENDROOT
BRANCH   1  16
HETATM   16  O2  UNL     1       9.499 -10.565  -9.162  1.00  0.00    -0.304 OA
BRANCH  16  17
HETATM   17  C2  UNL     1      10.718 -10.079  -8.912  1.00  0.00     0.255 C 
HETATM   18  C1  UNL     1      11.390  -9.145  -9.833  1.00  0.00     0.126 C 
HETATM   19  O1  UNL     1      11.278 -10.436  -7.873  1.00  0.00    -0.266 OA
ENDBRANCH  16  17
ENDBRANCH   1  16
BRANCH   1  20
HETATM   20  C4  UNL     1       7.996  -9.235  -8.168  1.00  0.00     0.164 C 
HETATM   21  C5  UNL     1       7.769 -10.152  -7.001  1.00  0.00     0.062 C 
HETATM   22  C6  UNL     1       8.432  -9.755  -5.746  1.00  0.00    -0.026 C 
HETATM   23  C7  UNL     1       8.697  -8.481  -5.546  1.00  0.00    -0.005 C 
HETATM   24  C8  UNL     1       8.257  -7.594  -6.694  1.00  0.00     0.195 C 
HETATM   25  O3  UNL     1       8.782  -8.215  -7.807  1.00  0.00    -0.379 OA
ENDBRANCH   1  20
BRANCH   9  26
HETATM   26  C16 UNL     1       9.847  -9.363 -14.000  1.00  0.00     0.063 C 
BRANCH  26  27
HETATM   27  C17 UNL     1      11.224  -9.082 -13.441  1.00  0.00     0.024 A 
HETATM   28  C18 UNL     1      12.317  -8.696 -14.399  1.00  0.00     0.010 A 
HETATM   29  C19 UNL     1      11.781  -7.710 -13.461  1.00  0.00     0.010 A 
ENDBRANCH  26  27
ENDBRANCH   9  26
TORSDOF 5
ENDMDL
MODEL 5
REMARK VINA RESULT: -5.748676574      2.160      5.720
REMARK  5 active torsions:
REMARK  status: ('A' for Active; 'I' for Inactive)
REMARK    1  A    between atoms: C2_2  and  O2_4 
REMARK    2  A    between atoms: O2_4  and  C3_5 
REMARK    3  A    between atoms: C3_5  and  C4_6 
REMARK    4  A    between atoms: N1_19  and  C16_20 
REMARK    5  A    between atoms: C16_20  and  C17_21 
ROOT
HETATM    1  C3  UNL     1       7.884  -9.319 -11.009  1.00  0.00     0.135 C 
HETATM    2  C9  UNL     1       7.422 -10.692 -10.526  1.00  0.00     0.038 C 
HETATM    3  C10 UNL     1       8.303 -11.839 -10.719  1.00  0.00     0.011 C 
HETATM    4  C11 UNL     1       9.601 -12.031 -10.023  1.00  0.00     0.032 C 
HETATM    5  C12 UNL     1      10.418 -10.863  -9.681  1.00  0.00     0.122 C 
HETATM    6  C13 UNL     1      10.774 -10.378  -8.358  1.00  0.00     0.034 C 
HETATM    7  C14 UNL     1      10.386  -8.907  -8.127  1.00  0.00     0.031 C 
HETATM    8  C15 UNL     1       8.984  -8.529  -8.640  1.00  0.00     0.122 C 
HETATM    9  N1  UNL     1       8.184  -8.549  -7.442  1.00  0.00    -0.385 N 
HETATM   10  C20 UNL     1       7.911  -9.832  -6.875  1.00  0.00     0.123 C 
HETATM   11  C21 UNL     1       7.523 -10.865  -7.949  1.00  0.00     0.032 C 
HETATM   12  C22 UNL     1       7.378 -10.085  -9.192  1.00  0.00     0.001 C 
HETATM   13  C23 UNL     1       6.129  -9.252  -8.976  1.00  0.00     0.019 C 
HETATM   14  C24 UNL     1       8.584  -9.378  -9.718  1.00  0.00     0.124 C 
HETATM   15  O4  UNL     1       9.678  -9.866 -10.194  1.00  0.00    -0.369 OA
ENDROOT
BRANCH   1  16
HETATM   16  O2  UNL     1       6.963  -8.331 -11.236  1.00  0.00    -0.304 OA
BRANCH  16  17
HETATM   17  C2  UNL     1       5.933  -8.167 -12.071  1.00  0.00     0.255 C 
HETATM   18  C1  UNL     1       5.856  -7.025 -13.000  1.00  0.00     0.126 C 
HETATM   19  O1  UNL     1       5.033  -9.009 -12.047  1.00  0.00    -0.266 OA
ENDBRANCH  16  17
ENDBRANCH   1  16
BRANCH   1  20
HETATM   20  C4  UNL     1       8.618  -9.361 -12.338  1.00  0.00     0.164 C 
HETATM   21  C5  UNL     1       7.917 -10.256 -13.319  1.00  0.00     0.062 C 
HETATM   22  C6  UNL     1       7.809  -9.730 -14.691  1.00  0.00    -0.026 C 
HETATM   23  C7  UNL     1       8.709  -8.865 -15.110  1.00  0.00    -0.005 C 
HETATM   24  C8  UNL     1       9.754  -8.538 -14.061  1.00  0.00     0.195 C 
HETATM   25  O3  UNL     1       9.009  -8.234 -12.941  1.00  0.00    -0.379 OA
ENDBRANCH   1  20
BRANCH   9  26
HETATM   26  C16 UNL     1       8.356  -7.530  -6.504  1.00  0.00     0.063 C 
BRANCH  26  27
HETATM   27  C17 UNL     1       7.202  -7.406  -5.534  1.00  0.00     0.024 A 
HETATM   28  C18 UNL     1       6.895  -6.049  -4.962  1.00  0.00     0.010 A 
HETATM   29  C19 UNL     1       5.974  -6.670  -5.913  1.00  0.00     0.010 A 
ENDBRANCH  26  27
ENDBRANCH   9  26
TORSDOF 5
ENDMDL
