MODEL 1
REMARK VINA RESULT: -7.114348661      0.000      0.000
REMARK  4 active torsions:
REMARK  status: ('A' for Active; 'I' for Inactive)
REMARK    1  A    between atoms: C1_2  and  C2_4 
REMARK    2  A    between atoms: C5_7  and  N1_8 
REMARK    3  A    between atoms: C11_15  and  N2_16 
REMARK    4  A    between atoms: N3_19  and  C14_20 
ROOT
HETATM    1  C2  UNL     1       8.828  -9.437  -7.049  1.00  0.00     0.098 A 
HETATM    2  C3  UNL     1       8.980 -10.205  -5.789  1.00  0.00     0.036 A 
HETATM    3  C4  UNL     1       8.735  -8.691  -5.799  1.00  0.00     0.051 A 
HETATM    4  C5  UNL     1       7.322  -8.300  -5.589  1.00  0.00     0.270 A 
HETATM    5  C10 UNL     1       6.575  -8.874  -6.777  1.00  0.00     0.044 A 
HETATM    6  S1  UNL     1       5.079  -9.084  -7.576  1.00  0.00    -0.054 SA
HETATM    7  C11 UNL     1       5.615  -9.976  -8.926  1.00  0.00     0.147 A 
HETATM    8  N4  UNL     1       6.908 -10.069  -8.701  1.00  0.00    -0.338 N 
ATOM      9  H4  UNL     1       7.506 -10.563  -9.362  1.00  0.00     0.168 HD
HETATM   10  C21 UNL     1       7.426  -9.524  -7.624  1.00  0.00     0.046 A 
ENDROOT
BRANCH   7  11
HETATM   11  N2  UNL     1       4.871 -10.507 -10.045  1.00  0.00    -0.358 N 
HETATM   12  C12 UNL     1       3.624 -11.141  -9.702  1.00  0.00     0.144 C 
HETATM   13  C13 UNL     1       2.752 -11.077 -10.960  1.00  0.00     0.137 C 
HETATM   14  N3  UNL     1       3.541 -11.695 -12.000  1.00  0.00    -0.405 N 
HETATM   15  C19 UNL     1       4.623 -10.905 -12.464  1.00  0.00     0.137 C 
HETATM   16  C20 UNL     1       5.429 -10.354 -11.343  1.00  0.00     0.144 C 
BRANCH  14  17
HETATM   17  C14 UNL     1       2.751 -12.372 -12.946  1.00  0.00     0.079 C 
HETATM   18  C15 UNL     1       1.740 -13.244 -12.187  1.00  0.00     0.025 C 
HETATM   19  C16 UNL     1       2.117 -14.682 -12.494  1.00  0.00     0.002 C 
HETATM   20  C17 UNL     1       3.509 -14.623 -13.087  1.00  0.00     0.002 C 
HETATM   21  C18 UNL     1       3.446 -13.317 -13.851  1.00  0.00     0.025 C 
ENDBRANCH  14  17
ENDBRANCH   7  11
BRANCH   4  22
HETATM   22  N1  UNL     1       7.095  -6.889  -5.486  1.00  0.00     0.098 N 
HETATM   23  C6  UNL     1       5.707  -6.529  -5.434  1.00  0.00     0.273 C 
HETATM   24  C7  UNL     1       5.431  -6.069  -4.053  1.00  0.00     0.032 C 
HETATM   25  C8  UNL     1       6.743  -5.955  -3.369  1.00  0.00     0.032 C 
HETATM   26  C9  UNL     1       7.778  -6.246  -4.413  1.00  0.00     0.273 C 
ENDBRANCH   4  22
BRANCH   1  27
HETATM   27  C1  UNL     1       9.980  -9.367  -7.942  1.00  0.00     0.188 C 
HETATM   28  O1  UNL     1       9.918  -8.565  -8.928  1.00  0.00    -0.647 OA
HETATM   29  O2  UNL     1      11.117 -10.138  -7.745  1.00  0.00    -0.647 OA
ENDBRANCH   1  27
TORSDOF 4
ENDMDL
MODEL 2
REMARK VINA RESULT: -6.866749958      4.614      8.182
REMARK  4 active torsions:
REMARK  status: ('A' for Active; 'I' for Inactive)
REMARK    1  A    between atoms: C1_2  and  C2_4 
REMARK    2  A    between atoms: C5_7  and  N1_8 
REMARK    3  A    between atoms: C11_15  and  N2_16 
REMARK    4  A    between atoms: N3_19  and  C14_20 
ROOT
HETATM    1  C2  UNL     1       8.445  -8.876  -6.706  1.00  0.00     0.098 A 
HETATM    2  C3  UNL     1       8.140 -10.171  -6.050  1.00  0.00     0.036 A 
HETATM    3  C4  UNL     1       7.109  -9.426  -6.906  1.00  0.00     0.051 A 
HETATM    4  C5  UNL     1       7.008  -9.915  -8.301  1.00  0.00     0.270 A 
HETATM    5  C10 UNL     1       8.368  -9.642  -8.913  1.00  0.00     0.044 A 
HETATM    6  S1  UNL     1       9.379  -9.748 -10.286  1.00  0.00    -0.054 SA
HETATM    7  C11 UNL     1      10.786  -9.031  -9.643  1.00  0.00     0.147 A 
HETATM    8  N4  UNL     1      10.415  -8.747  -8.414  1.00  0.00    -0.338 N 
ATOM      9  H4  UNL     1      11.070  -8.298  -7.774  1.00  0.00     0.168 HD
HETATM   10  C21 UNL     1       9.200  -9.043  -8.012  1.00  0.00     0.046 A 
ENDROOT
BRANCH   7  11
HETATM   11  N2  UNL     1      12.069  -8.786 -10.260  1.00  0.00    -0.358 N 
HETATM   12  C12 UNL     1      12.036  -7.934 -11.421  1.00  0.00     0.144 C 
HETATM   13  C13 UNL     1      13.435  -7.324 -11.544  1.00  0.00     0.137 C 
HETATM   14  N3  UNL     1      14.339  -8.451 -11.579  1.00  0.00    -0.405 N 
HETATM   15  C19 UNL     1      14.512  -9.103 -10.332  1.00  0.00     0.137 C 
HETATM   16  C20 UNL     1      13.212  -9.393  -9.672  1.00  0.00     0.144 C 
BRANCH  14  17
HETATM   17  C14 UNL     1      15.475  -8.207 -12.372  1.00  0.00     0.079 C 
HETATM   18  C15 UNL     1      15.203  -6.959 -13.224  1.00  0.00     0.025 C 
HETATM   19  C16 UNL     1      15.152  -7.441 -14.663  1.00  0.00     0.002 C 
HETATM   20  C17 UNL     1      15.018  -8.947 -14.586  1.00  0.00     0.002 C 
HETATM   21  C18 UNL     1      15.846  -9.251 -13.355  1.00  0.00     0.025 C 
ENDBRANCH  14  17
ENDBRANCH   7  11
BRANCH   4  22
HETATM   22  N1  UNL     1       5.973  -9.303  -9.082  1.00  0.00     0.098 N 
HETATM   23  C6  UNL     1       5.580 -10.073 -10.226  1.00  0.00     0.273 C 
HETATM   24  C7  UNL     1       4.227 -10.607  -9.945  1.00  0.00     0.032 C 
HETATM   25  C8  UNL     1       3.752  -9.940  -8.707  1.00  0.00     0.032 C 
HETATM   26  C9  UNL     1       4.806  -8.935  -8.351  1.00  0.00     0.273 C 
ENDBRANCH   4  22
BRANCH   1  27
HETATM   27  C1  UNL     1       8.720  -7.730  -5.845  1.00  0.00     0.188 C 
HETATM   28  O1  UNL     1       9.660  -7.840  -4.994  1.00  0.00    -0.647 OA
HETATM   29  O2  UNL     1       7.998  -6.548  -5.932  1.00  0.00    -0.647 OA
ENDBRANCH   1  27
TORSDOF 4
ENDMDL
MODEL 3
REMARK VINA RESULT: -6.860696678      4.543      8.975
REMARK  4 active torsions:
REMARK  status: ('A' for Active; 'I' for Inactive)
REMARK    1  A    between atoms: C1_2  and  C2_4 
REMARK    2  A    between atoms: C5_7  and  N1_8 
REMARK    3  A    between atoms: C11_15  and  N2_16 
REMARK    4  A    between atoms: N3_19  and  C14_20 
ROOT
HETATM    1  C2  UNL     1       8.448  -9.065  -6.613  1.00  0.00     0.098 A 
HETATM    2  C3  UNL     1       7.757 -10.182  -5.924  1.00  0.00     0.036 A 
HETATM    3  C4  UNL     1       7.109  -9.408  -7.078  1.00  0.00     0.051 A 
HETATM    4  C5  UNL     1       7.226 -10.069  -8.398  1.00  0.00     0.270 A 
HETATM    5  C10 UNL     1       8.714 -10.119  -8.683  1.00  0.00     0.044 A 
HETATM    6  S1  UNL     1       9.964 -10.589  -9.749  1.00  0.00    -0.054 SA
HETATM    7  C11 UNL     1      11.306 -10.031  -8.857  1.00  0.00     0.147 A 
HETATM    8  N4  UNL     1      10.734  -9.515  -7.791  1.00  0.00    -0.338 N 
ATOM      9  H4  UNL     1      11.306  -9.093  -7.059  1.00  0.00     0.168 HD
HETATM   10  C21 UNL     1       9.427  -9.543  -7.671  1.00  0.00     0.046 A 
ENDROOT
BRANCH   7  11
HETATM   11  N2  UNL     1      12.716 -10.095  -9.162  1.00  0.00    -0.358 N 
HETATM   12  C12 UNL     1      13.445 -11.127  -8.471  1.00  0.00     0.144 C 
HETATM   13  C13 UNL     1      14.679 -11.427  -9.327  1.00  0.00     0.137 C 
HETATM   14  N3  UNL     1      15.341 -10.153  -9.497  1.00  0.00    -0.405 N 
HETATM   15  C19 UNL     1      14.687  -9.266 -10.388  1.00  0.00     0.137 C 
HETATM   16  C20 UNL     1      13.234  -9.155 -10.096  1.00  0.00     0.144 C 
BRANCH  14  17
HETATM   17  C14 UNL     1      16.739 -10.280  -9.581  1.00  0.00     0.079 C 
HETATM   18  C15 UNL     1      17.151 -11.547  -8.817  1.00  0.00     0.025 C 
HETATM   19  C16 UNL     1      17.957 -11.069  -7.622  1.00  0.00     0.002 C 
HETATM   20  C17 UNL     1      17.682  -9.584  -7.510  1.00  0.00     0.002 C 
HETATM   21  C18 UNL     1      17.551  -9.201  -8.969  1.00  0.00     0.025 C 
ENDBRANCH  14  17
ENDBRANCH   7  11
BRANCH   4  22
HETATM   22  N1  UNL     1       6.531  -9.413  -9.466  1.00  0.00     0.098 N 
HETATM   23  C6  UNL     1       6.330 -10.240 -10.620  1.00  0.00     0.273 C 
HETATM   24  C7  UNL     1       4.884 -10.561 -10.676  1.00  0.00     0.032 C 
HETATM   25  C8  UNL     1       4.217  -9.712  -9.658  1.00  0.00     0.032 C 
HETATM   26  C9  UNL     1       5.286  -8.821  -9.101  1.00  0.00     0.273 C 
ENDBRANCH   4  22
BRANCH   1  27
HETATM   27  C1  UNL     1       8.745  -7.868  -5.831  1.00  0.00     0.188 C 
HETATM   28  O1  UNL     1       9.773  -7.890  -5.082  1.00  0.00    -0.647 OA
HETATM   29  O2  UNL     1       7.950  -6.732  -5.887  1.00  0.00    -0.647 OA
ENDBRANCH   1  27
TORSDOF 4
ENDMDL
MODEL 4
REMARK VINA RESULT: -6.667190317      4.586      8.134
REMARK  4 active torsions:
REMARK  status: ('A' for Active; 'I' for Inactive)
REMARK    1  A    between atoms: C1_2  and  C2_4 
REMARK    2  A    between atoms: C5_7  and  N1_8 
REMARK    3  A    between atoms: C11_15  and  N2_16 
REMARK    4  A    between atoms: N3_19  and  C14_20 
ROOT
HETATM    1  C2  UNL     1       8.573  -8.799  -6.518  1.00  0.00     0.098 A 
HETATM    2  C3  UNL     1       8.286 -10.070  -5.808  1.00  0.00     0.036 A 
HETATM    3  C4  UNL     1       7.215  -9.323  -6.613  1.00  0.00     0.051 A 
HETATM    4  C5  UNL     1       7.009  -9.843  -7.984  1.00  0.00     0.270 A 
HETATM    5  C10 UNL     1       8.329  -9.618  -8.694  1.00  0.00     0.044 A 
HETATM    6  S1  UNL     1       9.241  -9.781 -10.129  1.00  0.00    -0.054 SA
HETATM    7  C11 UNL     1      10.704  -9.082  -9.602  1.00  0.00     0.147 A 
HETATM    8  N4  UNL     1      10.424  -8.760  -8.358  1.00  0.00    -0.338 N 
ATOM      9  H4  UNL     1      11.131  -8.310  -7.777  1.00  0.00     0.168 HD
HETATM   10  C21 UNL     1       9.234  -9.017  -7.867  1.00  0.00     0.046 A 
ENDROOT
BRANCH   7  11
HETATM   11  N2  UNL     1      11.947  -8.883 -10.311  1.00  0.00    -0.358 N 
HETATM   12  C12 UNL     1      13.085  -9.569  -9.754  1.00  0.00     0.144 C 
HETATM   13  C13 UNL     1      14.084  -9.741 -10.901  1.00  0.00     0.137 C 
HETATM   14  N3  UNL     1      14.305  -8.408 -11.415  1.00  0.00    -0.405 N 
HETATM   15  C19 UNL     1      13.224  -7.883 -12.167  1.00  0.00     0.137 C 
HETATM   16  C20 UNL     1      11.925  -8.049 -11.463  1.00  0.00     0.144 C 
BRANCH  14  17
HETATM   17  C14 UNL     1      15.612  -8.229 -11.903  1.00  0.00     0.079 C 
HETATM   18  C15 UNL     1      15.542  -7.303 -13.126  1.00  0.00     0.025 C 
HETATM   19  C16 UNL     1      15.954  -8.152 -14.315  1.00  0.00     0.002 C 
HETATM   20  C17 UNL     1      15.886  -9.587 -13.837  1.00  0.00     0.002 C 
HETATM   21  C18 UNL     1      16.319  -9.435 -12.394  1.00  0.00     0.025 C 
ENDBRANCH  14  17
ENDBRANCH   7  11
BRANCH   4  22
HETATM   22  N1  UNL     1       5.936  -9.226  -8.709  1.00  0.00     0.098 N 
HETATM   23  C6  UNL     1       5.547  -9.944  -9.888  1.00  0.00     0.273 C 
HETATM   24  C7  UNL     1       4.220 -10.542  -9.612  1.00  0.00     0.032 C 
HETATM   25  C8  UNL     1       3.748  -9.964  -8.329  1.00  0.00     0.032 C 
HETATM   26  C9  UNL     1       4.772  -8.943  -7.936  1.00  0.00     0.273 C 
ENDBRANCH   4  22
BRANCH   1  27
HETATM   27  C1  UNL     1       8.932  -7.639  -5.708  1.00  0.00     0.188 C 
HETATM   28  O1  UNL     1       8.439  -6.513  -6.036  1.00  0.00    -0.647 OA
HETATM   29  O2  UNL     1       9.778  -7.734  -4.612  1.00  0.00    -0.647 OA
ENDBRANCH   1  27
TORSDOF 4
ENDMDL
MODEL 5
REMARK VINA RESULT: -6.662171905      3.826      6.382
REMARK  4 active torsions:
REMARK  status: ('A' for Active; 'I' for Inactive)
REMARK    1  A    between atoms: C1_2  and  C2_4 
REMARK    2  A    between atoms: C5_7  and  N1_8 
REMARK    3  A    between atoms: C11_15  and  N2_16 
REMARK    4  A    between atoms: N3_19  and  C14_20 
ROOT
HETATM    1  C2  UNL     1      11.547  -8.421 -12.085  1.00  0.00     0.098 A 
HETATM    2  C3  UNL     1      12.082  -9.419 -13.044  1.00  0.00     0.036 A 
HETATM    3  C4  UNL     1      12.836  -9.026 -11.769  1.00  0.00     0.051 A 
HETATM    4  C5  UNL     1      12.649  -9.962 -10.636  1.00  0.00     0.270 A 
HETATM    5  C10 UNL     1      11.170  -9.895 -10.310  1.00  0.00     0.044 A 
HETATM    6  S1  UNL     1       9.882 -10.448  -9.333  1.00  0.00    -0.054 SA
HETATM    7  C11 UNL     1       8.613  -9.535 -10.015  1.00  0.00     0.147 A 
HETATM    8  N4  UNL     1       9.235  -8.855 -10.953  1.00  0.00    -0.338 N 
ATOM      9  H4  UNL     1       8.714  -8.205 -11.542  1.00  0.00     0.168 HD
HETATM   10  C21 UNL     1      10.527  -9.013 -11.130  1.00  0.00     0.046 A 
ENDROOT
BRANCH   7  11
HETATM   11  N2  UNL     1       7.210  -9.497  -9.676  1.00  0.00    -0.358 N 
HETATM   12  C12 UNL     1       6.922  -9.474  -8.264  1.00  0.00     0.144 C 
HETATM   13  C13 UNL     1       5.535  -8.842  -8.120  1.00  0.00     0.137 C 
HETATM   14  N3  UNL     1       4.667  -9.638  -8.957  1.00  0.00    -0.405 N 
HETATM   15  C19 UNL     1       4.840  -9.430 -10.348  1.00  0.00     0.137 C 
HETATM   16  C20 UNL     1       6.271  -9.483 -10.744  1.00  0.00     0.144 C 
BRANCH  14  17
HETATM   17  C14 UNL     1       3.358  -9.723  -8.448  1.00  0.00     0.079 C 
HETATM   18  C15 UNL     1       3.413 -10.477  -7.111  1.00  0.00     0.025 C 
HETATM   19  C16 UNL     1       2.671 -11.782  -7.339  1.00  0.00     0.002 C 
HETATM   20  C17 UNL     1       2.541 -11.923  -8.841  1.00  0.00     0.002 C 
HETATM   21  C18 UNL     1       2.370 -10.477  -9.255  1.00  0.00     0.025 C 
ENDBRANCH  14  17
ENDBRANCH   7  11
BRANCH   4  22
HETATM   22  N1  UNL     1      13.434  -9.668  -9.473  1.00  0.00     0.098 N 
HETATM   23  C6  UNL     1      13.635 -10.795  -8.610  1.00  0.00     0.273 C 
HETATM   24  C7  UNL     1      15.058 -11.189  -8.736  1.00  0.00     0.032 C 
HETATM   25  C8  UNL     1      15.730 -10.121  -9.518  1.00  0.00     0.032 C 
HETATM   26  C9  UNL     1      14.696  -9.059  -9.737  1.00  0.00     0.273 C 
ENDBRANCH   4  22
BRANCH   1  27
HETATM   27  C1  UNL     1      11.398  -7.047 -12.553  1.00  0.00     0.188 C 
HETATM   28  O1  UNL     1      10.270  -6.702 -13.030  1.00  0.00    -0.647 OA
HETATM   29  O2  UNL     1      12.435  -6.126 -12.489  1.00  0.00    -0.647 OA
ENDBRANCH   1  27
TORSDOF 4
ENDMDL
