MODEL 1
REMARK VINA RESULT: -8.533088853      0.000      0.000
REMARK  6 active torsions:
REMARK  status: ('A' for Active; 'I' for Inactive)
REMARK    1  A    between atoms: C2_2  and  O2_4 
REMARK    2  A    between atoms: O2_4  and  N1_5 
REMARK    3  A    between atoms: C3_7  and  C4_8 
REMARK    4  A    between atoms: C3_7  and  C24_31 
REMARK    5  A    between atoms: C4_8  and  C5_9 
REMARK    6  A    between atoms: C5_9  and  C6_10 
ROOT
HETATM    1  C6  UNL     1      14.963   9.890   5.700  1.00  0.00     0.193 C 
HETATM    2  O3  UNL     1      15.350  10.931   4.819  1.00  0.00    -0.363 OA
HETATM    3  C7  UNL     1      15.705  10.477   3.557  1.00  0.00     0.086 C 
HETATM    4  C8  UNL     1      17.179  10.026   3.658  1.00  0.00     0.051 C 
HETATM    5  C9  UNL     1      14.866   9.318   3.193  1.00  0.00    -0.042 C 
HETATM    6  C10 UNL     1      13.954   9.365   2.260  1.00  0.00    -0.020 C 
HETATM    7  C11 UNL     1      13.707  10.627   1.497  1.00  0.00     0.033 C 
HETATM    8  C12 UNL     1      15.049  11.276   1.264  1.00  0.00     0.001 C 
HETATM    9  C13 UNL     1      14.971  12.460   0.355  1.00  0.00     0.006 C 
HETATM   10  C14 UNL     1      13.591  12.881  -0.035  1.00  0.00     0.013 C 
HETATM   11  C15 UNL     1      13.530  14.400   0.139  1.00  0.00     0.079 C 
HETATM   12  C16 UNL     1      14.966  14.767   0.056  1.00  0.00     0.135 C 
HETATM   13  O4  UNL     1      15.440  15.710  -0.518  1.00  0.00    -0.297 OA
HETATM   14  C17 UNL     1      15.679  13.693   0.851  1.00  0.00     0.021 C 
HETATM   15  C18 UNL     1      17.124  13.758   0.436  1.00  0.00     0.024 C 
HETATM   16  C19 UNL     1      15.438  14.010   2.289  1.00  0.00     0.018 C 
HETATM   17  C20 UNL     1      14.967  12.848   3.122  1.00  0.00     0.009 C 
HETATM   18  C21 UNL     1      15.651  11.611   2.593  1.00  0.00     0.029 C 
HETATM   19  C22 UNL     1      15.104   8.069   3.963  1.00  0.00     0.118 C 
HETATM   20  C23 UNL     1      15.516   8.583   5.335  1.00  0.00     0.159 C 
HETATM   21  O5  UNL     1      16.236   7.867   5.949  1.00  0.00    -0.295 OA
ENDROOT
BRANCH   1  22
HETATM   22  C5  UNL     1      15.223  10.375   7.055  1.00  0.00     0.046 C 
BRANCH  22  23
HETATM   23  C4  UNL     1      15.453  11.797   7.340  1.00  0.00     0.060 C 
BRANCH  23  24
HETATM   24  C3  UNL     1      14.287  12.670   7.485  1.00  0.00     0.041 C 
HETATM   25  N1  UNL     1      13.355  12.401   8.300  1.00  0.00    -0.263 N 
ATOM     26  H1  UNL     1      13.453  11.549   8.852  1.00  0.00     0.194 HD
BRANCH  25  27
HETATM   27  O2  UNL     1      12.234  13.148   8.506  1.00  0.00    -0.200 OA
BRANCH  27  28
HETATM   28  C2  UNL     1      11.953  13.786   9.707  1.00  0.00     0.277 C 
HETATM   29  C1  UNL     1      11.021  13.222  10.716  1.00  0.00     0.128 C 
HETATM   30  O1  UNL     1      12.503  14.869   9.943  1.00  0.00    -0.264 OA
ENDBRANCH  27  28
ENDBRANCH  25  27
BRANCH  24  31
HETATM   31  C24 UNL     1      14.191  13.886   6.658  1.00  0.00     0.192 A 
HETATM   32  C25 UNL     1      15.509  14.584   6.432  1.00  0.00     0.207 A 
HETATM   33  O6  UNL     1      14.495  15.086   7.300  1.00  0.00    -0.375 OA
ENDBRANCH  24  31
ENDBRANCH  23  24
ENDBRANCH  22  23
ENDBRANCH   1  22
TORSDOF 6
ENDMDL
MODEL 2
REMARK VINA RESULT: -8.148366664      5.292      8.096
REMARK  6 active torsions:
REMARK  status: ('A' for Active; 'I' for Inactive)
REMARK    1  A    between atoms: C2_2  and  O2_4 
REMARK    2  A    between atoms: O2_4  and  N1_5 
REMARK    3  A    between atoms: C3_7  and  C4_8 
REMARK    4  A    between atoms: C3_7  and  C24_31 
REMARK    5  A    between atoms: C4_8  and  C5_9 
REMARK    6  A    between atoms: C5_9  and  C6_10 
ROOT
HETATM    1  C6  UNL     1      18.009   7.312   8.355  1.00  0.00     0.193 C 
HETATM    2  O3  UNL     1      17.597   7.089   7.017  1.00  0.00    -0.363 OA
HETATM    3  C7  UNL     1      16.287   7.477   6.776  1.00  0.00     0.086 C 
HETATM    4  C8  UNL     1      15.396   6.302   7.237  1.00  0.00     0.051 C 
HETATM    5  C9  UNL     1      15.969   8.674   7.578  1.00  0.00    -0.042 C 
HETATM    6  C10 UNL     1      15.779   9.854   7.053  1.00  0.00    -0.020 C 
HETATM    7  C11 UNL     1      15.880  10.055   5.575  1.00  0.00     0.033 C 
HETATM    8  C12 UNL     1      15.278   8.839   4.917  1.00  0.00     0.001 C 
HETATM    9  C13 UNL     1      15.150   8.983   3.435  1.00  0.00     0.006 C 
HETATM   10  C14 UNL     1      15.765  10.216   2.854  1.00  0.00     0.013 C 
HETATM   11  C15 UNL     1      16.569   9.770   1.631  1.00  0.00     0.079 C 
HETATM   12  C16 UNL     1      15.909   8.483   1.294  1.00  0.00     0.135 C 
HETATM   13  O4  UNL     1      15.636   8.075   0.197  1.00  0.00    -0.297 OA
HETATM   14  C17 UNL     1      15.666   7.819   2.632  1.00  0.00     0.021 C 
HETATM   15  C18 UNL     1      14.628   6.757   2.388  1.00  0.00     0.024 C 
HETATM   16  C19 UNL     1      16.988   7.293   3.082  1.00  0.00     0.018 C 
HETATM   17  C20 UNL     1      17.358   7.643   4.499  1.00  0.00     0.009 C 
HETATM   18  C21 UNL     1      16.084   7.640   5.309  1.00  0.00     0.029 C 
HETATM   19  C22 UNL     1      15.883   8.473   9.049  1.00  0.00     0.118 C 
HETATM   20  C23 UNL     1      16.896   7.367   9.305  1.00  0.00     0.159 C 
HETATM   21  O5  UNL     1      16.668   6.677  10.244  1.00  0.00    -0.295 OA
ENDROOT
BRANCH   1  22
HETATM   22  C5  UNL     1      19.078   6.351   8.626  1.00  0.00     0.046 C 
BRANCH  22  23
HETATM   23  C4  UNL     1      18.825   4.906   8.689  1.00  0.00     0.060 C 
BRANCH  23  24
HETATM   24  C3  UNL     1      18.977   4.234   9.980  1.00  0.00     0.041 C 
HETATM   25  N1  UNL     1      18.798   4.849  11.073  1.00  0.00    -0.263 N 
ATOM     26  H1  UNL     1      18.541   5.835  11.014  1.00  0.00     0.194 HD
BRANCH  25  27
HETATM   27  O2  UNL     1      18.915   4.313  12.320  1.00  0.00    -0.200 OA
BRANCH  27  28
HETATM   28  C2  UNL     1      19.903   4.688  13.221  1.00  0.00     0.277 C 
HETATM   29  C1  UNL     1      19.798   5.903  14.069  1.00  0.00     0.128 C 
HETATM   30  O1  UNL     1      20.913   3.979  13.319  1.00  0.00    -0.264 OA
ENDBRANCH  27  28
ENDBRANCH  25  27
BRANCH  24  31
HETATM   31  C24 UNL     1      19.355   2.810  10.011  1.00  0.00     0.192 A 
HETATM   32  C25 UNL     1      20.843   2.564   9.962  1.00  0.00     0.207 A 
HETATM   33  O6  UNL     1      19.970   2.317   8.861  1.00  0.00    -0.375 OA
ENDBRANCH  24  31
ENDBRANCH  23  24
ENDBRANCH  22  23
ENDBRANCH   1  22
TORSDOF 6
ENDMDL
MODEL 3
REMARK VINA RESULT: -8.088882280      1.623      2.054
REMARK  6 active torsions:
REMARK  status: ('A' for Active; 'I' for Inactive)
REMARK    1  A    between atoms: C2_2  and  O2_4 
REMARK    2  A    between atoms: O2_4  and  N1_5 
REMARK    3  A    between atoms: C3_7  and  C4_8 
REMARK    4  A    between atoms: C3_7  and  C24_31 
REMARK    5  A    between atoms: C4_8  and  C5_9 
REMARK    6  A    between atoms: C5_9  and  C6_10 
ROOT
HETATM    1  C6  UNL     1      14.680  10.644   5.151  1.00  0.00     0.193 C 
HETATM    2  O3  UNL     1      15.528  11.727   4.807  1.00  0.00    -0.363 OA
HETATM    3  C7  UNL     1      16.043  11.632   3.522  1.00  0.00     0.086 C 
HETATM    4  C8  UNL     1      17.277  10.708   3.616  1.00  0.00     0.051 C 
HETATM    5  C9  UNL     1      15.040  11.017   2.630  1.00  0.00    -0.042 C 
HETATM    6  C10 UNL     1      14.425  11.678   1.688  1.00  0.00    -0.020 C 
HETATM    7  C11 UNL     1      14.712  13.128   1.461  1.00  0.00     0.033 C 
HETATM    8  C12 UNL     1      16.192  13.328   1.668  1.00  0.00     0.001 C 
HETATM    9  C13 UNL     1      16.651  14.701   1.299  1.00  0.00     0.006 C 
HETATM   10  C14 UNL     1      15.567  15.666   0.941  1.00  0.00     0.013 C 
HETATM   11  C15 UNL     1      15.870  16.964   1.692  1.00  0.00     0.079 C 
HETATM   12  C16 UNL     1      17.329  16.833   1.937  1.00  0.00     0.135 C 
HETATM   13  O4  UNL     1      18.159  17.697   1.845  1.00  0.00    -0.297 OA
HETATM   14  C17 UNL     1      17.519  15.382   2.324  1.00  0.00     0.021 C 
HETATM   15  C18 UNL     1      18.985  15.093   2.149  1.00  0.00     0.024 C 
HETATM   16  C19 UNL     1      17.033  15.258   3.729  1.00  0.00     0.018 C 
HETATM   17  C20 UNL     1      16.085  14.113   3.972  1.00  0.00     0.009 C 
HETATM   18  C21 UNL     1      16.524  12.973   3.085  1.00  0.00     0.029 C 
HETATM   19  C22 UNL     1      14.747   9.580   2.867  1.00  0.00     0.118 C 
HETATM   20  C23 UNL     1      14.939   9.432   4.370  1.00  0.00     0.159 C 
HETATM   21  O5  UNL     1      15.274   8.353   4.735  1.00  0.00    -0.295 OA
ENDROOT
BRANCH   1  22
HETATM   22  C5  UNL     1      14.725  10.528   6.608  1.00  0.00     0.046 C 
BRANCH  22  23
HETATM   23  C4  UNL     1      14.977  11.688   7.471  1.00  0.00     0.060 C 
BRANCH  23  24
HETATM   24  C3  UNL     1      13.857  12.583   7.770  1.00  0.00     0.041 C 
HETATM   25  N1  UNL     1      12.932  12.245   8.566  1.00  0.00    -0.263 N 
ATOM     26  H1  UNL     1      13.001  11.320   8.991  1.00  0.00     0.194 HD
BRANCH  25  27
HETATM   27  O2  UNL     1      11.853  13.004   8.906  1.00  0.00    -0.200 OA
BRANCH  27  28
HETATM   28  C2  UNL     1      11.599  13.431  10.202  1.00  0.00     0.277 C 
HETATM   29  C1  UNL     1      11.055  12.532  11.252  1.00  0.00     0.128 C 
HETATM   30  O1  UNL     1      11.836  14.610  10.493  1.00  0.00    -0.264 OA
ENDBRANCH  27  28
ENDBRANCH  25  27
BRANCH  24  31
HETATM   31  C24 UNL     1      13.801  13.907   7.124  1.00  0.00     0.192 A 
HETATM   32  C25 UNL     1      15.068  14.715   7.261  1.00  0.00     0.207 A 
HETATM   33  O6  UNL     1      13.869  15.006   7.977  1.00  0.00    -0.375 OA
ENDBRANCH  24  31
ENDBRANCH  23  24
ENDBRANCH  22  23
ENDBRANCH   1  22
TORSDOF 6
ENDMDL
MODEL 4
REMARK VINA RESULT: -8.005187343      2.139      3.652
REMARK  6 active torsions:
REMARK  status: ('A' for Active; 'I' for Inactive)
REMARK    1  A    between atoms: C2_2  and  O2_4 
REMARK    2  A    between atoms: O2_4  and  N1_5 
REMARK    3  A    between atoms: C3_7  and  C4_8 
REMARK    4  A    between atoms: C3_7  and  C24_31 
REMARK    5  A    between atoms: C4_8  and  C5_9 
REMARK    6  A    between atoms: C5_9  and  C6_10 
ROOT
HETATM    1  C6  UNL     1      15.439  11.506   6.776  1.00  0.00     0.193 C 
HETATM    2  O3  UNL     1      14.838  11.440   5.493  1.00  0.00    -0.363 OA
HETATM    3  C7  UNL     1      15.404  12.316   4.578  1.00  0.00     0.086 C 
HETATM    4  C8  UNL     1      14.730  13.685   4.815  1.00  0.00     0.051 C 
HETATM    5  C9  UNL     1      16.853  12.435   4.836  1.00  0.00    -0.042 C 
HETATM    6  C10 UNL     1      17.762  11.956   4.032  1.00  0.00    -0.020 C 
HETATM    7  C11 UNL     1      17.369  11.243   2.777  1.00  0.00     0.033 C 
HETATM    8  C12 UNL     1      16.174  11.966   2.208  1.00  0.00     0.001 C 
HETATM    9  C13 UNL     1      15.783  11.468   0.855  1.00  0.00     0.006 C 
HETATM   10  C14 UNL     1      16.529  10.266   0.373  1.00  0.00     0.013 C 
HETATM   11  C15 UNL     1      15.485   9.296  -0.184  1.00  0.00     0.079 C 
HETATM   12  C16 UNL     1      14.359  10.214  -0.491  1.00  0.00     0.135 C 
HETATM   13  O4  UNL     1      13.649  10.190  -1.461  1.00  0.00    -0.297 OA
HETATM   14  C17 UNL     1      14.317  11.169   0.683  1.00  0.00     0.021 C 
HETATM   15  C18 UNL     1      13.517  12.358   0.224  1.00  0.00     0.024 C 
HETATM   16  C19 UNL     1      13.702  10.413   1.812  1.00  0.00     0.018 C 
HETATM   17  C20 UNL     1      14.456  10.496   3.114  1.00  0.00     0.009 C 
HETATM   18  C21 UNL     1      15.053  11.880   3.198  1.00  0.00     0.029 C 
HETATM   19  C22 UNL     1      17.239  13.132   6.091  1.00  0.00     0.118 C 
HETATM   20  C23 UNL     1      16.103  12.784   7.042  1.00  0.00     0.159 C 
HETATM   21  O5  UNL     1      15.886  13.587   7.890  1.00  0.00    -0.295 OA
ENDROOT
BRANCH   1  22
HETATM   22  C5  UNL     1      14.426  11.061   7.732  1.00  0.00     0.046 C 
BRANCH  22  23
HETATM   23  C4  UNL     1      13.031  11.514   7.652  1.00  0.00     0.060 C 
BRANCH  23  24
HETATM   24  C3  UNL     1      12.376  11.955   8.884  1.00  0.00     0.041 C 
HETATM   25  N1  UNL     1      12.175  11.159   9.849  1.00  0.00    -0.263 N 
ATOM     26  H1  UNL     1      12.490  10.196   9.730  1.00  0.00     0.194 HD
BRANCH  25  27
HETATM   27  O2  UNL     1      11.575  11.474  11.032  1.00  0.00    -0.200 OA
BRANCH  27  28
HETATM   28  C2  UNL     1      12.282  11.759  12.192  1.00  0.00     0.277 C 
HETATM   29  C1  UNL     1      13.006  10.719  12.967  1.00  0.00     0.128 C 
HETATM   30  O1  UNL     1      12.308  12.929  12.596  1.00  0.00    -0.264 OA
ENDBRANCH  27  28
ENDBRANCH  25  27
BRANCH  24  31
HETATM   31  C24 UNL     1      11.933  13.356   9.003  1.00  0.00     0.192 A 
HETATM   32  C25 UNL     1      12.801  14.342   8.261  1.00  0.00     0.207 A 
HETATM   33  O6  UNL     1      12.797  14.213   9.682  1.00  0.00    -0.375 OA
ENDBRANCH  24  31
ENDBRANCH  23  24
ENDBRANCH  22  23
ENDBRANCH   1  22
TORSDOF 6
ENDMDL
MODEL 5
REMARK VINA RESULT: -7.859352513      5.435      8.533
REMARK  6 active torsions:
REMARK  status: ('A' for Active; 'I' for Inactive)
REMARK    1  A    between atoms: C2_2  and  O2_4 
REMARK    2  A    between atoms: O2_4  and  N1_5 
REMARK    3  A    between atoms: C3_7  and  C4_8 
REMARK    4  A    between atoms: C3_7  and  C24_31 
REMARK    5  A    between atoms: C4_8  and  C5_9 
REMARK    6  A    between atoms: C5_9  and  C6_10 
ROOT
HETATM    1  C6  UNL     1      18.051   7.389   8.369  1.00  0.00     0.193 C 
HETATM    2  O3  UNL     1      17.608   7.180   7.039  1.00  0.00    -0.363 OA
HETATM    3  C7  UNL     1      16.271   7.503   6.850  1.00  0.00     0.086 C 
HETATM    4  C8  UNL     1      15.460   6.270   7.305  1.00  0.00     0.051 C 
HETATM    5  C9  UNL     1      15.916   8.659   7.696  1.00  0.00    -0.042 C 
HETATM    6  C10 UNL     1      15.647   9.840   7.211  1.00  0.00    -0.020 C 
HETATM    7  C11 UNL     1      15.689  10.087   5.736  1.00  0.00     0.033 C 
HETATM    8  C12 UNL     1      15.131   8.858   5.063  1.00  0.00     0.001 C 
HETATM    9  C13 UNL     1      14.947   9.035   3.591  1.00  0.00     0.006 C 
HETATM   10  C14 UNL     1      15.477  10.314   3.026  1.00  0.00     0.013 C 
HETATM   11  C15 UNL     1      16.263   9.945   1.766  1.00  0.00     0.079 C 
HETATM   12  C16 UNL     1      15.661   8.634   1.413  1.00  0.00     0.135 C 
HETATM   13  O4  UNL     1      15.375   8.241   0.314  1.00  0.00    -0.297 OA
HETATM   14  C17 UNL     1      15.498   7.922   2.739  1.00  0.00     0.021 C 
HETATM   15  C18 UNL     1      14.510   6.812   2.498  1.00  0.00     0.024 C 
HETATM   16  C19 UNL     1      16.860   7.456   3.133  1.00  0.00     0.018 C 
HETATM   17  C20 UNL     1      17.257   7.788   4.547  1.00  0.00     0.009 C 
HETATM   18  C21 UNL     1      16.012   7.694   5.396  1.00  0.00     0.029 C 
HETATM   19  C22 UNL     1      15.889   8.414   9.162  1.00  0.00     0.118 C 
HETATM   20  C23 UNL     1      16.968   7.358   9.355  1.00  0.00     0.159 C 
HETATM   21  O5  UNL     1      16.807   6.633  10.281  1.00  0.00    -0.295 OA
ENDROOT
BRANCH   1  22
HETATM   22  C5  UNL     1      19.177   6.481   8.579  1.00  0.00     0.046 C 
BRANCH  22  23
HETATM   23  C4  UNL     1      19.015   5.022   8.542  1.00  0.00     0.060 C 
BRANCH  23  24
HETATM   24  C3  UNL     1      19.352   4.258   9.744  1.00  0.00     0.041 C 
HETATM   25  N1  UNL     1      20.509   4.308  10.259  1.00  0.00    -0.263 N 
ATOM     26  H1  UNL     1      21.197   4.905   9.798  1.00  0.00     0.194 HD
BRANCH  25  27
HETATM   27  O2  UNL     1      20.918   3.637  11.372  1.00  0.00    -0.200 OA
BRANCH  27  28
HETATM   28  C2  UNL     1      21.850   2.608  11.342  1.00  0.00     0.277 C 
HETATM   29  C1  UNL     1      22.278   1.948  10.083  1.00  0.00     0.128 C 
HETATM   30  O1  UNL     1      22.343   2.228  12.412  1.00  0.00    -0.264 OA
ENDBRANCH  27  28
ENDBRANCH  25  27
BRANCH  24  31
HETATM   31  C24 UNL     1      18.324   3.406  10.368  1.00  0.00     0.192 A 
HETATM   32  C25 UNL     1      18.223   2.024   9.770  1.00  0.00     0.207 A 
HETATM   33  O6  UNL     1      17.252   3.047   9.552  1.00  0.00    -0.375 OA
ENDBRANCH  24  31
ENDBRANCH  23  24
ENDBRANCH  22  23
ENDBRANCH   1  22
TORSDOF 6
ENDMDL
