MODEL 1
REMARK VINA RESULT: -6.726568758      0.000      0.000
REMARK  6 active torsions:
REMARK  status: ('A' for Active; 'I' for Inactive)
REMARK    1  A    between atoms: C2_2  and  O1_3 
REMARK    2  A    between atoms: O1_3  and  C3_4 
REMARK    3  A    between atoms: C3_4  and  C4_6 
REMARK    4  A    between atoms: C9_11  and  C10_12 
REMARK    5  A    between atoms: C12_17  and  C13_18 
REMARK    6  A    between atoms: C13_18  and  O6_19 
REMARK       I    between atoms: N1_28  and  C22_29 
ROOT
HETATM    1  C4  UNL     1      16.193   8.079   1.511  1.00  0.00     0.097 C 
HETATM    2  C5  UNL     1      17.103   8.916   2.309  1.00  0.00     0.020 C 
HETATM    3  C6  UNL     1      16.490   9.681   3.444  1.00  0.00     0.065 C 
HETATM    4  C7  UNL     1      15.505   8.937   4.268  1.00  0.00     0.173 C 
HETATM    5  C8  UNL     1      14.914   7.723   3.659  1.00  0.00     0.077 C 
HETATM    6  C9  UNL     1      14.929   7.649   2.173  1.00  0.00     0.073 C 
HETATM    7  O4  UNL     1      14.421   9.838   4.476  1.00  0.00    -0.207 OA
HETATM    8  O5  UNL     1      14.862  10.997   4.887  1.00  0.00    -0.228 OA
HETATM    9  C12 UNL     1      15.425  10.980   6.141  1.00  0.00     0.212 C 
HETATM   10  C21 UNL     1      15.272   9.534   6.642  1.00  0.00     0.167 C 
HETATM   11  N1  UNL     1      15.971   8.716   5.639  1.00  0.00    -0.315 N 
HETATM   12  C22 UNL     1      16.961   7.849   6.048  1.00  0.00     0.218 C 
HETATM   13  C23 UNL     1      17.330   7.729   7.476  1.00  0.00     0.117 C 
HETATM   14  O7  UNL     1      17.580   7.136   5.228  1.00  0.00    -0.274 OA
ENDROOT
BRANCH   6  15
HETATM   15  C10 UNL     1      14.506   6.294   1.713  1.00  0.00     0.128 C 
HETATM   16  C11 UNL     1      13.063   5.933   1.783  1.00  0.00     0.091 C 
HETATM   17  O3  UNL     1      15.293   5.479   1.285  1.00  0.00    -0.298 OA
ENDBRANCH   6  15
BRANCH   1  18
HETATM   18  C3  UNL     1      15.912   8.702   0.191  1.00  0.00     0.263 C 
HETATM   19  O2  UNL     1      16.757   8.571  -0.719  1.00  0.00    -0.265 OA
BRANCH  18  20
HETATM   20  O1  UNL     1      14.749   9.421  -0.065  1.00  0.00    -0.322 OA
BRANCH  20  21
HETATM   21  C2  UNL     1      14.664  10.822   0.187  1.00  0.00     0.174 C 
HETATM   22  C1  UNL     1      13.598  11.024   1.244  1.00  0.00     0.034 C 
ENDBRANCH  20  21
ENDBRANCH  18  20
ENDBRANCH   1  18
BRANCH   9  23
HETATM   23  C13 UNL     1      14.803  11.953   7.096  1.00  0.00     0.091 C 
HETATM   24  C15 UNL     1      13.966  11.186   8.091  1.00  0.00     0.041 C 
HETATM   25  C16 UNL     1      12.487  11.472   7.915  1.00  0.00     0.007 C 
HETATM   26  C17 UNL     1      12.211  12.941   8.159  1.00  0.00    -0.019 C 
HETATM   27  C18 UNL     1      12.319  13.219   9.624  1.00  0.00     0.010 C 
HETATM   28  C19 UNL     1      13.205  13.796   7.407  1.00  0.00     0.007 C 
HETATM   29  C20 UNL     1      13.973  13.002   6.375  1.00  0.00     0.041 C 
BRANCH  23  30
HETATM   30  O6  UNL     1      15.807  12.609   7.784  1.00  0.00    -0.382 OA
HETATM   31  C14 UNL     1      16.598  13.433   7.013  1.00  0.00     0.202 C 
ENDBRANCH  23  30
ENDBRANCH   9  23
TORSDOF 6
ENDMDL
MODEL 2
REMARK VINA RESULT: -6.680898503      2.549      5.222
REMARK  6 active torsions:
REMARK  status: ('A' for Active; 'I' for Inactive)
REMARK    1  A    between atoms: C2_2  and  O1_3 
REMARK    2  A    between atoms: O1_3  and  C3_4 
REMARK    3  A    between atoms: C3_4  and  C4_6 
REMARK    4  A    between atoms: C9_11  and  C10_12 
REMARK    5  A    between atoms: C12_17  and  C13_18 
REMARK    6  A    between atoms: C13_18  and  O6_19 
REMARK       I    between atoms: N1_28  and  C22_29 
ROOT
HETATM    1  C4  UNL     1      16.007  12.540   1.436  1.00  0.00     0.097 C 
HETATM    2  C5  UNL     1      17.195  11.899   2.023  1.00  0.00     0.020 C 
HETATM    3  C6  UNL     1      16.959  10.997   3.198  1.00  0.00     0.065 C 
HETATM    4  C7  UNL     1      15.795  10.083   3.089  1.00  0.00     0.173 C 
HETATM    5  C8  UNL     1      14.766  10.439   2.086  1.00  0.00     0.077 C 
HETATM    6  C9  UNL     1      14.699  11.869   1.677  1.00  0.00     0.073 C 
HETATM    7  O4  UNL     1      15.144  10.140   4.355  1.00  0.00    -0.207 OA
HETATM    8  O5  UNL     1      16.008   9.974   5.321  1.00  0.00    -0.228 OA
HETATM    9  C12 UNL     1      16.565   8.718   5.376  1.00  0.00     0.212 C 
HETATM   10  C21 UNL     1      15.891   7.917   4.250  1.00  0.00     0.167 C 
HETATM   11  N1  UNL     1      16.190   8.674   3.024  1.00  0.00    -0.315 N 
HETATM   12  C22 UNL     1      16.789   8.030   1.963  1.00  0.00     0.218 C 
HETATM   13  C23 UNL     1      17.135   6.593   2.038  1.00  0.00     0.117 C 
HETATM   14  O7  UNL     1      17.060   8.636   0.904  1.00  0.00    -0.274 OA
ENDROOT
BRANCH   6  15
HETATM   15  C10 UNL     1      13.775  12.039   0.518  1.00  0.00     0.128 C 
HETATM   16  C11 UNL     1      13.568  10.889  -0.405  1.00  0.00     0.091 C 
HETATM   17  O3  UNL     1      13.191  13.077   0.301  1.00  0.00    -0.298 OA
ENDBRANCH   6  15
BRANCH   1  18
HETATM   18  C3  UNL     1      15.939  13.978   1.804  1.00  0.00     0.263 C 
HETATM   19  O2  UNL     1      16.526  14.805   1.076  1.00  0.00    -0.265 OA
BRANCH  18  20
HETATM   20  O1  UNL     1      15.246  14.433   2.922  1.00  0.00    -0.322 OA
BRANCH  20  21
HETATM   21  C2  UNL     1      15.838  14.435   4.219  1.00  0.00     0.174 C 
HETATM   22  C1  UNL     1      14.942  13.610   5.121  1.00  0.00     0.034 C 
ENDBRANCH  20  21
ENDBRANCH  18  20
ENDBRANCH   1  18
BRANCH   9  23
HETATM   23  C13 UNL     1      16.395   8.038   6.700  1.00  0.00     0.091 C 
HETATM   24  C15 UNL     1      17.741   7.959   7.380  1.00  0.00     0.041 C 
HETATM   25  C16 UNL     1      18.229   6.526   7.486  1.00  0.00     0.007 C 
HETATM   26  C17 UNL     1      17.270   5.714   8.330  1.00  0.00    -0.019 C 
HETATM   27  C18 UNL     1      17.429   6.110   9.764  1.00  0.00     0.010 C 
HETATM   28  C19 UNL     1      15.844   5.960   7.893  1.00  0.00     0.007 C 
HETATM   29  C20 UNL     1      15.773   6.660   6.555  1.00  0.00     0.041 C 
BRANCH  23  30
HETATM   30  O6  UNL     1      15.553   8.801   7.489  1.00  0.00    -0.382 OA
HETATM   31  C14 UNL     1      16.171   9.466   8.525  1.00  0.00     0.202 C 
ENDBRANCH  23  30
ENDBRANCH   9  23
TORSDOF 6
ENDMDL
MODEL 3
REMARK VINA RESULT: -6.676085545      2.462      5.406
REMARK  6 active torsions:
REMARK  status: ('A' for Active; 'I' for Inactive)
REMARK    1  A    between atoms: C2_2  and  O1_3 
REMARK    2  A    between atoms: O1_3  and  C3_4 
REMARK    3  A    between atoms: C3_4  and  C4_6 
REMARK    4  A    between atoms: C9_11  and  C10_12 
REMARK    5  A    between atoms: C12_17  and  C13_18 
REMARK    6  A    between atoms: C13_18  and  O6_19 
REMARK       I    between atoms: N1_28  and  C22_29 
ROOT
HETATM    1  C4  UNL     1      15.813  12.427   2.515  1.00  0.00     0.097 C 
HETATM    2  C5  UNL     1      17.067  11.959   3.126  1.00  0.00     0.020 C 
HETATM    3  C6  UNL     1      16.942  10.931   4.212  1.00  0.00     0.065 C 
HETATM    4  C7  UNL     1      15.971   9.838   3.959  1.00  0.00     0.173 C 
HETATM    5  C8  UNL     1      14.944  10.092   2.921  1.00  0.00     0.077 C 
HETATM    6  C9  UNL     1      14.639  11.517   2.620  1.00  0.00     0.073 C 
HETATM    7  O4  UNL     1      15.258   9.669   5.181  1.00  0.00    -0.207 OA
HETATM    8  O5  UNL     1      16.089   9.575   6.185  1.00  0.00    -0.228 OA
HETATM    9  C12 UNL     1      16.862   8.438   6.180  1.00  0.00     0.212 C 
HETATM   10  C21 UNL     1      16.401   7.632   4.955  1.00  0.00     0.167 C 
HETATM   11  N1  UNL     1      16.618   8.533   3.812  1.00  0.00    -0.315 N 
HETATM   12  C22 UNL     1      17.376   8.099   2.746  1.00  0.00     0.218 C 
HETATM   13  C23 UNL     1      17.973   6.745   2.733  1.00  0.00     0.117 C 
HETATM   14  O7  UNL     1      17.584   8.833   1.755  1.00  0.00    -0.274 OA
ENDROOT
BRANCH   6  15
HETATM   15  C10 UNL     1      13.758  11.620   1.419  1.00  0.00     0.128 C 
HETATM   16  C11 UNL     1      12.801  10.515   1.138  1.00  0.00     0.091 C 
HETATM   17  O3  UNL     1      13.796  12.568   0.668  1.00  0.00    -0.298 OA
ENDBRANCH   6  15
BRANCH   1  18
HETATM   18  C3  UNL     1      15.466  13.793   2.986  1.00  0.00     0.263 C 
HETATM   19  O2  UNL     1      15.875  14.771   2.325  1.00  0.00    -0.265 OA
BRANCH  18  20
HETATM   20  O1  UNL     1      14.705  14.021   4.129  1.00  0.00    -0.322 OA
BRANCH  20  21
HETATM   21  C2  UNL     1      15.298  14.068   5.425  1.00  0.00     0.174 C 
HETATM   22  C1  UNL     1      14.601  13.025   6.274  1.00  0.00     0.034 C 
ENDBRANCH  20  21
ENDBRANCH  18  20
ENDBRANCH   1  18
BRANCH   9  23
HETATM   23  C13 UNL     1      16.753   7.628   7.435  1.00  0.00     0.091 C 
HETATM   24  C15 UNL     1      18.085   7.655   8.146  1.00  0.00     0.041 C 
HETATM   25  C16 UNL     1      18.747   6.290   8.143  1.00  0.00     0.007 C 
HETATM   26  C17 UNL     1      17.881   5.293   8.884  1.00  0.00    -0.019 C 
HETATM   27  C18 UNL     1      17.962   5.577  10.351  1.00  0.00     0.010 C 
HETATM   28  C19 UNL     1      16.446   5.399   8.426  1.00  0.00     0.007 C 
HETATM   29  C20 UNL     1      16.312   6.201   7.152  1.00  0.00     0.041 C 
BRANCH  23  30
HETATM   30  O6  UNL     1      15.806   8.206   8.260  1.00  0.00    -0.382 OA
HETATM   31  C14 UNL     1      16.308   8.780   9.407  1.00  0.00     0.202 C 
ENDBRANCH  23  30
ENDBRANCH   9  23
TORSDOF 6
ENDMDL
MODEL 4
REMARK VINA RESULT: -6.405234440      3.107      5.216
REMARK  6 active torsions:
REMARK  status: ('A' for Active; 'I' for Inactive)
REMARK    1  A    between atoms: C2_2  and  O1_3 
REMARK    2  A    between atoms: O1_3  and  C3_4 
REMARK    3  A    between atoms: C3_4  and  C4_6 
REMARK    4  A    between atoms: C9_11  and  C10_12 
REMARK    5  A    between atoms: C12_17  and  C13_18 
REMARK    6  A    between atoms: C13_18  and  O6_19 
REMARK       I    between atoms: N1_28  and  C22_29 
ROOT
HETATM    1  C4  UNL     1      15.736  12.398   1.709  1.00  0.00     0.097 C 
HETATM    2  C5  UNL     1      16.974  11.891   2.322  1.00  0.00     0.020 C 
HETATM    3  C6  UNL     1      16.813  10.952   3.481  1.00  0.00     0.065 C 
HETATM    4  C7  UNL     1      15.766   9.911   3.329  1.00  0.00     0.173 C 
HETATM    5  C8  UNL     1      14.729  10.160   2.301  1.00  0.00     0.077 C 
HETATM    6  C9  UNL     1      14.508  11.577   1.906  1.00  0.00     0.073 C 
HETATM    7  O4  UNL     1      15.078   9.875   4.577  1.00  0.00    -0.207 OA
HETATM    8  O5  UNL     1      15.929   9.796   5.565  1.00  0.00    -0.228 OA
HETATM    9  C12 UNL     1      16.627   8.613   5.622  1.00  0.00     0.212 C 
HETATM   10  C21 UNL     1      16.081   7.755   4.469  1.00  0.00     0.167 C 
HETATM   11  N1  UNL     1      16.323   8.559   3.261  1.00  0.00    -0.315 N 
HETATM   12  C22 UNL     1      17.021   8.003   2.210  1.00  0.00     0.218 C 
HETATM   13  C23 UNL     1      17.529   6.615   2.280  1.00  0.00     0.117 C 
HETATM   14  O7  UNL     1      17.249   8.651   1.166  1.00  0.00    -0.274 OA
ENDROOT
BRANCH   6  15
HETATM   15  C10 UNL     1      13.603  11.655   0.722  1.00  0.00     0.128 C 
HETATM   16  C11 UNL     1      13.149  10.388   0.084  1.00  0.00     0.091 C 
HETATM   17  O3  UNL     1      13.226  12.710   0.263  1.00  0.00    -0.298 OA
ENDBRANCH   6  15
BRANCH   1  18
HETATM   18  C3  UNL     1      15.491  13.814   2.090  1.00  0.00     0.263 C 
HETATM   19  O2  UNL     1      15.025  14.051   3.224  1.00  0.00    -0.265 OA
BRANCH  18  20
HETATM   20  O1  UNL     1      15.761  14.877   1.234  1.00  0.00    -0.322 OA
BRANCH  20  21
HETATM   21  C2  UNL     1      14.732  15.755   0.783  1.00  0.00     0.174 C 
HETATM   22  C1  UNL     1      14.858  15.856  -0.723  1.00  0.00     0.034 C 
ENDBRANCH  20  21
ENDBRANCH  18  20
ENDBRANCH   1  18
BRANCH   9  23
HETATM   23  C13 UNL     1      16.501   7.900   6.934  1.00  0.00     0.091 C 
HETATM   24  C15 UNL     1      17.874   7.775   7.551  1.00  0.00     0.041 C 
HETATM   25  C16 UNL     1      18.336   6.331   7.596  1.00  0.00     0.007 C 
HETATM   26  C17 UNL     1      17.398   5.514   8.460  1.00  0.00    -0.019 C 
HETATM   27  C18 UNL     1      17.628   5.867   9.895  1.00  0.00     0.010 C 
HETATM   28  C19 UNL     1      15.960   5.800   8.093  1.00  0.00     0.007 C 
HETATM   29  C20 UNL     1      15.844   6.538   6.779  1.00  0.00     0.041 C 
BRANCH  23  30
HETATM   30  O6  UNL     1      15.711   8.656   7.780  1.00  0.00    -0.382 OA
HETATM   31  C14 UNL     1      16.370   9.202   8.859  1.00  0.00     0.202 C 
ENDBRANCH  23  30
ENDBRANCH   9  23
TORSDOF 6
ENDMDL
MODEL 5
REMARK VINA RESULT: -6.343870204      1.113      1.780
REMARK  6 active torsions:
REMARK  status: ('A' for Active; 'I' for Inactive)
REMARK    1  A    between atoms: C2_2  and  O1_3 
REMARK    2  A    between atoms: O1_3  and  C3_4 
REMARK    3  A    between atoms: C3_4  and  C4_6 
REMARK    4  A    between atoms: C9_11  and  C10_12 
REMARK    5  A    between atoms: C12_17  and  C13_18 
REMARK    6  A    between atoms: C13_18  and  O6_19 
REMARK       I    between atoms: N1_28  and  C22_29 
ROOT
HETATM    1  C4  UNL     1      15.559   7.734   0.844  1.00  0.00     0.097 C 
HETATM    2  C5  UNL     1      16.640   8.539   1.435  1.00  0.00     0.020 C 
HETATM    3  C6  UNL     1      16.286   9.352   2.645  1.00  0.00     0.065 C 
HETATM    4  C7  UNL     1      15.443   8.671   3.659  1.00  0.00     0.173 C 
HETATM    5  C8  UNL     1      14.695   7.476   3.202  1.00  0.00     0.077 C 
HETATM    6  C9  UNL     1      14.425   7.376   1.742  1.00  0.00     0.073 C 
HETATM    7  O4  UNL     1      14.458   9.626   4.043  1.00  0.00    -0.207 OA
HETATM    8  O5  UNL     1      15.020  10.770   4.333  1.00  0.00    -0.228 OA
HETATM    9  C12 UNL     1      15.808  10.746   5.460  1.00  0.00     0.212 C 
HETATM   10  C21 UNL     1      15.688   9.319   6.018  1.00  0.00     0.167 C 
HETATM   11  N1  UNL     1      16.149   8.451   4.923  1.00  0.00    -0.315 N 
HETATM   12  C22 UNL     1      17.159   7.544   5.161  1.00  0.00     0.218 C 
HETATM   13  C23 UNL     1      17.786   7.431   6.496  1.00  0.00     0.117 C 
HETATM   14  O7  UNL     1      17.580   6.788   4.258  1.00  0.00    -0.274 OA
ENDROOT
BRANCH   6  15
HETATM   15  C10 UNL     1      13.864   6.035   1.405  1.00  0.00     0.128 C 
HETATM   16  C11 UNL     1      12.388   5.844   1.460  1.00  0.00     0.091 C 
HETATM   17  O3  UNL     1      14.564   5.100   1.090  1.00  0.00    -0.298 OA
ENDBRANCH   6  15
BRANCH   1  18
HETATM   18  C3  UNL     1      15.062   8.347  -0.415  1.00  0.00     0.263 C 
HETATM   19  O2  UNL     1      15.738   8.199  -1.455  1.00  0.00    -0.265 OA
BRANCH  18  20
HETATM   20  O1  UNL     1      13.878   9.075  -0.477  1.00  0.00    -0.322 OA
BRANCH  20  21
HETATM   21  C2  UNL     1      13.847  10.477  -0.216  1.00  0.00     0.174 C 
HETATM   22  C1  UNL     1      12.965  10.687   0.997  1.00  0.00     0.034 C 
ENDBRANCH  20  21
ENDBRANCH  18  20
ENDBRANCH   1  18
BRANCH   9  23
HETATM   23  C13 UNL     1      15.421  11.765   6.489  1.00  0.00     0.091 C 
HETATM   24  C15 UNL     1      14.334  12.642   5.916  1.00  0.00     0.041 C 
HETATM   25  C16 UNL     1      14.820  14.062   5.695  1.00  0.00     0.007 C 
HETATM   26  C17 UNL     1      15.224  14.681   7.016  1.00  0.00    -0.019 C 
HETATM   27  C18 UNL     1      13.992  14.988   7.806  1.00  0.00     0.010 C 
HETATM   28  C19 UNL     1      16.103  13.732   7.797  1.00  0.00     0.007 C 
HETATM   29  C20 UNL     1      16.612  12.593   6.942  1.00  0.00     0.041 C 
BRANCH  23  30
HETATM   30  O6  UNL     1      14.915  11.111   7.596  1.00  0.00    -0.382 OA
HETATM   31  C14 UNL     1      13.569  11.300   7.819  1.00  0.00     0.202 C 
ENDBRANCH  23  30
ENDBRANCH   9  23
TORSDOF 6
ENDMDL
