MODEL 1
REMARK VINA RESULT: -8.764845359      0.000      0.000
REMARK  6 active torsions:
REMARK  status: ('A' for Active; 'I' for Inactive)
REMARK    1  A    between atoms: C1_2  and  O2_3 
REMARK       I    between atoms: C1_2  and  N1_11 
REMARK    2  A    between atoms: O2_3  and  C2_4 
REMARK    3  A    between atoms: C2_4  and  C3_5 
REMARK    4  A    between atoms: C13_16  and  C14_17 
REMARK    5  A    between atoms: C14_17  and  O3_18 
REMARK    6  A    between atoms: O3_18  and  C15_19 
ROOT
HETATM    1  O1  UNL     1      17.724   7.541   9.942  1.00  0.00    -0.238 OA
HETATM    2  C1  UNL     1      17.206   7.225   8.842  1.00  0.00     0.364 C 
HETATM    3  N1  UNL     1      16.575   8.185   8.018  1.00  0.00    -0.306 N 
HETATM    4  C9  UNL     1      15.972   7.860   6.752  1.00  0.00     0.135 C 
HETATM    5  C10 UNL     1      16.316   8.991   5.807  1.00  0.00     0.088 C 
HETATM    6  C11 UNL     1      15.830  10.291   6.367  1.00  0.00     0.168 C 
HETATM    7  C12 UNL     1      14.521  10.667   5.701  1.00  0.00     0.077 C 
HETATM    8  C13 UNL     1      14.857  12.052   5.131  1.00  0.00     0.039 C 
HETATM    9  C22 UNL     1      16.342  11.840   4.848  1.00  0.00     0.178 C 
HETATM   10  O5  UNL     1      16.750  11.293   6.061  1.00  0.00    -0.354 OA
HETATM   11  O6  UNL     1      15.613  10.305   7.722  1.00  0.00    -0.336 OA
HETATM   12  C23 UNL     1      16.533   9.561   8.462  1.00  0.00     0.302 C 
ENDROOT
BRANCH   8  13
HETATM   13  C14 UNL     1      14.658  13.021   6.267  1.00  0.00     0.182 C 
BRANCH  13  14
HETATM   14  O3  UNL     1      13.356  13.188   6.707  1.00  0.00    -0.349 OA
BRANCH  14  15
HETATM   15  C15 UNL     1      12.876  13.130   7.981  1.00  0.00     0.084 A 
HETATM   16  C16 UNL     1      12.686  14.328   8.701  1.00  0.00     0.124 A 
HETATM   17  N2  UNL     1      12.221  14.336   9.956  1.00  0.00    -0.364 N 
HETATM   18  C17 UNL     1      11.899  13.248  10.633  1.00  0.00     0.041 A 
ATOM     19  H2  UNL     1      12.109  15.238  10.418  1.00  0.00     0.165 HD
HETATM   20  C18 UNL     1      12.059  12.040   9.995  1.00  0.00    -0.007 A 
HETATM   21  C21 UNL     1      11.380  12.971  11.981  1.00  0.00     0.225 C 
HETATM   22  C19 UNL     1      12.543  11.993   8.681  1.00  0.00     0.049 A 
HETATM   23  C20 UNL     1      11.637  11.004  10.947  1.00  0.00     0.208 C 
HETATM   24  O4  UNL     1      11.124  11.623  12.053  1.00  0.00    -0.381 OA
ENDBRANCH  14  15
ENDBRANCH  13  14
ENDBRANCH   8  13
BRANCH   2  25
HETATM   25  O2  UNL     1      17.254   5.897   8.424  1.00  0.00    -0.303 OA
BRANCH  25  26
HETATM   26  C2  UNL     1      18.491   5.374   8.036  1.00  0.00     0.185 C 
BRANCH  26  27
HETATM   27  C3  UNL     1      18.914   4.247   8.966  1.00  0.00     0.010 C 
HETATM   28  C4  UNL     1      17.674   3.635   9.563  1.00  0.00     0.007 C 
HETATM   29  C5  UNL     1      18.089   2.473  10.464  1.00  0.00     0.000 C 
HETATM   30  C6  UNL     1      18.940   3.050  11.568  1.00  0.00     0.000 C 
HETATM   31  C7  UNL     1      19.186   4.518  11.388  1.00  0.00     0.000 C 
HETATM   32  C8  UNL     1      19.790   4.809  10.036  1.00  0.00     0.007 C 
ENDBRANCH  26  27
ENDBRANCH  25  26
ENDBRANCH   2  25
TORSDOF 6
ENDMDL
MODEL 2
REMARK VINA RESULT: -8.645307025      0.558      1.090
REMARK  6 active torsions:
REMARK  status: ('A' for Active; 'I' for Inactive)
REMARK    1  A    between atoms: C1_2  and  O2_3 
REMARK       I    between atoms: C1_2  and  N1_11 
REMARK    2  A    between atoms: O2_3  and  C2_4 
REMARK    3  A    between atoms: C2_4  and  C3_5 
REMARK    4  A    between atoms: C13_16  and  C14_17 
REMARK    5  A    between atoms: C14_17  and  O3_18 
REMARK    6  A    between atoms: O3_18  and  C15_19 
ROOT
HETATM    1  O1  UNL     1      17.988   7.212   9.967  1.00  0.00    -0.238 OA
HETATM    2  C1  UNL     1      17.284   6.871   8.985  1.00  0.00     0.364 C 
HETATM    3  N1  UNL     1      16.619   7.827   8.184  1.00  0.00    -0.306 N 
HETATM    4  C9  UNL     1      15.804   7.473   7.050  1.00  0.00     0.135 C 
HETATM    5  C10 UNL     1      16.094   8.496   5.973  1.00  0.00     0.088 C 
HETATM    6  C11 UNL     1      15.812   9.873   6.486  1.00  0.00     0.168 C 
HETATM    7  C12 UNL     1      14.453  10.326   5.989  1.00  0.00     0.077 C 
HETATM    8  C13 UNL     1      14.815  11.628   5.262  1.00  0.00     0.039 C 
HETATM    9  C22 UNL     1      16.216  11.254   4.785  1.00  0.00     0.178 C 
HETATM   10  O5  UNL     1      16.756  10.758   5.967  1.00  0.00    -0.354 OA
HETATM   11  O6  UNL     1      15.806  10.003   7.853  1.00  0.00    -0.336 OA
HETATM   12  C23 UNL     1      16.761   9.229   8.511  1.00  0.00     0.302 C 
ENDROOT
BRANCH   8  13
HETATM   13  C14 UNL     1      14.874  12.690   6.328  1.00  0.00     0.182 C 
BRANCH  13  14
HETATM   14  O3  UNL     1      13.659  13.213   6.738  1.00  0.00    -0.349 OA
BRANCH  14  15
HETATM   15  C15 UNL     1      13.092  13.174   7.977  1.00  0.00     0.084 A 
HETATM   16  C16 UNL     1      12.870  14.382   8.671  1.00  0.00     0.124 A 
HETATM   17  N2  UNL     1      12.320  14.409   9.891  1.00  0.00    -0.364 N 
HETATM   18  C17 UNL     1      11.936  13.332  10.554  1.00  0.00     0.041 A 
ATOM     19  H2  UNL     1      12.189  15.317  10.336  1.00  0.00     0.165 HD
HETATM   20  C18 UNL     1      12.123  12.115   9.939  1.00  0.00    -0.007 A 
HETATM   21  C21 UNL     1      11.322  13.075  11.865  1.00  0.00     0.225 C 
HETATM   22  C19 UNL     1      12.696  12.049   8.662  1.00  0.00     0.049 A 
HETATM   23  C20 UNL     1      11.622  11.095  10.869  1.00  0.00     0.208 C 
HETATM   24  O4  UNL     1      11.043  11.731  11.931  1.00  0.00    -0.381 OA
ENDBRANCH  14  15
ENDBRANCH  13  14
ENDBRANCH   8  13
BRANCH   2  25
HETATM   25  O2  UNL     1      17.155   5.519   8.677  1.00  0.00    -0.303 OA
BRANCH  25  26
HETATM   26  C2  UNL     1      18.246   4.681   8.926  1.00  0.00     0.185 C 
BRANCH  26  27
HETATM   27  C3  UNL     1      17.991   3.813  10.150  1.00  0.00     0.010 C 
HETATM   28  C4  UNL     1      19.085   4.072  11.151  1.00  0.00     0.007 C 
HETATM   29  C5  UNL     1      18.810   3.238  12.400  1.00  0.00     0.000 C 
HETATM   30  C6  UNL     1      18.850   1.788  11.983  1.00  0.00     0.000 C 
HETATM   31  C7  UNL     1      19.043   1.627  10.505  1.00  0.00     0.000 C 
HETATM   32  C8  UNL     1      17.988   2.380   9.731  1.00  0.00     0.007 C 
ENDBRANCH  26  27
ENDBRANCH  25  26
ENDBRANCH   2  25
TORSDOF 6
ENDMDL
MODEL 3
REMARK VINA RESULT: -8.214335698      0.876      1.511
REMARK  6 active torsions:
REMARK  status: ('A' for Active; 'I' for Inactive)
REMARK    1  A    between atoms: C1_2  and  O2_3 
REMARK       I    between atoms: C1_2  and  N1_11 
REMARK    2  A    between atoms: O2_3  and  C2_4 
REMARK    3  A    between atoms: C2_4  and  C3_5 
REMARK    4  A    between atoms: C13_16  and  C14_17 
REMARK    5  A    between atoms: C14_17  and  O3_18 
REMARK    6  A    between atoms: O3_18  and  C15_19 
ROOT
HETATM    1  O1  UNL     1      17.729   7.342  10.024  1.00  0.00    -0.238 OA
HETATM    2  C1  UNL     1      17.145   7.006   8.964  1.00  0.00     0.364 C 
HETATM    3  N1  UNL     1      16.535   7.962   8.120  1.00  0.00    -0.306 N 
HETATM    4  C9  UNL     1      15.857   7.614   6.899  1.00  0.00     0.135 C 
HETATM    5  C10 UNL     1      16.224   8.675   5.883  1.00  0.00     0.088 C 
HETATM    6  C11 UNL     1      15.842  10.028   6.397  1.00  0.00     0.168 C 
HETATM    7  C12 UNL     1      14.528  10.451   5.769  1.00  0.00     0.077 C 
HETATM    8  C13 UNL     1      14.920  11.783   5.116  1.00  0.00     0.039 C 
HETATM    9  C22 UNL     1      16.376  11.467   4.781  1.00  0.00     0.178 C 
HETATM   10  O5  UNL     1      16.805  10.955   6.002  1.00  0.00    -0.354 OA
HETATM   11  O6  UNL     1      15.688  10.120   7.758  1.00  0.00    -0.336 OA
HETATM   12  C23 UNL     1      16.594   9.358   8.494  1.00  0.00     0.302 C 
ENDROOT
BRANCH   8  13
HETATM   13  C14 UNL     1      14.830  12.816   6.208  1.00  0.00     0.182 C 
BRANCH  13  14
HETATM   14  O3  UNL     1      13.555  13.136   6.644  1.00  0.00    -0.349 OA
BRANCH  14  15
HETATM   15  C15 UNL     1      12.981  12.879   7.853  1.00  0.00     0.084 A 
HETATM   16  C16 UNL     1      12.773  11.540   8.245  1.00  0.00     0.124 A 
HETATM   17  N2  UNL     1      12.211  11.223   9.418  1.00  0.00    -0.364 N 
HETATM   18  C17 UNL     1      11.805  12.112  10.308  1.00  0.00     0.041 A 
ATOM     19  H2  UNL     1      12.089  10.235   9.638  1.00  0.00     0.165 HD
HETATM   20  C18 UNL     1      11.975  13.440   9.993  1.00  0.00    -0.007 A 
HETATM   21  C21 UNL     1      11.175  12.049  11.636  1.00  0.00     0.225 C 
HETATM   22  C19 UNL     1      12.559  13.809   8.774  1.00  0.00     0.049 A 
HETATM   23  C20 UNL     1      11.451  14.210  11.129  1.00  0.00     0.208 C 
HETATM   24  O4  UNL     1      11.113  13.333  12.121  1.00  0.00    -0.381 OA
ENDBRANCH  14  15
ENDBRANCH  13  14
ENDBRANCH   8  13
BRANCH   2  25
HETATM   25  O2  UNL     1      17.095   5.659   8.613  1.00  0.00    -0.303 OA
BRANCH  25  26
HETATM   26  C2  UNL     1      18.228   4.875   8.852  1.00  0.00     0.185 C 
BRANCH  26  27
HETATM   27  C3  UNL     1      18.047   4.039  10.111  1.00  0.00     0.010 C 
HETATM   28  C4  UNL     1      19.193   4.333  11.043  1.00  0.00     0.007 C 
HETATM   29  C5  UNL     1      18.995   3.532  12.327  1.00  0.00     0.000 C 
HETATM   30  C6  UNL     1      19.024   2.072  11.948  1.00  0.00     0.000 C 
HETATM   31  C7  UNL     1      19.137   1.872  10.466  1.00  0.00     0.000 C 
HETATM   32  C8  UNL     1      18.034   2.596   9.732  1.00  0.00     0.007 C 
ENDBRANCH  26  27
ENDBRANCH  25  26
ENDBRANCH   2  25
TORSDOF 6
ENDMDL
MODEL 4
REMARK VINA RESULT: -8.090222714      2.402      3.526
REMARK  6 active torsions:
REMARK  status: ('A' for Active; 'I' for Inactive)
REMARK    1  A    between atoms: C1_2  and  O2_3 
REMARK       I    between atoms: C1_2  and  N1_11 
REMARK    2  A    between atoms: O2_3  and  C2_4 
REMARK    3  A    between atoms: C2_4  and  C3_5 
REMARK    4  A    between atoms: C13_16  and  C14_17 
REMARK    5  A    between atoms: C14_17  and  O3_18 
REMARK    6  A    between atoms: O3_18  and  C15_19 
ROOT
HETATM    1  O1  UNL     1      16.631   7.783   8.703  1.00  0.00    -0.238 OA
HETATM    2  C1  UNL     1      16.423   7.925   7.473  1.00  0.00     0.364 C 
HETATM    3  N1  UNL     1      16.031   9.169   6.928  1.00  0.00    -0.306 N 
HETATM    4  C9  UNL     1      15.783   9.368   5.523  1.00  0.00     0.135 C 
HETATM    5  C10 UNL     1      16.364  10.721   5.171  1.00  0.00     0.088 C 
HETATM    6  C11 UNL     1      15.746  11.782   6.028  1.00  0.00     0.168 C 
HETATM    7  C12 UNL     1      14.658  12.491   5.245  1.00  0.00     0.077 C 
HETATM    8  C13 UNL     1      15.132  13.949   5.321  1.00  0.00     0.039 C 
HETATM    9  C22 UNL     1      16.639  13.709   5.355  1.00  0.00     0.178 C 
HETATM   10  O5  UNL     1      16.713  12.735   6.345  1.00  0.00    -0.354 OA
HETATM   11  O6  UNL     1      15.179  11.338   7.197  1.00  0.00    -0.336 OA
HETATM   12  C23 UNL     1      15.872  10.298   7.817  1.00  0.00     0.302 C 
ENDROOT
BRANCH   8  13
HETATM   13  C14 UNL     1      14.639  14.471   6.644  1.00  0.00     0.182 C 
BRANCH  13  14
HETATM   14  O3  UNL     1      13.343  14.130   6.992  1.00  0.00    -0.349 OA
BRANCH  14  15
HETATM   15  C15 UNL     1      12.846  13.823   8.223  1.00  0.00     0.084 A 
HETATM   16  C16 UNL     1      12.603  14.862   9.146  1.00  0.00     0.124 A 
HETATM   17  N2  UNL     1      12.119  14.624  10.371  1.00  0.00    -0.364 N 
HETATM   18  C17 UNL     1      11.827  13.419  10.831  1.00  0.00     0.041 A 
ATOM     19  H2  UNL     1      11.967  15.421  10.989  1.00  0.00     0.165 HD
HETATM   20  C18 UNL     1      12.040  12.355   9.985  1.00  0.00    -0.007 A 
HETATM   21  C21 UNL     1      11.298  12.882  12.093  1.00  0.00     0.225 C 
HETATM   22  C19 UNL     1      12.545  12.567   8.695  1.00  0.00     0.049 A 
HETATM   23  C20 UNL     1      11.642  11.148  10.722  1.00  0.00     0.208 C 
HETATM   24  O4  UNL     1      11.091  11.536  11.912  1.00  0.00    -0.381 OA
ENDBRANCH  14  15
ENDBRANCH  13  14
ENDBRANCH   8  13
BRANCH   2  25
HETATM   25  O2  UNL     1      16.580   6.831   6.625  1.00  0.00    -0.303 OA
BRANCH  25  26
HETATM   26  C2  UNL     1      17.869   6.322   6.442  1.00  0.00     0.185 C 
BRANCH  26  27
HETATM   27  C3  UNL     1      18.509   6.914   5.194  1.00  0.00     0.010 C 
HETATM   28  C4  UNL     1      17.467   6.969   4.109  1.00  0.00     0.007 C 
HETATM   29  C5  UNL     1      18.090   7.604   2.867  1.00  0.00     0.000 C 
HETATM   30  C6  UNL     1      19.218   6.704   2.428  1.00  0.00     0.000 C 
HETATM   31  C7  UNL     1      19.432   5.558   3.371  1.00  0.00     0.000 C 
HETATM   32  C8  UNL     1      19.652   6.047   4.782  1.00  0.00     0.007 C 
ENDBRANCH  26  27
ENDBRANCH  25  26
ENDBRANCH   2  25
TORSDOF 6
ENDMDL
MODEL 5
REMARK VINA RESULT: -8.020244378      4.672      8.966
REMARK  6 active torsions:
REMARK  status: ('A' for Active; 'I' for Inactive)
REMARK    1  A    between atoms: C1_2  and  O2_3 
REMARK       I    between atoms: C1_2  and  N1_11 
REMARK    2  A    between atoms: O2_3  and  C2_4 
REMARK    3  A    between atoms: C2_4  and  C3_5 
REMARK    4  A    between atoms: C13_16  and  C14_17 
REMARK    5  A    between atoms: C14_17  and  O3_18 
REMARK    6  A    between atoms: O3_18  and  C15_19 
ROOT
HETATM    1  O1  UNL     1      14.712  14.849   6.872  1.00  0.00    -0.238 OA
HETATM    2  C1  UNL     1      14.354  13.695   7.217  1.00  0.00     0.364 C 
HETATM    3  N1  UNL     1      14.511  12.584   6.357  1.00  0.00    -0.306 N 
HETATM    4  C9  UNL     1      14.112  11.248   6.717  1.00  0.00     0.135 C 
HETATM    5  C10 UNL     1      15.189  10.321   6.197  1.00  0.00     0.088 C 
HETATM    6  C11 UNL     1      15.350  10.502   4.720  1.00  0.00     0.168 C 
HETATM    7  C12 UNL     1      14.608   9.397   3.993  1.00  0.00     0.077 C 
HETATM    8  C13 UNL     1      15.732   8.782   3.148  1.00  0.00     0.039 C 
HETATM    9  C22 UNL     1      16.906   9.037   4.090  1.00  0.00     0.178 C 
HETATM   10  O5  UNL     1      16.698  10.380   4.388  1.00  0.00    -0.354 OA
HETATM   11  O6  UNL     1      14.890  11.695   4.219  1.00  0.00    -0.336 OA
HETATM   12  C23 UNL     1      15.103  12.792   5.053  1.00  0.00     0.302 C 
ENDROOT
BRANCH   8  13
HETATM   13  C14 UNL     1      15.834   9.642   1.916  1.00  0.00     0.182 C 
BRANCH  13  14
HETATM   14  O3  UNL     1      14.637   9.985   1.309  1.00  0.00    -0.349 OA
BRANCH  14  15
HETATM   15  C15 UNL     1      14.400  10.968   0.395  1.00  0.00     0.084 A 
HETATM   16  C16 UNL     1      14.427  10.651  -0.979  1.00  0.00     0.124 A 
HETATM   17  N2  UNL     1      14.205  11.572  -1.924  1.00  0.00    -0.364 N 
HETATM   18  C17 UNL     1      13.942  12.843  -1.672  1.00  0.00     0.041 A 
ATOM     19  H2  UNL     1      14.240  11.275  -2.899  1.00  0.00     0.165 HD
HETATM   20  C18 UNL     1      13.900  13.227  -0.351  1.00  0.00    -0.007 A 
HETATM   21  C21 UNL     1      13.665  14.035  -2.488  1.00  0.00     0.225 C 
HETATM   22  C19 UNL     1      14.129  12.289   0.665  1.00  0.00     0.049 A 
HETATM   23  C20 UNL     1      13.596  14.663  -0.342  1.00  0.00     0.208 C 
HETATM   24  O4  UNL     1      13.339  15.055  -1.627  1.00  0.00    -0.381 OA
ENDBRANCH  14  15
ENDBRANCH  13  14
ENDBRANCH   8  13
BRANCH   2  25
HETATM   25  O2  UNL     1      13.786  13.506   8.475  1.00  0.00    -0.303 OA
BRANCH  25  26
HETATM   26  C2  UNL     1      12.611  14.200   8.777  1.00  0.00     0.185 C 
BRANCH  26  27
HETATM   27  C3  UNL     1      11.665  13.328   9.590  1.00  0.00     0.010 C 
HETATM   28  C4  UNL     1      11.831  13.678  11.045  1.00  0.00     0.007 C 
HETATM   29  C5  UNL     1      10.852  12.838  11.863  1.00  0.00     0.000 C 
HETATM   30  C6  UNL     1      11.227  11.391  11.654  1.00  0.00     0.000 C 
HETATM   31  C7  UNL     1      12.343  11.231  10.665  1.00  0.00     0.000 C 
HETATM   32  C8  UNL     1      12.008  11.895   9.351  1.00  0.00     0.007 C 
ENDBRANCH  26  27
ENDBRANCH  25  26
ENDBRANCH   2  25
TORSDOF 6
ENDMDL
