MODEL 1
REMARK VINA RESULT: -8.161226219      0.000      0.000
REMARK  6 active torsions:
REMARK  status: ('A' for Active; 'I' for Inactive)
REMARK    1  A    between atoms: C4_4  and  C5_5 
REMARK    2  A    between atoms: C5_5  and  C6_7 
REMARK    3  A    between atoms: C8_10  and  C9_11 
REMARK    4  A    between atoms: C9_11  and  O4_13 
REMARK    5  A    between atoms: O4_13  and  C10_14 
REMARK    6  A    between atoms: C17_21  and  C19_23 
ROOT
HETATM    1  C6  UNL     1      14.844  14.307   1.057  1.00  0.00     0.118 C 
HETATM    2  C7  UNL     1      15.609  13.932   2.042  1.00  0.00     0.186 C 
HETATM    3  O2  UNL     1      14.978  13.337   3.183  1.00  0.00    -0.307 OA
HETATM    4  C8  UNL     1      15.782  13.081   4.319  1.00  0.00     0.302 C 
HETATM    5  C22 UNL     1      16.777  14.163   4.416  1.00  0.00     0.200 C 
HETATM    6  O6  UNL     1      16.831  14.867   5.385  1.00  0.00    -0.291 OA
HETATM    7  C23 UNL     1      17.703  14.352   3.285  1.00  0.00     0.126 C 
HETATM    8  C24 UNL     1      18.860  13.391   3.487  1.00  0.00     0.055 C 
HETATM    9  C25 UNL     1      18.165  15.790   3.304  1.00  0.00     0.055 C 
HETATM   10  O7  UNL     1      16.984  14.051   2.098  1.00  0.00    -0.312 OA
ENDROOT
BRANCH   4  11
HETATM   11  C9  UNL     1      14.957  12.986   5.558  1.00  0.00     0.296 C 
HETATM   12  O3  UNL     1      14.125  13.873   5.870  1.00  0.00    -0.262 OA
BRANCH  11  13
HETATM   13  O4  UNL     1      15.092  11.903   6.403  1.00  0.00    -0.314 OA
BRANCH  13  14
HETATM   14  C10 UNL     1      15.668  10.665   6.006  1.00  0.00     0.132 C 
HETATM   15  C11 UNL     1      14.788   9.933   5.014  1.00  0.00     0.037 C 
HETATM   16  C12 UNL     1      15.631   8.797   4.439  1.00  0.00    -0.012 C 
HETATM   17  C13 UNL     1      14.908   8.117   3.298  1.00  0.00     0.010 C 
HETATM   18  C14 UNL     1      15.960   7.860   5.554  1.00  0.00    -0.005 C 
HETATM   19  C15 UNL     1      17.440   7.584   5.678  1.00  0.00     0.006 C 
HETATM   20  C20 UNL     1      15.516   8.322   6.902  1.00  0.00     0.007 C 
HETATM   21  C16 UNL     1      17.676   7.422   7.146  1.00  0.00     0.017 C 
HETATM   22  C17 UNL     1      16.315   7.385   7.817  1.00  0.00     0.013 C 
HETATM   23  C18 UNL     1      15.722   6.005   7.692  1.00  0.00     0.023 C 
HETATM   24  C21 UNL     1      15.839   9.746   7.211  1.00  0.00     0.038 C 
BRANCH  22  25
HETATM   25  C19 UNL     1      16.338   7.892   9.184  1.00  0.00     0.240 C 
HETATM   26  O5  UNL     1      15.663   7.373  10.046  1.00  0.00    -0.306 OA
ENDBRANCH  22  25
ENDBRANCH  13  14
ENDBRANCH  11  13
ENDBRANCH   4  11
BRANCH   1  27
HETATM   27  C5  UNL     1      15.257  14.921  -0.176  1.00  0.00     0.176 C 
HETATM   28  O1  UNL     1      15.781  14.150  -1.068  1.00  0.00    -0.288 OA
BRANCH  27  29
HETATM   29  C4  UNL     1      15.131  16.310  -0.490  1.00  0.00     0.057 C 
HETATM   30  C2  UNL     1      16.135  17.149  -0.457  1.00  0.00    -0.084 C 
HETATM   31  C1  UNL     1      17.496  16.764  -0.097  1.00  0.00     0.043 C 
HETATM   32  C3  UNL     1      15.910  18.606  -0.804  1.00  0.00     0.043 C 
ENDBRANCH  27  29
ENDBRANCH   1  27
TORSDOF 6
ENDMDL
MODEL 2
REMARK VINA RESULT: -8.069672909      1.055      1.321
REMARK  6 active torsions:
REMARK  status: ('A' for Active; 'I' for Inactive)
REMARK    1  A    between atoms: C4_4  and  C5_5 
REMARK    2  A    between atoms: C5_5  and  C6_7 
REMARK    3  A    between atoms: C8_10  and  C9_11 
REMARK    4  A    between atoms: C9_11  and  O4_13 
REMARK    5  A    between atoms: O4_13  and  C10_14 
REMARK    6  A    between atoms: C17_21  and  C19_23 
ROOT
HETATM    1  C6  UNL     1      14.682  15.209   1.423  1.00  0.00     0.118 C 
HETATM    2  C7  UNL     1      15.453  14.623   2.294  1.00  0.00     0.186 C 
HETATM    3  O2  UNL     1      14.824  13.918   3.372  1.00  0.00    -0.307 OA
HETATM    4  C8  UNL     1      15.652  13.424   4.407  1.00  0.00     0.302 C 
HETATM    5  C22 UNL     1      16.749  14.388   4.601  1.00  0.00     0.200 C 
HETATM    6  O6  UNL     1      16.915  14.929   5.658  1.00  0.00    -0.291 OA
HETATM    7  C23 UNL     1      17.634  14.666   3.456  1.00  0.00     0.126 C 
HETATM    8  C24 UNL     1      18.703  13.588   3.444  1.00  0.00     0.055 C 
HETATM    9  C25 UNL     1      18.231  16.039   3.658  1.00  0.00     0.055 C 
HETATM   10  O7  UNL     1      16.835  14.612   2.284  1.00  0.00    -0.312 OA
ENDROOT
BRANCH   4  11
HETATM   11  C9  UNL     1      14.881  13.213   5.666  1.00  0.00     0.296 C 
HETATM   12  O3  UNL     1      13.954  13.986   6.012  1.00  0.00    -0.262 OA
BRANCH  11  13
HETATM   13  O4  UNL     1      15.174  12.148   6.492  1.00  0.00    -0.314 OA
BRANCH  13  14
HETATM   14  C10 UNL     1      15.677  10.905   6.020  1.00  0.00     0.132 C 
HETATM   15  C11 UNL     1      14.731  10.261   5.029  1.00  0.00     0.037 C 
HETATM   16  C12 UNL     1      15.499   9.115   4.374  1.00  0.00    -0.012 C 
HETATM   17  C13 UNL     1      14.707   8.522   3.230  1.00  0.00     0.010 C 
HETATM   18  C14 UNL     1      15.820   8.113   5.434  1.00  0.00    -0.005 C 
HETATM   19  C15 UNL     1      17.288   7.763   5.494  1.00  0.00     0.006 C 
HETATM   20  C20 UNL     1      15.442   8.532   6.816  1.00  0.00     0.007 C 
HETATM   21  C16 UNL     1      17.563   7.523   6.944  1.00  0.00     0.017 C 
HETATM   22  C17 UNL     1      16.226   7.518   7.659  1.00  0.00     0.013 C 
HETATM   23  C18 UNL     1      15.564   6.174   7.494  1.00  0.00     0.023 C 
HETATM   24  C21 UNL     1      15.843   9.924   7.176  1.00  0.00     0.038 C 
BRANCH  22  25
HETATM   25  C19 UNL     1      16.317   7.959   9.046  1.00  0.00     0.240 C 
HETATM   26  O5  UNL     1      15.839   7.295   9.938  1.00  0.00    -0.306 OA
ENDBRANCH  22  25
ENDBRANCH  13  14
ENDBRANCH  11  13
ENDBRANCH   4  11
BRANCH   1  27
HETATM   27  C5  UNL     1      15.093  15.965   0.271  1.00  0.00     0.176 C 
HETATM   28  O1  UNL     1      15.714  17.075   0.489  1.00  0.00    -0.288 OA
BRANCH  27  29
HETATM   29  C4  UNL     1      14.870  15.585  -1.089  1.00  0.00     0.057 C 
HETATM   30  C2  UNL     1      15.689  14.820  -1.765  1.00  0.00    -0.084 C 
HETATM   31  C1  UNL     1      16.922  14.268  -1.210  1.00  0.00     0.043 C 
HETATM   32  C3  UNL     1      15.376  14.468  -3.204  1.00  0.00     0.043 C 
ENDBRANCH  27  29
ENDBRANCH   1  27
TORSDOF 6
ENDMDL
MODEL 3
REMARK VINA RESULT: -7.977820543      4.034      7.504
REMARK  6 active torsions:
REMARK  status: ('A' for Active; 'I' for Inactive)
REMARK    1  A    between atoms: C4_4  and  C5_5 
REMARK    2  A    between atoms: C5_5  and  C6_7 
REMARK    3  A    between atoms: C8_10  and  C9_11 
REMARK    4  A    between atoms: C9_11  and  O4_13 
REMARK    5  A    between atoms: O4_13  and  C10_14 
REMARK    6  A    between atoms: C17_21  and  C19_23 
ROOT
HETATM    1  C6  UNL     1      14.983  11.051   7.858  1.00  0.00     0.118 C 
HETATM    2  C7  UNL     1      15.264   9.830   7.503  1.00  0.00     0.186 C 
HETATM    3  O2  UNL     1      15.764   8.942   8.511  1.00  0.00    -0.307 OA
HETATM    4  C8  UNL     1      16.226   7.671   8.097  1.00  0.00     0.302 C 
HETATM    5  C22 UNL     1      16.855   7.832   6.775  1.00  0.00     0.200 C 
HETATM    6  O6  UNL     1      18.008   7.548   6.602  1.00  0.00    -0.291 OA
HETATM    7  C23 UNL     1      16.025   8.351   5.674  1.00  0.00     0.126 C 
HETATM    8  C24 UNL     1      15.282   7.171   5.077  1.00  0.00     0.055 C 
HETATM    9  C25 UNL     1      16.948   8.995   4.666  1.00  0.00     0.055 C 
HETATM   10  O7  UNL     1      15.126   9.296   6.235  1.00  0.00    -0.312 OA
ENDROOT
BRANCH   4  11
HETATM   11  C9  UNL     1      17.177   7.089   9.088  1.00  0.00     0.296 C 
HETATM   12  O3  UNL     1      18.146   7.746   9.540  1.00  0.00    -0.262 OA
BRANCH  11  13
HETATM   13  O4  UNL     1      17.010   5.795   9.536  1.00  0.00    -0.314 OA
BRANCH  13  14
HETATM   14  C10 UNL     1      18.093   4.939   9.882  1.00  0.00     0.132 C 
HETATM   15  C11 UNL     1      17.862   3.524   9.395  1.00  0.00     0.037 C 
HETATM   16  C12 UNL     1      19.192   2.788   9.547  1.00  0.00    -0.012 C 
HETATM   17  C13 UNL     1      19.122   1.418   8.912  1.00  0.00     0.010 C 
HETATM   18  C14 UNL     1      19.523   2.735  11.002  1.00  0.00    -0.005 C 
HETATM   19  C15 UNL     1      20.902   3.267  11.316  1.00  0.00     0.006 C 
HETATM   20  C20 UNL     1      18.582   3.494  11.879  1.00  0.00     0.007 C 
HETATM   21  C16 UNL     1      20.762   3.920  12.654  1.00  0.00     0.017 C 
HETATM   22  C17 UNL     1      19.385   3.567  13.184  1.00  0.00     0.013 C 
HETATM   23  C18 UNL     1      19.410   2.185  13.786  1.00  0.00     0.023 C 
HETATM   24  C21 UNL     1      18.252   4.867  11.397  1.00  0.00     0.038 C 
BRANCH  22  25
HETATM   25  C19 UNL     1      18.836   4.584  14.073  1.00  0.00     0.240 C 
HETATM   26  O5  UNL     1      18.466   4.294  15.188  1.00  0.00    -0.306 OA
ENDBRANCH  22  25
ENDBRANCH  13  14
ENDBRANCH  11  13
ENDBRANCH   4  11
BRANCH   1  27
HETATM   27  C5  UNL     1      14.473  12.102   7.021  1.00  0.00     0.176 C 
HETATM   28  O1  UNL     1      13.285  12.534   7.280  1.00  0.00    -0.288 OA
BRANCH  27  29
HETATM   29  C4  UNL     1      15.175  12.704   5.931  1.00  0.00     0.057 C 
HETATM   30  C2  UNL     1      15.917  13.775   6.057  1.00  0.00    -0.084 C 
HETATM   31  C1  UNL     1      16.112  14.478   7.322  1.00  0.00     0.043 C 
HETATM   32  C3  UNL     1      16.625  14.347   4.847  1.00  0.00     0.043 C 
ENDBRANCH  27  29
ENDBRANCH   1  27
TORSDOF 6
ENDMDL
MODEL 4
REMARK VINA RESULT: -7.902467671      1.913      3.784
REMARK  6 active torsions:
REMARK  status: ('A' for Active; 'I' for Inactive)
REMARK    1  A    between atoms: C4_4  and  C5_5 
REMARK    2  A    between atoms: C5_5  and  C6_7 
REMARK    3  A    between atoms: C8_10  and  C9_11 
REMARK    4  A    between atoms: C9_11  and  O4_13 
REMARK    5  A    between atoms: O4_13  and  C10_14 
REMARK    6  A    between atoms: C17_21  and  C19_23 
ROOT
HETATM    1  C6  UNL     1      18.329  11.307   3.313  1.00  0.00     0.118 C 
HETATM    2  C7  UNL     1      17.784  12.415   3.730  1.00  0.00     0.186 C 
HETATM    3  O2  UNL     1      17.471  12.517   5.125  1.00  0.00    -0.307 OA
HETATM    4  C8  UNL     1      16.731  13.645   5.551  1.00  0.00     0.302 C 
HETATM    5  C22 UNL     1      15.779  13.987   4.479  1.00  0.00     0.200 C 
HETATM    6  O6  UNL     1      14.597  13.990   4.682  1.00  0.00    -0.291 OA
HETATM    7  C23 UNL     1      16.325  14.324   3.153  1.00  0.00     0.126 C 
HETATM    8  C24 UNL     1      16.687  15.797   3.178  1.00  0.00     0.055 C 
HETATM    9  C25 UNL     1      15.256  14.032   2.127  1.00  0.00     0.055 C 
HETATM   10  O7  UNL     1      17.474  13.514   2.953  1.00  0.00    -0.312 OA
ENDROOT
BRANCH   4  11
HETATM   11  C9  UNL     1      16.030  13.380   6.840  1.00  0.00     0.296 C 
HETATM   12  O3  UNL     1      15.985  14.236   7.757  1.00  0.00    -0.262 OA
BRANCH  11  13
HETATM   13  O4  UNL     1      15.407  12.168   7.057  1.00  0.00    -0.314 OA
BRANCH  13  14
HETATM   14  C10 UNL     1      15.831  10.950   6.459  1.00  0.00     0.132 C 
HETATM   15  C11 UNL     1      14.814  10.434   5.463  1.00  0.00     0.037 C 
HETATM   16  C12 UNL     1      15.500   9.317   4.678  1.00  0.00    -0.012 C 
HETATM   17  C13 UNL     1      14.633   8.859   3.527  1.00  0.00     0.010 C 
HETATM   18  C14 UNL     1      15.820   8.215   5.634  1.00  0.00    -0.005 C 
HETATM   19  C15 UNL     1      17.272   7.800   5.595  1.00  0.00     0.006 C 
HETATM   20  C20 UNL     1      15.522   8.529   7.063  1.00  0.00     0.007 C 
HETATM   21  C16 UNL     1      17.598   7.424   7.005  1.00  0.00     0.017 C 
HETATM   22  C17 UNL     1      16.294   7.414   7.780  1.00  0.00     0.013 C 
HETATM   23  C18 UNL     1      15.564   6.118   7.533  1.00  0.00     0.023 C 
HETATM   24  C21 UNL     1      16.002   9.867   7.519  1.00  0.00     0.038 C 
BRANCH  22  25
HETATM   25  C19 UNL     1      16.466   7.730   9.193  1.00  0.00     0.240 C 
HETATM   26  O5  UNL     1      15.687   7.309  10.019  1.00  0.00    -0.306 OA
ENDBRANCH  22  25
ENDBRANCH  13  14
ENDBRANCH  11  13
ENDBRANCH   4  11
BRANCH   1  27
HETATM   27  C5  UNL     1      18.724  10.988   1.968  1.00  0.00     0.176 C 
HETATM   28  O1  UNL     1      19.930  11.291   1.624  1.00  0.00    -0.288 OA
BRANCH  27  29
HETATM   29  C4  UNL     1      17.891  10.363   0.988  1.00  0.00     0.057 C 
HETATM   30  C2  UNL     1      17.633   9.080   0.977  1.00  0.00    -0.084 C 
HETATM   31  C1  UNL     1      18.164   8.141   1.961  1.00  0.00     0.043 C 
HETATM   32  C3  UNL     1      16.740   8.501  -0.100  1.00  0.00     0.043 C 
ENDBRANCH  27  29
ENDBRANCH   1  27
TORSDOF 6
ENDMDL
MODEL 5
REMARK VINA RESULT: -7.836787434      1.844      8.748
REMARK  6 active torsions:
REMARK  status: ('A' for Active; 'I' for Inactive)
REMARK    1  A    between atoms: C4_4  and  C5_5 
REMARK    2  A    between atoms: C5_5  and  C6_7 
REMARK    3  A    between atoms: C8_10  and  C9_11 
REMARK    4  A    between atoms: C9_11  and  O4_13 
REMARK    5  A    between atoms: O4_13  and  C10_14 
REMARK    6  A    between atoms: C17_21  and  C19_23 
ROOT
HETATM    1  C6  UNL     1      15.948   8.038   8.305  1.00  0.00     0.118 C 
HETATM    2  C7  UNL     1      16.088   8.809   7.264  1.00  0.00     0.186 C 
HETATM    3  O2  UNL     1      15.696  10.181   7.396  1.00  0.00    -0.307 OA
HETATM    4  C8  UNL     1      15.688  10.978   6.226  1.00  0.00     0.302 C 
HETATM    5  C22 UNL     1      15.272  10.120   5.103  1.00  0.00     0.200 C 
HETATM    6  O6  UNL     1      14.293  10.379   4.460  1.00  0.00    -0.291 OA
HETATM    7  C23 UNL     1      16.095   8.938   4.796  1.00  0.00     0.126 C 
HETATM    8  C24 UNL     1      17.231   9.401   3.903  1.00  0.00     0.055 C 
HETATM    9  C25 UNL     1      15.212   7.932   4.095  1.00  0.00     0.055 C 
HETATM   10  O7  UNL     1      16.582   8.432   6.030  1.00  0.00    -0.312 OA
ENDROOT
BRANCH   4  11
HETATM   11  C9  UNL     1      14.787  12.157   6.378  1.00  0.00     0.296 C 
HETATM   12  O3  UNL     1      13.694  12.080   6.990  1.00  0.00    -0.262 OA
BRANCH  11  13
HETATM   13  O4  UNL     1      15.140  13.377   5.839  1.00  0.00    -0.314 OA
BRANCH  13  14
HETATM   14  C10 UNL     1      15.994  13.518   4.711  1.00  0.00     0.132 C 
HETATM   15  C11 UNL     1      16.571  14.915   4.620  1.00  0.00     0.037 C 
HETATM   16  C12 UNL     1      17.685  14.860   3.576  1.00  0.00    -0.012 C 
HETATM   17  C13 UNL     1      18.455  16.161   3.543  1.00  0.00     0.010 C 
HETATM   18  C14 UNL     1      17.064  14.523   2.260  1.00  0.00    -0.005 C 
HETATM   19  C15 UNL     1      17.712  13.336   1.587  1.00  0.00     0.006 C 
HETATM   20  C20 UNL     1      15.606  14.211   2.326  1.00  0.00     0.007 C 
HETATM   21  C16 UNL     1      16.594  12.646   0.873  1.00  0.00     0.017 C 
HETATM   22  C17 UNL     1      15.380  13.553   0.958  1.00  0.00     0.013 C 
HETATM   23  C18 UNL     1      15.474  14.631  -0.091  1.00  0.00     0.023 C 
HETATM   24  C21 UNL     1      15.218  13.274   3.421  1.00  0.00     0.038 C 
BRANCH  22  25
HETATM   25  C19 UNL     1      14.118  12.824   0.937  1.00  0.00     0.240 C 
HETATM   26  O5  UNL     1      13.224  13.158   0.192  1.00  0.00    -0.306 OA
ENDBRANCH  22  25
ENDBRANCH  13  14
ENDBRANCH  11  13
ENDBRANCH   4  11
BRANCH   1  27
HETATM   27  C5  UNL     1      16.274   6.641   8.399  1.00  0.00     0.176 C 
HETATM   28  O1  UNL     1      15.500   5.815   7.780  1.00  0.00    -0.288 OA
BRANCH  27  29
HETATM   29  C4  UNL     1      17.384   6.098   9.119  1.00  0.00     0.057 C 
HETATM   30  C2  UNL     1      18.552   5.871   8.575  1.00  0.00    -0.084 C 
HETATM   31  C1  UNL     1      18.857   6.143   7.174  1.00  0.00     0.043 C 
HETATM   32  C3  UNL     1      19.673   5.292   9.413  1.00  0.00     0.043 C 
ENDBRANCH  27  29
ENDBRANCH   1  27
TORSDOF 6
ENDMDL
