MODEL 1
REMARK VINA RESULT: -7.865438042      0.000      0.000
REMARK  13 active torsions:
REMARK  status: ('A' for Active; 'I' for Inactive)
REMARK    1  A    between atoms: C2_2  and  C3_3 
REMARK    2  A    between atoms: C3_3  and  C4_4 
REMARK    3  A    between atoms: C4_4  and  O2_6 
REMARK    4  A    between atoms: O2_6  and  C5_7 
REMARK    5  A    between atoms: C10_14  and  C11_15 
REMARK    6  A    between atoms: C11_15  and  C12_16 
REMARK    7  A    between atoms: C12_16  and  O3_17 
REMARK    8  A    between atoms: O3_17  and  C13_18 
REMARK    9  A    between atoms: C15_21  and  C16_22 
REMARK   10  A    between atoms: C16_22  and  O6_27 
REMARK   11  A    between atoms: N2_23  and  O5_25 
REMARK   12  A    between atoms: O6_27  and  C17_28 
REMARK   13  A    between atoms: C19_30  and  O7_31 
ROOT
HETATM    1  C12 UNL     1      23.145 -12.921  28.911  1.00  0.00     0.175 C 
ENDROOT
BRANCH   1   2
HETATM    2  C11 UNL     1      24.305 -12.334  28.138  1.00  0.00     0.067 C 
BRANCH   2   3
HETATM    3  C10 UNL     1      25.605 -12.936  28.440  1.00  0.00    -0.025 A 
HETATM    4  C9  UNL     1      25.938 -14.290  28.332  1.00  0.00     0.096 A 
HETATM    5  N1  UNL     1      27.222 -14.465  28.659  1.00  0.00    -0.365 N 
HETATM    6  C8  UNL     1      27.765 -13.282  28.985  1.00  0.00     0.046 A 
ATOM      7  H1  UNL     1      27.713 -15.360  28.661  1.00  0.00     0.165 HD
HETATM    8  C7  UNL     1      29.025 -12.882  29.401  1.00  0.00     0.033 A 
HETATM    9  C23 UNL     1      26.759 -12.316  28.851  1.00  0.00     0.040 A 
HETATM   10  C6  UNL     1      29.276 -11.549  29.680  1.00  0.00     0.043 A 
HETATM   11  C5  UNL     1      28.303 -10.583  29.558  1.00  0.00     0.118 A 
HETATM   12  C24 UNL     1      27.045 -11.004  29.139  1.00  0.00     0.163 A 
HETATM   13  F1  UNL     1      26.088 -10.039  29.042  1.00  0.00    -0.202 F 
BRANCH  11  14
HETATM   14  O2  UNL     1      28.519  -9.243  29.830  1.00  0.00    -0.276 OA
BRANCH  14  15
HETATM   15  C4  UNL     1      28.501  -8.690  31.109  1.00  0.00     0.264 C 
HETATM   16  O1  UNL     1      27.778  -7.695  31.309  1.00  0.00    -0.265 OA
BRANCH  15  17
HETATM   17  C3  UNL     1      29.311  -9.248  32.217  1.00  0.00     0.111 C 
BRANCH  17  18
HETATM   18  C2  UNL     1      30.793  -9.013  32.002  1.00  0.00     0.005 C 
HETATM   19  C1  UNL     1      31.624 -10.141  32.549  1.00  0.00     0.005 C 
ENDBRANCH  17  18
ENDBRANCH  15  17
ENDBRANCH  14  15
ENDBRANCH  11  14
ENDBRANCH   2   3
ENDBRANCH   1   2
BRANCH   1  20
HETATM   20  O3  UNL     1      23.556 -12.998  30.239  1.00  0.00    -0.360 OA
BRANCH  20  21
HETATM   21  C13 UNL     1      22.701 -12.312  31.104  1.00  0.00     0.275 C 
HETATM   22  O4  UNL     1      22.293 -11.123  30.480  1.00  0.00    -0.331 OA
HETATM   23  C14 UNL     1      22.958  -9.893  30.669  1.00  0.00     0.152 C 
HETATM   24  C15 UNL     1      23.407  -9.671  31.886  1.00  0.00     0.046 C 
HETATM   25  C19 UNL     1      23.146 -10.702  32.910  1.00  0.00     0.170 C 
HETATM   26  C20 UNL     1      23.528 -12.040  32.364  1.00  0.00     0.033 C 
HETATM   27  C21 UNL     1      25.007 -12.114  32.089  1.00  0.00     0.023 C 
HETATM   28  C22 UNL     1      23.228 -13.084  33.428  1.00  0.00     0.023 C 
BRANCH  24  29
HETATM   29  C16 UNL     1      24.122  -8.402  32.182  1.00  0.00     0.172 C 
HETATM   30  N2  UNL     1      25.174  -8.427  32.908  1.00  0.00    -0.247 N 
ATOM     31  H2  UNL     1      25.440  -9.356  33.233  1.00  0.00     0.196 HD
BRANCH  30  32
HETATM   32  O5  UNL     1      25.982  -7.448  33.313  1.00  0.00    -0.288 OA
ATOM     33  H5  UNL     1      26.869  -7.226  33.058  1.00  0.00     0.244 HD
ENDBRANCH  30  32
BRANCH  29  34
HETATM   34  O6  UNL     1      23.665  -7.218  31.683  1.00  0.00    -0.334 OA
BRANCH  34  35
HETATM   35  C17 UNL     1      22.444  -6.646  31.925  1.00  0.00     0.173 C 
HETATM   36  C18 UNL     1      21.514  -6.449  30.775  1.00  0.00     0.034 C 
ENDBRANCH  34  35
ENDBRANCH  29  34
ENDBRANCH  24  29
BRANCH  25  37
HETATM   37  O7  UNL     1      23.780 -10.422  34.120  1.00  0.00    -0.390 OA
ATOM     38  H7  UNL     1      23.889 -11.197  34.660  1.00  0.00     0.210 HD
ENDBRANCH  25  37
ENDBRANCH  20  21
ENDBRANCH   1  20
TORSDOF 13
ENDMDL
MODEL 2
REMARK VINA RESULT: -7.828482443      6.348      9.203
REMARK  13 active torsions:
REMARK  status: ('A' for Active; 'I' for Inactive)
REMARK    1  A    between atoms: C2_2  and  C3_3 
REMARK    2  A    between atoms: C3_3  and  C4_4 
REMARK    3  A    between atoms: C4_4  and  O2_6 
REMARK    4  A    between atoms: O2_6  and  C5_7 
REMARK    5  A    between atoms: C10_14  and  C11_15 
REMARK    6  A    between atoms: C11_15  and  C12_16 
REMARK    7  A    between atoms: C12_16  and  O3_17 
REMARK    8  A    between atoms: O3_17  and  C13_18 
REMARK    9  A    between atoms: C15_21  and  C16_22 
REMARK   10  A    between atoms: C16_22  and  O6_27 
REMARK   11  A    between atoms: N2_23  and  O5_25 
REMARK   12  A    between atoms: O6_27  and  C17_28 
REMARK   13  A    between atoms: C19_30  and  O7_31 
ROOT
HETATM    1  C12 UNL     1      21.717 -15.405  34.480  1.00  0.00     0.175 C 
ENDROOT
BRANCH   1   2
HETATM    2  C11 UNL     1      22.895 -14.612  33.959  1.00  0.00     0.067 C 
BRANCH   2   3
HETATM    3  C10 UNL     1      23.049 -14.633  32.503  1.00  0.00    -0.025 A 
HETATM    4  C9  UNL     1      23.338 -15.752  31.715  1.00  0.00     0.096 A 
HETATM    5  N1  UNL     1      23.371 -15.398  30.427  1.00  0.00    -0.365 N 
HETATM    6  C8  UNL     1      23.117 -14.085  30.318  1.00  0.00     0.046 A 
ATOM      7  H1  UNL     1      23.560 -16.029  29.647  1.00  0.00     0.165 HD
HETATM    8  C7  UNL     1      23.037 -13.204  29.251  1.00  0.00     0.033 A 
HETATM    9  C23 UNL     1      22.914 -13.595  31.616  1.00  0.00     0.040 A 
HETATM   10  C6  UNL     1      22.763 -11.865  29.472  1.00  0.00     0.043 A 
HETATM   11  C5  UNL     1      22.561 -11.361  30.737  1.00  0.00     0.118 A 
HETATM   12  C24 UNL     1      22.646 -12.261  31.794  1.00  0.00     0.163 A 
HETATM   13  F1  UNL     1      22.464 -11.742  33.042  1.00  0.00    -0.202 F 
BRANCH  11  14
HETATM   14  O2  UNL     1      22.287 -10.029  30.994  1.00  0.00    -0.276 OA
BRANCH  14  15
HETATM   15  C4  UNL     1      23.047  -8.965  30.511  1.00  0.00     0.264 C 
HETATM   16  O1  UNL     1      22.655  -8.383  29.481  1.00  0.00    -0.265 OA
BRANCH  15  17
HETATM   17  C3  UNL     1      24.290  -8.519  31.183  1.00  0.00     0.111 C 
BRANCH  17  18
HETATM   18  C2  UNL     1      24.032  -8.104  32.619  1.00  0.00     0.005 C 
HETATM   19  C1  UNL     1      24.379  -9.200  33.588  1.00  0.00     0.005 C 
ENDBRANCH  17  18
ENDBRANCH  15  17
ENDBRANCH  14  15
ENDBRANCH  11  14
ENDBRANCH   2   3
ENDBRANCH   1   2
BRANCH   1  20
HETATM   20  O3  UNL     1      22.238 -16.355  35.355  1.00  0.00    -0.360 OA
BRANCH  20  21
HETATM   21  C13 UNL     1      21.286 -16.825  36.262  1.00  0.00     0.275 C 
HETATM   22  O4  UNL     1      21.803 -16.696  37.560  1.00  0.00    -0.331 OA
HETATM   23  C14 UNL     1      22.485 -17.742  38.218  1.00  0.00     0.152 C 
HETATM   24  C15 UNL     1      22.014 -18.952  38.003  1.00  0.00     0.046 C 
HETATM   25  C19 UNL     1      20.828 -19.079  37.134  1.00  0.00     0.170 C 
HETATM   26  C20 UNL     1      21.052 -18.290  35.884  1.00  0.00     0.033 C 
HETATM   27  C21 UNL     1      22.197 -18.851  35.083  1.00  0.00     0.023 C 
HETATM   28  C22 UNL     1      19.808 -18.419  35.019  1.00  0.00     0.023 C 
BRANCH  24  29
HETATM   29  C16 UNL     1      22.668 -20.117  38.654  1.00  0.00     0.172 C 
HETATM   30  N2  UNL     1      23.503 -20.822  37.989  1.00  0.00    -0.247 N 
ATOM     31  H2  UNL     1      23.653 -20.506  37.031  1.00  0.00     0.196 HD
BRANCH  30  32
HETATM   32  O5  UNL     1      24.211 -21.896  38.334  1.00  0.00    -0.288 OA
ATOM     33  H5  UNL     1      25.072 -22.189  38.062  1.00  0.00     0.244 HD
ENDBRANCH  30  32
BRANCH  29  34
HETATM   34  O6  UNL     1      22.385 -20.436  39.949  1.00  0.00    -0.334 OA
BRANCH  34  35
HETATM   35  C17 UNL     1      21.373 -21.249  40.387  1.00  0.00     0.173 C 
HETATM   36  C18 UNL     1      21.699 -22.309  41.385  1.00  0.00     0.034 C 
ENDBRANCH  34  35
ENDBRANCH  29  34
ENDBRANCH  24  29
BRANCH  25  37
HETATM   37  O7  UNL     1      20.502 -20.409  36.870  1.00  0.00    -0.390 OA
ATOM     38  H7  UNL     1      19.636 -20.639  37.186  1.00  0.00     0.210 HD
ENDBRANCH  25  37
ENDBRANCH  20  21
ENDBRANCH   1  20
TORSDOF 13
ENDMDL
MODEL 3
REMARK VINA RESULT: -7.809386195      2.341      5.404
REMARK  13 active torsions:
REMARK  status: ('A' for Active; 'I' for Inactive)
REMARK    1  A    between atoms: C2_2  and  C3_3 
REMARK    2  A    between atoms: C3_3  and  C4_4 
REMARK    3  A    between atoms: C4_4  and  O2_6 
REMARK    4  A    between atoms: O2_6  and  C5_7 
REMARK    5  A    between atoms: C10_14  and  C11_15 
REMARK    6  A    between atoms: C11_15  and  C12_16 
REMARK    7  A    between atoms: C12_16  and  O3_17 
REMARK    8  A    between atoms: O3_17  and  C13_18 
REMARK    9  A    between atoms: C15_21  and  C16_22 
REMARK   10  A    between atoms: C16_22  and  O6_27 
REMARK   11  A    between atoms: N2_23  and  O5_25 
REMARK   12  A    between atoms: O6_27  and  C17_28 
REMARK   13  A    between atoms: C19_30  and  O7_31 
ROOT
HETATM    1  C12 UNL     1      24.728  -7.913  31.944  1.00  0.00     0.175 C 
ENDROOT
BRANCH   1   2
HETATM    2  C11 UNL     1      25.924  -8.645  32.510  1.00  0.00     0.067 C 
BRANCH   2   3
HETATM    3  C10 UNL     1      27.101  -8.658  31.639  1.00  0.00    -0.025 A 
HETATM    4  C9  UNL     1      27.858  -7.547  31.250  1.00  0.00     0.096 A 
HETATM    5  N1  UNL     1      28.875  -7.943  30.480  1.00  0.00    -0.365 N 
HETATM    6  C8  UNL     1      28.831  -9.277  30.333  1.00  0.00     0.046 A 
ATOM      7  H1  UNL     1      29.577  -7.328  30.066  1.00  0.00     0.165 HD
HETATM    8  C7  UNL     1      29.610 -10.197  29.650  1.00  0.00     0.033 A 
HETATM    9  C23 UNL     1      27.721  -9.734  31.056  1.00  0.00     0.040 A 
HETATM   10  C6  UNL     1      29.288 -11.544  29.684  1.00  0.00     0.043 A 
HETATM   11  C5  UNL     1      28.202 -12.017  30.386  1.00  0.00     0.118 A 
HETATM   12  C24 UNL     1      27.433 -11.077  31.065  1.00  0.00     0.163 A 
HETATM   13  F1  UNL     1      26.350 -11.559  31.738  1.00  0.00    -0.202 F 
BRANCH  11  14
HETATM   14  O2  UNL     1      27.851 -13.354  30.440  1.00  0.00    -0.276 OA
BRANCH  14  15
HETATM   15  C4  UNL     1      28.058 -14.262  29.403  1.00  0.00     0.264 C 
HETATM   16  O1  UNL     1      27.129 -14.453  28.595  1.00  0.00    -0.265 OA
BRANCH  15  17
HETATM   17  C3  UNL     1      29.337 -14.993  29.243  1.00  0.00     0.111 C 
BRANCH  17  18
HETATM   18  C2  UNL     1      30.083 -15.111  30.558  1.00  0.00     0.005 C 
HETATM   19  C1  UNL     1      30.887 -16.379  30.634  1.00  0.00     0.005 C 
ENDBRANCH  17  18
ENDBRANCH  15  17
ENDBRANCH  14  15
ENDBRANCH  11  14
ENDBRANCH   2   3
ENDBRANCH   1   2
BRANCH   1  20
HETATM   20  O3  UNL     1      24.440  -8.517  30.722  1.00  0.00    -0.360 OA
BRANCH  20  21
HETATM   21  C13 UNL     1      23.168  -9.093  30.699  1.00  0.00     0.275 C 
HETATM   22  O4  UNL     1      23.022  -9.902  31.837  1.00  0.00    -0.331 OA
HETATM   23  C14 UNL     1      23.304 -11.285  31.833  1.00  0.00     0.152 C 
HETATM   24  C15 UNL     1      22.971 -11.930  30.735  1.00  0.00     0.046 C 
HETATM   25  C19 UNL     1      22.324 -11.156  29.657  1.00  0.00     0.170 C 
HETATM   26  C20 UNL     1      23.115  -9.913  29.406  1.00  0.00     0.033 C 
HETATM   27  C21 UNL     1      24.494 -10.238  28.894  1.00  0.00     0.023 C 
HETATM   28  C22 UNL     1      22.416  -9.124  28.310  1.00  0.00     0.023 C 
BRANCH  24  29
HETATM   29  C16 UNL     1      23.228 -13.390  30.638  1.00  0.00     0.172 C 
HETATM   30  N2  UNL     1      24.130 -13.817  29.838  1.00  0.00    -0.247 N 
ATOM     31  H2  UNL     1      24.612 -13.086  29.315  1.00  0.00     0.196 HD
BRANCH  30  32
HETATM   32  O5  UNL     1      24.547 -15.053  29.568  1.00  0.00    -0.288 OA
ATOM     33  H5  UNL     1      25.277 -15.366  29.047  1.00  0.00     0.244 HD
ENDBRANCH  30  32
BRANCH  29  34
HETATM   34  O6  UNL     1      22.516 -14.271  31.395  1.00  0.00    -0.334 OA
BRANCH  34  35
HETATM   35  C17 UNL     1      22.954 -14.925  32.517  1.00  0.00     0.173 C 
HETATM   36  C18 UNL     1      22.639 -14.333  33.850  1.00  0.00     0.034 C 
ENDBRANCH  34  35
ENDBRANCH  29  34
ENDBRANCH  24  29
BRANCH  25  37
HETATM   37  O7  UNL     1      22.139 -11.910  28.498  1.00  0.00    -0.390 OA
ATOM     38  H7  UNL     1      22.923 -11.945  27.961  1.00  0.00     0.210 HD
ENDBRANCH  25  37
ENDBRANCH  20  21
ENDBRANCH   1  20
TORSDOF 13
ENDMDL
MODEL 4
REMARK VINA RESULT: -7.642408253      2.384      5.580
REMARK  13 active torsions:
REMARK  status: ('A' for Active; 'I' for Inactive)
REMARK    1  A    between atoms: C2_2  and  C3_3 
REMARK    2  A    between atoms: C3_3  and  C4_4 
REMARK    3  A    between atoms: C4_4  and  O2_6 
REMARK    4  A    between atoms: O2_6  and  C5_7 
REMARK    5  A    between atoms: C10_14  and  C11_15 
REMARK    6  A    between atoms: C11_15  and  C12_16 
REMARK    7  A    between atoms: C12_16  and  O3_17 
REMARK    8  A    between atoms: O3_17  and  C13_18 
REMARK    9  A    between atoms: C15_21  and  C16_22 
REMARK   10  A    between atoms: C16_22  and  O6_27 
REMARK   11  A    between atoms: N2_23  and  O5_25 
REMARK   12  A    between atoms: O6_27  and  C17_28 
REMARK   13  A    between atoms: C19_30  and  O7_31 
ROOT
HETATM    1  C12 UNL     1      25.472  -8.086  32.916  1.00  0.00     0.175 C 
ENDROOT
BRANCH   1   2
HETATM    2  C11 UNL     1      26.473  -7.677  31.858  1.00  0.00     0.067 C 
BRANCH   2   3
HETATM    3  C10 UNL     1      27.732  -8.424  31.888  1.00  0.00    -0.025 A 
HETATM    4  C9  UNL     1      28.811  -8.198  32.750  1.00  0.00     0.096 A 
HETATM    5  N1  UNL     1      29.773  -9.093  32.511  1.00  0.00    -0.365 N 
HETATM    6  C8  UNL     1      29.385  -9.911  31.520  1.00  0.00     0.046 A 
ATOM      7  H1  UNL     1      30.665  -9.146  33.004  1.00  0.00     0.165 HD
HETATM    8  C7  UNL     1      29.973 -10.986  30.872  1.00  0.00     0.033 A 
HETATM    9  C23 UNL     1      28.106  -9.499  31.122  1.00  0.00     0.040 A 
HETATM   10  C6  UNL     1      29.302 -11.634  29.849  1.00  0.00     0.043 A 
HETATM   11  C5  UNL     1      28.046 -11.247  29.440  1.00  0.00     0.118 A 
HETATM   12  C24 UNL     1      27.473 -10.166  30.102  1.00  0.00     0.163 A 
HETATM   13  F1  UNL     1      26.238  -9.782  29.672  1.00  0.00    -0.202 F 
BRANCH  11  14
HETATM   14  O2  UNL     1      27.348 -11.871  28.421  1.00  0.00    -0.276 OA
BRANCH  14  15
HETATM   15  C4  UNL     1      27.048 -13.232  28.395  1.00  0.00     0.264 C 
HETATM   16  O1  UNL     1      26.460 -13.723  29.379  1.00  0.00    -0.265 OA
BRANCH  15  17
HETATM   17  C3  UNL     1      27.407 -14.094  27.245  1.00  0.00     0.111 C 
BRANCH  17  18
HETATM   18  C2  UNL     1      28.909 -14.175  27.053  1.00  0.00     0.005 C 
HETATM   19  C1  UNL     1      29.559 -15.050  28.088  1.00  0.00     0.005 C 
ENDBRANCH  17  18
ENDBRANCH  15  17
ENDBRANCH  14  15
ENDBRANCH  11  14
ENDBRANCH   2   3
ENDBRANCH   1   2
BRANCH   1  20
HETATM   20  O3  UNL     1      25.127  -9.407  32.640  1.00  0.00    -0.360 OA
BRANCH  20  21
HETATM   21  C13 UNL     1      23.802  -9.693  32.972  1.00  0.00     0.275 C 
HETATM   22  O4  UNL     1      23.770 -10.218  34.273  1.00  0.00    -0.331 OA
HETATM   23  C14 UNL     1      23.805 -11.603  34.540  1.00  0.00     0.152 C 
HETATM   24  C15 UNL     1      23.137 -12.362  33.696  1.00  0.00     0.046 C 
HETATM   25  C19 UNL     1      22.414 -11.690  32.598  1.00  0.00     0.170 C 
HETATM   26  C20 UNL     1      23.332 -10.715  31.933  1.00  0.00     0.033 C 
HETATM   27  C21 UNL     1      24.492 -11.419  31.278  1.00  0.00     0.023 C 
HETATM   28  C22 UNL     1      22.557 -10.022  30.824  1.00  0.00     0.023 C 
BRANCH  24  29
HETATM   29  C16 UNL     1      23.116 -13.834  33.894  1.00  0.00     0.172 C 
HETATM   30  N2  UNL     1      23.903 -14.573  33.209  1.00  0.00    -0.247 N 
ATOM     31  H2  UNL     1      24.502 -14.063  32.560  1.00  0.00     0.196 HD
BRANCH  30  32
HETATM   32  O5  UNL     1      24.076 -15.893  33.198  1.00  0.00    -0.288 OA
ATOM     33  H5  UNL     1      24.784 -16.427  32.856  1.00  0.00     0.244 HD
ENDBRANCH  30  32
BRANCH  29  34
HETATM   34  O6  UNL     1      22.268 -14.398  34.801  1.00  0.00    -0.334 OA
BRANCH  34  35
HETATM   35  C17 UNL     1      21.505 -15.522  34.617  1.00  0.00     0.173 C 
HETATM   36  C18 UNL     1      21.535 -16.579  35.670  1.00  0.00     0.034 C 
ENDBRANCH  34  35
ENDBRANCH  29  34
ENDBRANCH  24  29
BRANCH  25  37
HETATM   37  O7  UNL     1      21.858 -12.596  31.695  1.00  0.00    -0.390 OA
ATOM     38  H7  UNL     1      21.891 -12.280  30.799  1.00  0.00     0.210 HD
ENDBRANCH  25  37
ENDBRANCH  20  21
ENDBRANCH   1  20
TORSDOF 13
ENDMDL
MODEL 5
REMARK VINA RESULT: -7.481673133      2.904      7.714
REMARK  13 active torsions:
REMARK  status: ('A' for Active; 'I' for Inactive)
REMARK    1  A    between atoms: C2_2  and  C3_3 
REMARK    2  A    between atoms: C3_3  and  C4_4 
REMARK    3  A    between atoms: C4_4  and  O2_6 
REMARK    4  A    between atoms: O2_6  and  C5_7 
REMARK    5  A    between atoms: C10_14  and  C11_15 
REMARK    6  A    between atoms: C11_15  and  C12_16 
REMARK    7  A    between atoms: C12_16  and  O3_17 
REMARK    8  A    between atoms: O3_17  and  C13_18 
REMARK    9  A    between atoms: C15_21  and  C16_22 
REMARK   10  A    between atoms: C16_22  and  O6_27 
REMARK   11  A    between atoms: N2_23  and  O5_25 
REMARK   12  A    between atoms: O6_27  and  C17_28 
REMARK   13  A    between atoms: C19_30  and  O7_31 
ROOT
HETATM    1  C12 UNL     1      23.951 -10.161  28.779  1.00  0.00     0.175 C 
ENDROOT
BRANCH   1   2
HETATM    2  C11 UNL     1      22.914  -9.897  29.848  1.00  0.00     0.067 C 
BRANCH   2   3
HETATM    3  C10 UNL     1      23.464  -9.611  31.174  1.00  0.00    -0.025 A 
HETATM    4  C9  UNL     1      24.225  -8.494  31.534  1.00  0.00     0.096 A 
HETATM    5  N1  UNL     1      24.524  -8.553  32.835  1.00  0.00    -0.365 N 
HETATM    6  C8  UNL     1      23.996  -9.667  33.364  1.00  0.00     0.046 A 
ATOM      7  H1  UNL     1      25.069  -7.858  33.347  1.00  0.00     0.165 HD
HETATM    8  C7  UNL     1      24.000 -10.228  34.631  1.00  0.00     0.033 A 
HETATM    9  C23 UNL     1      23.329 -10.339  32.330  1.00  0.00     0.040 A 
HETATM   10  C6  UNL     1      23.355 -11.431  34.863  1.00  0.00     0.043 A 
HETATM   11  C5  UNL     1      22.695 -12.110  33.863  1.00  0.00     0.118 A 
HETATM   12  C24 UNL     1      22.703 -11.531  32.598  1.00  0.00     0.163 A 
HETATM   13  F1  UNL     1      22.063 -12.225  31.615  1.00  0.00    -0.202 F 
BRANCH  11  14
HETATM   14  O2  UNL     1      22.043 -13.315  34.059  1.00  0.00    -0.276 OA
BRANCH  14  15
HETATM   15  C4  UNL     1      22.668 -14.560  34.021  1.00  0.00     0.264 C 
HETATM   16  O1  UNL     1      23.909 -14.591  33.911  1.00  0.00    -0.265 OA
BRANCH  15  17
HETATM   17  C3  UNL     1      21.903 -15.826  34.106  1.00  0.00     0.111 C 
BRANCH  17  18
HETATM   18  C2  UNL     1      21.555 -16.174  35.541  1.00  0.00     0.005 C 
HETATM   19  C1  UNL     1      21.881 -17.606  35.863  1.00  0.00     0.005 C 
ENDBRANCH  17  18
ENDBRANCH  15  17
ENDBRANCH  14  15
ENDBRANCH  11  14
ENDBRANCH   2   3
ENDBRANCH   1   2
BRANCH   1  20
HETATM   20  O3  UNL     1      24.908 -10.993  29.356  1.00  0.00    -0.360 OA
BRANCH  20  21
HETATM   21  C13 UNL     1      26.156 -10.876  28.743  1.00  0.00     0.275 C 
HETATM   22  O4  UNL     1      26.310 -11.935  27.835  1.00  0.00    -0.331 OA
HETATM   23  C14 UNL     1      26.942 -13.149  28.176  1.00  0.00     0.152 C 
HETATM   24  C15 UNL     1      27.982 -13.044  28.976  1.00  0.00     0.046 C 
HETATM   25  C19 UNL     1      28.384 -11.688  29.400  1.00  0.00     0.170 C 
HETATM   26  C20 UNL     1      27.178 -10.950  29.882  1.00  0.00     0.033 C 
HETATM   27  C21 UNL     1      26.598 -11.598  31.112  1.00  0.00     0.023 C 
HETATM   28  C22 UNL     1      27.615  -9.551  30.289  1.00  0.00     0.023 C 
BRANCH  24  29
HETATM   29  C16 UNL     1      28.713 -14.270  29.391  1.00  0.00     0.172 C 
HETATM   30  N2  UNL     1      29.208 -14.339  30.568  1.00  0.00    -0.247 N 
ATOM     31  H2  UNL     1      29.049 -13.510  31.142  1.00  0.00     0.196 HD
BRANCH  30  32
HETATM   32  O5  UNL     1      29.895 -15.306  31.174  1.00  0.00    -0.288 OA
ATOM     33  H5  UNL     1      30.662 -15.793  30.899  1.00  0.00     0.244 HD
ENDBRANCH  30  32
BRANCH  29  34
HETATM   34  O6  UNL     1      28.855 -15.316  28.529  1.00  0.00    -0.334 OA
BRANCH  34  35
HETATM   35  C17 UNL     1      29.892 -15.521  27.657  1.00  0.00     0.173 C 
HETATM   36  C18 UNL     1      30.898 -16.572  27.987  1.00  0.00     0.034 C 
ENDBRANCH  34  35
ENDBRANCH  29  34
ENDBRANCH  24  29
BRANCH  25  37
HETATM   37  O7  UNL     1      29.408 -11.709  30.346  1.00  0.00    -0.390 OA
ATOM     38  H7  UNL     1      29.411 -10.931  30.892  1.00  0.00     0.210 HD
ENDBRANCH  25  37
ENDBRANCH  20  21
ENDBRANCH   1  20
TORSDOF 13
ENDMDL
