MODEL 1
REMARK VINA RESULT: -8.126473620      0.000      0.000
REMARK  10 active torsions:
REMARK  status: ('A' for Active; 'I' for Inactive)
REMARK    1  A    between atoms: C2_2  and  C3_3 
REMARK    2  A    between atoms: C3_3  and  N1_4 
REMARK    3  A    between atoms: C4_7  and  C5_8 
REMARK    4  A    between atoms: C11_15  and  C12_16 
REMARK    5  A    between atoms: C13_18  and  C14_19 
REMARK    6  A    between atoms: C19_30  and  C20_31 
REMARK    7  A    between atoms: C20_31  and  C21_32 
REMARK    8  A    between atoms: C21_32  and  C22_33 
REMARK    9  A    between atoms: C22_33  and  O3_34 
REMARK   10  A    between atoms: C23_36  and  C24_37 
ROOT
HETATM    1  C14 UNL     1      24.233 -11.477  29.839  1.00  0.00     0.148 C 
HETATM    2  C15 UNL     1      22.778 -11.509  29.444  1.00  0.00     0.170 C 
HETATM    3  N3  UNL     1      22.443 -10.593  28.355  1.00  0.00    -0.353 N 
ATOM      4  H3  UNL     1      21.476 -10.577  28.033  1.00  0.00     0.163 HD
HETATM    5  C16 UNL     1      23.345  -9.742  27.728  1.00  0.00     0.213 C 
HETATM    6  N4  UNL     1      23.002  -8.986  26.745  1.00  0.00    -0.365 N 
ATOM      7  H41 UNL     1      23.664  -8.362  26.284  1.00  0.00     0.159 HD
ATOM      8  H42 UNL     1      22.039  -9.009  26.410  1.00  0.00     0.159 HD
HETATM    9  O2  UNL     1      24.635  -9.712  28.176  1.00  0.00    -0.314 OA
HETATM   10  C17 UNL     1      24.848 -10.160  29.526  1.00  0.00     0.175 C 
HETATM   11  C18 UNL     1      24.257  -9.021  30.336  1.00  0.00     0.043 C 
HETATM   12  C19 UNL     1      24.112  -9.305  31.772  1.00  0.00     0.017 C 
HETATM   13  C23 UNL     1      23.596 -10.681  31.986  1.00  0.00     0.127 C 
HETATM   14  O4  UNL     1      24.138 -11.632  31.248  1.00  0.00    -0.364 OA
ENDROOT
BRANCH   1  15
HETATM   15  C13 UNL     1      25.057 -12.633  29.433  1.00  0.00     0.078 A 
HETATM   16  N1  UNL     1      24.741 -13.790  28.882  1.00  0.00    -0.292 N 
HETATM   17  N2  UNL     1      25.843 -14.474  28.639  1.00  0.00    -0.295 N 
HETATM   18  C4  UNL     1      26.974 -13.806  29.023  1.00  0.00     0.093 A 
ATOM     19  H2  UNL     1      25.851 -15.400  28.212  1.00  0.00     0.187 HD
HETATM   20  C11 UNL     1      26.493 -12.639  29.526  1.00  0.00     0.029 A 
BRANCH  16  21
HETATM   21  C3  UNL     1      23.499 -14.402  28.593  1.00  0.00     0.148 C 
BRANCH  21  22
HETATM   22  C2  UNL     1      23.525 -15.942  28.636  1.00  0.00     0.017 C 
HETATM   23  C1  UNL     1      22.925 -16.536  27.389  1.00  0.00     0.007 C 
ENDBRANCH  21  22
ENDBRANCH  16  21
BRANCH  18  24
HETATM   24  C5  UNL     1      28.271 -14.468  28.908  1.00  0.00     0.110 A 
HETATM   25  O1  UNL     1      28.921 -14.822  30.069  1.00  0.00    -0.313 OA
HETATM   26  C6  UNL     1      30.046 -15.384  29.794  1.00  0.00     0.050 A 
HETATM   27  C7  UNL     1      31.090 -15.934  30.716  1.00  0.00     0.076 C 
HETATM   28  C8  UNL     1      30.197 -15.428  28.433  1.00  0.00     0.042 A 
HETATM   29  C9  UNL     1      29.044 -14.830  27.884  1.00  0.00    -0.023 A 
HETATM   30  C10 UNL     1      28.924 -14.636  26.404  1.00  0.00     0.051 C 
ENDBRANCH  18  24
BRANCH  20  31
HETATM   31  C12 UNL     1      27.369 -11.582  30.055  1.00  0.00     0.265 C 
HETATM   32  F1  UNL     1      27.274 -11.505  31.464  1.00  0.00    -0.250 F 
ENDBRANCH  20  31
ENDBRANCH   1  15
BRANCH  13  33
HETATM   33  C24 UNL     1      24.052 -11.029  33.441  1.00  0.00     0.028 C 
HETATM   34  C25 UNL     1      22.892 -11.673  34.145  1.00  0.00     0.007 C 
ENDBRANCH  13  33
BRANCH  12  35
HETATM   35  C20 UNL     1      23.336  -8.236  32.475  1.00  0.00     0.009 C 
BRANCH  35  36
HETATM   36  C21 UNL     1      23.202  -6.948  31.739  1.00  0.00     0.027 C 
BRANCH  36  37
HETATM   37  C22 UNL     1      21.695  -6.722  31.534  1.00  0.00     0.164 C 
BRANCH  37  38
HETATM   38  O3  UNL     1      21.406  -7.085  30.238  1.00  0.00    -0.401 OA
ATOM     39  H3  UNL     1      20.467  -7.214  30.188  1.00  0.00     0.209 HD
ENDBRANCH  37  38
ENDBRANCH  36  37
ENDBRANCH  35  36
ENDBRANCH  12  35
TORSDOF 10
ENDMDL
MODEL 2
REMARK VINA RESULT: -7.935734420      2.178      3.344
REMARK  10 active torsions:
REMARK  status: ('A' for Active; 'I' for Inactive)
REMARK    1  A    between atoms: C2_2  and  C3_3 
REMARK    2  A    between atoms: C3_3  and  N1_4 
REMARK    3  A    between atoms: C4_7  and  C5_8 
REMARK    4  A    between atoms: C11_15  and  C12_16 
REMARK    5  A    between atoms: C13_18  and  C14_19 
REMARK    6  A    between atoms: C19_30  and  C20_31 
REMARK    7  A    between atoms: C20_31  and  C21_32 
REMARK    8  A    between atoms: C21_32  and  C22_33 
REMARK    9  A    between atoms: C22_33  and  O3_34 
REMARK   10  A    between atoms: C23_36  and  C24_37 
ROOT
HETATM    1  C14 UNL     1      25.946 -11.000  29.622  1.00  0.00     0.148 C 
HETATM    2  C15 UNL     1      26.727  -9.854  29.029  1.00  0.00     0.170 C 
HETATM    3  N3  UNL     1      27.565  -9.150  29.998  1.00  0.00    -0.353 N 
ATOM      4  H3  UNL     1      28.129  -8.372  29.657  1.00  0.00     0.163 HD
HETATM    5  C16 UNL     1      27.650  -9.462  31.349  1.00  0.00     0.213 C 
HETATM    6  N4  UNL     1      28.439  -8.834  32.149  1.00  0.00    -0.365 N 
ATOM      7  H41 UNL     1      28.501  -9.064  33.140  1.00  0.00     0.159 HD
ATOM      8  H42 UNL     1      29.023  -8.082  31.784  1.00  0.00     0.159 HD
HETATM    9  O2  UNL     1      26.867 -10.470  31.838  1.00  0.00    -0.314 OA
HETATM   10  C17 UNL     1      25.693 -10.789  31.071  1.00  0.00     0.175 C 
HETATM   11  C18 UNL     1      24.798  -9.596  31.350  1.00  0.00     0.043 C 
HETATM   12  C19 UNL     1      23.600  -9.520  30.500  1.00  0.00     0.017 C 
HETATM   13  C23 UNL     1      23.932  -9.855  29.092  1.00  0.00     0.127 C 
HETATM   14  O4  UNL     1      24.722 -10.896  28.908  1.00  0.00    -0.364 OA
ENDROOT
BRANCH   1  15
HETATM   15  C13 UNL     1      26.409 -12.362  29.288  1.00  0.00     0.078 A 
HETATM   16  N1  UNL     1      25.753 -13.469  28.996  1.00  0.00    -0.292 N 
HETATM   17  N2  UNL     1      26.615 -14.423  28.698  1.00  0.00    -0.295 N 
HETATM   18  C4  UNL     1      27.915 -14.004  28.781  1.00  0.00     0.093 A 
ATOM     19  H2  UNL     1      26.342 -15.370  28.436  1.00  0.00     0.187 HD
HETATM   20  C11 UNL     1      27.801 -12.701  29.152  1.00  0.00     0.029 A 
BRANCH  16  21
HETATM   21  C3  UNL     1      24.376 -13.796  29.013  1.00  0.00     0.148 C 
BRANCH  21  22
HETATM   22  C2  UNL     1      23.798 -14.035  30.421  1.00  0.00     0.017 C 
HETATM   23  C1  UNL     1      22.600 -13.160  30.678  1.00  0.00     0.007 C 
ENDBRANCH  21  22
ENDBRANCH  16  21
BRANCH  18  24
HETATM   24  C5  UNL     1      28.993 -14.967  28.574  1.00  0.00     0.110 A 
HETATM   25  O1  UNL     1      29.143 -15.509  27.317  1.00  0.00    -0.313 OA
HETATM   26  C6  UNL     1      30.126 -16.339  27.305  1.00  0.00     0.050 A 
HETATM   27  C7  UNL     1      30.668 -17.164  26.178  1.00  0.00     0.076 C 
HETATM   28  C8  UNL     1      30.676 -16.390  28.559  1.00  0.00     0.042 A 
HETATM   29  C9  UNL     1      29.929 -15.501  29.359  1.00  0.00    -0.023 A 
HETATM   30  C10 UNL     1      30.215 -15.378  30.824  1.00  0.00     0.051 C 
ENDBRANCH  18  24
BRANCH  20  31
HETATM   31  C12 UNL     1      28.968 -11.828  29.353  1.00  0.00     0.265 C 
HETATM   32  F1  UNL     1      29.571 -12.069  30.609  1.00  0.00    -0.250 F 
ENDBRANCH  20  31
ENDBRANCH   1  15
BRANCH  13  33
HETATM   33  C24 UNL     1      22.565 -10.308  28.483  1.00  0.00     0.028 C 
HETATM   34  C25 UNL     1      22.170  -9.302  27.440  1.00  0.00     0.007 C 
ENDBRANCH  13  33
BRANCH  12  35
HETATM   35  C20 UNL     1      22.874  -8.224  30.675  1.00  0.00     0.009 C 
BRANCH  35  36
HETATM   36  C21 UNL     1      23.352  -7.364  31.793  1.00  0.00     0.027 C 
BRANCH  36  37
HETATM   37  C22 UNL     1      22.149  -6.510  32.228  1.00  0.00     0.164 C 
BRANCH  37  38
HETATM   38  O3  UNL     1      21.100  -6.842  31.401  1.00  0.00    -0.401 OA
ATOM     39  H3  UNL     1      20.850  -6.051  30.938  1.00  0.00     0.209 HD
ENDBRANCH  37  38
ENDBRANCH  36  37
ENDBRANCH  35  36
ENDBRANCH  12  35
TORSDOF 10
ENDMDL
MODEL 3
REMARK VINA RESULT: -7.908379279      0.791      1.352
REMARK  10 active torsions:
REMARK  status: ('A' for Active; 'I' for Inactive)
REMARK    1  A    between atoms: C2_2  and  C3_3 
REMARK    2  A    between atoms: C3_3  and  N1_4 
REMARK    3  A    between atoms: C4_7  and  C5_8 
REMARK    4  A    between atoms: C11_15  and  C12_16 
REMARK    5  A    between atoms: C13_18  and  C14_19 
REMARK    6  A    between atoms: C19_30  and  C20_31 
REMARK    7  A    between atoms: C20_31  and  C21_32 
REMARK    8  A    between atoms: C21_32  and  C22_33 
REMARK    9  A    between atoms: C22_33  and  O3_34 
REMARK   10  A    between atoms: C23_36  and  C24_37 
ROOT
HETATM    1  C14 UNL     1      24.215 -11.597  29.778  1.00  0.00     0.148 C 
HETATM    2  C15 UNL     1      22.756 -11.571  29.396  1.00  0.00     0.170 C 
HETATM    3  N3  UNL     1      22.444 -10.624  28.327  1.00  0.00    -0.353 N 
ATOM      4  H3  UNL     1      21.475 -10.568  28.014  1.00  0.00     0.163 HD
HETATM    5  C16 UNL     1      23.370  -9.794  27.707  1.00  0.00     0.213 C 
HETATM    6  N4  UNL     1      23.046  -9.009  26.740  1.00  0.00    -0.365 N 
ATOM      7  H41 UNL     1      23.726  -8.400  26.285  1.00  0.00     0.159 HD
ATOM      8  H42 UNL     1      22.080  -8.992  26.414  1.00  0.00     0.159 HD
HETATM    9  O2  UNL     1      24.665  -9.817  28.143  1.00  0.00    -0.314 OA
HETATM   10  C17 UNL     1      24.873 -10.297  29.483  1.00  0.00     0.175 C 
HETATM   11  C18 UNL     1      24.330  -9.153  30.318  1.00  0.00     0.043 C 
HETATM   12  C19 UNL     1      24.186  -9.458  31.751  1.00  0.00     0.017 C 
HETATM   13  C23 UNL     1      23.624 -10.818  31.945  1.00  0.00     0.127 C 
HETATM   14  O4  UNL     1      24.126 -11.774  31.185  1.00  0.00    -0.364 OA
ENDROOT
BRANCH   1  15
HETATM   15  C13 UNL     1      24.994 -12.774  29.344  1.00  0.00     0.078 A 
HETATM   16  N1  UNL     1      24.624 -13.965  28.914  1.00  0.00    -0.292 N 
HETATM   17  N2  UNL     1      25.693 -14.660  28.576  1.00  0.00    -0.295 N 
HETATM   18  C4  UNL     1      26.856 -13.964  28.767  1.00  0.00     0.093 A 
ATOM     19  H2  UNL     1      25.658 -15.611  28.211  1.00  0.00     0.187 HD
HETATM   20  C11 UNL     1      26.429 -12.768  29.252  1.00  0.00     0.029 A 
BRANCH  16  21
HETATM   21  C3  UNL     1      23.362 -14.599  28.827  1.00  0.00     0.148 C 
BRANCH  21  22
HETATM   22  C2  UNL     1      22.986 -15.071  27.408  1.00  0.00     0.017 C 
HETATM   23  C1  UNL     1      22.844 -16.569  27.348  1.00  0.00     0.007 C 
ENDBRANCH  21  22
ENDBRANCH  16  21
BRANCH  18  24
HETATM   24  C5  UNL     1      28.136 -14.627  28.529  1.00  0.00     0.110 A 
HETATM   25  O1  UNL     1      28.349 -15.195  27.292  1.00  0.00    -0.313 OA
HETATM   26  C6  UNL     1      29.514 -15.741  27.249  1.00  0.00     0.050 A 
HETATM   27  C7  UNL     1      30.186 -16.471  26.128  1.00  0.00     0.076 C 
HETATM   28  C8  UNL     1      30.129 -15.563  28.460  1.00  0.00     0.042 A 
HETATM   29  C9  UNL     1      29.223 -14.847  29.268  1.00  0.00    -0.023 A 
HETATM   30  C10 UNL     1      29.552 -14.557  30.700  1.00  0.00     0.051 C 
ENDBRANCH  18  24
BRANCH  20  31
HETATM   31  C12 UNL     1      27.353 -11.676  29.596  1.00  0.00     0.265 C 
HETATM   32  F1  UNL     1      27.549 -11.600  30.994  1.00  0.00    -0.250 F 
ENDBRANCH  20  31
ENDBRANCH   1  15
BRANCH  13  33
HETATM   33  C24 UNL     1      24.080 -11.209  33.389  1.00  0.00     0.028 C 
HETATM   34  C25 UNL     1      22.902 -11.819  34.094  1.00  0.00     0.007 C 
ENDBRANCH  13  33
BRANCH  12  35
HETATM   35  C20 UNL     1      23.455  -8.375  32.479  1.00  0.00     0.009 C 
BRANCH  35  36
HETATM   36  C21 UNL     1      23.372  -7.066  31.774  1.00  0.00     0.027 C 
BRANCH  36  37
HETATM   37  C22 UNL     1      21.875  -6.739  31.644  1.00  0.00     0.164 C 
BRANCH  37  38
HETATM   38  O3  UNL     1      21.490  -7.110  30.377  1.00  0.00    -0.401 OA
ATOM     39  H3  UNL     1      21.846  -6.464  29.777  1.00  0.00     0.209 HD
ENDBRANCH  37  38
ENDBRANCH  36  37
ENDBRANCH  35  36
ENDBRANCH  12  35
TORSDOF 10
ENDMDL
MODEL 4
REMARK VINA RESULT: -7.852579497      1.850      3.398
REMARK  10 active torsions:
REMARK  status: ('A' for Active; 'I' for Inactive)
REMARK    1  A    between atoms: C2_2  and  C3_3 
REMARK    2  A    between atoms: C3_3  and  N1_4 
REMARK    3  A    between atoms: C4_7  and  C5_8 
REMARK    4  A    between atoms: C11_15  and  C12_16 
REMARK    5  A    between atoms: C13_18  and  C14_19 
REMARK    6  A    between atoms: C19_30  and  C20_31 
REMARK    7  A    between atoms: C20_31  and  C21_32 
REMARK    8  A    between atoms: C21_32  and  C22_33 
REMARK    9  A    between atoms: C22_33  and  O3_34 
REMARK   10  A    between atoms: C23_36  and  C24_37 
ROOT
HETATM    1  C14 UNL     1      25.448 -11.101  30.509  1.00  0.00     0.148 C 
HETATM    2  C15 UNL     1      24.223 -11.909  30.158  1.00  0.00     0.170 C 
HETATM    3  N3  UNL     1      23.609 -11.525  28.888  1.00  0.00    -0.353 N 
ATOM      4  H3  UNL     1      22.784 -12.042  28.587  1.00  0.00     0.163 HD
HETATM    5  C16 UNL     1      24.067 -10.506  28.061  1.00  0.00     0.213 C 
HETATM    6  N4  UNL     1      23.511 -10.240  26.932  1.00  0.00    -0.365 N 
ATOM      7  H41 UNL     1      23.847  -9.492  26.325  1.00  0.00     0.159 HD
ATOM      8  H42 UNL     1      22.708 -10.791  26.629  1.00  0.00     0.159 HD
HETATM    9  O2  UNL     1      25.143  -9.768  28.467  1.00  0.00    -0.314 OA
HETATM   10  C17 UNL     1      25.405  -9.755  29.882  1.00  0.00     0.175 C 
HETATM   11  C18 UNL     1      24.274  -8.891  30.406  1.00  0.00     0.043 C 
HETATM   12  C19 UNL     1      24.136  -8.890  31.871  1.00  0.00     0.017 C 
HETATM   13  C23 UNL     1      24.303 -10.261  32.415  1.00  0.00     0.127 C 
HETATM   14  O4  UNL     1      25.297 -10.973  31.916  1.00  0.00    -0.364 OA
ENDROOT
BRANCH   1  15
HETATM   15  C13 UNL     1      26.752 -11.781  30.377  1.00  0.00     0.078 A 
HETATM   16  N1  UNL     1      27.931 -11.538  30.917  1.00  0.00    -0.292 N 
HETATM   17  N2  UNL     1      28.784 -12.474  30.546  1.00  0.00    -0.295 N 
HETATM   18  C4  UNL     1      28.216 -13.407  29.721  1.00  0.00     0.093 A 
ATOM     19  H2  UNL     1      29.759 -12.500  30.842  1.00  0.00     0.187 HD
HETATM   20  C11 UNL     1      26.931 -12.983  29.606  1.00  0.00     0.029 A 
BRANCH  16  21
HETATM   21  C3  UNL     1      28.414 -10.476  31.718  1.00  0.00     0.148 C 
BRANCH  21  22
HETATM   22  C2  UNL     1      29.537  -9.648  31.063  1.00  0.00     0.017 C 
HETATM   23  C1  UNL     1      28.996  -8.744  29.987  1.00  0.00     0.007 C 
ENDBRANCH  21  22
ENDBRANCH  16  21
BRANCH  18  24
HETATM   24  C5  UNL     1      29.052 -14.459  29.147  1.00  0.00     0.110 A 
HETATM   25  O1  UNL     1      28.972 -14.678  27.790  1.00  0.00    -0.313 OA
HETATM   26  C6  UNL     1      29.761 -15.636  27.448  1.00  0.00     0.050 A 
HETATM   27  C7  UNL     1      30.018 -16.227  26.095  1.00  0.00     0.076 C 
HETATM   28  C8  UNL     1      30.401 -16.101  28.566  1.00  0.00     0.042 A 
HETATM   29  C9  UNL     1      29.927 -15.331  29.648  1.00  0.00    -0.023 A 
HETATM   30  C10 UNL     1      30.365 -15.639  31.046  1.00  0.00     0.051 C 
ENDBRANCH  18  24
BRANCH  20  31
HETATM   31  C12 UNL     1      25.926 -13.702  28.807  1.00  0.00     0.265 C 
HETATM   32  F1  UNL     1      26.170 -15.095  28.823  1.00  0.00    -0.250 F 
ENDBRANCH  20  31
ENDBRANCH   1  15
BRANCH  13  33
HETATM   33  C24 UNL     1      24.722 -10.024  33.904  1.00  0.00     0.028 C 
HETATM   34  C25 UNL     1      23.673 -10.645  34.781  1.00  0.00     0.007 C 
ENDBRANCH  13  33
BRANCH  12  35
HETATM   35  C20 UNL     1      22.886  -8.196  32.312  1.00  0.00     0.009 C 
BRANCH  35  36
HETATM   36  C21 UNL     1      22.858  -6.722  32.102  1.00  0.00     0.027 C 
BRANCH  36  37
HETATM   37  C22 UNL     1      21.882  -6.467  30.942  1.00  0.00     0.164 C 
BRANCH  37  38
HETATM   38  O3  UNL     1      20.623  -6.369  31.489  1.00  0.00    -0.401 OA
ATOM     39  H3  UNL     1      20.332  -5.474  31.358  1.00  0.00     0.209 HD
ENDBRANCH  37  38
ENDBRANCH  36  37
ENDBRANCH  35  36
ENDBRANCH  12  35
TORSDOF 10
ENDMDL
MODEL 5
REMARK VINA RESULT: -7.832299327      2.196      3.965
REMARK  10 active torsions:
REMARK  status: ('A' for Active; 'I' for Inactive)
REMARK    1  A    between atoms: C2_2  and  C3_3 
REMARK    2  A    between atoms: C3_3  and  N1_4 
REMARK    3  A    between atoms: C4_7  and  C5_8 
REMARK    4  A    between atoms: C11_15  and  C12_16 
REMARK    5  A    between atoms: C13_18  and  C14_19 
REMARK    6  A    between atoms: C19_30  and  C20_31 
REMARK    7  A    between atoms: C20_31  and  C21_32 
REMARK    8  A    between atoms: C21_32  and  C22_33 
REMARK    9  A    between atoms: C22_33  and  O3_34 
REMARK   10  A    between atoms: C23_36  and  C24_37 
ROOT
HETATM    1  C14 UNL     1      25.714 -11.162  30.748  1.00  0.00     0.148 C 
HETATM    2  C15 UNL     1      24.669 -11.998  31.443  1.00  0.00     0.170 C 
HETATM    3  N3  UNL     1      23.584 -12.435  30.565  1.00  0.00    -0.353 N 
ATOM      4  H3  UNL     1      22.852 -13.015  30.972  1.00  0.00     0.163 HD
HETATM    5  C16 UNL     1      23.479 -12.117  29.216  1.00  0.00     0.213 C 
HETATM    6  N4  UNL     1      22.523 -12.566  28.481  1.00  0.00    -0.365 N 
ATOM      7  H41 UNL     1      22.446 -12.333  27.491  1.00  0.00     0.159 HD
ATOM      8  H42 UNL     1      21.818 -13.175  28.895  1.00  0.00     0.159 HD
HETATM    9  O2  UNL     1      24.424 -11.302  28.660  1.00  0.00    -0.314 OA
HETATM   10  C17 UNL     1      25.145 -10.454  29.572  1.00  0.00     0.175 C 
HETATM   11  C18 UNL     1      24.094  -9.427  29.949  1.00  0.00     0.043 C 
HETATM   12  C19 UNL     1      24.470  -8.552  31.069  1.00  0.00     0.017 C 
HETATM   13  C23 UNL     1      25.130  -9.332  32.147  1.00  0.00     0.127 C 
HETATM   14  O4  UNL     1      26.029 -10.219  31.762  1.00  0.00    -0.364 OA
ENDROOT
BRANCH   1  15
HETATM   15  C13 UNL     1      27.014 -11.811  30.483  1.00  0.00     0.078 A 
HETATM   16  N1  UNL     1      28.248 -11.478  30.813  1.00  0.00    -0.292 N 
HETATM   17  N2  UNL     1      29.078 -12.420  30.406  1.00  0.00    -0.295 N 
HETATM   18  C4  UNL     1      28.439 -13.448  29.768  1.00  0.00     0.093 A 
ATOM     19  H2  UNL     1      30.087 -12.386  30.551  1.00  0.00     0.187 HD
HETATM   20  C11 UNL     1      27.132 -13.077  29.810  1.00  0.00     0.029 A 
BRANCH  16  21
HETATM   21  C3  UNL     1      28.795 -10.327  31.427  1.00  0.00     0.148 C 
BRANCH  21  22
HETATM   22  C2  UNL     1      30.323 -10.195  31.281  1.00  0.00     0.017 C 
HETATM   23  C1  UNL     1      30.916  -9.398  32.412  1.00  0.00     0.007 C 
ENDBRANCH  21  22
ENDBRANCH  16  21
BRANCH  18  24
HETATM   24  C5  UNL     1      29.227 -14.524  29.175  1.00  0.00     0.110 A 
HETATM   25  O1  UNL     1      29.132 -14.722  27.815  1.00  0.00    -0.313 OA
HETATM   26  C6  UNL     1      29.878 -15.707  27.456  1.00  0.00     0.050 A 
HETATM   27  C7  UNL     1      30.103 -16.289  26.094  1.00  0.00     0.076 C 
HETATM   28  C8  UNL     1      30.505 -16.213  28.564  1.00  0.00     0.042 A 
HETATM   29  C9  UNL     1      30.068 -15.439  29.659  1.00  0.00    -0.023 A 
HETATM   30  C10 UNL     1      30.500 -15.784  31.050  1.00  0.00     0.051 C 
ENDBRANCH  18  24
BRANCH  20  31
HETATM   31  C12 UNL     1      26.054 -13.904  29.245  1.00  0.00     0.265 C 
HETATM   32  F1  UNL     1      26.073 -13.862  27.831  1.00  0.00    -0.250 F 
ENDBRANCH  20  31
ENDBRANCH   1  15
BRANCH  13  33
HETATM   33  C24 UNL     1      25.966  -8.263  32.925  1.00  0.00     0.028 C 
HETATM   34  C25 UNL     1      26.812  -7.525  31.927  1.00  0.00     0.007 C 
ENDBRANCH  13  33
BRANCH  12  35
HETATM   35  C20 UNL     1      23.322  -7.710  31.529  1.00  0.00     0.009 C 
BRANCH  35  36
HETATM   36  C21 UNL     1      22.151  -7.662  30.610  1.00  0.00     0.027 C 
BRANCH  36  37
HETATM   37  C22 UNL     1      21.327  -6.430  31.022  1.00  0.00     0.164 C 
BRANCH  37  38
HETATM   38  O3  UNL     1      20.656  -6.001  29.900  1.00  0.00    -0.401 OA
ATOM     39  H3  UNL     1      19.827  -5.640  30.193  1.00  0.00     0.209 HD
ENDBRANCH  37  38
ENDBRANCH  36  37
ENDBRANCH  35  36
ENDBRANCH  12  35
TORSDOF 10
ENDMDL
