MODEL 1
REMARK VINA RESULT: -7.350617797      0.000      0.000
REMARK  11 active torsions:
REMARK  status: ('A' for Active; 'I' for Inactive)
REMARK    1  A    between atoms: C2_2  and  O1_3 
REMARK    2  A    between atoms: O1_3  and  C3_4 
REMARK    3  A    between atoms: C6_7  and  C7_8 
REMARK    4  A    between atoms: C7_8  and  C8_9 
REMARK    5  A    between atoms: C8_9  and  C9_10 
REMARK    6  A    between atoms: C13_21  and  C14_23 
REMARK    7  A    between atoms: C14_23  and  O4_25 
REMARK    8  A    between atoms: C17_28  and  O5_29 
REMARK    9  A    between atoms: O5_29  and  C18_30 
REMARK   10  A    between atoms: C18_30  and  C19_31 
REMARK   11  A    between atoms: C19_31  and  C20_32 
ROOT
HETATM    1  C8  UNL     1      23.683 -13.436  30.088  1.00  0.00     0.041 C 
ENDROOT
BRANCH   1   2
HETATM    2  C7  UNL     1      24.324 -12.892  28.857  1.00  0.00     0.041 C 
BRANCH   2   3
HETATM    3  C6  UNL     1      25.726 -13.440  28.759  1.00  0.00    -0.055 A 
HETATM    4  C5  UNL     1      25.994 -14.617  28.100  1.00  0.00     0.010 A 
HETATM    5  C4  UNL     1      27.304 -15.096  28.028  1.00  0.00     0.040 A 
HETATM    6  C3  UNL     1      28.366 -14.432  28.598  1.00  0.00     0.102 A 
HETATM    7  C17 UNL     1      28.083 -13.241  29.264  1.00  0.00     0.102 A 
HETATM    8  C16 UNL     1      26.789 -12.790  29.322  1.00  0.00     0.046 A 
BRANCH   6   9
HETATM    9  O1  UNL     1      29.662 -14.891  28.535  1.00  0.00    -0.349 OA
BRANCH   9  10
HETATM   10  C2  UNL     1      30.198 -16.049  29.066  1.00  0.00     0.171 C 
HETATM   11  C1  UNL     1      30.577 -15.816  30.503  1.00  0.00     0.034 C 
ENDBRANCH   9  10
ENDBRANCH   6   9
BRANCH   7  12
HETATM   12  O5  UNL     1      29.157 -12.580  29.835  1.00  0.00    -0.348 OA
BRANCH  12  13
HETATM   13  C18 UNL     1      29.424 -11.217  29.647  1.00  0.00     0.176 C 
BRANCH  13  14
HETATM   14  C19 UNL     1      29.708 -10.557  30.967  1.00  0.00     0.035 C 
BRANCH  14  15
HETATM   15  C20 UNL     1      28.869  -9.347  31.218  1.00  0.00    -0.050 C 
HETATM   16  C21 UNL     1      27.396  -9.645  31.269  1.00  0.00     0.014 C 
HETATM   17  C22 UNL     1      29.302  -8.768  32.565  1.00  0.00     0.014 C 
HETATM   18  C23 UNL     1      29.125  -8.343  30.129  1.00  0.00     0.014 C 
ENDBRANCH  14  15
ENDBRANCH  13  14
ENDBRANCH  12  13
ENDBRANCH   7  12
ENDBRANCH   2   3
ENDBRANCH   1   2
BRANCH   1  19
HETATM   19  C9  UNL     1      23.430 -12.426  31.143  1.00  0.00     0.185 C 
HETATM   20  O2  UNL     1      23.571 -11.127  30.580  1.00  0.00    -0.313 OA
HETATM   21  C10 UNL     1      23.733  -9.998  31.352  1.00  0.00     0.214 C 
HETATM   22  N1  UNL     1      23.647  -8.841  30.811  1.00  0.00    -0.365 N 
HETATM   23  N2  UNL     1      23.994 -10.170  32.740  1.00  0.00    -0.334 N 
ATOM     24  H12 UNL     1      23.459  -8.718  29.816  1.00  0.00     0.159 HD
ATOM     25  H11 UNL     1      23.767  -8.005  31.383  1.00  0.00     0.159 HD
HETATM   26  C11 UNL     1      23.718 -11.442  33.359  1.00  0.00     0.139 A 
ATOM     27  H2  UNL     1      24.373  -9.401  33.292  1.00  0.00     0.164 HD
HETATM   28  C12 UNL     1      22.308 -11.715  33.879  1.00  0.00     0.123 A 
HETATM   29  S1  UNL     1      23.675 -11.627  35.046  1.00  0.00    -0.130 SA
HETATM   30  C13 UNL     1      24.231 -12.532  32.390  1.00  0.00     0.251 C 
HETATM   31  F1  UNL     1      25.537 -12.176  32.134  1.00  0.00    -0.225 F 
BRANCH  30  32
HETATM   32  C14 UNL     1      24.110 -13.791  33.126  1.00  0.00     0.305 C 
HETATM   33  O3  UNL     1      24.958 -14.331  33.851  1.00  0.00    -0.261 OA
BRANCH  32  34
HETATM   34  O4  UNL     1      22.876 -14.459  32.982  1.00  0.00    -0.324 OA
HETATM   35  C15 UNL     1      22.413 -15.378  33.926  1.00  0.00     0.213 C 
ENDBRANCH  32  34
ENDBRANCH  30  32
ENDBRANCH   1  19
TORSDOF 11
ENDMDL
MODEL 2
REMARK VINA RESULT: -7.309311146      1.796      3.232
REMARK  11 active torsions:
REMARK  status: ('A' for Active; 'I' for Inactive)
REMARK    1  A    between atoms: C2_2  and  O1_3 
REMARK    2  A    between atoms: O1_3  and  C3_4 
REMARK    3  A    between atoms: C6_7  and  C7_8 
REMARK    4  A    between atoms: C7_8  and  C8_9 
REMARK    5  A    between atoms: C8_9  and  C9_10 
REMARK    6  A    between atoms: C13_21  and  C14_23 
REMARK    7  A    between atoms: C14_23  and  O4_25 
REMARK    8  A    between atoms: C17_28  and  O5_29 
REMARK    9  A    between atoms: O5_29  and  C18_30 
REMARK   10  A    between atoms: C18_30  and  C19_31 
REMARK   11  A    between atoms: C19_31  and  C20_32 
ROOT
HETATM    1  C8  UNL     1      23.359 -12.140  29.117  1.00  0.00     0.041 C 
ENDROOT
BRANCH   1   2
HETATM    2  C7  UNL     1      24.267 -11.892  27.961  1.00  0.00     0.041 C 
BRANCH   2   3
HETATM    3  C6  UNL     1      25.569 -12.615  28.204  1.00  0.00    -0.055 A 
HETATM    4  C5  UNL     1      25.677 -13.976  28.036  1.00  0.00     0.010 A 
HETATM    5  C4  UNL     1      26.897 -14.615  28.270  1.00  0.00     0.040 A 
HETATM    6  C3  UNL     1      28.023 -13.932  28.669  1.00  0.00     0.102 A 
HETATM    7  C17 UNL     1      27.902 -12.555  28.836  1.00  0.00     0.102 A 
HETATM    8  C16 UNL     1      26.695 -11.949  28.602  1.00  0.00     0.046 A 
BRANCH   6   9
HETATM    9  O1  UNL     1      29.233 -14.548  28.902  1.00  0.00    -0.349 OA
BRANCH   9  10
HETATM   10  C2  UNL     1      29.870 -15.518  28.152  1.00  0.00     0.171 C 
HETATM   11  C1  UNL     1      30.735 -16.362  29.047  1.00  0.00     0.034 C 
ENDBRANCH   9  10
ENDBRANCH   6   9
BRANCH   7  12
HETATM   12  O5  UNL     1      29.040 -11.876  29.238  1.00  0.00    -0.348 OA
BRANCH  12  13
HETATM   13  C18 UNL     1      29.420 -11.714  30.578  1.00  0.00     0.176 C 
BRANCH  13  14
HETATM   14  C19 UNL     1      28.623 -10.609  31.213  1.00  0.00     0.035 C 
BRANCH  14  15
HETATM   15  C20 UNL     1      29.412  -9.361  31.434  1.00  0.00    -0.050 C 
HETATM   16  C21 UNL     1      30.843  -9.621  31.815  1.00  0.00     0.014 C 
HETATM   17  C22 UNL     1      29.387  -8.572  30.124  1.00  0.00     0.014 C 
HETATM   18  C23 UNL     1      28.756  -8.557  32.522  1.00  0.00     0.014 C 
ENDBRANCH  14  15
ENDBRANCH  13  14
ENDBRANCH  12  13
ENDBRANCH   7  12
ENDBRANCH   2   3
ENDBRANCH   1   2
BRANCH   1  19
HETATM   19  C9  UNL     1      23.909 -11.717  30.428  1.00  0.00     0.185 C 
HETATM   20  O2  UNL     1      24.045 -12.863  31.260  1.00  0.00    -0.313 OA
HETATM   21  C10 UNL     1      24.202 -12.772  32.625  1.00  0.00     0.214 C 
HETATM   22  N1  UNL     1      24.527 -13.813  33.298  1.00  0.00    -0.365 N 
HETATM   23  N2  UNL     1      23.994 -11.506  33.239  1.00  0.00    -0.334 N 
ATOM     24  H12 UNL     1      24.676 -14.721  32.858  1.00  0.00     0.159 HD
ATOM     25  H11 UNL     1      24.643 -13.745  34.309  1.00  0.00     0.159 HD
HETATM   26  C11 UNL     1      23.999 -10.316  32.426  1.00  0.00     0.139 A 
ATOM     27  H2  UNL     1      23.843 -11.440  34.246  1.00  0.00     0.164 HD
HETATM   28  C12 UNL     1      25.333  -9.636  32.127  1.00  0.00     0.123 A 
HETATM   29  S1  UNL     1      24.100  -8.765  33.106  1.00  0.00    -0.130 SA
HETATM   30  C13 UNL     1      23.184 -10.642  31.153  1.00  0.00     0.251 C 
HETATM   31  F1  UNL     1      21.985 -11.129  31.629  1.00  0.00    -0.225 F 
BRANCH  30  32
HETATM   32  C14 UNL     1      23.048  -9.368  30.445  1.00  0.00     0.305 C 
HETATM   33  O3  UNL     1      23.819  -8.880  29.606  1.00  0.00    -0.261 OA
BRANCH  32  34
HETATM   34  O4  UNL     1      21.898  -8.618  30.766  1.00  0.00    -0.324 OA
HETATM   35  C15 UNL     1      21.859  -7.227  30.646  1.00  0.00     0.213 C 
ENDBRANCH  32  34
ENDBRANCH  30  32
ENDBRANCH   1  19
TORSDOF 11
ENDMDL
MODEL 3
REMARK VINA RESULT: -7.183459731      2.204      4.835
REMARK  11 active torsions:
REMARK  status: ('A' for Active; 'I' for Inactive)
REMARK    1  A    between atoms: C2_2  and  O1_3 
REMARK    2  A    between atoms: O1_3  and  C3_4 
REMARK    3  A    between atoms: C6_7  and  C7_8 
REMARK    4  A    between atoms: C7_8  and  C8_9 
REMARK    5  A    between atoms: C8_9  and  C9_10 
REMARK    6  A    between atoms: C13_21  and  C14_23 
REMARK    7  A    between atoms: C14_23  and  O4_25 
REMARK    8  A    between atoms: C17_28  and  O5_29 
REMARK    9  A    between atoms: O5_29  and  C18_30 
REMARK   10  A    between atoms: C18_30  and  C19_31 
REMARK   11  A    between atoms: C19_31  and  C20_32 
ROOT
HETATM    1  C8  UNL     1      24.154  -9.639  31.818  1.00  0.00     0.041 C 
ENDROOT
BRANCH   1   2
HETATM    2  C7  UNL     1      24.859  -8.393  31.404  1.00  0.00     0.041 C 
BRANCH   2   3
HETATM    3  C6  UNL     1      26.347  -8.641  31.446  1.00  0.00    -0.055 A 
HETATM    4  C5  UNL     1      27.156  -8.004  32.357  1.00  0.00     0.010 A 
HETATM    5  C4  UNL     1      28.531  -8.257  32.369  1.00  0.00     0.040 A 
HETATM    6  C3  UNL     1      29.127  -9.133  31.492  1.00  0.00     0.102 A 
HETATM    7  C17 UNL     1      28.298  -9.772  30.573  1.00  0.00     0.102 A 
HETATM    8  C16 UNL     1      26.952  -9.509  30.580  1.00  0.00     0.046 A 
BRANCH   6   9
HETATM    9  O1  UNL     1      30.480  -9.393  31.492  1.00  0.00    -0.349 OA
BRANCH   9  10
HETATM   10  C2  UNL     1      31.407  -9.160  32.490  1.00  0.00     0.171 C 
HETATM   11  C1  UNL     1      31.998 -10.466  32.945  1.00  0.00     0.034 C 
ENDBRANCH   9  10
ENDBRANCH   6   9
BRANCH   7  12
HETATM   12  O5  UNL     1      28.907 -10.652  29.694  1.00  0.00    -0.348 OA
BRANCH  12  13
HETATM   13  C18 UNL     1      28.884 -12.045  29.843  1.00  0.00     0.176 C 
BRANCH  13  14
HETATM   14  C19 UNL     1      28.005 -12.665  28.794  1.00  0.00     0.035 C 
BRANCH  14  15
HETATM   15  C20 UNL     1      28.431 -14.041  28.400  1.00  0.00    -0.050 C 
HETATM   16  C21 UNL     1      27.280 -14.945  28.056  1.00  0.00     0.014 C 
HETATM   17  C22 UNL     1      29.331 -13.900  27.171  1.00  0.00     0.014 C 
HETATM   18  C23 UNL     1      29.210 -14.652  29.532  1.00  0.00     0.014 C 
ENDBRANCH  14  15
ENDBRANCH  13  14
ENDBRANCH  12  13
ENDBRANCH   7  12
ENDBRANCH   2   3
ENDBRANCH   1   2
BRANCH   1  19
HETATM   19  C9  UNL     1      23.836 -10.561  30.702  1.00  0.00     0.185 C 
HETATM   20  O2  UNL     1      23.044  -9.867  29.744  1.00  0.00    -0.313 OA
HETATM   21  C10 UNL     1      22.312 -10.518  28.776  1.00  0.00     0.214 C 
HETATM   22  N1  UNL     1      21.789  -9.849  27.818  1.00  0.00    -0.365 N 
HETATM   23  N2  UNL     1      22.167 -11.929  28.885  1.00  0.00    -0.334 N 
ATOM     24  H12 UNL     1      21.893  -8.838  27.740  1.00  0.00     0.159 HD
ATOM     25  H11 UNL     1      21.247 -10.332  27.101  1.00  0.00     0.159 HD
HETATM   26  C11 UNL     1      23.058 -12.668  29.743  1.00  0.00     0.139 A 
ATOM     27  H2  UNL     1      21.438 -12.414  28.361  1.00  0.00     0.164 HD
HETATM   28  C12 UNL     1      24.400 -13.134  29.181  1.00  0.00     0.123 A 
HETATM   29  S1  UNL     1      23.177 -14.359  29.670  1.00  0.00    -0.130 SA
HETATM   30  C13 UNL     1      23.195 -11.856  31.051  1.00  0.00     0.251 C 
HETATM   31  F1  UNL     1      21.897 -11.637  31.456  1.00  0.00    -0.225 F 
BRANCH  30  32
HETATM   32  C14 UNL     1      23.947 -12.717  31.965  1.00  0.00     0.305 C 
HETATM   33  O3  UNL     1      25.178 -12.810  32.081  1.00  0.00    -0.261 OA
BRANCH  32  34
HETATM   34  O4  UNL     1      23.164 -13.533  32.807  1.00  0.00    -0.324 OA
HETATM   35  C15 UNL     1      22.976 -13.243  34.160  1.00  0.00     0.213 C 
ENDBRANCH  32  34
ENDBRANCH  30  32
ENDBRANCH   1  19
TORSDOF 11
ENDMDL
MODEL 4
REMARK VINA RESULT: -7.152119519      2.223      3.627
REMARK  11 active torsions:
REMARK  status: ('A' for Active; 'I' for Inactive)
REMARK    1  A    between atoms: C2_2  and  O1_3 
REMARK    2  A    between atoms: O1_3  and  C3_4 
REMARK    3  A    between atoms: C6_7  and  C7_8 
REMARK    4  A    between atoms: C7_8  and  C8_9 
REMARK    5  A    between atoms: C8_9  and  C9_10 
REMARK    6  A    between atoms: C13_21  and  C14_23 
REMARK    7  A    between atoms: C14_23  and  O4_25 
REMARK    8  A    between atoms: C17_28  and  O5_29 
REMARK    9  A    between atoms: O5_29  and  C18_30 
REMARK   10  A    between atoms: C18_30  and  C19_31 
REMARK   11  A    between atoms: C19_31  and  C20_32 
ROOT
HETATM    1  C8  UNL     1      24.518 -12.695  27.980  1.00  0.00     0.041 C 
ENDROOT
BRANCH   1   2
HETATM    2  C7  UNL     1      24.658 -14.178  27.912  1.00  0.00     0.041 C 
BRANCH   2   3
HETATM    3  C6  UNL     1      26.121 -14.531  28.006  1.00  0.00    -0.055 A 
HETATM    4  C5  UNL     1      26.621 -15.680  27.439  1.00  0.00     0.010 A 
HETATM    5  C4  UNL     1      27.982 -15.978  27.545  1.00  0.00     0.040 A 
HETATM    6  C3  UNL     1      28.868 -15.157  28.204  1.00  0.00     0.102 A 
HETATM    7  C17 UNL     1      28.351 -13.996  28.775  1.00  0.00     0.102 A 
HETATM    8  C16 UNL     1      27.012 -13.725  28.659  1.00  0.00     0.046 A 
BRANCH   6   9
HETATM    9  O1  UNL     1      30.212 -15.437  28.315  1.00  0.00    -0.349 OA
BRANCH   9  10
HETATM   10  C2  UNL     1      30.830 -16.460  29.010  1.00  0.00     0.171 C 
HETATM   11  C1  UNL     1      30.874 -16.120  30.475  1.00  0.00     0.034 C 
ENDBRANCH   9  10
ENDBRANCH   6   9
BRANCH   7  12
HETATM   12  O5  UNL     1      29.250 -13.177  29.436  1.00  0.00    -0.348 OA
BRANCH  12  13
HETATM   13  C18 UNL     1      28.881 -12.242  30.414  1.00  0.00     0.176 C 
BRANCH  13  14
HETATM   14  C19 UNL     1      29.654 -10.967  30.230  1.00  0.00     0.035 C 
BRANCH  14  15
HETATM   15  C20 UNL     1      29.009  -9.785  30.874  1.00  0.00    -0.050 C 
HETATM   16  C21 UNL     1      29.097  -8.533  30.045  1.00  0.00     0.014 C 
HETATM   17  C22 UNL     1      27.535 -10.133  31.084  1.00  0.00     0.014 C 
HETATM   18  C23 UNL     1      29.665  -9.536  32.204  1.00  0.00     0.014 C 
ENDBRANCH  14  15
ENDBRANCH  13  14
ENDBRANCH  12  13
ENDBRANCH   7  12
ENDBRANCH   2   3
ENDBRANCH   1   2
BRANCH   1  19
HETATM   19  C9  UNL     1      24.004 -12.188  29.275  1.00  0.00     0.185 C 
HETATM   20  O2  UNL     1      23.410 -13.267  29.988  1.00  0.00    -0.313 OA
HETATM   21  C10 UNL     1      22.556 -13.071  31.050  1.00  0.00     0.214 C 
HETATM   22  N1  UNL     1      22.216 -14.064  31.784  1.00  0.00    -0.365 N 
HETATM   23  N2  UNL     1      22.081 -11.752  31.291  1.00  0.00    -0.334 N 
ATOM     24  H12 UNL     1      22.557 -15.010  31.611  1.00  0.00     0.159 HD
ATOM     25  H11 UNL     1      21.583 -13.919  32.571  1.00  0.00     0.159 HD
HETATM   26  C11 UNL     1      22.763 -10.633  30.691  1.00  0.00     0.139 A 
ATOM     27  H2  UNL     1      21.265 -11.598  31.883  1.00  0.00     0.164 HD
HETATM   28  C12 UNL     1      23.964 -10.030  31.417  1.00  0.00     0.123 A 
HETATM   29  S1  UNL     1      22.480  -9.037  31.191  1.00  0.00    -0.130 SA
HETATM   30  C13 UNL     1      23.073 -11.031  29.230  1.00  0.00     0.251 C 
HETATM   31  F1  UNL     1      21.858 -11.433  28.718  1.00  0.00    -0.225 F 
BRANCH  30  32
HETATM   32  C14 UNL     1      23.590  -9.815  28.599  1.00  0.00     0.305 C 
HETATM   33  O3  UNL     1      24.775  -9.493  28.429  1.00  0.00    -0.261 OA
BRANCH  32  34
HETATM   34  O4  UNL     1      22.611  -8.912  28.135  1.00  0.00    -0.324 OA
HETATM   35  C15 UNL     1      22.373  -8.707  26.775  1.00  0.00     0.213 C 
ENDBRANCH  32  34
ENDBRANCH  30  32
ENDBRANCH   1  19
TORSDOF 11
ENDMDL
MODEL 5
REMARK VINA RESULT: -7.101161269      1.547      1.931
REMARK  11 active torsions:
REMARK  status: ('A' for Active; 'I' for Inactive)
REMARK    1  A    between atoms: C2_2  and  O1_3 
REMARK    2  A    between atoms: O1_3  and  C3_4 
REMARK    3  A    between atoms: C6_7  and  C7_8 
REMARK    4  A    between atoms: C7_8  and  C8_9 
REMARK    5  A    between atoms: C8_9  and  C9_10 
REMARK    6  A    between atoms: C13_21  and  C14_23 
REMARK    7  A    between atoms: C14_23  and  O4_25 
REMARK    8  A    between atoms: C17_28  and  O5_29 
REMARK    9  A    between atoms: O5_29  and  C18_30 
REMARK   10  A    between atoms: C18_30  and  C19_31 
REMARK   11  A    between atoms: C19_31  and  C20_32 
ROOT
HETATM    1  C8  UNL     1      23.801 -14.012  28.846  1.00  0.00     0.041 C 
ENDROOT
BRANCH   1   2
HETATM    2  C7  UNL     1      24.467 -13.795  27.530  1.00  0.00     0.041 C 
BRANCH   2   3
HETATM    3  C6  UNL     1      25.906 -14.232  27.638  1.00  0.00    -0.055 A 
HETATM    4  C5  UNL     1      26.304 -15.497  27.272  1.00  0.00     0.010 A 
HETATM    5  C4  UNL     1      27.646 -15.869  27.385  1.00  0.00     0.040 A 
HETATM    6  C3  UNL     1      28.613 -15.010  27.855  1.00  0.00     0.102 A 
HETATM    7  C17 UNL     1      28.199 -13.732  28.222  1.00  0.00     0.102 A 
HETATM    8  C16 UNL     1      26.877 -13.389  28.104  1.00  0.00     0.046 A 
BRANCH   6   9
HETATM    9  O1  UNL     1      29.939 -15.362  27.971  1.00  0.00    -0.349 OA
BRANCH   9  10
HETATM   10  C2  UNL     1      30.513 -16.320  28.785  1.00  0.00     0.171 C 
HETATM   11  C1  UNL     1      30.516 -15.836  30.209  1.00  0.00     0.034 C 
ENDBRANCH   9  10
ENDBRANCH   6   9
BRANCH   7  12
HETATM   12  O5  UNL     1      29.179 -12.875  28.694  1.00  0.00    -0.348 OA
BRANCH  12  13
HETATM   13  C18 UNL     1      29.036 -12.081  29.841  1.00  0.00     0.176 C 
BRANCH  13  14
HETATM   14  C19 UNL     1      29.603 -10.712  29.598  1.00  0.00     0.035 C 
BRANCH  14  15
HETATM   15  C20 UNL     1      29.207  -9.713  30.636  1.00  0.00    -0.050 C 
HETATM   16  C21 UNL     1      29.059  -8.318  30.094  1.00  0.00     0.014 C 
HETATM   17  C22 UNL     1      27.862 -10.165  31.207  1.00  0.00     0.014 C 
HETATM   18  C23 UNL     1      30.244  -9.706  31.724  1.00  0.00     0.014 C 
ENDBRANCH  14  15
ENDBRANCH  13  14
ENDBRANCH  12  13
ENDBRANCH   7  12
ENDBRANCH   2   3
ENDBRANCH   1   2
BRANCH   1  19
HETATM   19  C9  UNL     1      23.293 -12.774  29.486  1.00  0.00     0.185 C 
HETATM   20  O2  UNL     1      22.826 -11.891  28.472  1.00  0.00    -0.313 OA
HETATM   21  C10 UNL     1      22.612 -10.550  28.700  1.00  0.00     0.214 C 
HETATM   22  N1  UNL     1      21.998  -9.847  27.823  1.00  0.00    -0.365 N 
HETATM   23  N2  UNL     1      23.089  -9.995  29.920  1.00  0.00    -0.334 N 
ATOM     24  H12 UNL     1      21.656 -10.245  26.948  1.00  0.00     0.159 HD
ATOM     25  H11 UNL     1      21.839  -8.854  27.992  1.00  0.00     0.159 HD
HETATM   26  C11 UNL     1      23.429 -10.873  31.011  1.00  0.00     0.139 A 
ATOM     27  H2  UNL     1      23.188  -8.985  30.022  1.00  0.00     0.164 HD
HETATM   28  C12 UNL     1      22.326 -11.313  31.971  1.00  0.00     0.123 A 
HETATM   29  S1  UNL     1      23.673 -10.291  32.587  1.00  0.00    -0.130 SA
HETATM   30  C13 UNL     1      24.215 -12.057  30.404  1.00  0.00     0.251 C 
HETATM   31  F1  UNL     1      25.224 -11.462  29.677  1.00  0.00    -0.225 F 
BRANCH  30  32
HETATM   32  C14 UNL     1      24.706 -12.824  31.550  1.00  0.00     0.305 C 
HETATM   33  O3  UNL     1      25.800 -12.716  32.123  1.00  0.00    -0.261 OA
BRANCH  32  34
HETATM   34  O4  UNL     1      23.817 -13.798  32.049  1.00  0.00    -0.324 OA
HETATM   35  C15 UNL     1      23.917 -14.300  33.349  1.00  0.00     0.213 C 
ENDBRANCH  32  34
ENDBRANCH  30  32
ENDBRANCH   1  19
TORSDOF 11
ENDMDL
