MODEL 1
REMARK VINA RESULT: -8.442621744      0.000      0.000
REMARK  12 active torsions:
REMARK  status: ('A' for Active; 'I' for Inactive)
REMARK    1  A    between atoms: C2_2  and  C3_3 
REMARK    2  A    between atoms: C3_3  and  C4_4 
REMARK    3  A    between atoms: C3_3  and  C6_7 
REMARK    4  A    between atoms: C11_14  and  C12_15 
REMARK    5  A    between atoms: C12_15  and  C13_16 
REMARK    6  A    between atoms: C13_16  and  C14_17 
REMARK    7  A    between atoms: C14_17  and  O4_18 
REMARK    8  A    between atoms: C14_17  and  C15_20 
REMARK    9  A    between atoms: C15_20  and  C16_21 
REMARK   10  A    between atoms: C17_22  and  O5_23 
REMARK   11  A    between atoms: C20_27  and  O6_28 
REMARK   12  A    between atoms: C21_30  and  C22_31 
ROOT
HETATM    1  C22 UNL     1      23.019 -10.458  30.272  1.00  0.00     0.031 C 
HETATM    2  C23 UNL     1      22.555  -9.130  30.687  1.00  0.00     0.070 C 
HETATM    3  N1  UNL     1      22.810 -10.820  29.028  1.00  0.00    -0.297 N 
ATOM      4  H1  UNL     1      23.127 -11.741  28.724  1.00  0.00     0.178 HD
HETATM    5  C24 UNL     1      22.171  -9.992  28.107  1.00  0.00     0.182 C 
HETATM    6  N2  UNL     1      21.649  -9.306  27.336  1.00  0.00    -0.172 NA
ENDROOT
BRANCH   1   7
HETATM    7  C21 UNL     1      23.690 -11.360  31.192  1.00  0.00     0.060 A 
HETATM    8  C20 UNL     1      25.031 -11.634  31.128  1.00  0.00     0.089 A 
HETATM    9  C18 UNL     1      25.611 -12.518  32.052  1.00  0.00     0.006 A 
HETATM   10  C17 UNL     1      24.894 -13.143  33.046  1.00  0.00     0.083 A 
HETATM   11  C19 UNL     1      27.070 -12.738  31.892  1.00  0.00     0.054 C 
HETATM   12  C16 UNL     1      23.529 -12.867  33.111  1.00  0.00     0.018 A 
HETATM   13  C25 UNL     1      22.972 -12.003  32.207  1.00  0.00     0.140 A 
HETATM   14  F1  UNL     1      21.638 -11.684  32.244  1.00  0.00    -0.204 F 
BRANCH   8  15
HETATM   15  O6  UNL     1      25.813 -11.037  30.149  1.00  0.00    -0.359 OA
ATOM     16  H6  UNL     1      26.050 -11.522  29.367  1.00  0.00     0.217 HD
ENDBRANCH   8  15
BRANCH  10  17
HETATM   17  O5  UNL     1      25.481 -14.014  33.954  1.00  0.00    -0.359 OA
ATOM     18  H5  UNL     1      25.111 -14.876  34.105  1.00  0.00     0.217 HD
ENDBRANCH  10  17
BRANCH  12  19
HETATM   19  C15 UNL     1      22.727 -13.514  34.145  1.00  0.00     0.076 C 
BRANCH  19  20
HETATM   20  C14 UNL     1      22.362 -14.935  33.952  1.00  0.00     0.122 C 
BRANCH  20  21
HETATM   21  C13 UNL     1      21.871 -15.644  35.207  1.00  0.00     0.032 C 
BRANCH  21  22
HETATM   22  C12 UNL     1      21.569 -17.052  34.829  1.00  0.00     0.011 C 
BRANCH  22  23
HETATM   23  C11 UNL     1      22.274 -18.130  35.569  1.00  0.00     0.034 C 
HETATM   24  C6  UNL     1      21.437 -18.289  36.883  1.00  0.00     0.103 C 
HETATM   25  C7  UNL     1      20.411 -19.246  36.454  1.00  0.00     0.265 C 
HETATM   26  O2  UNL     1      19.173 -19.289  36.598  1.00  0.00    -0.265 OA
HETATM   27  O3  UNL     1      21.170 -20.222  35.767  1.00  0.00    -0.310 OA
HETATM   28  C8  UNL     1      22.193 -19.508  35.040  1.00  0.00     0.068 C 
HETATM   29  C9  UNL     1      21.896 -19.724  33.608  1.00  0.00     0.047 C 
HETATM   30  C10 UNL     1      23.498 -20.265  35.334  1.00  0.00     0.047 C 
BRANCH  24  31
HETATM   31  C3  UNL     1      22.301 -18.691  38.010  1.00  0.00     0.068 C 
BRANCH  31  32
HETATM   32  C2  UNL     1      21.677 -19.637  39.002  1.00  0.00     0.008 C 
HETATM   33  C1  UNL     1      22.300 -20.968  39.158  1.00  0.00     0.006 C 
ENDBRANCH  31  32
BRANCH  31  34
HETATM   34  C4  UNL     1      22.629 -17.448  38.825  1.00  0.00     0.128 C 
HETATM   35  C5  UNL     1      21.648 -16.313  38.844  1.00  0.00     0.091 C 
HETATM   36  O1  UNL     1      23.643 -17.333  39.456  1.00  0.00    -0.298 OA
ENDBRANCH  31  34
ENDBRANCH  24  31
ENDBRANCH  22  23
ENDBRANCH  21  22
ENDBRANCH  20  21
BRANCH  20  37
HETATM   37  O4  UNL     1      21.452 -15.210  32.963  1.00  0.00    -0.395 OA
ATOM     38  H4  UNL     1      21.643 -16.086  32.652  1.00  0.00     0.210 HD
ENDBRANCH  20  37
ENDBRANCH  19  20
ENDBRANCH  12  19
ENDBRANCH   1   7
TORSDOF 12
ENDMDL
MODEL 2
REMARK VINA RESULT: -8.254204205      4.538      9.061
REMARK  12 active torsions:
REMARK  status: ('A' for Active; 'I' for Inactive)
REMARK    1  A    between atoms: C2_2  and  C3_3 
REMARK    2  A    between atoms: C3_3  and  C4_4 
REMARK    3  A    between atoms: C3_3  and  C6_7 
REMARK    4  A    between atoms: C11_14  and  C12_15 
REMARK    5  A    between atoms: C12_15  and  C13_16 
REMARK    6  A    between atoms: C13_16  and  C14_17 
REMARK    7  A    between atoms: C14_17  and  O4_18 
REMARK    8  A    between atoms: C14_17  and  C15_20 
REMARK    9  A    between atoms: C15_20  and  C16_21 
REMARK   10  A    between atoms: C17_22  and  O5_23 
REMARK   11  A    between atoms: C20_27  and  O6_28 
REMARK   12  A    between atoms: C21_30  and  C22_31 
ROOT
HETATM    1  C22 UNL     1      22.858 -13.542  32.603  1.00  0.00     0.031 C 
HETATM    2  C23 UNL     1      23.231 -14.675  31.748  1.00  0.00     0.070 C 
HETATM    3  N1  UNL     1      22.270 -13.804  33.746  1.00  0.00    -0.297 N 
ATOM      4  H1  UNL     1      22.004 -13.027  34.352  1.00  0.00     0.178 HD
HETATM    5  C24 UNL     1      21.994 -15.105  34.163  1.00  0.00     0.182 C 
HETATM    6  N2  UNL     1      21.770 -16.182  34.519  1.00  0.00    -0.172 NA
ENDROOT
BRANCH   1   7
HETATM    7  C21 UNL     1      23.122 -12.167  32.215  1.00  0.00     0.060 A 
HETATM    8  C20 UNL     1      23.629 -11.231  33.076  1.00  0.00     0.089 A 
HETATM    9  C18 UNL     1      23.858  -9.919  32.631  1.00  0.00     0.006 A 
HETATM   10  C17 UNL     1      23.598  -9.506  31.345  1.00  0.00     0.083 A 
HETATM   11  C19 UNL     1      24.411  -8.989  33.647  1.00  0.00     0.054 C 
HETATM   12  C16 UNL     1      23.080 -10.458  30.466  1.00  0.00     0.018 A 
HETATM   13  C25 UNL     1      22.861 -11.735  30.910  1.00  0.00     0.140 A 
HETATM   14  F1  UNL     1      22.373 -12.711  30.078  1.00  0.00    -0.204 F 
BRANCH   8  15
HETATM   15  O6  UNL     1      23.913 -11.580  34.389  1.00  0.00    -0.359 OA
ATOM     16  H6  UNL     1      23.208 -11.791  34.990  1.00  0.00     0.217 HD
ENDBRANCH   8  15
BRANCH  10  17
HETATM   17  O5  UNL     1      23.831  -8.206  30.917  1.00  0.00    -0.359 OA
ATOM     18  H5  UNL     1      24.008  -7.516  31.545  1.00  0.00     0.217 HD
ENDBRANCH  10  17
BRANCH  12  19
HETATM   19  C15 UNL     1      22.782 -10.063  29.094  1.00  0.00     0.076 C 
BRANCH  19  20
HETATM   20  C14 UNL     1      23.825 -10.278  28.067  1.00  0.00     0.122 C 
BRANCH  20  21
HETATM   21  C13 UNL     1      25.255 -10.181  28.579  1.00  0.00     0.032 C 
BRANCH  21  22
HETATM   22  C12 UNL     1      25.826 -11.556  28.562  1.00  0.00     0.011 C 
BRANCH  22  23
HETATM   23  C11 UNL     1      27.290 -11.697  28.773  1.00  0.00     0.034 C 
HETATM   24  C6  UNL     1      27.504 -11.206  30.244  1.00  0.00     0.103 C 
HETATM   25  C7  UNL     1      27.270 -12.445  30.995  1.00  0.00     0.265 C 
HETATM   26  O2  UNL     1      26.606 -12.709  32.016  1.00  0.00    -0.265 OA
HETATM   27  O3  UNL     1      28.020 -13.394  30.262  1.00  0.00    -0.310 OA
HETATM   28  C8  UNL     1      27.853 -13.060  28.867  1.00  0.00     0.068 C 
HETATM   29  C9  UNL     1      27.122 -14.195  28.266  1.00  0.00     0.047 C 
HETATM   30  C10 UNL     1      29.270 -13.090  28.273  1.00  0.00     0.047 C 
BRANCH  24  31
HETATM   31  C3  UNL     1      28.825 -10.568  30.397  1.00  0.00     0.068 C 
BRANCH  31  32
HETATM   32  C2  UNL     1      29.542 -10.857  31.690  1.00  0.00     0.008 C 
HETATM   33  C1  UNL     1      30.880 -10.258  31.875  1.00  0.00     0.006 C 
ENDBRANCH  31  32
BRANCH  31  34
HETATM   34  C4  UNL     1      28.626  -9.058  30.404  1.00  0.00     0.128 C 
HETATM   35  C5  UNL     1      27.601  -8.465  31.323  1.00  0.00     0.091 C 
HETATM   36  O1  UNL     1      29.256  -8.317  29.700  1.00  0.00    -0.298 OA
ENDBRANCH  31  34
ENDBRANCH  24  31
ENDBRANCH  22  23
ENDBRANCH  21  22
ENDBRANCH  20  21
BRANCH  20  37
HETATM   37  O4  UNL     1      23.746 -11.439  27.340  1.00  0.00    -0.395 OA
ATOM     38  H4  UNL     1      22.832 -11.558  27.115  1.00  0.00     0.210 HD
ENDBRANCH  20  37
ENDBRANCH  19  20
ENDBRANCH  12  19
ENDBRANCH   1   7
TORSDOF 12
ENDMDL
MODEL 3
REMARK VINA RESULT: -8.245085916      1.385      1.665
REMARK  12 active torsions:
REMARK  status: ('A' for Active; 'I' for Inactive)
REMARK    1  A    between atoms: C2_2  and  C3_3 
REMARK    2  A    between atoms: C3_3  and  C4_4 
REMARK    3  A    between atoms: C3_3  and  C6_7 
REMARK    4  A    between atoms: C11_14  and  C12_15 
REMARK    5  A    between atoms: C12_15  and  C13_16 
REMARK    6  A    between atoms: C13_16  and  C14_17 
REMARK    7  A    between atoms: C14_17  and  O4_18 
REMARK    8  A    between atoms: C14_17  and  C15_20 
REMARK    9  A    between atoms: C15_20  and  C16_21 
REMARK   10  A    between atoms: C17_22  and  O5_23 
REMARK   11  A    between atoms: C20_27  and  O6_28 
REMARK   12  A    between atoms: C21_30  and  C22_31 
ROOT
HETATM    1  C22 UNL     1      23.279 -10.950  29.835  1.00  0.00     0.031 C 
HETATM    2  C23 UNL     1      24.144 -11.445  28.758  1.00  0.00     0.070 C 
HETATM    3  N1  UNL     1      22.295 -10.144  29.510  1.00  0.00    -0.297 N 
ATOM      4  H1  UNL     1      21.684  -9.792  30.247  1.00  0.00     0.178 HD
HETATM    5  C24 UNL     1      22.055  -9.752  28.194  1.00  0.00     0.182 C 
HETATM    6  N2  UNL     1      21.845  -9.430  27.103  1.00  0.00    -0.172 NA
ENDROOT
BRANCH   1   7
HETATM    7  C21 UNL     1      23.486 -11.327  31.222  1.00  0.00     0.060 A 
HETATM    8  C20 UNL     1      23.641 -10.415  32.231  1.00  0.00     0.089 A 
HETATM    9  C18 UNL     1      23.839 -10.853  33.550  1.00  0.00     0.006 A 
HETATM   10  C17 UNL     1      23.886 -12.183  33.901  1.00  0.00     0.083 A 
HETATM   11  C19 UNL     1      23.991  -9.779  34.562  1.00  0.00     0.054 C 
HETATM   12  C16 UNL     1      23.729 -13.114  32.874  1.00  0.00     0.018 A 
HETATM   13  C25 UNL     1      23.536 -12.677  31.591  1.00  0.00     0.140 A 
HETATM   14  F1  UNL     1      23.357 -13.554  30.551  1.00  0.00    -0.204 F 
BRANCH   8  15
HETATM   15  O6  UNL     1      23.605  -9.056  31.947  1.00  0.00    -0.359 OA
ATOM     16  H6  UNL     1      23.824  -8.745  31.076  1.00  0.00     0.217 HD
ENDBRANCH   8  15
BRANCH  10  17
HETATM   17  O5  UNL     1      24.079 -12.603  35.210  1.00  0.00    -0.359 OA
ATOM     18  H5  UNL     1      24.210 -11.970  35.906  1.00  0.00     0.217 HD
ENDBRANCH  10  17
BRANCH  12  19
HETATM   19  C15 UNL     1      23.780 -14.536  33.198  1.00  0.00     0.076 C 
BRANCH  19  20
HETATM   20  C14 UNL     1      22.531 -15.191  33.647  1.00  0.00     0.122 C 
BRANCH  20  21
HETATM   21  C13 UNL     1      22.575 -16.713  33.654  1.00  0.00     0.032 C 
BRANCH  21  22
HETATM   22  C12 UNL     1      21.831 -17.171  34.859  1.00  0.00     0.011 C 
BRANCH  22  23
HETATM   23  C11 UNL     1      22.429 -18.269  35.662  1.00  0.00     0.034 C 
HETATM   24  C6  UNL     1      21.554 -18.302  36.960  1.00  0.00     0.103 C 
HETATM   25  C7  UNL     1      20.462 -19.191  36.545  1.00  0.00     0.265 C 
HETATM   26  O2  UNL     1      19.223 -19.128  36.659  1.00  0.00    -0.265 OA
HETATM   27  O3  UNL     1      21.153 -20.254  35.918  1.00  0.00    -0.310 OA
HETATM   28  C8  UNL     1      22.247 -19.658  35.188  1.00  0.00     0.068 C 
HETATM   29  C9  UNL     1      21.965 -19.911  33.760  1.00  0.00     0.047 C 
HETATM   30  C10 UNL     1      23.479 -20.504  35.546  1.00  0.00     0.047 C 
BRANCH  24  31
HETATM   31  C3  UNL     1      22.357 -18.724  38.123  1.00  0.00     0.068 C 
BRANCH  31  32
HETATM   32  C2  UNL     1      21.651 -19.611  39.114  1.00  0.00     0.008 C 
HETATM   33  C1  UNL     1      22.173 -20.982  39.293  1.00  0.00     0.006 C 
ENDBRANCH  31  32
BRANCH  31  34
HETATM   34  C4  UNL     1      22.725 -17.481  38.922  1.00  0.00     0.128 C 
HETATM   35  C5  UNL     1      21.786 -16.311  38.918  1.00  0.00     0.091 C 
HETATM   36  O1  UNL     1      23.739 -17.393  39.558  1.00  0.00    -0.298 OA
ENDBRANCH  31  34
ENDBRANCH  24  31
ENDBRANCH  22  23
ENDBRANCH  21  22
ENDBRANCH  20  21
BRANCH  20  37
HETATM   37  O4  UNL     1      22.037 -14.806  34.868  1.00  0.00    -0.395 OA
ATOM     38  H4  UNL     1      21.352 -14.172  34.696  1.00  0.00     0.210 HD
ENDBRANCH  20  37
ENDBRANCH  19  20
ENDBRANCH  12  19
ENDBRANCH   1   7
TORSDOF 12
ENDMDL
MODEL 4
REMARK VINA RESULT: -8.204877104      7.133     10.039
REMARK  12 active torsions:
REMARK  status: ('A' for Active; 'I' for Inactive)
REMARK    1  A    between atoms: C2_2  and  C3_3 
REMARK    2  A    between atoms: C3_3  and  C4_4 
REMARK    3  A    between atoms: C3_3  and  C6_7 
REMARK    4  A    between atoms: C11_14  and  C12_15 
REMARK    5  A    between atoms: C12_15  and  C13_16 
REMARK    6  A    between atoms: C13_16  and  C14_17 
REMARK    7  A    between atoms: C14_17  and  O4_18 
REMARK    8  A    between atoms: C14_17  and  C15_20 
REMARK    9  A    between atoms: C15_20  and  C16_21 
REMARK   10  A    between atoms: C17_22  and  O5_23 
REMARK   11  A    between atoms: C20_27  and  O6_28 
REMARK   12  A    between atoms: C21_30  and  C22_31 
ROOT
HETATM    1  C22 UNL     1      29.792 -17.301  26.503  1.00  0.00     0.031 C 
HETATM    2  C23 UNL     1      28.737 -18.235  26.095  1.00  0.00     0.070 C 
HETATM    3  N1  UNL     1      30.930 -17.336  25.851  1.00  0.00    -0.297 N 
ATOM      4  H1  UNL     1      31.673 -16.692  26.123  1.00  0.00     0.178 HD
HETATM    5  C24 UNL     1      31.160 -18.221  24.799  1.00  0.00     0.182 C 
HETATM    6  N2  UNL     1      31.354 -18.947  23.920  1.00  0.00    -0.172 NA
ENDROOT
BRANCH   1   7
HETATM    7  C21 UNL     1      29.604 -16.359  27.593  1.00  0.00     0.060 A 
HETATM    8  C20 UNL     1      30.192 -16.507  28.821  1.00  0.00     0.089 A 
HETATM    9  C18 UNL     1      29.964 -15.555  29.828  1.00  0.00     0.006 A 
HETATM   10  C17 UNL     1      29.163 -14.451  29.650  1.00  0.00     0.083 A 
HETATM   11  C19 UNL     1      30.654 -15.813  31.116  1.00  0.00     0.054 C 
HETATM   12  C16 UNL     1      28.562 -14.299  28.401  1.00  0.00     0.018 A 
HETATM   13  C25 UNL     1      28.791 -15.232  27.425  1.00  0.00     0.140 A 
HETATM   14  F1  UNL     1      28.238 -15.115  26.174  1.00  0.00    -0.204 F 
BRANCH   8  15
HETATM   15  O6  UNL     1      31.012 -17.599  29.068  1.00  0.00    -0.359 OA
ATOM     16  H6  UNL     1      31.724 -17.805  28.473  1.00  0.00     0.217 HD
ENDBRANCH   8  15
BRANCH  10  17
HETATM   17  O5  UNL     1      28.947 -13.516  30.654  1.00  0.00    -0.359 OA
ATOM     18  H5  UNL     1      29.250 -13.680  31.539  1.00  0.00     0.217 HD
ENDBRANCH  10  17
BRANCH  12  19
HETATM   19  C15 UNL     1      27.697 -13.146  28.170  1.00  0.00     0.076 C 
BRANCH  19  20
HETATM   20  C14 UNL     1      26.271 -13.260  28.551  1.00  0.00     0.122 C 
BRANCH  20  21
HETATM   21  C13 UNL     1      25.303 -12.542  27.622  1.00  0.00     0.032 C 
BRANCH  21  22
HETATM   22  C12 UNL     1      24.663 -11.452  28.409  1.00  0.00     0.011 C 
BRANCH  22  23
HETATM   23  C11 UNL     1      24.917 -11.419  29.873  1.00  0.00     0.034 C 
HETATM   24  C6  UNL     1      25.158  -9.902  30.176  1.00  0.00     0.103 C 
HETATM   25  C7  UNL     1      23.785  -9.434  30.397  1.00  0.00     0.265 C 
HETATM   26  O2  UNL     1      23.147  -8.441  29.994  1.00  0.00    -0.265 OA
HETATM   27  O3  UNL     1      23.254 -10.431  31.248  1.00  0.00    -0.310 OA
HETATM   28  C8  UNL     1      23.785 -11.691  30.784  1.00  0.00     0.068 C 
HETATM   29  C9  UNL     1      22.623 -12.463  30.294  1.00  0.00     0.047 C 
HETATM   30  C10 UNL     1      24.284 -12.408  32.048  1.00  0.00     0.047 C 
BRANCH  24  31
HETATM   31  C3  UNL     1      26.111  -9.733  31.289  1.00  0.00     0.068 C 
BRANCH  31  32
HETATM   32  C2  UNL     1      26.283  -8.324  31.791  1.00  0.00     0.008 C 
HETATM   33  C1  UNL     1      25.629  -7.972  33.069  1.00  0.00     0.006 C 
ENDBRANCH  31  32
BRANCH  31  34
HETATM   34  C4  UNL     1      27.495 -10.131  30.793  1.00  0.00     0.128 C 
HETATM   35  C5  UNL     1      28.027  -9.498  29.541  1.00  0.00     0.091 C 
HETATM   36  O1  UNL     1      28.183 -10.934  31.360  1.00  0.00    -0.298 OA
ENDBRANCH  31  34
ENDBRANCH  24  31
ENDBRANCH  22  23
ENDBRANCH  21  22
ENDBRANCH  20  21
BRANCH  20  37
HETATM   37  O4  UNL     1      25.779 -14.528  28.728  1.00  0.00    -0.395 OA
ATOM     38  H4  UNL     1      26.415 -14.996  29.256  1.00  0.00     0.210 HD
ENDBRANCH  20  37
ENDBRANCH  19  20
ENDBRANCH  12  19
ENDBRANCH   1   7
TORSDOF 12
ENDMDL
MODEL 5
REMARK VINA RESULT: -8.201154100      5.691      8.389
REMARK  12 active torsions:
REMARK  status: ('A' for Active; 'I' for Inactive)
REMARK    1  A    between atoms: C2_2  and  C3_3 
REMARK    2  A    between atoms: C3_3  and  C4_4 
REMARK    3  A    between atoms: C3_3  and  C6_7 
REMARK    4  A    between atoms: C11_14  and  C12_15 
REMARK    5  A    between atoms: C12_15  and  C13_16 
REMARK    6  A    between atoms: C13_16  and  C14_17 
REMARK    7  A    between atoms: C14_17  and  O4_18 
REMARK    8  A    between atoms: C14_17  and  C15_20 
REMARK    9  A    between atoms: C15_20  and  C16_21 
REMARK   10  A    between atoms: C17_22  and  O5_23 
REMARK   11  A    between atoms: C20_27  and  O6_28 
REMARK   12  A    between atoms: C21_30  and  C22_31 
ROOT
HETATM    1  C22 UNL     1      29.030 -14.425  29.313  1.00  0.00     0.031 C 
HETATM    2  C23 UNL     1      29.716 -15.184  28.261  1.00  0.00     0.070 C 
HETATM    3  N1  UNL     1      29.377 -14.650  30.558  1.00  0.00    -0.297 N 
ATOM      4  H1  UNL     1      28.909 -14.131  31.301  1.00  0.00     0.178 HD
HETATM    5  C24 UNL     1      30.363 -15.574  30.902  1.00  0.00     0.182 C 
HETATM    6  N2  UNL     1      31.186 -16.332  31.195  1.00  0.00    -0.172 NA
ENDROOT
BRANCH   1   7
HETATM    7  C21 UNL     1      27.996 -13.451  29.008  1.00  0.00     0.060 A 
HETATM    8  C20 UNL     1      28.127 -12.114  29.270  1.00  0.00     0.089 A 
HETATM    9  C18 UNL     1      27.083 -11.231  28.948  1.00  0.00     0.006 A 
HETATM   10  C17 UNL     1      25.905 -11.639  28.368  1.00  0.00     0.083 A 
HETATM   11  C19 UNL     1      27.334  -9.804  29.271  1.00  0.00     0.054 C 
HETATM   12  C16 UNL     1      25.769 -13.002  28.102  1.00  0.00     0.018 A 
HETATM   13  C25 UNL     1      26.792 -13.855  28.418  1.00  0.00     0.140 A 
HETATM   14  F1  UNL     1      26.714 -15.200  28.158  1.00  0.00    -0.204 F 
BRANCH   8  15
HETATM   15  O6  UNL     1      29.290 -11.634  29.854  1.00  0.00    -0.359 OA
ATOM     16  H6  UNL     1      30.033 -11.395  29.312  1.00  0.00     0.217 HD
ENDBRANCH   8  15
BRANCH  10  17
HETATM   17  O5  UNL     1      24.882 -10.755  28.053  1.00  0.00    -0.359 OA
ATOM     18  H5  UNL     1      24.953 -10.185  27.296  1.00  0.00     0.217 HD
ENDBRANCH  10  17
BRANCH  12  19
HETATM   19  C15 UNL     1      24.532 -13.482  27.495  1.00  0.00     0.076 C 
BRANCH  19  20
HETATM   20  C14 UNL     1      23.521 -14.105  28.379  1.00  0.00     0.122 C 
BRANCH  20  21
HETATM   21  C13 UNL     1      22.440 -13.157  28.878  1.00  0.00     0.032 C 
BRANCH  21  22
HETATM   22  C12 UNL     1      22.534 -13.122  30.363  1.00  0.00     0.011 C 
BRANCH  22  23
HETATM   23  C11 UNL     1      23.614 -12.298  30.965  1.00  0.00     0.034 C 
HETATM   24  C6  UNL     1      22.854 -11.065  31.560  1.00  0.00     0.103 C 
HETATM   25  C7  UNL     1      22.489 -11.569  32.889  1.00  0.00     0.265 C 
HETATM   26  O2  UNL     1      21.432 -11.541  33.550  1.00  0.00    -0.265 OA
HETATM   27  O3  UNL     1      23.693 -12.163  33.333  1.00  0.00    -0.310 OA
HETATM   28  C8  UNL     1      24.283 -12.805  32.182  1.00  0.00     0.068 C 
HETATM   29  C9  UNL     1      24.266 -14.253  32.475  1.00  0.00     0.047 C 
HETATM   30  C10 UNL     1      25.758 -12.375  32.193  1.00  0.00     0.047 C 
BRANCH  24  31
HETATM   31  C3  UNL     1      23.696  -9.855  31.510  1.00  0.00     0.068 C 
BRANCH  31  32
HETATM   32  C2  UNL     1      23.773  -9.061  32.788  1.00  0.00     0.008 C 
HETATM   33  C1  UNL     1      25.105  -8.584  33.214  1.00  0.00     0.006 C 
ENDBRANCH  31  32
BRANCH  31  34
HETATM   34  C4  UNL     1      23.084  -8.892  30.502  1.00  0.00     0.128 C 
HETATM   35  C5  UNL     1      22.253  -7.747  31.002  1.00  0.00     0.091 C 
HETATM   36  O1  UNL     1      23.235  -9.008  29.317  1.00  0.00    -0.298 OA
ENDBRANCH  31  34
ENDBRANCH  24  31
ENDBRANCH  22  23
ENDBRANCH  21  22
ENDBRANCH  20  21
BRANCH  20  37
HETATM   37  O4  UNL     1      22.878 -15.216  27.894  1.00  0.00    -0.395 OA
ATOM     38  H4  UNL     1      23.085 -15.268  26.969  1.00  0.00     0.210 HD
ENDBRANCH  20  37
ENDBRANCH  19  20
ENDBRANCH  12  19
ENDBRANCH   1   7
TORSDOF 12
ENDMDL
