MODEL 1
REMARK VINA RESULT: -6.341342282      0.000      0.000
REMARK  6 active torsions:
REMARK  status: ('A' for Active; 'I' for Inactive)
REMARK    1  A    between atoms: C2_2  and  O1_3 
REMARK    2  A    between atoms: O1_3  and  C3_4 
REMARK    3  A    between atoms: C11_12  and  O2_13 
REMARK    4  A    between atoms: O2_13  and  C12_14 
REMARK    5  A    between atoms: C18_22  and  C20_24 
REMARK    6  A    between atoms: C20_24  and  O5_25 
ROOT
HETATM    1  C3  UNL     1     -12.296  25.745  -4.751  1.00  0.00     0.126 C 
HETATM    2  C4  UNL     1     -11.095  24.951  -4.288  1.00  0.00     0.066 C 
HETATM    3  C5  UNL     1     -10.820  24.058  -5.435  1.00  0.00    -0.072 C 
HETATM    4  C6  UNL     1      -9.687  23.544  -5.863  1.00  0.00    -0.023 C 
HETATM    5  C7  UNL     1      -9.557  22.651  -7.046  1.00  0.00     0.033 C 
HETATM    6  C8  UNL     1     -10.948  22.075  -7.264  1.00  0.00     0.003 C 
HETATM    7  C9  UNL     1     -10.847  21.036  -8.305  1.00  0.00    -0.003 C 
HETATM    8  C10 UNL     1      -9.734  21.235  -9.309  1.00  0.00     0.039 C 
HETATM    9  C11 UNL     1      -9.532  19.873  -9.924  1.00  0.00     0.148 C 
HETATM   10  C14 UNL     1     -10.723  19.131 -10.293  1.00  0.00     0.048 C 
HETATM   11  C15 UNL     1     -10.501  17.642  -9.921  1.00  0.00     0.026 C 
HETATM   12  C16 UNL     1     -10.969  19.090 -11.757  1.00  0.00     0.139 C 
HETATM   13  O4  UNL     1     -10.243  19.505 -12.615  1.00  0.00    -0.297 OA
HETATM   14  C17 UNL     1     -12.294  18.428 -11.875  1.00  0.00     0.090 C 
HETATM   15  C18 UNL     1     -13.060  19.245 -10.818  1.00  0.00    -0.011 C 
HETATM   16  C19 UNL     1     -14.193  18.364 -10.354  1.00  0.00     0.018 C 
HETATM   17  C21 UNL     1     -12.043  19.526  -9.753  1.00  0.00     0.019 C 
HETATM   18  C22 UNL     1     -12.096  20.865  -9.148  1.00  0.00    -0.004 C 
HETATM   19  C23 UNL     1     -13.216  21.071  -8.153  1.00  0.00     0.006 C 
HETATM   20  C24 UNL     1     -13.264  22.577  -7.947  1.00  0.00     0.011 C 
HETATM   21  C25 UNL     1     -11.974  23.147  -7.444  1.00  0.00    -0.029 C 
HETATM   22  C26 UNL     1     -11.542  24.243  -8.393  1.00  0.00     0.016 C 
HETATM   23  C27 UNL     1     -12.130  23.811  -6.086  1.00  0.00    -0.011 C 
HETATM   24  C28 UNL     1     -13.071  23.029  -5.195  1.00  0.00     0.021 C 
HETATM   25  C29 UNL     1     -12.652  25.218  -6.150  1.00  0.00     0.046 C 
ENDROOT
BRANCH   9  26
HETATM   26  O2  UNL     1      -8.631  20.011 -11.001  1.00  0.00    -0.315 OA
BRANCH  26  27
HETATM   27  C12 UNL     1      -7.351  19.491 -11.022  1.00  0.00     0.255 C 
HETATM   28  C13 UNL     1      -6.240  20.053 -11.824  1.00  0.00     0.126 C 
HETATM   29  O3  UNL     1      -7.132  18.475 -10.311  1.00  0.00    -0.266 OA
ENDBRANCH  26  27
ENDBRANCH   9  26
BRANCH  15  30
HETATM   30  C20 UNL     1     -13.624  20.446 -11.485  1.00  0.00     0.173 C 
BRANCH  30  31
HETATM   31  O5  UNL     1     -14.994  20.604 -11.224  1.00  0.00    -0.400 OA
ATOM     32  H5  UNL     1     -15.465  20.946 -11.974  1.00  0.00     0.209 HD
ENDBRANCH  30  31
ENDBRANCH  15  30
BRANCH   1  33
HETATM   33  O1  UNL     1     -13.369  25.649  -3.904  1.00  0.00    -0.386 OA
BRANCH  33  34
HETATM   34  C2  UNL     1     -13.267  26.527  -2.858  1.00  0.00     0.163 C 
HETATM   35  C1  UNL     1     -14.413  27.495  -2.750  1.00  0.00     0.033 C 
ENDBRANCH  33  34
ENDBRANCH   1  33
TORSDOF 6
ENDMDL
MODEL 2
REMARK VINA RESULT: -6.019170697      2.542      7.013
REMARK  6 active torsions:
REMARK  status: ('A' for Active; 'I' for Inactive)
REMARK    1  A    between atoms: C2_2  and  O1_3 
REMARK    2  A    between atoms: O1_3  and  C3_4 
REMARK    3  A    between atoms: C11_12  and  O2_13 
REMARK    4  A    between atoms: O2_13  and  C12_14 
REMARK    5  A    between atoms: C18_22  and  C20_24 
REMARK    6  A    between atoms: C20_24  and  O5_25 
ROOT
HETATM    1  C3  UNL     1     -17.906  18.508 -11.509  1.00  0.00     0.126 C 
HETATM    2  C4  UNL     1     -16.906  18.471 -12.643  1.00  0.00     0.066 C 
HETATM    3  C5  UNL     1     -15.645  18.890 -11.992  1.00  0.00    -0.072 C 
HETATM    4  C6  UNL     1     -14.398  18.575 -12.267  1.00  0.00    -0.023 C 
HETATM    5  C7  UNL     1     -13.213  19.077 -11.520  1.00  0.00     0.033 C 
HETATM    6  C8  UNL     1     -13.691  20.342 -10.823  1.00  0.00     0.003 C 
HETATM    7  C9  UNL     1     -12.515  20.994 -10.218  1.00  0.00    -0.003 C 
HETATM    8  C10 UNL     1     -11.392  20.060  -9.825  1.00  0.00     0.039 C 
HETATM    9  C11 UNL     1     -10.183  20.955  -9.706  1.00  0.00     0.148 C 
HETATM   10  C14 UNL     1     -10.360  22.216  -9.011  1.00  0.00     0.048 C 
HETATM   11  C15 UNL     1      -9.564  23.306  -9.775  1.00  0.00     0.026 C 
HETATM   12  C16 UNL     1      -9.759  22.237  -7.653  1.00  0.00     0.139 C 
HETATM   13  O4  UNL     1      -9.084  21.380  -7.157  1.00  0.00    -0.297 OA
HETATM   14  C17 UNL     1     -10.196  23.542  -7.093  1.00  0.00     0.090 C 
HETATM   15  C18 UNL     1     -11.690  23.466  -7.456  1.00  0.00    -0.011 C 
HETATM   16  C19 UNL     1     -12.171  24.894  -7.533  1.00  0.00     0.018 C 
HETATM   17  C21 UNL     1     -11.719  22.750  -8.773  1.00  0.00     0.019 C 
HETATM   18  C22 UNL     1     -12.812  21.785  -8.958  1.00  0.00    -0.004 C 
HETATM   19  C23 UNL     1     -14.164  22.400  -9.246  1.00  0.00     0.006 C 
HETATM   20  C24 UNL     1     -15.145  21.255  -9.054  1.00  0.00     0.011 C 
HETATM   21  C25 UNL     1     -14.875  20.086  -9.949  1.00  0.00    -0.029 C 
HETATM   22  C26 UNL     1     -14.730  18.854  -9.083  1.00  0.00     0.016 C 
HETATM   23  C27 UNL     1     -16.036  19.799 -10.887  1.00  0.00    -0.011 C 
HETATM   24  C28 UNL     1     -16.662  21.080 -11.396  1.00  0.00     0.021 C 
HETATM   25  C29 UNL     1     -17.137  18.988 -10.267  1.00  0.00     0.046 C 
ENDROOT
BRANCH   9  26
HETATM   26  O2  UNL     1      -9.128  20.189  -9.167  1.00  0.00    -0.315 OA
BRANCH  26  27
HETATM   27  C12 UNL     1      -8.432  19.217  -9.862  1.00  0.00     0.255 C 
HETATM   28  C13 UNL     1      -7.590  19.489 -11.050  1.00  0.00     0.126 C 
HETATM   29  O3  UNL     1      -8.532  18.032  -9.447  1.00  0.00    -0.266 OA
ENDBRANCH  26  27
ENDBRANCH   9  26
BRANCH  15  30
HETATM   30  C20 UNL     1     -12.399  22.778  -6.347  1.00  0.00     0.173 C 
BRANCH  30  31
HETATM   31  O5  UNL     1     -13.127  23.671  -5.547  1.00  0.00    -0.400 OA
ATOM     32  H5  UNL     1     -13.273  23.332  -4.672  1.00  0.00     0.209 HD
ENDBRANCH  30  31
ENDBRANCH  15  30
BRANCH   1  33
HETATM   33  O1  UNL     1     -18.982  19.319 -11.761  1.00  0.00    -0.386 OA
BRANCH  33  34
HETATM   34  C2  UNL     1     -19.384  19.232 -13.068  1.00  0.00     0.163 C 
HETATM   35  C1  UNL     1     -19.860  20.533 -13.655  1.00  0.00     0.033 C 
ENDBRANCH  33  34
ENDBRANCH   1  33
TORSDOF 6
ENDMDL
MODEL 3
REMARK VINA RESULT: -5.228741095      2.902      8.461
REMARK  6 active torsions:
REMARK  status: ('A' for Active; 'I' for Inactive)
REMARK    1  A    between atoms: C2_2  and  O1_3 
REMARK    2  A    between atoms: O1_3  and  C3_4 
REMARK    3  A    between atoms: C11_12  and  O2_13 
REMARK    4  A    between atoms: O2_13  and  C12_14 
REMARK    5  A    between atoms: C18_22  and  C20_24 
REMARK    6  A    between atoms: C20_24  and  O5_25 
ROOT
HETATM    1  C3  UNL     1      -6.381  19.545 -15.073  1.00  0.00     0.126 C 
HETATM    2  C4  UNL     1      -7.251  18.316 -14.935  1.00  0.00     0.066 C 
HETATM    3  C5  UNL     1      -8.369  18.788 -14.090  1.00  0.00    -0.072 C 
HETATM    4  C6  UNL     1      -9.627  18.405 -14.048  1.00  0.00    -0.023 C 
HETATM    5  C7  UNL     1     -10.655  18.976 -13.136  1.00  0.00     0.033 C 
HETATM    6  C8  UNL     1      -9.868  19.615 -12.002  1.00  0.00     0.003 C 
HETATM    7  C9  UNL     1     -10.831  20.034 -10.966  1.00  0.00    -0.003 C 
HETATM    8  C10 UNL     1     -12.215  20.376 -11.474  1.00  0.00     0.039 C 
HETATM    9  C11 UNL     1     -13.095  20.290 -10.252  1.00  0.00     0.148 C 
HETATM   10  C14 UNL     1     -12.595  20.896  -9.032  1.00  0.00     0.048 C 
HETATM   11  C15 UNL     1     -12.954  19.963  -7.847  1.00  0.00     0.026 C 
HETATM   12  C16 UNL     1     -13.266  22.174  -8.684  1.00  0.00     0.139 C 
HETATM   13  O4  UNL     1     -14.209  22.660  -9.241  1.00  0.00    -0.297 OA
HETATM   14  C17 UNL     1     -12.496  22.671  -7.515  1.00  0.00     0.090 C 
HETATM   15  C18 UNL     1     -11.073  22.480  -8.072  1.00  0.00    -0.011 C 
HETATM   16  C19 UNL     1     -10.172  22.340  -6.870  1.00  0.00     0.018 C 
HETATM   17  C21 UNL     1     -11.161  21.236  -8.905  1.00  0.00     0.019 C 
HETATM   18  C22 UNL     1     -10.406  21.250 -10.166  1.00  0.00    -0.004 C 
HETATM   19  C23 UNL     1      -8.913  21.063 -10.018  1.00  0.00     0.006 C 
HETATM   20  C24 UNL     1      -8.349  21.453 -11.375  1.00  0.00     0.011 C 
HETATM   21  C25 UNL     1      -8.894  20.632 -12.502  1.00  0.00    -0.029 C 
HETATM   22  C26 UNL     1      -9.479  21.574 -13.531  1.00  0.00     0.016 C 
HETATM   23  C27 UNL     1      -7.806  19.852 -13.223  1.00  0.00    -0.011 C 
HETATM   24  C28 UNL     1      -6.779  19.312 -12.252  1.00  0.00     0.021 C 
HETATM   25  C29 UNL     1      -7.061  20.653 -14.252  1.00  0.00     0.046 C 
ENDROOT
BRANCH   9  26
HETATM   26  O2  UNL     1     -14.374  20.770 -10.605  1.00  0.00    -0.315 OA
BRANCH  26  27
HETATM   27  C12 UNL     1     -15.523  20.002 -10.614  1.00  0.00     0.255 C 
HETATM   28  C13 UNL     1     -15.536  18.526 -10.490  1.00  0.00     0.126 C 
HETATM   29  O3  UNL     1     -16.619  20.610 -10.738  1.00  0.00    -0.266 OA
ENDBRANCH  26  27
ENDBRANCH   9  26
BRANCH  15  30
HETATM   30  C20 UNL     1     -10.701  23.712  -8.814  1.00  0.00     0.173 C 
BRANCH  30  31
HETATM   31  O5  UNL     1      -9.428  24.182  -8.456  1.00  0.00    -0.400 OA
ATOM     32  H5  UNL     1      -9.472  24.971  -7.929  1.00  0.00     0.209 HD
ENDBRANCH  30  31
ENDBRANCH  15  30
BRANCH   1  33
HETATM   33  O1  UNL     1      -5.091  19.347 -14.653  1.00  0.00    -0.386 OA
BRANCH  33  34
HETATM   34  C2  UNL     1      -4.342  20.488 -14.772  1.00  0.00     0.163 C 
HETATM   35  C1  UNL     1      -3.565  20.848 -13.535  1.00  0.00     0.033 C 
ENDBRANCH  33  34
ENDBRANCH   1  33
TORSDOF 6
ENDMDL
MODEL 4
REMARK VINA RESULT: -5.004834071      2.906      7.333
REMARK  6 active torsions:
REMARK  status: ('A' for Active; 'I' for Inactive)
REMARK    1  A    between atoms: C2_2  and  O1_3 
REMARK    2  A    between atoms: O1_3  and  C3_4 
REMARK    3  A    between atoms: C11_12  and  O2_13 
REMARK    4  A    between atoms: O2_13  and  C12_14 
REMARK    5  A    between atoms: C18_22  and  C20_24 
REMARK    6  A    between atoms: C20_24  and  O5_25 
ROOT
HETATM    1  C3  UNL     1     -18.645  18.671 -10.917  1.00  0.00     0.126 C 
HETATM    2  C4  UNL     1     -18.405  18.567  -9.428  1.00  0.00     0.066 C 
HETATM    3  C5  UNL     1     -17.150  19.327  -9.236  1.00  0.00    -0.072 C 
HETATM    4  C6  UNL     1     -16.722  20.019  -8.202  1.00  0.00    -0.023 C 
HETATM    5  C7  UNL     1     -15.423  20.742  -8.147  1.00  0.00     0.033 C 
HETATM    6  C8  UNL     1     -14.559  20.088  -9.214  1.00  0.00     0.003 C 
HETATM    7  C9  UNL     1     -13.194  20.631  -9.084  1.00  0.00    -0.003 C 
HETATM    8  C10 UNL     1     -13.109  22.032  -8.521  1.00  0.00     0.039 C 
HETATM    9  C11 UNL     1     -11.685  22.161  -8.044  1.00  0.00     0.148 C 
HETATM   10  C14 UNL     1     -10.644  21.664  -8.925  1.00  0.00     0.048 C 
HETATM   11  C15 UNL     1      -9.576  20.949  -8.059  1.00  0.00     0.026 C 
HETATM   12  C16 UNL     1      -9.877  22.739  -9.605  1.00  0.00     0.139 C 
HETATM   13  O4  UNL     1      -9.973  23.917  -9.410  1.00  0.00    -0.297 OA
HETATM   14  C17 UNL     1      -8.998  22.003 -10.550  1.00  0.00     0.090 C 
HETATM   15  C18 UNL     1     -10.052  21.067 -11.171  1.00  0.00    -0.011 C 
HETATM   16  C19 UNL     1      -9.292  19.865 -11.676  1.00  0.00     0.018 C 
HETATM   17  C21 UNL     1     -10.987  20.754 -10.040  1.00  0.00     0.019 C 
HETATM   18  C22 UNL     1     -12.415  20.693 -10.384  1.00  0.00    -0.004 C 
HETATM   19  C23 UNL     1     -12.844  19.436 -11.106  1.00  0.00     0.006 C 
HETATM   20  C24 UNL     1     -14.231  19.763 -11.637  1.00  0.00     0.011 C 
HETATM   21  C25 UNL     1     -15.204  20.135 -10.561  1.00  0.00    -0.029 C 
HETATM   22  C26 UNL     1     -15.788  21.487 -10.904  1.00  0.00     0.016 C 
HETATM   23  C27 UNL     1     -16.383  19.178 -10.497  1.00  0.00    -0.011 C 
HETATM   24  C28 UNL     1     -15.945  17.748 -10.731  1.00  0.00     0.021 C 
HETATM   25  C29 UNL     1     -17.468  19.475 -11.492  1.00  0.00     0.046 C 
ENDROOT
BRANCH   9  26
HETATM   26  O2  UNL     1     -11.472  23.503  -7.666  1.00  0.00    -0.315 OA
BRANCH  26  27
HETATM   27  C12 UNL     1     -11.336  23.937  -6.361  1.00  0.00     0.255 C 
HETATM   28  C13 UNL     1     -12.404  23.841  -5.339  1.00  0.00     0.126 C 
HETATM   29  O3  UNL     1     -10.230  24.444  -6.037  1.00  0.00    -0.266 OA
ENDBRANCH  26  27
ENDBRANCH   9  26
BRANCH  15  30
HETATM   30  C20 UNL     1     -10.668  21.769 -12.325  1.00  0.00     0.173 C 
BRANCH  30  31
HETATM   31  O5  UNL     1     -10.670  20.982 -13.486  1.00  0.00    -0.400 OA
ATOM     32  H5  UNL     1      -9.866  20.486 -13.585  1.00  0.00     0.209 HD
ENDBRANCH  30  31
ENDBRANCH  15  30
BRANCH   1  33
HETATM   33  O1  UNL     1     -18.753  17.453 -11.536  1.00  0.00    -0.386 OA
BRANCH  33  34
HETATM   34  C2  UNL     1     -19.491  17.535 -12.687  1.00  0.00     0.163 C 
HETATM   35  C1  UNL     1     -18.670  17.587 -13.946  1.00  0.00     0.033 C 
ENDBRANCH  33  34
ENDBRANCH   1  33
TORSDOF 6
ENDMDL
MODEL 5
REMARK VINA RESULT: -4.876592395      2.037      4.548
REMARK  6 active torsions:
REMARK  status: ('A' for Active; 'I' for Inactive)
REMARK    1  A    between atoms: C2_2  and  O1_3 
REMARK    2  A    between atoms: O1_3  and  C3_4 
REMARK    3  A    between atoms: C11_12  and  O2_13 
REMARK    4  A    between atoms: O2_13  and  C12_14 
REMARK    5  A    between atoms: C18_22  and  C20_24 
REMARK    6  A    between atoms: C20_24  and  O5_25 
ROOT
HETATM    1  C3  UNL     1     -11.730  23.452  -5.181  1.00  0.00     0.126 C 
HETATM    2  C4  UNL     1     -13.040  23.283  -5.917  1.00  0.00     0.066 C 
HETATM    3  C5  UNL     1     -12.644  22.562  -7.147  1.00  0.00    -0.072 C 
HETATM    4  C6  UNL     1     -13.316  21.708  -7.889  1.00  0.00    -0.023 C 
HETATM    5  C7  UNL     1     -12.786  21.051  -9.114  1.00  0.00     0.033 C 
HETATM    6  C8  UNL     1     -11.638  21.938  -9.574  1.00  0.00     0.003 C 
HETATM    7  C9  UNL     1     -11.190  21.447 -10.890  1.00  0.00    -0.003 C 
HETATM    8  C10 UNL     1     -11.407  19.970 -11.135  1.00  0.00     0.039 C 
HETATM    9  C11 UNL     1     -11.339  19.823 -12.635  1.00  0.00     0.148 C 
HETATM   10  C14 UNL     1     -10.272  20.527 -13.321  1.00  0.00     0.048 C 
HETATM   11  C15 UNL     1     -10.847  21.116 -14.635  1.00  0.00     0.026 C 
HETATM   12  C16 UNL     1      -9.177  19.640 -13.789  1.00  0.00     0.139 C 
HETATM   13  O4  UNL     1      -9.159  18.443 -13.743  1.00  0.00    -0.297 OA
HETATM   14  C17 UNL     1      -8.153  20.584 -14.306  1.00  0.00     0.090 C 
HETATM   15  C18 UNL     1      -8.121  21.568 -13.122  1.00  0.00    -0.011 C 
HETATM   16  C19 UNL     1      -7.632  22.879 -13.687  1.00  0.00     0.018 C 
HETATM   17  C21 UNL     1      -9.538  21.615 -12.636  1.00  0.00     0.019 C 
HETATM   18  C22 UNL     1      -9.718  21.670 -11.178  1.00  0.00    -0.004 C 
HETATM   19  C23 UNL     1      -9.443  23.019 -10.552  1.00  0.00     0.006 C 
HETATM   20  C24 UNL     1      -9.361  22.732  -9.062  1.00  0.00     0.011 C 
HETATM   21  C25 UNL     1     -10.607  22.116  -8.507  1.00  0.00    -0.029 C 
HETATM   22  C26 UNL     1     -10.226  20.826  -7.815  1.00  0.00     0.016 C 
HETATM   23  C27 UNL     1     -11.253  22.985  -7.440  1.00  0.00    -0.011 C 
HETATM   24  C28 UNL     1     -11.167  24.453  -7.799  1.00  0.00     0.021 C 
HETATM   25  C29 UNL     1     -10.646  22.829  -6.075  1.00  0.00     0.046 C 
ENDROOT
BRANCH   9  26
HETATM   26  O2  UNL     1     -11.353  18.445 -12.937  1.00  0.00    -0.315 OA
BRANCH  26  27
HETATM   27  C12 UNL     1     -12.360  17.807 -13.637  1.00  0.00     0.255 C 
HETATM   28  C13 UNL     1     -13.676  17.453 -13.057  1.00  0.00     0.126 C 
HETATM   29  O3  UNL     1     -12.128  17.516 -14.839  1.00  0.00    -0.266 OA
ENDBRANCH  26  27
ENDBRANCH   9  26
BRANCH  15  30
HETATM   30  C20 UNL     1      -7.130  21.069 -12.135  1.00  0.00     0.173 C 
BRANCH  30  31
HETATM   31  O5  UNL     1      -5.809  21.315 -12.537  1.00  0.00    -0.400 OA
ATOM     32  H5  UNL     1      -5.188  21.187 -11.830  1.00  0.00     0.209 HD
ENDBRANCH  30  31
ENDBRANCH  15  30
BRANCH   1  33
HETATM   33  O1  UNL     1     -11.435  24.758  -4.892  1.00  0.00    -0.386 OA
BRANCH  33  34
HETATM   34  C2  UNL     1     -12.335  25.296  -4.010  1.00  0.00     0.163 C 
HETATM   35  C1  UNL     1     -12.240  26.790  -3.865  1.00  0.00     0.033 C 
ENDBRANCH  33  34
ENDBRANCH   1  33
TORSDOF 6
ENDMDL
