MODEL 1
REMARK VINA RESULT: -7.310235379      0.000      0.000
REMARK  7 active torsions:
REMARK  status: ('A' for Active; 'I' for Inactive)
REMARK    1  A    between atoms: N1_2  and  C3_4 
REMARK    2  A    between atoms: C3_4  and  C4_5 
REMARK    3  A    between atoms: N2_6  and  N3_8 
REMARK    4  A    between atoms: C5_10  and  N4_11 
REMARK    5  A    between atoms: C5_10  and  C23_34 
REMARK    6  A    between atoms: N4_11  and  C6_13 
REMARK    7  A    between atoms: C9_19  and  C11_21 
ROOT
HETATM    1  C6  UNL     1      -9.852  27.351  -2.778  1.00  0.00     0.151 A 
HETATM    2  N5  UNL     1      -9.528  28.189  -1.796  1.00  0.00    -0.335 N 
ATOM      3  H5  UNL     1     -10.016  28.152  -0.900  1.00  0.00     0.168 HD
HETATM    4  C7  UNL     1      -8.571  29.065  -1.999  1.00  0.00     0.064 A 
HETATM    5  C8  UNL     1      -7.963  29.060  -3.218  1.00  0.00     0.053 A 
HETATM    6  S1  UNL     1      -8.794  27.789  -4.031  1.00  0.00    -0.053 SA
HETATM    7  C9  UNL     1      -6.856  29.975  -3.650  1.00  0.00     0.127 A 
HETATM    8  C10 UNL     1      -5.647  29.102  -3.937  1.00  0.00     0.058 C 
HETATM    9  O1  UNL     1      -6.514  30.836  -2.630  1.00  0.00    -0.329 OA
HETATM   10  C17 UNL     1      -7.073  30.905  -1.388  1.00  0.00     0.083 A 
HETATM   11  C18 UNL     1      -6.600  31.847  -0.490  1.00  0.00     0.038 A 
HETATM   12  C19 UNL     1      -7.115  31.968   0.766  1.00  0.00     0.003 A 
HETATM   13  C20 UNL     1      -8.149  31.109   1.145  1.00  0.00     0.001 A 
HETATM   14  C21 UNL     1      -8.614  30.179   0.255  1.00  0.00     0.016 A 
HETATM   15  C22 UNL     1      -8.079  30.074  -1.012  1.00  0.00     0.025 A 
ENDROOT
BRANCH   1  16
HETATM   16  N4  UNL     1     -10.780  26.413  -2.752  1.00  0.00    -0.321 N 
ATOM     17  H4  UNL     1     -10.694  25.648  -2.082  1.00  0.00     0.169 HD
BRANCH  16  18
HETATM   18  C5  UNL     1     -11.881  26.437  -3.620  1.00  0.00     0.132 C 
HETATM   19  N3  UNL     1     -11.916  25.592  -4.599  1.00  0.00    -0.285 N 
ATOM     20  H3  UNL     1     -12.712  25.600  -5.237  1.00  0.00     0.188 HD
BRANCH  19  21
HETATM   21  N2  UNL     1     -10.887  24.667  -4.805  1.00  0.00    -0.312 N 
HETATM   22  C4  UNL     1     -10.679  24.144  -5.989  1.00  0.00     0.110 C 
ATOM     23  H2  UNL     1     -10.290  24.396  -4.024  1.00  0.00     0.185 HD
BRANCH  22  24
HETATM   24  C3  UNL     1      -9.612  23.173  -6.241  1.00  0.00     0.317 C 
BRANCH  24  25
HETATM   25  N1  UNL     1      -9.829  22.421  -7.477  1.00  0.00     0.084 N 
HETATM   26  C1  UNL     1      -9.915  23.391  -8.540  1.00  0.00     0.309 C 
HETATM   27  C2  UNL     1     -11.059  21.657  -7.413  1.00  0.00     0.309 C 
ENDBRANCH  24  25
ENDBRANCH  22  24
ENDBRANCH  19  21
BRANCH  18  28
HETATM   28  C23 UNL     1     -13.002  27.358  -3.492  1.00  0.00     0.009 A 
HETATM   29  C24 UNL     1     -12.953  28.654  -3.958  1.00  0.00     0.015 A 
HETATM   30  C25 UNL     1     -14.018  29.537  -3.840  1.00  0.00     0.001 A 
HETATM   31  C26 UNL     1     -15.156  29.060  -3.224  1.00  0.00     0.000 A 
HETATM   32  C27 UNL     1     -15.234  27.771  -2.748  1.00  0.00     0.001 A 
HETATM   33  C28 UNL     1     -14.164  26.938  -2.886  1.00  0.00     0.015 A 
ENDBRANCH  18  28
ENDBRANCH  16  18
ENDBRANCH   1  16
BRANCH   7  34
HETATM   34  C11 UNL     1      -7.216  30.749  -4.835  1.00  0.00    -0.018 A 
HETATM   35  C12 UNL     1      -8.193  31.721  -4.835  1.00  0.00     0.010 A 
HETATM   36  C13 UNL     1      -8.506  32.436  -5.989  1.00  0.00     0.001 A 
HETATM   37  C14 UNL     1      -7.825  32.170  -7.159  1.00  0.00     0.000 A 
HETATM   38  C15 UNL     1      -6.859  31.214  -7.171  1.00  0.00     0.001 A 
HETATM   39  C16 UNL     1      -6.556  30.508  -6.018  1.00  0.00     0.010 A 
ENDBRANCH   7  34
TORSDOF 7
ENDMDL
MODEL 2
REMARK VINA RESULT: -7.058620216      3.298      9.251
REMARK  7 active torsions:
REMARK  status: ('A' for Active; 'I' for Inactive)
REMARK    1  A    between atoms: N1_2  and  C3_4 
REMARK    2  A    between atoms: C3_4  and  C4_5 
REMARK    3  A    between atoms: N2_6  and  N3_8 
REMARK    4  A    between atoms: C5_10  and  N4_11 
REMARK    5  A    between atoms: C5_10  and  C23_34 
REMARK    6  A    between atoms: N4_11  and  C6_13 
REMARK    7  A    between atoms: C9_19  and  C11_21 
ROOT
HETATM    1  C6  UNL     1     -11.002  23.995  -5.126  1.00  0.00     0.151 A 
HETATM    2  N5  UNL     1     -10.385  24.255  -6.277  1.00  0.00    -0.335 N 
ATOM      3  H5  UNL     1      -9.727  25.031  -6.350  1.00  0.00     0.168 HD
HETATM    4  C7  UNL     1     -10.639  23.495  -7.318  1.00  0.00     0.064 A 
HETATM    5  C8  UNL     1     -11.528  22.476  -7.150  1.00  0.00     0.053 A 
HETATM    6  S1  UNL     1     -11.968  22.649  -5.494  1.00  0.00    -0.053 SA
HETATM    7  C9  UNL     1     -11.953  21.501  -8.207  1.00  0.00     0.127 A 
HETATM    8  C10 UNL     1     -11.514  20.124  -7.741  1.00  0.00     0.058 C 
HETATM    9  O1  UNL     1     -11.308  21.762  -9.396  1.00  0.00    -0.329 OA
HETATM   10  C17 UNL     1     -10.410  22.759  -9.644  1.00  0.00     0.083 A 
HETATM   11  C18 UNL     1      -9.866  22.872 -10.912  1.00  0.00     0.038 A 
HETATM   12  C19 UNL     1      -8.964  23.845 -11.225  1.00  0.00     0.003 A 
HETATM   13  C20 UNL     1      -8.586  24.746 -10.227  1.00  0.00     0.001 A 
HETATM   14  C21 UNL     1      -9.126  24.631  -8.974  1.00  0.00     0.016 A 
HETATM   15  C22 UNL     1     -10.038  23.638  -8.679  1.00  0.00     0.025 A 
ENDROOT
BRANCH   1  16
HETATM   16  N4  UNL     1     -10.871  24.649  -3.986  1.00  0.00    -0.321 N 
ATOM     17  H4  UNL     1     -10.031  24.504  -3.426  1.00  0.00     0.169 HD
BRANCH  16  18
HETATM   18  C5  UNL     1     -11.853  25.536  -3.525  1.00  0.00     0.132 C 
HETATM   19  N3  UNL     1     -11.523  26.769  -3.314  1.00  0.00    -0.285 N 
ATOM     20  H3  UNL     1     -12.230  27.424  -2.978  1.00  0.00     0.188 HD
BRANCH  19  21
HETATM   21  N2  UNL     1     -10.221  27.227  -3.536  1.00  0.00    -0.312 N 
HETATM   22  C4  UNL     1      -9.680  28.126  -2.750  1.00  0.00     0.110 C 
ATOM     23  H2  UNL     1      -9.683  26.856  -4.320  1.00  0.00     0.185 HD
BRANCH  22  24
HETATM   24  C3  UNL     1      -8.319  28.629  -2.953  1.00  0.00     0.317 C 
BRANCH  24  25
HETATM   25  N1  UNL     1      -8.257  30.090  -2.911  1.00  0.00     0.084 N 
HETATM   26  C1  UNL     1      -7.844  30.522  -4.223  1.00  0.00     0.309 C 
HETATM   27  C2  UNL     1      -7.297  30.542  -1.924  1.00  0.00     0.309 C 
ENDBRANCH  24  25
ENDBRANCH  22  24
ENDBRANCH  19  21
BRANCH  18  28
HETATM   28  C23 UNL     1     -13.235  25.160  -3.263  1.00  0.00     0.009 A 
HETATM   29  C24 UNL     1     -13.685  23.863  -3.378  1.00  0.00     0.015 A 
HETATM   30  C25 UNL     1     -15.001  23.497  -3.130  1.00  0.00     0.001 A 
HETATM   31  C26 UNL     1     -15.867  24.505  -2.756  1.00  0.00     0.000 A 
HETATM   32  C27 UNL     1     -15.447  25.810  -2.634  1.00  0.00     0.001 A 
HETATM   33  C28 UNL     1     -14.145  26.122  -2.887  1.00  0.00     0.015 A 
ENDBRANCH  18  28
ENDBRANCH  16  18
ENDBRANCH   1  16
BRANCH   7  34
HETATM   34  C11 UNL     1     -13.397  21.525  -8.425  1.00  0.00    -0.018 A 
HETATM   35  C12 UNL     1     -14.315  21.194  -7.452  1.00  0.00     0.010 A 
HETATM   36  C13 UNL     1     -15.684  21.230  -7.703  1.00  0.00     0.001 A 
HETATM   37  C14 UNL     1     -16.138  21.606  -8.950  1.00  0.00     0.000 A 
HETATM   38  C15 UNL     1     -15.242  21.936  -9.918  1.00  0.00     0.001 A 
HETATM   39  C16 UNL     1     -13.881  21.896  -9.659  1.00  0.00     0.010 A 
ENDBRANCH   7  34
TORSDOF 7
ENDMDL
MODEL 3
REMARK VINA RESULT: -6.537138928      5.060     11.038
REMARK  7 active torsions:
REMARK  status: ('A' for Active; 'I' for Inactive)
REMARK    1  A    between atoms: N1_2  and  C3_4 
REMARK    2  A    between atoms: C3_4  and  C4_5 
REMARK    3  A    between atoms: N2_6  and  N3_8 
REMARK    4  A    between atoms: C5_10  and  N4_11 
REMARK    5  A    between atoms: C5_10  and  C23_34 
REMARK    6  A    between atoms: N4_11  and  C6_13 
REMARK    7  A    between atoms: C9_19  and  C11_21 
ROOT
HETATM    1  C6  UNL     1     -10.458  21.674  -8.379  1.00  0.00     0.151 A 
HETATM    2  N5  UNL     1      -9.952  22.640  -9.143  1.00  0.00    -0.335 N 
ATOM      3  H5  UNL     1     -10.071  23.621  -8.886  1.00  0.00     0.168 HD
HETATM    4  C7  UNL     1      -9.298  22.310 -10.232  1.00  0.00     0.064 A 
HETATM    5  C8  UNL     1      -9.177  20.982 -10.515  1.00  0.00     0.053 A 
HETATM    6  S1  UNL     1     -10.013  20.255  -9.196  1.00  0.00    -0.053 SA
HETATM    7  C9  UNL     1      -8.474  20.399 -11.703  1.00  0.00     0.127 A 
HETATM    8  C10 UNL     1      -7.318  19.570 -11.171  1.00  0.00     0.058 C 
HETATM    9  O1  UNL     1      -7.941  21.397 -12.489  1.00  0.00    -0.329 OA
HETATM   10  C17 UNL     1      -8.019  22.743 -12.276  1.00  0.00     0.083 A 
HETATM   11  C18 UNL     1      -7.423  23.602 -13.184  1.00  0.00     0.038 A 
HETATM   12  C19 UNL     1      -7.465  24.955 -13.031  1.00  0.00     0.003 A 
HETATM   13  C20 UNL     1      -8.130  25.477 -11.919  1.00  0.00     0.001 A 
HETATM   14  C21 UNL     1      -8.717  24.625 -11.023  1.00  0.00     0.016 A 
HETATM   15  C22 UNL     1      -8.663  23.257 -11.198  1.00  0.00     0.025 A 
ENDROOT
BRANCH   1  16
HETATM   16  N4  UNL     1     -11.141  21.819  -7.258  1.00  0.00    -0.321 N 
ATOM     17  H4  UNL     1     -10.656  21.717  -6.366  1.00  0.00     0.169 HD
BRANCH  16  18
HETATM   18  C5  UNL     1     -12.512  22.109  -7.258  1.00  0.00     0.132 C 
HETATM   19  N3  UNL     1     -12.953  23.014  -6.444  1.00  0.00    -0.285 N 
ATOM     20  H3  UNL     1     -13.950  23.233  -6.436  1.00  0.00     0.188 HD
BRANCH  19  21
HETATM   21  N2  UNL     1     -12.097  23.698  -5.576  1.00  0.00    -0.312 N 
HETATM   22  C4  UNL     1     -12.565  24.577  -4.724  1.00  0.00     0.110 C 
ATOM     23  H2  UNL     1     -11.095  23.511  -5.606  1.00  0.00     0.185 HD
BRANCH  22  24
HETATM   24  C3  UNL     1     -11.698  25.313  -3.801  1.00  0.00     0.317 C 
BRANCH  24  25
HETATM   25  N1  UNL     1     -12.287  26.587  -3.385  1.00  0.00     0.084 N 
HETATM   26  C1  UNL     1     -12.941  27.136  -4.545  1.00  0.00     0.309 C 
HETATM   27  C2  UNL     1     -11.265  27.504  -2.919  1.00  0.00     0.309 C 
ENDBRANCH  24  25
ENDBRANCH  22  24
ENDBRANCH  19  21
BRANCH  18  28
HETATM   28  C23 UNL     1     -13.485  21.455  -8.121  1.00  0.00     0.009 A 
HETATM   29  C24 UNL     1     -13.717  20.097  -8.081  1.00  0.00     0.015 A 
HETATM   30  C25 UNL     1     -14.643  19.467  -8.901  1.00  0.00     0.001 A 
HETATM   31  C26 UNL     1     -15.342  20.267  -9.780  1.00  0.00     0.000 A 
HETATM   32  C27 UNL     1     -15.132  21.626  -9.843  1.00  0.00     0.001 A 
HETATM   33  C28 UNL     1     -14.212  22.202  -9.019  1.00  0.00     0.015 A 
ENDBRANCH  18  28
ENDBRANCH  16  18
ENDBRANCH   1  16
BRANCH   7  34
HETATM   34  C11 UNL     1      -9.362  19.570 -12.513  1.00  0.00    -0.018 A 
HETATM   35  C12 UNL     1      -9.148  18.228 -12.738  1.00  0.00     0.010 A 
HETATM   36  C13 UNL     1     -10.020  17.473 -13.518  1.00  0.00     0.001 A 
HETATM   37  C14 UNL     1     -11.126  18.078 -14.080  1.00  0.00     0.000 A 
HETATM   38  C15 UNL     1     -11.349  19.401 -13.865  1.00  0.00     0.001 A 
HETATM   39  C16 UNL     1     -10.474  20.143 -13.087  1.00  0.00     0.010 A 
ENDBRANCH   7  34
TORSDOF 7
ENDMDL
MODEL 4
REMARK VINA RESULT: -6.369076550      5.491     11.944
REMARK  7 active torsions:
REMARK  status: ('A' for Active; 'I' for Inactive)
REMARK    1  A    between atoms: N1_2  and  C3_4 
REMARK    2  A    between atoms: C3_4  and  C4_5 
REMARK    3  A    between atoms: N2_6  and  N3_8 
REMARK    4  A    between atoms: C5_10  and  N4_11 
REMARK    5  A    between atoms: C5_10  and  C23_34 
REMARK    6  A    between atoms: N4_11  and  C6_13 
REMARK    7  A    between atoms: C9_19  and  C11_21 
ROOT
HETATM    1  C6  UNL     1     -10.540  22.616  -9.658  1.00  0.00     0.151 A 
HETATM    2  N5  UNL     1     -11.190  21.952 -10.611  1.00  0.00    -0.335 N 
ATOM      3  H5  UNL     1     -12.181  21.730 -10.505  1.00  0.00     0.168 HD
HETATM    4  C7  UNL     1     -10.536  21.587 -11.689  1.00  0.00     0.064 A 
HETATM    5  C8  UNL     1      -9.215  21.916 -11.765  1.00  0.00     0.053 A 
HETATM    6  S1  UNL     1      -8.963  22.742 -10.274  1.00  0.00    -0.053 SA
HETATM    7  C9  UNL     1      -8.295  21.592 -12.903  1.00  0.00     0.127 A 
HETATM    8  C10 UNL     1      -7.832  22.915 -13.487  1.00  0.00     0.058 C 
HETATM    9  O1  UNL     1      -8.970  20.914 -13.894  1.00  0.00    -0.329 OA
HETATM   10  C17 UNL     1     -10.284  20.548 -13.894  1.00  0.00     0.083 A 
HETATM   11  C18 UNL     1     -10.790  19.861 -14.984  1.00  0.00     0.038 A 
HETATM   12  C19 UNL     1     -12.093  19.466 -15.046  1.00  0.00     0.003 A 
HETATM   13  C20 UNL     1     -12.931  19.774 -13.972  1.00  0.00     0.001 A 
HETATM   14  C21 UNL     1     -12.428  20.454 -12.896  1.00  0.00     0.016 A 
HETATM   15  C22 UNL     1     -11.105  20.844 -12.854  1.00  0.00     0.025 A 
ENDROOT
BRANCH   1  16
HETATM   16  N4  UNL     1     -11.033  23.058  -8.515  1.00  0.00    -0.321 N 
ATOM     17  H4  UNL     1     -11.068  24.063  -8.346  1.00  0.00     0.169 HD
BRANCH  16  18
HETATM   18  C5  UNL     1     -11.508  22.184  -7.528  1.00  0.00     0.132 C 
HETATM   19  N3  UNL     1     -12.084  22.687  -6.482  1.00  0.00    -0.285 N 
ATOM     20  H3  UNL     1     -12.434  22.060  -5.757  1.00  0.00     0.188 HD
BRANCH  19  21
HETATM   21  N2  UNL     1     -12.237  24.067  -6.323  1.00  0.00    -0.312 N 
HETATM   22  C4  UNL     1     -12.532  24.581  -5.154  1.00  0.00     0.110 C 
ATOM     23  H2  UNL     1     -12.116  24.683  -7.128  1.00  0.00     0.185 HD
BRANCH  22  24
HETATM   24  C3  UNL     1     -12.700  26.023  -4.951  1.00  0.00     0.317 C 
BRANCH  24  25
HETATM   25  N1  UNL     1     -12.590  26.399  -3.541  1.00  0.00     0.084 N 
HETATM   26  C1  UNL     1     -13.788  25.925  -2.895  1.00  0.00     0.309 C 
HETATM   27  C2  UNL     1     -12.491  27.838  -3.393  1.00  0.00     0.309 C 
ENDBRANCH  24  25
ENDBRANCH  22  24
ENDBRANCH  19  21
BRANCH  18  28
HETATM   28  C23 UNL     1     -11.399  20.734  -7.598  1.00  0.00     0.009 A 
HETATM   29  C24 UNL     1     -10.187  20.080  -7.573  1.00  0.00     0.015 A 
HETATM   30  C25 UNL     1     -10.076  18.698  -7.639  1.00  0.00     0.001 A 
HETATM   31  C26 UNL     1     -11.252  17.983  -7.734  1.00  0.00     0.000 A 
HETATM   32  C27 UNL     1     -12.477  18.608  -7.762  1.00  0.00     0.001 A 
HETATM   33  C28 UNL     1     -12.539  19.968  -7.694  1.00  0.00     0.015 A 
ENDBRANCH  18  28
ENDBRANCH  16  18
ENDBRANCH   1  16
BRANCH   7  34
HETATM   34  C11 UNL     1      -7.147  20.799 -12.470  1.00  0.00    -0.018 A 
HETATM   35  C12 UNL     1      -7.262  19.652 -11.715  1.00  0.00     0.010 A 
HETATM   36  C13 UNL     1      -6.141  18.925 -11.323  1.00  0.00     0.001 A 
HETATM   37  C14 UNL     1      -4.885  19.357 -11.698  1.00  0.00     0.000 A 
HETATM   38  C15 UNL     1      -4.759  20.486 -12.443  1.00  0.00     0.001 A 
HETATM   39  C16 UNL     1      -5.881  21.203 -12.828  1.00  0.00     0.010 A 
ENDBRANCH   7  34
TORSDOF 7
ENDMDL
MODEL 5
REMARK VINA RESULT: -6.198605893      6.341     10.529
REMARK  7 active torsions:
REMARK  status: ('A' for Active; 'I' for Inactive)
REMARK    1  A    between atoms: N1_2  and  C3_4 
REMARK    2  A    between atoms: C3_4  and  C4_5 
REMARK    3  A    between atoms: N2_6  and  N3_8 
REMARK    4  A    between atoms: C5_10  and  N4_11 
REMARK    5  A    between atoms: C5_10  and  C23_34 
REMARK    6  A    between atoms: N4_11  and  C6_13 
REMARK    7  A    between atoms: C9_19  and  C11_21 
ROOT
HETATM    1  C6  UNL     1     -10.823  21.326  -7.957  1.00  0.00     0.151 A 
HETATM    2  N5  UNL     1     -10.307  22.342  -8.645  1.00  0.00    -0.335 N 
ATOM      3  H5  UNL     1     -10.404  23.301  -8.308  1.00  0.00     0.168 HD
HETATM    4  C7  UNL     1      -9.670  22.091  -9.765  1.00  0.00     0.064 A 
HETATM    5  C8  UNL     1      -9.577  20.789 -10.158  1.00  0.00     0.053 A 
HETATM    6  S1  UNL     1     -10.413  19.971  -8.893  1.00  0.00    -0.053 SA
HETATM    7  C9  UNL     1      -8.897  20.294 -11.399  1.00  0.00     0.127 A 
HETATM    8  C10 UNL     1      -7.752  19.403 -10.950  1.00  0.00     0.058 C 
HETATM    9  O1  UNL     1      -8.354  21.344 -12.106  1.00  0.00    -0.329 OA
HETATM   10  C17 UNL     1      -8.405  22.669 -11.783  1.00  0.00     0.083 A 
HETATM   11  C18 UNL     1      -7.803  23.589 -12.624  1.00  0.00     0.038 A 
HETATM   12  C19 UNL     1      -7.818  24.925 -12.359  1.00  0.00     0.003 A 
HETATM   13  C20 UNL     1      -8.461  25.365 -11.200  1.00  0.00     0.001 A 
HETATM   14  C21 UNL     1      -9.055  24.453 -10.371  1.00  0.00     0.016 A 
HETATM   15  C22 UNL     1      -9.028  23.104 -10.658  1.00  0.00     0.025 A 
ENDROOT
BRANCH   1  16
HETATM   16  N4  UNL     1     -11.490  21.390  -6.820  1.00  0.00    -0.321 N 
ATOM     17  H4  UNL     1     -11.286  20.711  -6.086  1.00  0.00     0.169 HD
BRANCH  16  18
HETATM   18  C5  UNL     1     -12.471  22.365  -6.591  1.00  0.00     0.132 C 
HETATM   19  N3  UNL     1     -13.518  22.380  -7.353  1.00  0.00    -0.285 N 
ATOM     20  H3  UNL     1     -14.238  23.085  -7.195  1.00  0.00     0.188 HD
BRANCH  19  21
HETATM   21  N2  UNL     1     -13.685  21.453  -8.386  1.00  0.00    -0.312 N 
HETATM   22  C4  UNL     1     -14.253  21.800  -9.515  1.00  0.00     0.110 C 
ATOM     23  H2  UNL     1     -13.359  20.495  -8.260  1.00  0.00     0.185 HD
BRANCH  22  24
HETATM   24  C3  UNL     1     -14.445  20.855 -10.619  1.00  0.00     0.317 C 
BRANCH  24  25
HETATM   25  N1  UNL     1     -15.836  20.805 -11.069  1.00  0.00     0.084 N 
HETATM   26  C1  UNL     1     -16.477  19.760 -10.311  1.00  0.00     0.309 C 
HETATM   27  C2  UNL     1     -15.914  20.500 -12.484  1.00  0.00     0.309 C 
ENDBRANCH  24  25
ENDBRANCH  22  24
ENDBRANCH  19  21
BRANCH  18  28
HETATM   28  C23 UNL     1     -12.393  23.373  -5.543  1.00  0.00     0.009 A 
HETATM   29  C24 UNL     1     -13.429  23.613  -4.667  1.00  0.00     0.015 A 
HETATM   30  C25 UNL     1     -13.362  24.572  -3.665  1.00  0.00     0.001 A 
HETATM   31  C26 UNL     1     -12.191  25.296  -3.575  1.00  0.00     0.000 A 
HETATM   32  C27 UNL     1     -11.139  25.079  -4.436  1.00  0.00     0.001 A 
HETATM   33  C28 UNL     1     -11.250  24.126  -5.405  1.00  0.00     0.015 A 
ENDBRANCH  18  28
ENDBRANCH  16  18
ENDBRANCH   1  16
BRANCH   7  34
HETATM   34  C11 UNL     1      -9.810  19.551 -12.263  1.00  0.00    -0.018 A 
HETATM   35  C12 UNL     1     -10.984  20.078 -12.754  1.00  0.00     0.010 A 
HETATM   36  C13 UNL     1     -11.827  19.334 -13.576  1.00  0.00     0.001 A 
HETATM   37  C14 UNL     1     -11.483  18.040 -13.910  1.00  0.00     0.000 A 
HETATM   38  C15 UNL     1     -10.327  17.509 -13.433  1.00  0.00     0.001 A 
HETATM   39  C16 UNL     1      -9.495  18.258 -12.615  1.00  0.00     0.010 A 
ENDBRANCH   7  34
TORSDOF 7
ENDMDL
