MODEL 1
REMARK VINA RESULT: -8.449533137      0.000      0.000
REMARK  13 active torsions:
REMARK  status: ('A' for Active; 'I' for Inactive)
REMARK    1  A    between atoms: C1_2  and  C2_4 
REMARK    2  A    between atoms: C2_4  and  C3_5 
REMARK    3  A    between atoms: C3_5  and  C4_6 
REMARK    4  A    between atoms: C4_6  and  C5_7 
REMARK    5  A    between atoms: C5_7  and  C6_8 
REMARK    6  A    between atoms: C6_8  and  C7_9 
REMARK    7  A    between atoms: C7_9  and  C8_10 
REMARK    8  A    between atoms: C8_10  and  N1_11 
REMARK    9  A    between atoms: C11_16  and  N3_17 
REMARK   10  A    between atoms: N3_17  and  C12_19 
REMARK   11  A    between atoms: C12_19  and  C13_20 
REMARK   12  A    between atoms: C18_30  and  N6_31 
REMARK   13  A    between atoms: N6_31  and  C19_33 
ROOT
HETATM    1  N1  UNL     1      46.365  22.690  35.961  1.00  0.00    -0.327 N 
HETATM    2  C9  UNL     1      45.100  22.303  36.190  1.00  0.00     0.185 A 
HETATM    3  N2  UNL     1      45.023  21.661  37.377  1.00  0.00    -0.346 N 
ATOM      4  H2  UNL     1      44.179  21.267  37.791  1.00  0.00     0.167 HD
HETATM    5  C10 UNL     1      46.254  21.635  37.915  1.00  0.00     0.123 A 
HETATM    6  C11 UNL     1      46.725  21.110  39.100  1.00  0.00     0.147 A 
HETATM    7  N5  UNL     1      48.035  21.251  39.357  1.00  0.00    -0.175 N 
ATOM      8  H5  UNL     1      48.415  20.874  40.225  1.00  0.00     0.186 HD
HETATM    9  C18 UNL     1      48.870  21.885  38.487  1.00  0.00     0.681 A 
HETATM   10  N8  UNL     1      48.404  22.393  37.340  1.00  0.00    -0.174 N 
ATOM     11  H8  UNL     1      49.039  22.866  36.697  1.00  0.00     0.186 HD
HETATM   12  C24 UNL     1      47.087  22.279  37.029  1.00  0.00     0.155 A 
ENDROOT
BRANCH   6  13
HETATM   13  N3  UNL     1      45.889  20.521  39.880  1.00  0.00    -0.373 N 
ATOM     14  H3  UNL     1      45.068  21.022  40.218  1.00  0.00     0.161 HD
BRANCH  13  15
HETATM   15  C12 UNL     1      46.116  19.149  40.278  1.00  0.00     0.126 C 
BRANCH  15  16
HETATM   16  C13 UNL     1      46.442  18.307  39.063  1.00  0.00     0.006 C 
HETATM   17  C14 UNL     1      45.228  18.071  38.179  1.00  0.00     0.034 C 
HETATM   18  C15 UNL     1      45.771  17.349  36.939  1.00  0.00     0.232 C 
HETATM   19  N4  UNL     1      46.278  16.051  37.301  1.00  0.00    -0.075 N 
HETATM   20  C16 UNL     1      47.269  16.071  38.340  1.00  0.00     0.232 C 
ATOM     21  H42 UNL     1      45.511  15.426  37.552  1.00  0.00     0.277 HD
ATOM     22  H41 UNL     1      46.635  15.565  36.477  1.00  0.00     0.277 HD
HETATM   23  C17 UNL     1      46.885  16.930  39.523  1.00  0.00     0.034 C 
ENDBRANCH  15  16
ENDBRANCH  13  15
ENDBRANCH   6  13
BRANCH   9  24
HETATM   24  N6  UNL     1      50.107  21.968  38.823  1.00  0.00    -0.221 N 
ATOM     25  H6  UNL     1      50.561  22.875  38.709  1.00  0.00     0.178 HD
BRANCH  24  26
HETATM   26  C19 UNL     1      50.903  20.904  39.340  1.00  0.00     0.102 C 
HETATM   27  C20 UNL     1      52.143  21.415  40.068  1.00  0.00     0.053 C 
HETATM   28  C21 UNL     1      53.229  20.351  40.015  1.00  0.00     0.234 C 
HETATM   29  N7  UNL     1      53.771  20.244  38.683  1.00  0.00    -0.075 N 
HETATM   30  C22 UNL     1      52.736  20.525  37.698  1.00  0.00     0.234 C 
ATOM     31  H72 UNL     1      54.591  20.836  38.556  1.00  0.00     0.277 HD
ATOM     32  H71 UNL     1      54.215  19.339  38.523  1.00  0.00     0.277 HD
HETATM   33  C23 UNL     1      51.414  20.003  38.227  1.00  0.00     0.053 C 
ENDBRANCH  24  26
ENDBRANCH   9  24
BRANCH   1  34
HETATM   34  C8  UNL     1      46.873  23.404  34.803  1.00  0.00     0.131 C 
BRANCH  34  35
HETATM   35  C7  UNL     1      45.948  23.064  33.657  1.00  0.00     0.020 C 
BRANCH  35  36
HETATM   36  C6  UNL     1      46.590  23.351  32.302  1.00  0.00     0.002 C 
BRANCH  36  37
HETATM   37  C5  UNL     1      45.812  24.465  31.669  1.00  0.00     0.000 C 
BRANCH  37  38
HETATM   38  C4  UNL     1      45.875  25.757  32.478  1.00  0.00     0.001 C 
BRANCH  38  39
HETATM   39  C3  UNL     1      44.748  26.642  32.111  1.00  0.00     0.010 C 
BRANCH  39  40
HETATM   40  C2  UNL     1      44.094  26.267  30.815  1.00  0.00     0.113 C 
BRANCH  40  41
HETATM   41  C1  UNL     1      42.672  26.591  30.819  1.00  0.00     0.172 C 
HETATM   42  O1  UNL     1      42.052  26.956  29.819  1.00  0.00    -0.648 OA
HETATM   43  O2  UNL     1      41.996  26.470  32.046  1.00  0.00    -0.648 OA
ENDBRANCH  40  41
ENDBRANCH  39  40
ENDBRANCH  38  39
ENDBRANCH  37  38
ENDBRANCH  36  37
ENDBRANCH  35  36
ENDBRANCH  34  35
ENDBRANCH   1  34
TORSDOF 13
ENDMDL
MODEL 2
REMARK VINA RESULT: -8.438941946      3.100      7.212
REMARK  13 active torsions:
REMARK  status: ('A' for Active; 'I' for Inactive)
REMARK    1  A    between atoms: C1_2  and  C2_4 
REMARK    2  A    between atoms: C2_4  and  C3_5 
REMARK    3  A    between atoms: C3_5  and  C4_6 
REMARK    4  A    between atoms: C4_6  and  C5_7 
REMARK    5  A    between atoms: C5_7  and  C6_8 
REMARK    6  A    between atoms: C6_8  and  C7_9 
REMARK    7  A    between atoms: C7_9  and  C8_10 
REMARK    8  A    between atoms: C8_10  and  N1_11 
REMARK    9  A    between atoms: C11_16  and  N3_17 
REMARK   10  A    between atoms: N3_17  and  C12_19 
REMARK   11  A    between atoms: C12_19  and  C13_20 
REMARK   12  A    between atoms: C18_30  and  N6_31 
REMARK   13  A    between atoms: N6_31  and  C19_33 
ROOT
HETATM    1  N1  UNL     1      44.769  20.623  37.552  1.00  0.00    -0.327 N 
HETATM    2  C9  UNL     1      44.005  21.144  36.578  1.00  0.00     0.185 A 
HETATM    3  N2  UNL     1      44.693  22.101  35.915  1.00  0.00    -0.346 N 
ATOM      4  H2  UNL     1      44.347  22.653  35.131  1.00  0.00     0.167 HD
HETATM    5  C10 UNL     1      45.912  22.195  36.472  1.00  0.00     0.123 A 
HETATM    6  C11 UNL     1      46.992  23.003  36.181  1.00  0.00     0.147 A 
HETATM    7  N5  UNL     1      48.092  22.853  36.936  1.00  0.00    -0.175 N 
ATOM      8  H5  UNL     1      48.908  23.434  36.746  1.00  0.00     0.186 HD
HETATM    9  C18 UNL     1      48.147  21.942  37.948  1.00  0.00     0.681 A 
HETATM   10  N8  UNL     1      47.094  21.163  38.222  1.00  0.00    -0.174 N 
ATOM     11  H8  UNL     1      47.148  20.484  38.982  1.00  0.00     0.186 HD
HETATM   12  C24 UNL     1      45.955  21.272  37.491  1.00  0.00     0.155 A 
ENDROOT
BRANCH   6  13
HETATM   13  N3  UNL     1      46.881  23.844  35.215  1.00  0.00    -0.373 N 
ATOM     14  H3  UNL     1      46.741  24.834  35.414  1.00  0.00     0.161 HD
BRANCH  13  15
HETATM   15  C12 UNL     1      46.954  23.384  33.846  1.00  0.00     0.126 C 
BRANCH  15  16
HETATM   16  C13 UNL     1      46.504  24.483  32.907  1.00  0.00     0.006 C 
HETATM   17  C14 UNL     1      45.462  25.393  33.538  1.00  0.00     0.034 C 
HETATM   18  C15 UNL     1      45.246  26.520  32.520  1.00  0.00     0.232 C 
HETATM   19  N4  UNL     1      44.661  25.996  31.314  1.00  0.00    -0.075 N 
HETATM   20  C16 UNL     1      45.401  24.919  30.716  1.00  0.00     0.232 C 
ATOM     21  H42 UNL     1      43.694  25.715  31.480  1.00  0.00     0.277 HD
ATOM     22  H41 UNL     1      44.510  26.744  30.636  1.00  0.00     0.277 HD
HETATM   23  C17 UNL     1      45.822  23.855  31.705  1.00  0.00     0.034 C 
ENDBRANCH  15  16
ENDBRANCH  13  15
ENDBRANCH   6  13
BRANCH   9  24
HETATM   24  N6  UNL     1      49.244  21.875  38.612  1.00  0.00    -0.221 N 
ATOM     25  H6  UNL     1      49.669  22.757  38.900  1.00  0.00     0.178 HD
BRANCH  24  26
HETATM   26  C19 UNL     1      49.922  20.676  38.982  1.00  0.00     0.102 C 
HETATM   27  C20 UNL     1      49.778  20.370  40.470  1.00  0.00     0.053 C 
HETATM   28  C21 UNL     1      50.968  19.544  40.930  1.00  0.00     0.234 C 
HETATM   29  N7  UNL     1      52.162  20.352  40.975  1.00  0.00    -0.075 N 
HETATM   30  C22 UNL     1      52.118  21.367  39.933  1.00  0.00     0.234 C 
ATOM     31  H72 UNL     1      52.312  20.758  41.899  1.00  0.00     0.277 HD
ATOM     32  H71 UNL     1      53.009  19.786  40.922  1.00  0.00     0.277 HD
HETATM   33  C23 UNL     1      51.416  20.782  38.722  1.00  0.00     0.053 C 
ENDBRANCH  24  26
ENDBRANCH   9  24
BRANCH   1  34
HETATM   34  C8  UNL     1      44.408  19.578  38.491  1.00  0.00     0.131 C 
BRANCH  34  35
HETATM   35  C7  UNL     1      45.056  18.310  37.985  1.00  0.00     0.020 C 
BRANCH  35  36
HETATM   36  C6  UNL     1      46.220  17.871  38.870  1.00  0.00     0.002 C 
BRANCH  36  37
HETATM   37  C5  UNL     1      47.364  17.530  37.963  1.00  0.00     0.000 C 
BRANCH  37  38
HETATM   38  C4  UNL     1      46.960  16.570  36.847  1.00  0.00     0.001 C 
BRANCH  38  39
HETATM   39  C3  UNL     1      47.937  16.641  35.738  1.00  0.00     0.010 C 
BRANCH  39  40
HETATM   40  C2  UNL     1      47.432  16.041  34.460  1.00  0.00     0.113 C 
BRANCH  40  41
HETATM   41  C1  UNL     1      46.200  16.682  34.017  1.00  0.00     0.172 C 
HETATM   42  O1  UNL     1      46.128  17.865  33.680  1.00  0.00    -0.648 OA
HETATM   43  O2  UNL     1      45.046  15.880  33.978  1.00  0.00    -0.648 OA
ENDBRANCH  40  41
ENDBRANCH  39  40
ENDBRANCH  38  39
ENDBRANCH  37  38
ENDBRANCH  36  37
ENDBRANCH  35  36
ENDBRANCH  34  35
ENDBRANCH   1  34
TORSDOF 13
ENDMDL
MODEL 3
REMARK VINA RESULT: -8.320523118      1.236      1.621
REMARK  13 active torsions:
REMARK  status: ('A' for Active; 'I' for Inactive)
REMARK    1  A    between atoms: C1_2  and  C2_4 
REMARK    2  A    between atoms: C2_4  and  C3_5 
REMARK    3  A    between atoms: C3_5  and  C4_6 
REMARK    4  A    between atoms: C4_6  and  C5_7 
REMARK    5  A    between atoms: C5_7  and  C6_8 
REMARK    6  A    between atoms: C6_8  and  C7_9 
REMARK    7  A    between atoms: C7_9  and  C8_10 
REMARK    8  A    between atoms: C8_10  and  N1_11 
REMARK    9  A    between atoms: C11_16  and  N3_17 
REMARK   10  A    between atoms: N3_17  and  C12_19 
REMARK   11  A    between atoms: C12_19  and  C13_20 
REMARK   12  A    between atoms: C18_30  and  N6_31 
REMARK   13  A    between atoms: N6_31  and  C19_33 
ROOT
HETATM    1  N1  UNL     1      45.968  22.875  35.237  1.00  0.00    -0.327 N 
HETATM    2  C9  UNL     1      44.675  22.526  35.137  1.00  0.00     0.185 A 
HETATM    3  N2  UNL     1      44.315  21.783  36.207  1.00  0.00    -0.346 N 
ATOM      4  H2  UNL     1      43.390  21.391  36.381  1.00  0.00     0.167 HD
HETATM    5  C10 UNL     1      45.390  21.654  37.002  1.00  0.00     0.123 A 
HETATM    6  C11 UNL     1      45.567  21.002  38.205  1.00  0.00     0.147 A 
HETATM    7  N5  UNL     1      46.788  21.061  38.762  1.00  0.00    -0.175 N 
ATOM      8  H5  UNL     1      46.951  20.591  39.652  1.00  0.00     0.186 HD
HETATM    9  C18 UNL     1      47.813  21.734  38.168  1.00  0.00     0.681 A 
HETATM   10  N8  UNL     1      47.632  22.363  37.002  1.00  0.00    -0.174 N 
ATOM     11  H8  UNL     1      48.408  22.864  36.568  1.00  0.00     0.186 HD
HETATM   12  C24 UNL     1      46.418  22.337  36.394  1.00  0.00     0.155 A 
ENDROOT
BRANCH   6  13
HETATM   13  N3  UNL     1      44.563  20.384  38.717  1.00  0.00    -0.373 N 
ATOM     14  H3  UNL     1      43.904  20.885  39.312  1.00  0.00     0.161 HD
BRANCH  13  15
HETATM   15  C12 UNL     1      44.368  18.976  38.446  1.00  0.00     0.126 C 
BRANCH  15  16
HETATM   16  C13 UNL     1      45.682  18.341  38.044  1.00  0.00     0.006 C 
HETATM   17  C14 UNL     1      45.513  17.307  36.943  1.00  0.00     0.034 C 
HETATM   18  C15 UNL     1      46.940  16.894  36.560  1.00  0.00     0.232 C 
HETATM   19  N4  UNL     1      47.578  16.223  37.663  1.00  0.00    -0.075 N 
HETATM   20  C16 UNL     1      47.589  16.976  38.887  1.00  0.00     0.232 C 
ATOM     21  H42 UNL     1      47.158  15.306  37.813  1.00  0.00     0.277 HD
ATOM     22  H41 UNL     1      48.526  15.942  37.410  1.00  0.00     0.277 HD
HETATM   23  C17 UNL     1      46.248  17.584  39.232  1.00  0.00     0.034 C 
ENDBRANCH  15  16
ENDBRANCH  13  15
ENDBRANCH   6  13
BRANCH   9  24
HETATM   24  N6  UNL     1      48.943  21.730  38.780  1.00  0.00    -0.221 N 
ATOM     25  H6  UNL     1      49.318  22.634  39.069  1.00  0.00     0.178 HD
BRANCH  24  26
HETATM   26  C19 UNL     1      49.719  20.575  39.090  1.00  0.00     0.102 C 
HETATM   27  C20 UNL     1      49.722  20.268  40.584  1.00  0.00     0.053 C 
HETATM   28  C21 UNL     1      50.993  19.514  40.939  1.00  0.00     0.234 C 
HETATM   29  N7  UNL     1      52.137  20.391  40.883  1.00  0.00    -0.075 N 
HETATM   30  C22 UNL     1      51.944  21.397  39.848  1.00  0.00     0.234 C 
ATOM     31  H72 UNL     1      52.342  20.810  41.790  1.00  0.00     0.277 HD
ATOM     32  H71 UNL     1      53.008  19.875  40.757  1.00  0.00     0.277 HD
HETATM   33  C23 UNL     1      51.177  20.767  38.702  1.00  0.00     0.053 C 
ENDBRANCH  24  26
ENDBRANCH   9  24
BRANCH   1  34
HETATM   34  C8  UNL     1      46.742  23.667  34.299  1.00  0.00     0.131 C 
BRANCH  34  35
HETATM   35  C7  UNL     1      45.874  24.846  33.921  1.00  0.00     0.020 C 
BRANCH  35  36
HETATM   36  C6  UNL     1      46.159  25.334  32.503  1.00  0.00     0.002 C 
BRANCH  36  37
HETATM   37  C5  UNL     1      45.761  24.234  31.566  1.00  0.00     0.000 C 
BRANCH  37  38
HETATM   38  C4  UNL     1      45.762  24.680  30.107  1.00  0.00     0.001 C 
BRANCH  38  39
HETATM   39  C3  UNL     1      44.378  24.948  29.657  1.00  0.00     0.010 C 
BRANCH  39  40
HETATM   40  C2  UNL     1      44.026  26.405  29.647  1.00  0.00     0.113 C 
BRANCH  40  41
HETATM   41  C1  UNL     1      42.861  26.681  30.481  1.00  0.00     0.172 C 
HETATM   42  O1  UNL     1      41.779  27.067  30.036  1.00  0.00    -0.648 OA
HETATM   43  O2  UNL     1      43.011  26.484  31.865  1.00  0.00    -0.648 OA
ENDBRANCH  40  41
ENDBRANCH  39  40
ENDBRANCH  38  39
ENDBRANCH  37  38
ENDBRANCH  36  37
ENDBRANCH  35  36
ENDBRANCH  34  35
ENDBRANCH   1  34
TORSDOF 13
ENDMDL
MODEL 4
REMARK VINA RESULT: -8.312932227      1.298      4.666
REMARK  13 active torsions:
REMARK  status: ('A' for Active; 'I' for Inactive)
REMARK    1  A    between atoms: C1_2  and  C2_4 
REMARK    2  A    between atoms: C2_4  and  C3_5 
REMARK    3  A    between atoms: C3_5  and  C4_6 
REMARK    4  A    between atoms: C4_6  and  C5_7 
REMARK    5  A    between atoms: C5_7  and  C6_8 
REMARK    6  A    between atoms: C6_8  and  C7_9 
REMARK    7  A    between atoms: C7_9  and  C8_10 
REMARK    8  A    between atoms: C8_10  and  N1_11 
REMARK    9  A    between atoms: C11_16  and  N3_17 
REMARK   10  A    between atoms: N3_17  and  C12_19 
REMARK   11  A    between atoms: C12_19  and  C13_20 
REMARK   12  A    between atoms: C18_30  and  N6_31 
REMARK   13  A    between atoms: N6_31  and  C19_33 
ROOT
HETATM    1  N1  UNL     1      46.883  22.647  36.683  1.00  0.00    -0.327 N 
HETATM    2  C9  UNL     1      47.708  23.495  37.319  1.00  0.00     0.185 A 
HETATM    3  N2  UNL     1      48.159  22.928  38.460  1.00  0.00    -0.346 N 
ATOM      4  H2  UNL     1      48.800  23.355  39.129  1.00  0.00     0.167 HD
HETATM    5  C10 UNL     1      47.616  21.703  38.557  1.00  0.00     0.123 A 
HETATM    6  C11 UNL     1      47.743  20.718  39.514  1.00  0.00     0.147 A 
HETATM    7  N5  UNL     1      47.058  19.580  39.319  1.00  0.00    -0.175 N 
ATOM      8  H5  UNL     1      47.131  18.831  40.008  1.00  0.00     0.186 HD
HETATM    9  C18 UNL     1      46.268  19.399  38.224  1.00  0.00     0.681 A 
HETATM   10  N8  UNL     1      46.151  20.360  37.300  1.00  0.00    -0.174 N 
ATOM     11  H8  UNL     1      45.557  20.213  36.484  1.00  0.00     0.186 HD
HETATM   12  C24 UNL     1      46.822  21.532  37.446  1.00  0.00     0.155 A 
ENDROOT
BRANCH   6  13
HETATM   13  N3  UNL     1      48.503  20.946  40.526  1.00  0.00    -0.373 N 
ATOM     14  H3  UNL     1      48.277  21.702  41.173  1.00  0.00     0.161 HD
BRANCH  13  15
HETATM   15  C12 UNL     1      49.676  20.130  40.747  1.00  0.00     0.126 C 
BRANCH  15  16
HETATM   16  C13 UNL     1      50.807  20.600  39.856  1.00  0.00     0.006 C 
HETATM   17  C14 UNL     1      51.228  19.543  38.849  1.00  0.00     0.034 C 
HETATM   18  C15 UNL     1      52.254  20.239  37.945  1.00  0.00     0.232 C 
HETATM   19  N4  UNL     1      53.431  20.584  38.700  1.00  0.00    -0.075 N 
HETATM   20  C16 UNL     1      53.173  21.381  39.867  1.00  0.00     0.232 C 
ATOM     21  H42 UNL     1      53.952  19.744  38.950  1.00  0.00     0.277 HD
ATOM     22  H41 UNL     1      54.118  21.042  38.100  1.00  0.00     0.277 HD
HETATM   23  C17 UNL     1      52.033  20.860  40.713  1.00  0.00     0.034 C 
ENDBRANCH  15  16
ENDBRANCH  13  15
ENDBRANCH   6  13
BRANCH   9  24
HETATM   24  N6  UNL     1      45.653  18.275  38.128  1.00  0.00    -0.221 N 
ATOM     25  H6  UNL     1      44.684  18.247  38.447  1.00  0.00     0.178 HD
BRANCH  24  26
HETATM   26  C19 UNL     1      46.205  17.065  37.616  1.00  0.00     0.102 C 
HETATM   27  C20 UNL     1      47.678  17.214  37.250  1.00  0.00     0.053 C 
HETATM   28  C21 UNL     1      48.030  16.208  36.165  1.00  0.00     0.234 C 
HETATM   29  N7  UNL     1      47.440  16.589  34.907  1.00  0.00    -0.075 N 
HETATM   30  C22 UNL     1      46.168  17.261  35.134  1.00  0.00     0.234 C 
ATOM     31  H72 UNL     1      48.075  17.153  34.342  1.00  0.00     0.277 HD
ATOM     32  H71 UNL     1      47.344  15.795  34.273  1.00  0.00     0.277 HD
HETATM   33  C23 UNL     1      45.500  16.631  36.341  1.00  0.00     0.053 C 
ENDBRANCH  24  26
ENDBRANCH   9  24
BRANCH   1  34
HETATM   34  C8  UNL     1      46.186  22.870  35.429  1.00  0.00     0.131 C 
BRANCH  34  35
HETATM   35  C7  UNL     1      47.025  23.854  34.647  1.00  0.00     0.020 C 
BRANCH  35  36
HETATM   36  C6  UNL     1      46.171  24.741  33.744  1.00  0.00     0.002 C 
BRANCH  36  37
HETATM   37  C5  UNL     1      46.190  24.132  32.376  1.00  0.00     0.000 C 
BRANCH  37  38
HETATM   38  C4  UNL     1      45.458  24.986  31.344  1.00  0.00     0.001 C 
BRANCH  38  39
HETATM   39  C3  UNL     1      44.714  26.072  32.020  1.00  0.00     0.010 C 
BRANCH  39  40
HETATM   40  C2  UNL     1      44.055  27.024  31.068  1.00  0.00     0.113 C 
BRANCH  40  41
HETATM   41  C1  UNL     1      42.638  26.722  30.903  1.00  0.00     0.172 C 
HETATM   42  O1  UNL     1      42.078  26.650  29.808  1.00  0.00    -0.648 OA
HETATM   43  O2  UNL     1      41.895  26.502  32.076  1.00  0.00    -0.648 OA
ENDBRANCH  40  41
ENDBRANCH  39  40
ENDBRANCH  38  39
ENDBRANCH  37  38
ENDBRANCH  36  37
ENDBRANCH  35  36
ENDBRANCH  34  35
ENDBRANCH   1  34
TORSDOF 13
ENDMDL
MODEL 5
REMARK VINA RESULT: -8.199991034      2.104      5.014
REMARK  13 active torsions:
REMARK  status: ('A' for Active; 'I' for Inactive)
REMARK    1  A    between atoms: C1_2  and  C2_4 
REMARK    2  A    between atoms: C2_4  and  C3_5 
REMARK    3  A    between atoms: C3_5  and  C4_6 
REMARK    4  A    between atoms: C4_6  and  C5_7 
REMARK    5  A    between atoms: C5_7  and  C6_8 
REMARK    6  A    between atoms: C6_8  and  C7_9 
REMARK    7  A    between atoms: C7_9  and  C8_10 
REMARK    8  A    between atoms: C8_10  and  N1_11 
REMARK    9  A    between atoms: C11_16  and  N3_17 
REMARK   10  A    between atoms: N3_17  and  C12_19 
REMARK   11  A    between atoms: C12_19  and  C13_20 
REMARK   12  A    between atoms: C18_30  and  N6_31 
REMARK   13  A    between atoms: N6_31  and  C19_33 
ROOT
HETATM    1  N1  UNL     1      47.037  22.529  36.950  1.00  0.00    -0.327 N 
HETATM    2  C9  UNL     1      47.878  23.388  37.547  1.00  0.00     0.185 A 
HETATM    3  N2  UNL     1      48.378  22.834  38.674  1.00  0.00    -0.346 N 
ATOM      4  H2  UNL     1      49.040  23.272  39.315  1.00  0.00     0.167 HD
HETATM    5  C10 UNL     1      47.850  21.606  38.802  1.00  0.00     0.123 A 
HETATM    6  C11 UNL     1      48.022  20.629  39.760  1.00  0.00     0.147 A 
HETATM    7  N5  UNL     1      47.339  19.484  39.601  1.00  0.00    -0.175 N 
ATOM      8  H5  UNL     1      47.445  18.742  40.291  1.00  0.00     0.186 HD
HETATM    9  C18 UNL     1      46.509  19.289  38.538  1.00  0.00     0.681 A 
HETATM   10  N8  UNL     1      46.349  20.242  37.613  1.00  0.00    -0.174 N 
ATOM     11  H8  UNL     1      45.725  20.083  36.821  1.00  0.00     0.186 HD
HETATM   12  C24 UNL     1      47.014  21.420  37.724  1.00  0.00     0.155 A 
ENDROOT
BRANCH   6  13
HETATM   13  N3  UNL     1      48.818  20.872  40.741  1.00  0.00    -0.373 N 
ATOM     14  H3  UNL     1      48.546  21.536  41.466  1.00  0.00     0.161 HD
BRANCH  13  15
HETATM   15  C12 UNL     1      50.098  20.202  40.814  1.00  0.00     0.126 C 
BRANCH  15  16
HETATM   16  C13 UNL     1      50.664  20.322  42.213  1.00  0.00     0.006 C 
HETATM   17  C14 UNL     1      51.940  21.147  42.253  1.00  0.00     0.034 C 
HETATM   18  C15 UNL     1      52.275  21.294  43.743  1.00  0.00     0.232 C 
HETATM   19  N4  UNL     1      52.594  20.009  44.310  1.00  0.00    -0.075 N 
HETATM   20  C16 UNL     1      51.579  19.011  44.123  1.00  0.00     0.232 C 
ATOM     21  H42 UNL     1      53.491  19.676  43.955  1.00  0.00     0.277 HD
ATOM     22  H41 UNL     1      52.823  20.104  45.300  1.00  0.00     0.277 HD
HETATM   23  C17 UNL     1      51.055  18.941  42.707  1.00  0.00     0.034 C 
ENDBRANCH  15  16
ENDBRANCH  13  15
ENDBRANCH   6  13
BRANCH   9  24
HETATM   24  N6  UNL     1      45.900  18.159  38.475  1.00  0.00    -0.221 N 
ATOM     25  H6  UNL     1      44.989  18.096  38.930  1.00  0.00     0.178 HD
BRANCH  24  26
HETATM   26  C19 UNL     1      46.385  16.986  37.826  1.00  0.00     0.102 C 
HETATM   27  C20 UNL     1      47.800  17.172  37.285  1.00  0.00     0.053 C 
HETATM   28  C21 UNL     1      48.013  16.235  36.107  1.00  0.00     0.234 C 
HETATM   29  N7  UNL     1      47.267  16.684  34.958  1.00  0.00    -0.075 N 
HETATM   30  C22 UNL     1      46.034  17.329  35.384  1.00  0.00     0.234 C 
ATOM     31  H72 UNL     1      47.824  17.287  34.353  1.00  0.00     0.277 HD
ATOM     32  H71 UNL     1      47.093  15.928  34.295  1.00  0.00     0.277 HD
HETATM   33  C23 UNL     1      45.525  16.622  36.626  1.00  0.00     0.053 C 
ENDBRANCH  24  26
ENDBRANCH   9  24
BRANCH   1  34
HETATM   34  C8  UNL     1      46.290  22.737  35.723  1.00  0.00     0.131 C 
BRANCH  34  35
HETATM   35  C7  UNL     1      47.164  23.592  34.834  1.00  0.00     0.020 C 
BRANCH  35  36
HETATM   36  C6  UNL     1      46.340  24.535  33.961  1.00  0.00     0.002 C 
BRANCH  36  37
HETATM   37  C5  UNL     1      46.151  23.861  32.635  1.00  0.00     0.000 C 
BRANCH  37  38
HETATM   38  C4  UNL     1      45.656  24.820  31.556  1.00  0.00     0.001 C 
BRANCH  38  39
HETATM   39  C3  UNL     1      44.669  25.762  32.127  1.00  0.00     0.010 C 
BRANCH  39  40
HETATM   40  C2  UNL     1      44.160  26.766  31.137  1.00  0.00     0.113 C 
BRANCH  40  41
HETATM   41  C1  UNL     1      42.714  26.672  30.974  1.00  0.00     0.172 C 
HETATM   42  O1  UNL     1      42.145  26.729  29.883  1.00  0.00    -0.648 OA
HETATM   43  O2  UNL     1      41.953  26.507  32.144  1.00  0.00    -0.648 OA
ENDBRANCH  40  41
ENDBRANCH  39  40
ENDBRANCH  38  39
ENDBRANCH  37  38
ENDBRANCH  36  37
ENDBRANCH  35  36
ENDBRANCH  34  35
ENDBRANCH   1  34
TORSDOF 13
ENDMDL
