MODEL 1
REMARK VINA RESULT: -8.584125132      0.000      0.000
REMARK  14 active torsions:
REMARK  status: ('A' for Active; 'I' for Inactive)
REMARK    1  A    between atoms: C2_2  and  N1_3 
REMARK       I    between atoms: N1_3  and  C3_5 
REMARK    2  A    between atoms: C3_5  and  C4_7 
REMARK    3  A    between atoms: C5_11  and  C6_12 
REMARK    4  A    between atoms: C6_12  and  C7_13 
REMARK    5  A    between atoms: C7_13  and  C8_14 
REMARK    6  A    between atoms: C14_20  and  O2_21 
REMARK    7  A    between atoms: C15_23  and  C16_24 
REMARK    8  A    between atoms: C16_24  and  O3_25 
REMARK    9  A    between atoms: C16_24  and  C17_27 
REMARK   10  A    between atoms: C17_27  and  C18_28 
REMARK   11  A    between atoms: C18_28  and  C20_30 
REMARK   12  A    between atoms: C18_28  and  C21_32 
REMARK   13  A    between atoms: C21_32  and  S1_33 
REMARK   14  A    between atoms: S1_33  and  C22_34 
ROOT
HETATM    1  C4  UNL     1      45.362  21.394  38.760  1.00  0.00     0.286 C 
HETATM    2  N2  UNL     1      46.269  21.857  37.641  1.00  0.00    -0.055 N 
ATOM      3  H21 UNL     1      46.958  21.181  37.311  1.00  0.00     0.278 HD
ATOM      4  H22 UNL     1      46.966  22.560  37.889  1.00  0.00     0.278 HD
HETATM    5  C5  UNL     1      45.244  22.274  36.661  1.00  0.00     0.216 C 
HETATM    6  C14 UNL     1      44.529  20.930  36.559  1.00  0.00     0.157 C 
HETATM    7  C15 UNL     1      44.443  20.441  37.980  1.00  0.00     0.085 C 
ENDROOT
BRANCH   7   8
HETATM    8  C16 UNL     1      44.763  19.025  38.154  1.00  0.00     0.128 C 
BRANCH   8   9
HETATM    9  O3  UNL     1      43.414  18.438  38.302  1.00  0.00    -0.395 OA
ATOM     10  H3  UNL     1      43.623  17.565  38.615  1.00  0.00     0.210 HD
ENDBRANCH   8   9
BRANCH   8  11
HETATM   11  C17 UNL     1      45.547  18.133  37.367  1.00  0.00     0.049 C 
BRANCH  11  12
HETATM   12  C18 UNL     1      46.761  17.355  37.715  1.00  0.00     0.020 C 
HETATM   13  C19 UNL     1      46.461  16.772  39.122  1.00  0.00     0.023 C 
BRANCH  12  14
HETATM   14  C20 UNL     1      48.012  18.106  37.811  1.00  0.00     0.241 C 
HETATM   15  O4  UNL     1      48.058  19.271  37.474  1.00  0.00    -0.306 OA
ENDBRANCH  12  14
BRANCH  12  16
HETATM   16  C21 UNL     1      46.875  16.114  36.818  1.00  0.00     0.097 C 
BRANCH  16  17
HETATM   17  S1  UNL     1      47.855  16.145  35.435  1.00  0.00    -0.102 SA
BRANCH  17  18
HETATM   18  C22 UNL     1      47.527  16.690  33.869  1.00  0.00     0.149 C 
HETATM   19  N3  UNL     1      46.193  17.286  33.625  1.00  0.00    -0.082 NA
HETATM   20  S2  UNL     1      48.409  16.677  32.480  1.00  0.00    -0.056 SA
ENDBRANCH  17  18
ENDBRANCH  16  17
ENDBRANCH  12  16
ENDBRANCH  11  12
ENDBRANCH   8  11
ENDBRANCH   7   8
BRANCH   1  21
HETATM   21  C3  UNL     1      46.248  20.869  39.751  1.00  0.00     0.249 C 
HETATM   22  N1  UNL     1      47.693  21.155  39.666  1.00  0.00    -0.360 N 
ATOM     23  H1  UNL     1      48.109  21.723  38.929  1.00  0.00     0.162 HD
HETATM   24  O1  UNL     1      45.994  20.144  40.733  1.00  0.00    -0.271 OA
BRANCH  22  25
HETATM   25  C2  UNL     1      48.453  20.559  40.717  1.00  0.00     0.118 C 
HETATM   26  C1  UNL     1      49.857  20.195  40.344  1.00  0.00     0.026 C 
ENDBRANCH  22  25
ENDBRANCH   1  21
BRANCH   6  27
HETATM   27  O2  UNL     1      43.363  21.114  35.878  1.00  0.00    -0.393 OA
ATOM     28  H2  UNL     1      43.292  20.436  35.216  1.00  0.00     0.210 HD
ENDBRANCH   6  27
BRANCH   5  29
HETATM   29  C6  UNL     1      45.995  22.602  35.375  1.00  0.00     0.036 C 
BRANCH  29  30
HETATM   30  C7  UNL     1      45.235  23.450  34.420  1.00  0.00     0.007 C 
BRANCH  30  31
HETATM   31  C8  UNL     1      46.159  24.339  33.611  1.00  0.00    -0.014 C 
HETATM   32  C9  UNL     1      46.620  23.642  32.380  1.00  0.00     0.004 C 
HETATM   33  C10 UNL     1      45.636  23.836  31.239  1.00  0.00     0.000 C 
HETATM   34  C11 UNL     1      45.395  25.327  31.002  1.00  0.00     0.000 C 
HETATM   35  C12 UNL     1      44.779  25.903  32.244  1.00  0.00     0.000 C 
HETATM   36  C13 UNL     1      45.701  25.734  33.402  1.00  0.00     0.004 C 
ENDBRANCH  30  31
ENDBRANCH  29  30
ENDBRANCH   5  29
TORSDOF 14
ENDMDL
MODEL 2
REMARK VINA RESULT: -8.071148824      1.919      2.434
REMARK  14 active torsions:
REMARK  status: ('A' for Active; 'I' for Inactive)
REMARK    1  A    between atoms: C2_2  and  N1_3 
REMARK       I    between atoms: N1_3  and  C3_5 
REMARK    2  A    between atoms: C3_5  and  C4_7 
REMARK    3  A    between atoms: C5_11  and  C6_12 
REMARK    4  A    between atoms: C6_12  and  C7_13 
REMARK    5  A    between atoms: C7_13  and  C8_14 
REMARK    6  A    between atoms: C14_20  and  O2_21 
REMARK    7  A    between atoms: C15_23  and  C16_24 
REMARK    8  A    between atoms: C16_24  and  O3_25 
REMARK    9  A    between atoms: C16_24  and  C17_27 
REMARK   10  A    between atoms: C17_27  and  C18_28 
REMARK   11  A    between atoms: C18_28  and  C20_30 
REMARK   12  A    between atoms: C18_28  and  C21_32 
REMARK   13  A    between atoms: C21_32  and  S1_33 
REMARK   14  A    between atoms: S1_33  and  C22_34 
ROOT
HETATM    1  C4  UNL     1      45.284  21.448  38.778  1.00  0.00     0.286 C 
HETATM    2  N2  UNL     1      46.224  21.875  37.672  1.00  0.00    -0.055 N 
ATOM      3  H21 UNL     1      46.928  21.192  37.392  1.00  0.00     0.278 HD
ATOM      4  H22 UNL     1      46.907  22.593  37.915  1.00  0.00     0.278 HD
HETATM    5  C5  UNL     1      45.229  22.244  36.643  1.00  0.00     0.216 C 
HETATM    6  C14 UNL     1      44.527  20.892  36.571  1.00  0.00     0.157 C 
HETATM    7  C15 UNL     1      44.398  20.457  38.007  1.00  0.00     0.085 C 
ENDROOT
BRANCH   7   8
HETATM    8  C16 UNL     1      44.722  19.052  38.247  1.00  0.00     0.128 C 
BRANCH   8   9
HETATM    9  O3  UNL     1      43.373  18.449  38.310  1.00  0.00    -0.395 OA
ATOM     10  H3  UNL     1      43.559  17.548  38.071  1.00  0.00     0.210 HD
ENDBRANCH   8   9
BRANCH   8  11
HETATM   11  C17 UNL     1      45.575  18.150  37.548  1.00  0.00     0.049 C 
BRANCH  11  12
HETATM   12  C18 UNL     1      46.791  17.430  37.999  1.00  0.00     0.020 C 
HETATM   13  C19 UNL     1      46.632  17.321  39.539  1.00  0.00     0.023 C 
BRANCH  12  14
HETATM   14  C20 UNL     1      48.072  18.087  37.738  1.00  0.00     0.241 C 
HETATM   15  O4  UNL     1      48.116  19.277  37.501  1.00  0.00    -0.306 OA
ENDBRANCH  12  14
BRANCH  12  16
HETATM   16  C21 UNL     1      46.758  15.973  37.519  1.00  0.00     0.097 C 
BRANCH  16  17
HETATM   17  S1  UNL     1      47.409  14.739  38.481  1.00  0.00    -0.102 SA
BRANCH  17  18
HETATM   18  C22 UNL     1      46.645  13.519  39.367  1.00  0.00     0.149 C 
HETATM   19  N3  UNL     1      45.467  13.907  40.176  1.00  0.00    -0.082 NA
HETATM   20  S2  UNL     1      46.961  11.915  39.551  1.00  0.00    -0.056 SA
ENDBRANCH  17  18
ENDBRANCH  16  17
ENDBRANCH  12  16
ENDBRANCH  11  12
ENDBRANCH   8  11
ENDBRANCH   7   8
BRANCH   1  21
HETATM   21  C3  UNL     1      46.140  20.970  39.818  1.00  0.00     0.249 C 
HETATM   22  N1  UNL     1      47.605  21.019  39.640  1.00  0.00    -0.360 N 
ATOM     23  H1  UNL     1      48.055  21.388  38.803  1.00  0.00     0.162 HD
HETATM   24  O1  UNL     1      45.841  20.464  40.917  1.00  0.00    -0.271 OA
BRANCH  22  25
HETATM   25  C2  UNL     1      48.329  20.500  40.754  1.00  0.00     0.118 C 
HETATM   26  C1  UNL     1      49.746  20.117  40.454  1.00  0.00     0.026 C 
ENDBRANCH  22  25
ENDBRANCH   1  21
BRANCH   6  27
HETATM   27  O2  UNL     1      43.383  21.039  35.846  1.00  0.00    -0.393 OA
ATOM     28  H2  UNL     1      43.294  20.288  35.270  1.00  0.00     0.210 HD
ENDBRANCH   6  27
BRANCH   5  29
HETATM   29  C6  UNL     1      46.019  22.528  35.371  1.00  0.00     0.036 C 
BRANCH  29  30
HETATM   30  C7  UNL     1      45.279  23.316  34.351  1.00  0.00     0.007 C 
BRANCH  30  31
HETATM   31  C8  UNL     1      46.209  24.219  33.565  1.00  0.00    -0.014 C 
HETATM   32  C9  UNL     1      46.624  23.568  32.292  1.00  0.00     0.004 C 
HETATM   33  C10 UNL     1      45.623  23.842  31.184  1.00  0.00     0.000 C 
HETATM   34  C11 UNL     1      45.417  25.347  31.022  1.00  0.00     0.000 C 
HETATM   35  C12 UNL     1      44.843  25.880  32.303  1.00  0.00     0.000 C 
HETATM   36  C13 UNL     1      45.785  25.632  33.431  1.00  0.00     0.004 C 
ENDBRANCH  30  31
ENDBRANCH  29  30
ENDBRANCH   5  29
TORSDOF 14
ENDMDL
MODEL 3
REMARK VINA RESULT: -8.008564721      1.048      1.107
REMARK  14 active torsions:
REMARK  status: ('A' for Active; 'I' for Inactive)
REMARK    1  A    between atoms: C2_2  and  N1_3 
REMARK       I    between atoms: N1_3  and  C3_5 
REMARK    2  A    between atoms: C3_5  and  C4_7 
REMARK    3  A    between atoms: C5_11  and  C6_12 
REMARK    4  A    between atoms: C6_12  and  C7_13 
REMARK    5  A    between atoms: C7_13  and  C8_14 
REMARK    6  A    between atoms: C14_20  and  O2_21 
REMARK    7  A    between atoms: C15_23  and  C16_24 
REMARK    8  A    between atoms: C16_24  and  O3_25 
REMARK    9  A    between atoms: C16_24  and  C17_27 
REMARK   10  A    between atoms: C17_27  and  C18_28 
REMARK   11  A    between atoms: C18_28  and  C20_30 
REMARK   12  A    between atoms: C18_28  and  C21_32 
REMARK   13  A    between atoms: C21_32  and  S1_33 
REMARK   14  A    between atoms: S1_33  and  C22_34 
ROOT
HETATM    1  C4  UNL     1      45.955  21.468  38.322  1.00  0.00     0.286 C 
HETATM    2  N2  UNL     1      46.473  21.855  36.954  1.00  0.00    -0.055 N 
ATOM      3  H21 UNL     1      47.070  21.171  36.490  1.00  0.00     0.278 HD
ATOM      4  H22 UNL     1      47.173  22.596  36.931  1.00  0.00     0.278 HD
HETATM    5  C5  UNL     1      45.187  22.153  36.288  1.00  0.00     0.216 C 
HETATM    6  C14 UNL     1      44.545  20.786  36.505  1.00  0.00     0.157 C 
HETATM    7  C15 UNL     1      44.901  20.424  37.922  1.00  0.00     0.085 C 
ENDROOT
BRANCH   7   8
HETATM    8  C16 UNL     1      45.332  19.038  38.104  1.00  0.00     0.128 C 
BRANCH   8   9
HETATM    9  O3  UNL     1      44.032  18.336  38.175  1.00  0.00    -0.395 OA
ATOM     10  H3  UNL     1      44.133  17.687  37.488  1.00  0.00     0.210 HD
ENDBRANCH   8   9
BRANCH   8  11
HETATM   11  C17 UNL     1      46.231  18.226  37.355  1.00  0.00     0.049 C 
BRANCH  11  12
HETATM   12  C18 UNL     1      47.224  17.220  37.805  1.00  0.00     0.020 C 
HETATM   13  C19 UNL     1      46.438  15.882  37.832  1.00  0.00     0.023 C 
BRANCH  12  14
HETATM   14  C20 UNL     1      47.794  17.418  39.137  1.00  0.00     0.241 C 
HETATM   15  O4  UNL     1      47.280  16.905  40.110  1.00  0.00    -0.306 OA
ENDBRANCH  12  14
BRANCH  12  16
HETATM   16  C21 UNL     1      48.290  17.002  36.723  1.00  0.00     0.097 C 
BRANCH  16  17
HETATM   17  S1  UNL     1      47.911  16.152  35.307  1.00  0.00    -0.102 SA
BRANCH  17  18
HETATM   18  C22 UNL     1      47.564  16.712  33.751  1.00  0.00     0.149 C 
HETATM   19  N3  UNL     1      46.232  17.323  33.533  1.00  0.00    -0.082 NA
HETATM   20  S2  UNL     1      48.424  16.701  32.347  1.00  0.00    -0.056 SA
ENDBRANCH  17  18
ENDBRANCH  16  17
ENDBRANCH  12  16
ENDBRANCH  11  12
ENDBRANCH   8  11
ENDBRANCH   7   8
BRANCH   1  21
HETATM   21  C3  UNL     1      47.117  21.059  39.047  1.00  0.00     0.249 C 
HETATM   22  N1  UNL     1      48.431  21.043  38.375  1.00  0.00    -0.360 N 
ATOM     23  H1  UNL     1      48.566  21.319  37.403  1.00  0.00     0.162 HD
HETATM   24  O1  UNL     1      47.214  20.667  40.226  1.00  0.00    -0.271 OA
BRANCH  22  25
HETATM   25  C2  UNL     1      49.494  20.605  39.219  1.00  0.00     0.118 C 
HETATM   26  C1  UNL     1      50.595  19.877  38.510  1.00  0.00     0.026 C 
ENDBRANCH  22  25
ENDBRANCH   1  21
BRANCH   6  27
HETATM   27  O2  UNL     1      43.223  20.875  36.185  1.00  0.00    -0.393 OA
ATOM     28  H2  UNL     1      42.791  20.080  36.472  1.00  0.00     0.210 HD
ENDBRANCH   6  27
BRANCH   5  29
HETATM   29  C6  UNL     1      45.514  22.386  34.818  1.00  0.00     0.036 C 
BRANCH  29  30
HETATM   30  C7  UNL     1      44.852  23.576  34.223  1.00  0.00     0.007 C 
BRANCH  30  31
HETATM   31  C8  UNL     1      45.848  24.459  33.497  1.00  0.00    -0.014 C 
HETATM   32  C9  UNL     1      46.398  23.763  32.302  1.00  0.00     0.004 C 
HETATM   33  C10 UNL     1      45.512  23.976  31.086  1.00  0.00     0.000 C 
HETATM   34  C11 UNL     1      45.308  25.470  30.841  1.00  0.00     0.000 C 
HETATM   35  C12 UNL     1      44.600  26.047  32.033  1.00  0.00     0.000 C 
HETATM   36  C13 UNL     1      45.424  25.860  33.260  1.00  0.00     0.004 C 
ENDBRANCH  30  31
ENDBRANCH  29  30
ENDBRANCH   5  29
TORSDOF 14
ENDMDL
MODEL 4
REMARK VINA RESULT: -7.821001393      2.123      3.050
REMARK  14 active torsions:
REMARK  status: ('A' for Active; 'I' for Inactive)
REMARK    1  A    between atoms: C2_2  and  N1_3 
REMARK       I    between atoms: N1_3  and  C3_5 
REMARK    2  A    between atoms: C3_5  and  C4_7 
REMARK    3  A    between atoms: C5_11  and  C6_12 
REMARK    4  A    between atoms: C6_12  and  C7_13 
REMARK    5  A    between atoms: C7_13  and  C8_14 
REMARK    6  A    between atoms: C14_20  and  O2_21 
REMARK    7  A    between atoms: C15_23  and  C16_24 
REMARK    8  A    between atoms: C16_24  and  O3_25 
REMARK    9  A    between atoms: C16_24  and  C17_27 
REMARK   10  A    between atoms: C17_27  and  C18_28 
REMARK   11  A    between atoms: C18_28  and  C20_30 
REMARK   12  A    between atoms: C18_28  and  C21_32 
REMARK   13  A    between atoms: C21_32  and  S1_33 
REMARK   14  A    between atoms: S1_33  and  C22_34 
ROOT
HETATM    1  C4  UNL     1      45.222  21.389  38.579  1.00  0.00     0.286 C 
HETATM    2  N2  UNL     1      46.148  21.976  37.537  1.00  0.00    -0.055 N 
ATOM      3  H21 UNL     1      46.935  21.392  37.255  1.00  0.00     0.278 HD
ATOM      4  H22 UNL     1      46.735  22.752  37.843  1.00  0.00     0.278 HD
HETATM    5  C5  UNL     1      45.156  22.285  36.485  1.00  0.00     0.216 C 
HETATM    6  C14 UNL     1      44.616  20.868  36.318  1.00  0.00     0.157 C 
HETATM    7  C15 UNL     1      44.484  20.348  37.724  1.00  0.00     0.085 C 
ENDROOT
BRANCH   7   8
HETATM    8  C16 UNL     1      44.957  18.976  37.910  1.00  0.00     0.128 C 
BRANCH   8   9
HETATM    9  O3  UNL     1      43.709  18.290  38.310  1.00  0.00    -0.395 OA
ATOM     10  H3  UNL     1      43.877  17.406  38.008  1.00  0.00     0.210 HD
ENDBRANCH   8   9
BRANCH   8  11
HETATM   11  C17 UNL     1      45.681  18.105  37.047  1.00  0.00     0.049 C 
BRANCH  11  12
HETATM   12  C18 UNL     1      46.839  17.220  37.323  1.00  0.00     0.020 C 
HETATM   13  C19 UNL     1      47.988  18.190  37.707  1.00  0.00     0.023 C 
BRANCH  12  14
HETATM   14  C20 UNL     1      47.314  16.401  36.209  1.00  0.00     0.241 C 
HETATM   15  O4  UNL     1      47.413  16.874  35.095  1.00  0.00    -0.306 OA
ENDBRANCH  12  14
BRANCH  12  16
HETATM   16  C21 UNL     1      46.597  16.407  38.603  1.00  0.00     0.097 C 
BRANCH  16  17
HETATM   17  S1  UNL     1      47.178  16.964  40.094  1.00  0.00    -0.102 SA
BRANCH  17  18
HETATM   18  C22 UNL     1      47.780  16.114  41.424  1.00  0.00     0.149 C 
HETATM   19  N3  UNL     1      49.032  16.615  42.039  1.00  0.00    -0.082 NA
HETATM   20  S2  UNL     1      47.260  14.765  42.210  1.00  0.00    -0.056 SA
ENDBRANCH  17  18
ENDBRANCH  16  17
ENDBRANCH  12  16
ENDBRANCH  11  12
ENDBRANCH   8  11
ENDBRANCH   7   8
BRANCH   1  21
HETATM   21  C3  UNL     1      46.087  20.956  39.631  1.00  0.00     0.249 C 
HETATM   22  N1  UNL     1      47.550  21.058  39.463  1.00  0.00    -0.360 N 
ATOM     23  H1  UNL     1      47.993  21.435  38.625  1.00  0.00     0.162 HD
HETATM   24  O1  UNL     1      45.799  20.452  40.734  1.00  0.00    -0.271 OA
BRANCH  22  25
HETATM   25  C2  UNL     1      48.285  20.580  40.589  1.00  0.00     0.118 C 
HETATM   26  C1  UNL     1      49.706  20.208  40.295  1.00  0.00     0.026 C 
ENDBRANCH  22  25
ENDBRANCH   1  21
BRANCH   6  27
HETATM   27  O2  UNL     1      43.490  20.924  35.552  1.00  0.00    -0.393 OA
ATOM     28  H2  UNL     1      42.792  21.301  36.074  1.00  0.00     0.210 HD
ENDBRANCH   6  27
BRANCH   5  29
HETATM   29  C6  UNL     1      45.956  22.722  35.263  1.00  0.00     0.036 C 
BRANCH  29  30
HETATM   30  C7  UNL     1      45.182  23.517  34.275  1.00  0.00     0.007 C 
BRANCH  30  31
HETATM   31  C8  UNL     1      46.083  24.439  33.476  1.00  0.00    -0.014 C 
HETATM   32  C9  UNL     1      46.532  23.780  32.220  1.00  0.00     0.004 C 
HETATM   33  C10 UNL     1      45.529  23.993  31.099  1.00  0.00     0.000 C 
HETATM   34  C11 UNL     1      45.267  25.486  30.906  1.00  0.00     0.000 C 
HETATM   35  C12 UNL     1      44.664  26.022  32.172  1.00  0.00     0.000 C 
HETATM   36  C13 UNL     1      45.606  25.833  33.311  1.00  0.00     0.004 C 
ENDBRANCH  30  31
ENDBRANCH  29  30
ENDBRANCH   5  29
TORSDOF 14
ENDMDL
MODEL 5
REMARK VINA RESULT: -7.747645675      1.886      2.312
REMARK  14 active torsions:
REMARK  status: ('A' for Active; 'I' for Inactive)
REMARK    1  A    between atoms: C2_2  and  N1_3 
REMARK       I    between atoms: N1_3  and  C3_5 
REMARK    2  A    between atoms: C3_5  and  C4_7 
REMARK    3  A    between atoms: C5_11  and  C6_12 
REMARK    4  A    between atoms: C6_12  and  C7_13 
REMARK    5  A    between atoms: C7_13  and  C8_14 
REMARK    6  A    between atoms: C14_20  and  O2_21 
REMARK    7  A    between atoms: C15_23  and  C16_24 
REMARK    8  A    between atoms: C16_24  and  O3_25 
REMARK    9  A    between atoms: C16_24  and  C17_27 
REMARK   10  A    between atoms: C17_27  and  C18_28 
REMARK   11  A    between atoms: C18_28  and  C20_30 
REMARK   12  A    between atoms: C18_28  and  C21_32 
REMARK   13  A    between atoms: C21_32  and  S1_33 
REMARK   14  A    between atoms: S1_33  and  C22_34 
ROOT
HETATM    1  C4  UNL     1      45.285  21.449  38.775  1.00  0.00     0.286 C 
HETATM    2  N2  UNL     1      46.225  21.870  37.668  1.00  0.00    -0.055 N 
ATOM      3  H21 UNL     1      46.930  21.186  37.392  1.00  0.00     0.278 HD
ATOM      4  H22 UNL     1      46.907  22.590  37.906  1.00  0.00     0.278 HD
HETATM    5  C5  UNL     1      45.230  22.232  36.636  1.00  0.00     0.216 C 
HETATM    6  C14 UNL     1      44.530  20.879  36.571  1.00  0.00     0.157 C 
HETATM    7  C15 UNL     1      44.400  20.453  38.009  1.00  0.00     0.085 C 
ENDROOT
BRANCH   7   8
HETATM    8  C16 UNL     1      44.726  19.049  38.258  1.00  0.00     0.128 C 
BRANCH   8   9
HETATM    9  O3  UNL     1      43.377  18.446  38.331  1.00  0.00    -0.395 OA
ATOM     10  H3  UNL     1      43.196  18.507  39.262  1.00  0.00     0.210 HD
ENDBRANCH   8   9
BRANCH   8  11
HETATM   11  C17 UNL     1      45.576  18.142  37.562  1.00  0.00     0.049 C 
BRANCH  11  12
HETATM   12  C18 UNL     1      46.787  17.417  38.016  1.00  0.00     0.020 C 
HETATM   13  C19 UNL     1      46.640  17.340  39.560  1.00  0.00     0.023 C 
BRANCH  12  14
HETATM   14  C20 UNL     1      48.073  18.053  37.732  1.00  0.00     0.241 C 
HETATM   15  O4  UNL     1      48.137  19.246  37.522  1.00  0.00    -0.306 OA
ENDBRANCH  12  14
BRANCH  12  16
HETATM   16  C21 UNL     1      46.732  15.950  37.565  1.00  0.00     0.097 C 
BRANCH  16  17
HETATM   17  S1  UNL     1      47.243  14.714  38.606  1.00  0.00    -0.102 SA
BRANCH  17  18
HETATM   18  C22 UNL     1      48.772  14.377  39.242  1.00  0.00     0.149 C 
HETATM   19  N3  UNL     1      48.889  13.203  40.139  1.00  0.00    -0.082 NA
HETATM   20  S2  UNL     1      50.230  15.127  39.089  1.00  0.00    -0.056 SA
ENDBRANCH  17  18
ENDBRANCH  16  17
ENDBRANCH  12  16
ENDBRANCH  11  12
ENDBRANCH   8  11
ENDBRANCH   7   8
BRANCH   1  21
HETATM   21  C3  UNL     1      46.141  20.977  39.818  1.00  0.00     0.249 C 
HETATM   22  N1  UNL     1      47.606  21.015  39.636  1.00  0.00    -0.360 N 
ATOM     23  H1  UNL     1      48.056  21.371  38.793  1.00  0.00     0.162 HD
HETATM   24  O1  UNL     1      45.842  20.487  40.925  1.00  0.00    -0.271 OA
BRANCH  22  25
HETATM   25  C2  UNL     1      48.330  20.504  40.754  1.00  0.00     0.118 C 
HETATM   26  C1  UNL     1      49.751  20.133  40.461  1.00  0.00     0.026 C 
ENDBRANCH  22  25
ENDBRANCH   1  21
BRANCH   6  27
HETATM   27  O2  UNL     1      43.386  21.020  35.845  1.00  0.00    -0.393 OA
ATOM     28  H2  UNL     1      42.703  20.504  36.257  1.00  0.00     0.210 HD
ENDBRANCH   6  27
BRANCH   5  29
HETATM   29  C6  UNL     1      46.021  22.510  35.362  1.00  0.00     0.036 C 
BRANCH  29  30
HETATM   30  C7  UNL     1      45.277  23.284  34.335  1.00  0.00     0.007 C 
BRANCH  30  31
HETATM   31  C8  UNL     1      46.199  24.206  33.561  1.00  0.00    -0.014 C 
HETATM   32  C9  UNL     1      46.617  23.580  32.277  1.00  0.00     0.004 C 
HETATM   33  C10 UNL     1      45.610  23.863  31.175  1.00  0.00     0.000 C 
HETATM   34  C11 UNL     1      45.392  25.370  31.038  1.00  0.00     0.000 C 
HETATM   35  C12 UNL     1      44.816  25.877  32.329  1.00  0.00     0.000 C 
HETATM   36  C13 UNL     1      45.763  25.619  33.451  1.00  0.00     0.004 C 
ENDBRANCH  30  31
ENDBRANCH  29  30
ENDBRANCH   5  29
TORSDOF 14
ENDMDL
