MODEL 1
REMARK VINA RESULT: -7.867714459      0.000      0.000
REMARK  11 active torsions:
REMARK  status: ('A' for Active; 'I' for Inactive)
REMARK    1  A    between atoms: C2_2  and  C3_3 
REMARK    2  A    between atoms: C3_3  and  C5_5 
REMARK    3  A    between atoms: C7_7  and  C8_8 
REMARK       I    between atoms: C8_8  and  N1_10 
REMARK    4  A    between atoms: N1_10  and  C9_12 
REMARK    5  A    between atoms: C9_12  and  C10_13 
REMARK    6  A    between atoms: C9_12  and  C12_17 
REMARK    7  A    between atoms: C10_13  and  C11_15 
REMARK    8  A    between atoms: C18_23  and  O3_24 
REMARK    9  A    between atoms: C19_28  and  C20_29 
REMARK   10  A    between atoms: C20_29  and  C21_30 
REMARK   11  A    between atoms: C25_36  and  C26_37 
ROOT
HETATM    1  C5  UNL     1      46.374  16.024  11.697  1.00  0.00     0.089 C 
HETATM    2  C6  UNL     1      45.929  14.882  10.878  1.00  0.00     0.044 C 
HETATM    3  C7  UNL     1      45.519  13.587  11.341  1.00  0.00     0.113 C 
HETATM    4  C16 UNL     1      45.807  13.002  12.620  1.00  0.00    -0.020 C 
HETATM    5  C17 UNL     1      47.137  13.273  13.276  1.00  0.00     0.049 C 
HETATM    6  C18 UNL     1      44.801  12.961  13.705  1.00  0.00     0.139 C 
HETATM    7  N2  UNL     1      43.652  13.676  13.994  1.00  0.00    -0.357 N 
ATOM      8  H2  UNL     1      43.507  13.817  14.994  1.00  0.00     0.162 HD
HETATM    9  C19 UNL     1      42.626  14.257  13.189  1.00  0.00     0.183 C 
HETATM   10  C24 UNL     1      41.824  15.300  13.963  1.00  0.00     0.282 C 
HETATM   11  O4  UNL     1      40.883  15.764  13.211  1.00  0.00    -0.263 OA
HETATM   12  O5  UNL     1      41.978  15.727  15.192  1.00  0.00    -0.304 OA
HETATM   13  C25 UNL     1      42.786  16.514  15.973  1.00  0.00     0.227 C 
HETATM   14  C29 UNL     1      43.075  17.873  15.464  1.00  0.00     0.250 C 
HETATM   15  O6  UNL     1      42.005  18.552  15.207  1.00  0.00    -0.270 OA
HETATM   16  N3  UNL     1      44.307  18.492  15.235  1.00  0.00    -0.341 N 
HETATM   17  C30 UNL     1      44.487  19.854  15.798  1.00  0.00     0.153 C 
HETATM   18  C31 UNL     1      45.441  17.963  14.494  1.00  0.00     0.174 C 
HETATM   19  C32 UNL     1      46.013  16.745  15.141  1.00  0.00     0.042 C 
HETATM   20  C33 UNL     1      45.157  17.872  13.049  1.00  0.00     0.240 C 
HETATM   21  O7  UNL     1      44.728  19.022  12.634  1.00  0.00    -0.271 OA
HETATM   22  N4  UNL     1      45.246  16.887  12.112  1.00  0.00    -0.354 N 
ATOM     23  H4  UNL     1      44.378  16.712  11.605  1.00  0.00     0.162 HD
ENDROOT
BRANCH   3  24
HETATM   24  C8  UNL     1      45.866  12.564  10.203  1.00  0.00     0.230 C 
HETATM   25  O1  UNL     1      44.976  11.717   9.947  1.00  0.00    -0.272 OA
HETATM   26  N1  UNL     1      47.068  12.627   9.560  1.00  0.00    -0.326 N 
ATOM     27  H1  UNL     1      47.577  13.404   9.980  1.00  0.00     0.168 HD
BRANCH  26  28
HETATM   28  C9  UNL     1      47.916  12.092   8.570  1.00  0.00     0.067 C 
BRANCH  28  29
HETATM   29  C10 UNL     1      47.954  10.622   8.543  1.00  0.00     0.186 C 
HETATM   30  O2  UNL     1      47.621  10.094   7.464  1.00  0.00    -0.290 OA
BRANCH  29  31
HETATM   31  C11 UNL     1      48.331   9.711   9.599  1.00  0.00     0.199 C 
HETATM   32 CL1  UNL     1      49.905   8.885   9.126  1.00  0.00    -0.122 Cl
ENDBRANCH  29  31
ENDBRANCH  28  29
BRANCH  28  33
HETATM   33  C12 UNL     1      49.197  12.829   8.428  1.00  0.00    -0.005 C 
HETATM   34  C13 UNL     1      48.987  14.179   7.781  1.00  0.00     0.021 C 
HETATM   35  C14 UNL     1      49.671  13.160   9.865  1.00  0.00     0.021 C 
HETATM   36  C15 UNL     1      50.309  12.177   7.678  1.00  0.00     0.021 C 
ENDBRANCH  28  33
ENDBRANCH  26  28
ENDBRANCH   3  24
BRANCH   1  37
HETATM   37  C3  UNL     1      47.493  16.776  11.086  1.00  0.00     0.004 C 
HETATM   38  C4  UNL     1      47.303  16.980   9.569  1.00  0.00     0.012 C 
BRANCH  37  39
HETATM   39  C2  UNL     1      48.895  16.499  11.296  1.00  0.00     0.002 C 
HETATM   40  C1  UNL     1      49.938  16.865  10.316  1.00  0.00     0.005 C 
ENDBRANCH  37  39
ENDBRANCH   1  37
BRANCH   6  41
HETATM   41  O3  UNL     1      45.080  12.034  14.579  1.00  0.00    -0.346 OA
ATOM     42  H3  UNL     1      45.010  12.362  15.468  1.00  0.00     0.219 HD
ENDBRANCH   6  41
BRANCH   9  43
HETATM   43  C20 UNL     1      41.629  13.326  12.580  1.00  0.00     0.039 C 
BRANCH  43  44
HETATM   44  C21 UNL     1      40.837  12.471  13.497  1.00  0.00    -0.020 C 
HETATM   45  C22 UNL     1      39.410  12.455  12.904  1.00  0.00     0.009 C 
HETATM   46  C23 UNL     1      41.253  11.019  13.500  1.00  0.00     0.009 C 
ENDBRANCH  43  44
ENDBRANCH   9  43
BRANCH  13  47
HETATM   47  C26 UNL     1      41.987  16.675  17.295  1.00  0.00     0.016 C 
HETATM   48  C27 UNL     1      42.563  15.849  18.399  1.00  0.00     0.012 C 
HETATM   49  C28 UNL     1      40.551  16.278  17.133  1.00  0.00     0.012 C 
ENDBRANCH  13  47
TORSDOF 11
ENDMDL
MODEL 2
REMARK VINA RESULT: -7.521243247      3.007      9.162
REMARK  11 active torsions:
REMARK  status: ('A' for Active; 'I' for Inactive)
REMARK    1  A    between atoms: C2_2  and  C3_3 
REMARK    2  A    between atoms: C3_3  and  C5_5 
REMARK    3  A    between atoms: C7_7  and  C8_8 
REMARK       I    between atoms: C8_8  and  N1_10 
REMARK    4  A    between atoms: N1_10  and  C9_12 
REMARK    5  A    between atoms: C9_12  and  C10_13 
REMARK    6  A    between atoms: C9_12  and  C12_17 
REMARK    7  A    between atoms: C10_13  and  C11_15 
REMARK    8  A    between atoms: C18_23  and  O3_24 
REMARK    9  A    between atoms: C19_28  and  C20_29 
REMARK   10  A    between atoms: C20_29  and  C21_30 
REMARK   11  A    between atoms: C25_36  and  C26_37 
ROOT
HETATM    1  C5  UNL     1      44.338  13.255  12.126  1.00  0.00     0.089 C 
HETATM    2  C6  UNL     1      43.888  14.654  12.016  1.00  0.00     0.044 C 
HETATM    3  C7  UNL     1      44.663  15.838  12.256  1.00  0.00     0.113 C 
HETATM    4  C16 UNL     1      45.885  15.927  13.005  1.00  0.00    -0.020 C 
HETATM    5  C17 UNL     1      46.073  15.055  14.221  1.00  0.00     0.049 C 
HETATM    6  C18 UNL     1      47.204  16.017  12.341  1.00  0.00     0.139 C 
HETATM    7  N2  UNL     1      47.687  15.686  11.086  1.00  0.00    -0.357 N 
ATOM      8  H2  UNL     1      48.646  15.341  11.102  1.00  0.00     0.162 HD
HETATM    9  C19 UNL     1      47.124  15.725   9.775  1.00  0.00     0.183 C 
HETATM   10  C24 UNL     1      47.908  14.851   8.799  1.00  0.00     0.282 C 
HETATM   11  O4  UNL     1      47.392  14.953   7.620  1.00  0.00    -0.263 OA
HETATM   12  O5  UNL     1      48.950  14.086   9.015  1.00  0.00    -0.304 OA
HETATM   13  C25 UNL     1      49.318  12.893   9.583  1.00  0.00     0.227 C 
HETATM   14  C29 UNL     1      48.525  11.705   9.199  1.00  0.00     0.250 C 
HETATM   15  O6  UNL     1      48.476  11.525   7.919  1.00  0.00    -0.270 OA
HETATM   16  N3  UNL     1      47.849  10.789  10.010  1.00  0.00    -0.341 N 
HETATM   17  C30 UNL     1      48.096   9.349   9.743  1.00  0.00     0.153 C 
HETATM   18  C31 UNL     1      46.913  11.078  11.085  1.00  0.00     0.174 C 
HETATM   19  C32 UNL     1      47.565  11.809  12.212  1.00  0.00     0.042 C 
HETATM   20  C33 UNL     1      45.649  11.641  10.575  1.00  0.00     0.240 C 
HETATM   21  O7  UNL     1      45.186  10.861   9.651  1.00  0.00    -0.271 OA
HETATM   22  N4  UNL     1      44.908  12.750  10.857  1.00  0.00    -0.354 N 
ATOM     23  H4  UNL     1      44.710  13.337  10.047  1.00  0.00     0.162 HD
ENDROOT
BRANCH   3  24
HETATM   24  C8  UNL     1      43.665  16.946  12.744  1.00  0.00     0.230 C 
HETATM   25  O1  UNL     1      42.453  16.618  12.746  1.00  0.00    -0.272 OA
HETATM   26  N1  UNL     1      44.126  18.170  13.133  1.00  0.00    -0.326 N 
ATOM     27  H1  UNL     1      45.139  18.142  13.020  1.00  0.00     0.168 HD
BRANCH  26  28
HETATM   28  C9  UNL     1      43.819  19.455  13.622  1.00  0.00     0.067 C 
BRANCH  28  29
HETATM   29  C10 UNL     1      44.240  20.551  12.735  1.00  0.00     0.186 C 
HETATM   30  O2  UNL     1      43.455  20.823  11.806  1.00  0.00    -0.290 OA
BRANCH  29  31
HETATM   31  C11 UNL     1      45.438  21.355  12.804  1.00  0.00     0.199 C 
HETATM   32 CL1  UNL     1      45.538  22.387  11.285  1.00  0.00    -0.122 Cl
ENDBRANCH  29  31
ENDBRANCH  28  29
BRANCH  28  33
HETATM   33  C12 UNL     1      44.054  19.605  15.080  1.00  0.00    -0.005 C 
HETATM   34  C13 UNL     1      43.045  18.815  15.884  1.00  0.00     0.021 C 
HETATM   35  C14 UNL     1      45.408  18.913  15.376  1.00  0.00     0.021 C 
HETATM   36  C15 UNL     1      44.063  20.978  15.659  1.00  0.00     0.021 C 
ENDBRANCH  28  33
ENDBRANCH  26  28
ENDBRANCH   3  24
BRANCH   1  37
HETATM   37  C3  UNL     1      43.312  12.358  12.705  1.00  0.00     0.004 C 
HETATM   38  C4  UNL     1      42.081  12.206  11.787  1.00  0.00     0.012 C 
BRANCH  37  39
HETATM   39  C2  UNL     1      42.815  12.429  14.059  1.00  0.00     0.002 C 
HETATM   40  C1  UNL     1      43.051  11.363  15.054  1.00  0.00     0.005 C 
ENDBRANCH  37  39
ENDBRANCH   1  37
BRANCH   6  41
HETATM   41  O3  UNL     1      48.105  16.524  13.135  1.00  0.00    -0.346 OA
ATOM     42  H3  UNL     1      47.833  17.370  13.474  1.00  0.00     0.219 HD
ENDBRANCH   6  41
BRANCH   9  43
HETATM   43  C20 UNL     1      46.996  17.066   9.129  1.00  0.00     0.039 C 
BRANCH  43  44
HETATM   44  C21 UNL     1      47.855  18.161   9.642  1.00  0.00    -0.020 C 
HETATM   45  C22 UNL     1      48.121  19.072   8.421  1.00  0.00     0.009 C 
HETATM   46  C23 UNL     1      47.170  19.067  10.637  1.00  0.00     0.009 C 
ENDBRANCH  43  44
ENDBRANCH   9  43
BRANCH  13  47
HETATM   47  C26 UNL     1      50.767  12.667   9.071  1.00  0.00     0.016 C 
HETATM   48  C27 UNL     1      51.592  13.909   9.168  1.00  0.00     0.012 C 
HETATM   49  C28 UNL     1      50.792  12.217   7.643  1.00  0.00     0.012 C 
ENDBRANCH  13  47
TORSDOF 11
ENDMDL
MODEL 3
REMARK VINA RESULT: -7.488325354      3.229      9.246
REMARK  11 active torsions:
REMARK  status: ('A' for Active; 'I' for Inactive)
REMARK    1  A    between atoms: C2_2  and  C3_3 
REMARK    2  A    between atoms: C3_3  and  C5_5 
REMARK    3  A    between atoms: C7_7  and  C8_8 
REMARK       I    between atoms: C8_8  and  N1_10 
REMARK    4  A    between atoms: N1_10  and  C9_12 
REMARK    5  A    between atoms: C9_12  and  C10_13 
REMARK    6  A    between atoms: C9_12  and  C12_17 
REMARK    7  A    between atoms: C10_13  and  C11_15 
REMARK    8  A    between atoms: C18_23  and  O3_24 
REMARK    9  A    between atoms: C19_28  and  C20_29 
REMARK   10  A    between atoms: C20_29  and  C21_30 
REMARK   11  A    between atoms: C25_36  and  C26_37 
ROOT
HETATM    1  C5  UNL     1      44.270  13.532  12.283  1.00  0.00     0.089 C 
HETATM    2  C6  UNL     1      44.070  14.990  12.195  1.00  0.00     0.044 C 
HETATM    3  C7  UNL     1      45.059  16.015  12.377  1.00  0.00     0.113 C 
HETATM    4  C16 UNL     1      46.324  15.880  13.041  1.00  0.00    -0.020 C 
HETATM    5  C17 UNL     1      46.435  14.980  14.246  1.00  0.00     0.049 C 
HETATM    6  C18 UNL     1      47.590  15.736  12.290  1.00  0.00     0.139 C 
HETATM    7  N2  UNL     1      47.921  15.332  11.008  1.00  0.00    -0.357 N 
ATOM      8  H2  UNL     1      48.803  14.822  10.961  1.00  0.00     0.162 HD
HETATM    9  C19 UNL     1      47.288  15.480   9.736  1.00  0.00     0.183 C 
HETATM   10  C24 UNL     1      47.836  14.486   8.715  1.00  0.00     0.282 C 
HETATM   11  O4  UNL     1      47.269  14.686   7.573  1.00  0.00    -0.263 OA
HETATM   12  O5  UNL     1      48.736  13.546   8.866  1.00  0.00    -0.304 OA
HETATM   13  C25 UNL     1      48.923  12.302   9.415  1.00  0.00     0.227 C 
HETATM   14  C29 UNL     1      47.906  11.278   9.091  1.00  0.00     0.250 C 
HETATM   15  O6  UNL     1      47.741  11.118   7.819  1.00  0.00    -0.270 OA
HETATM   16  N3  UNL     1      47.133  10.492   9.951  1.00  0.00    -0.341 N 
HETATM   17  C30 UNL     1      47.101   9.033   9.677  1.00  0.00     0.153 C 
HETATM   18  C31 UNL     1      46.339  10.937  11.085  1.00  0.00     0.174 C 
HETATM   19  C32 UNL     1      47.184  11.532  12.161  1.00  0.00     0.042 C 
HETATM   20  C33 UNL     1      45.164  11.720  10.657  1.00  0.00     0.240 C 
HETATM   21  O7  UNL     1      44.509  11.041   9.771  1.00  0.00    -0.271 OA
HETATM   22  N4  UNL     1      44.653  12.941  10.982  1.00  0.00    -0.354 N 
ATOM     23  H4  UNL     1      44.510  13.560  10.184  1.00  0.00     0.162 HD
ENDROOT
BRANCH   3  24
HETATM   24  C8  UNL     1      44.309  17.280  12.924  1.00  0.00     0.230 C 
HETATM   25  O1  UNL     1      43.056  17.218  12.901  1.00  0.00    -0.272 OA
HETATM   26  N1  UNL     1      45.013  18.355  13.387  1.00  0.00    -0.326 N 
ATOM     27  H1  UNL     1      45.999  18.119  13.277  1.00  0.00     0.168 HD
BRANCH  26  28
HETATM   28  C9  UNL     1      44.977  19.646  13.948  1.00  0.00     0.067 C 
BRANCH  28  29
HETATM   29  C10 UNL     1      44.363  19.704  15.283  1.00  0.00     0.186 C 
HETATM   30  O2  UNL     1      45.132  20.004  16.217  1.00  0.00    -0.290 OA
BRANCH  29  31
HETATM   31  C11 UNL     1      42.987  19.464  15.652  1.00  0.00     0.199 C 
HETATM   32 CL1  UNL     1      42.147  21.086  15.864  1.00  0.00    -0.122 Cl
ENDBRANCH  29  31
ENDBRANCH  28  29
BRANCH  28  33
HETATM   33  C12 UNL     1      44.627  20.707  12.969  1.00  0.00    -0.005 C 
HETATM   34  C13 UNL     1      44.819  22.086  13.559  1.00  0.00     0.021 C 
HETATM   35  C14 UNL     1      45.684  20.621  11.840  1.00  0.00     0.021 C 
HETATM   36  C15 UNL     1      43.262  20.696  12.372  1.00  0.00     0.021 C 
ENDBRANCH  28  33
ENDBRANCH  26  28
ENDBRANCH   3  24
BRANCH   1  37
HETATM   37  C3  UNL     1      43.141  12.830  12.935  1.00  0.00     0.004 C 
HETATM   38  C4  UNL     1      41.977  13.783  13.278  1.00  0.00     0.012 C 
BRANCH  37  39
HETATM   39  C2  UNL     1      43.261  11.907  14.039  1.00  0.00     0.002 C 
HETATM   40  C1  UNL     1      42.684  12.175  15.372  1.00  0.00     0.005 C 
ENDBRANCH  37  39
ENDBRANCH   1  37
BRANCH   6  41
HETATM   41  O3  UNL     1      48.619  16.070  13.019  1.00  0.00    -0.346 OA
ATOM     42  H3  UNL     1      48.935  16.938  12.798  1.00  0.00     0.219 HD
ENDBRANCH   6  41
BRANCH   9  43
HETATM   43  C20 UNL     1      47.359  16.826   9.093  1.00  0.00     0.039 C 
BRANCH  43  44
HETATM   44  C21 UNL     1      48.010  17.920   9.855  1.00  0.00    -0.020 C 
HETATM   45  C22 UNL     1      49.517  17.576   9.849  1.00  0.00     0.009 C 
HETATM   46  C23 UNL     1      47.935  19.270   9.183  1.00  0.00     0.009 C 
ENDBRANCH  43  44
ENDBRANCH   9  43
BRANCH  13  47
HETATM   47  C26 UNL     1      50.271  11.825   8.808  1.00  0.00     0.016 C 
HETATM   48  C27 UNL     1      50.681  12.657   7.637  1.00  0.00     0.012 C 
HETATM   49  C28 UNL     1      50.206  10.400   8.351  1.00  0.00     0.012 C 
ENDBRANCH  13  47
TORSDOF 11
ENDMDL
MODEL 4
REMARK VINA RESULT: -7.484558824      3.042      9.293
REMARK  11 active torsions:
REMARK  status: ('A' for Active; 'I' for Inactive)
REMARK    1  A    between atoms: C2_2  and  C3_3 
REMARK    2  A    between atoms: C3_3  and  C5_5 
REMARK    3  A    between atoms: C7_7  and  C8_8 
REMARK       I    between atoms: C8_8  and  N1_10 
REMARK    4  A    between atoms: N1_10  and  C9_12 
REMARK    5  A    between atoms: C9_12  and  C10_13 
REMARK    6  A    between atoms: C9_12  and  C12_17 
REMARK    7  A    between atoms: C10_13  and  C11_15 
REMARK    8  A    between atoms: C18_23  and  O3_24 
REMARK    9  A    between atoms: C19_28  and  C20_29 
REMARK   10  A    between atoms: C20_29  and  C21_30 
REMARK   11  A    between atoms: C25_36  and  C26_37 
ROOT
HETATM    1  C5  UNL     1      44.529  13.289  12.207  1.00  0.00     0.089 C 
HETATM    2  C6  UNL     1      44.107  14.699  12.126  1.00  0.00     0.044 C 
HETATM    3  C7  UNL     1      44.922  15.864  12.325  1.00  0.00     0.113 C 
HETATM    4  C16 UNL     1      46.186  15.921  13.004  1.00  0.00    -0.020 C 
HETATM    5  C17 UNL     1      46.422  15.040  14.205  1.00  0.00     0.049 C 
HETATM    6  C18 UNL     1      47.467  15.982  12.267  1.00  0.00     0.139 C 
HETATM    7  N2  UNL     1      47.870  15.644  10.986  1.00  0.00    -0.357 N 
ATOM      8  H2  UNL     1      48.821  15.277  10.947  1.00  0.00     0.162 HD
HETATM    9  C19 UNL     1      47.235  15.702   9.708  1.00  0.00     0.183 C 
HETATM   10  C24 UNL     1      47.942  14.813   8.687  1.00  0.00     0.282 C 
HETATM   11  O4  UNL     1      47.362  14.932   7.540  1.00  0.00    -0.263 OA
HETATM   12  O5  UNL     1      48.975  14.022   8.843  1.00  0.00    -0.304 OA
HETATM   13  C25 UNL     1      49.347  12.819   9.386  1.00  0.00     0.227 C 
HETATM   14  C29 UNL     1      48.505  11.652   9.045  1.00  0.00     0.250 C 
HETATM   15  O6  UNL     1      48.379  11.478   7.769  1.00  0.00    -0.270 OA
HETATM   16  N3  UNL     1      47.854  10.749   9.891  1.00  0.00    -0.341 N 
HETATM   17  C30 UNL     1      48.051   9.304   9.606  1.00  0.00     0.153 C 
HETATM   18  C31 UNL     1      46.988  11.056  11.017  1.00  0.00     0.174 C 
HETATM   19  C32 UNL     1      47.720  11.767  12.107  1.00  0.00     0.042 C 
HETATM   20  C33 UNL     1      45.711  11.651  10.581  1.00  0.00     0.240 C 
HETATM   21  O7  UNL     1      45.178  10.886   9.682  1.00  0.00    -0.271 OA
HETATM   22  N4  UNL     1      45.013  12.776  10.907  1.00  0.00    -0.354 N 
ATOM     23  H4  UNL     1      44.784  13.371  10.111  1.00  0.00     0.162 HD
ENDROOT
BRANCH   3  24
HETATM   24  C8  UNL     1      43.980  16.993  12.872  1.00  0.00     0.230 C 
HETATM   25  O1  UNL     1      44.499  18.132  12.966  1.00  0.00    -0.272 OA
HETATM   26  N1  UNL     1      42.687  16.713  13.209  1.00  0.00    -0.326 N 
ATOM     27  H1  UNL     1      42.555  15.717  13.031  1.00  0.00     0.168 HD
BRANCH  26  28
HETATM   28  C9  UNL     1      41.455  17.192  13.694  1.00  0.00     0.067 C 
BRANCH  28  29
HETATM   29  C10 UNL     1      41.469  18.614  14.070  1.00  0.00     0.186 C 
HETATM   30  O2  UNL     1      40.864  19.381  13.296  1.00  0.00    -0.290 OA
BRANCH  29  31
HETATM   31  C11 UNL     1      42.087  19.235  15.219  1.00  0.00     0.199 C 
HETATM   32 CL1  UNL     1      42.989  20.736  14.657  1.00  0.00    -0.122 Cl
ENDBRANCH  29  31
ENDBRANCH  28  29
BRANCH  28  33
HETATM   33  C12 UNL     1      40.762  16.236  14.595  1.00  0.00    -0.005 C 
HETATM   34  C13 UNL     1      40.288  15.014  13.842  1.00  0.00     0.021 C 
HETATM   35  C14 UNL     1      41.841  15.695  15.567  1.00  0.00     0.021 C 
HETATM   36  C15 UNL     1      39.591  16.723  15.378  1.00  0.00     0.021 C 
ENDBRANCH  28  33
ENDBRANCH  26  28
ENDBRANCH   3  24
BRANCH   1  37
HETATM   37  C3  UNL     1      43.515  12.416  12.842  1.00  0.00     0.004 C 
HETATM   38  C4  UNL     1      42.217  12.327  12.014  1.00  0.00     0.012 C 
BRANCH  37  39
HETATM   39  C2  UNL     1      43.121  12.471  14.230  1.00  0.00     0.002 C 
HETATM   40  C1  UNL     1      42.944  11.262  15.060  1.00  0.00     0.005 C 
ENDBRANCH  37  39
ENDBRANCH   1  37
BRANCH   6  41
HETATM   41  O3  UNL     1      48.423  16.465  13.010  1.00  0.00    -0.346 OA
ATOM     42  H3  UNL     1      49.204  16.645  12.499  1.00  0.00     0.219 HD
ENDBRANCH   6  41
BRANCH   9  43
HETATM   43  C20 UNL     1      47.103  17.048   9.074  1.00  0.00     0.039 C 
BRANCH  43  44
HETATM   44  C21 UNL     1      47.882  18.165   9.662  1.00  0.00    -0.020 C 
HETATM   45  C22 UNL     1      48.174  19.120   8.481  1.00  0.00     0.009 C 
HETATM   46  C23 UNL     1      47.104  19.012  10.640  1.00  0.00     0.009 C 
ENDBRANCH  43  44
ENDBRANCH   9  43
BRANCH  13  47
HETATM   47  C26 UNL     1      50.758  12.561   8.792  1.00  0.00     0.016 C 
HETATM   48  C27 UNL     1      51.713  13.663   9.124  1.00  0.00     0.012 C 
HETATM   49  C28 UNL     1      50.723  12.426   7.301  1.00  0.00     0.012 C 
ENDBRANCH  13  47
TORSDOF 11
ENDMDL
MODEL 5
REMARK VINA RESULT: -7.431741672      1.459      1.715
REMARK  11 active torsions:
REMARK  status: ('A' for Active; 'I' for Inactive)
REMARK    1  A    between atoms: C2_2  and  C3_3 
REMARK    2  A    between atoms: C3_3  and  C5_5 
REMARK    3  A    between atoms: C7_7  and  C8_8 
REMARK       I    between atoms: C8_8  and  N1_10 
REMARK    4  A    between atoms: N1_10  and  C9_12 
REMARK    5  A    between atoms: C9_12  and  C10_13 
REMARK    6  A    between atoms: C9_12  and  C12_17 
REMARK    7  A    between atoms: C10_13  and  C11_15 
REMARK    8  A    between atoms: C18_23  and  O3_24 
REMARK    9  A    between atoms: C19_28  and  C20_29 
REMARK   10  A    between atoms: C20_29  and  C21_30 
REMARK   11  A    between atoms: C25_36  and  C26_37 
ROOT
HETATM    1  C5  UNL     1      46.928  16.937  11.291  1.00  0.00     0.089 C 
HETATM    2  C6  UNL     1      46.755  15.968  10.194  1.00  0.00     0.044 C 
HETATM    3  C7  UNL     1      46.604  14.545  10.307  1.00  0.00     0.113 C 
HETATM    4  C16 UNL     1      46.964  13.730  11.434  1.00  0.00    -0.020 C 
HETATM    5  C17 UNL     1      48.188  14.083  12.241  1.00  0.00     0.049 C 
HETATM    6  C18 UNL     1      45.954  13.233  12.393  1.00  0.00     0.139 C 
HETATM    7  N2  UNL     1      44.672  13.621  12.746  1.00  0.00    -0.357 N 
ATOM      8  H2  UNL     1      44.468  13.482  13.735  1.00  0.00     0.162 HD
HETATM    9  C19 UNL     1      43.577  14.175  12.017  1.00  0.00     0.183 C 
HETATM   10  C24 UNL     1      42.552  14.822  12.945  1.00  0.00     0.282 C 
HETATM   11  O4  UNL     1      41.561  15.267  12.247  1.00  0.00    -0.263 OA
HETATM   12  O5  UNL     1      42.573  14.956  14.248  1.00  0.00    -0.304 OA
HETATM   13  C25 UNL     1      43.176  15.668  15.254  1.00  0.00     0.227 C 
HETATM   14  C29 UNL     1      43.196  17.139  15.102  1.00  0.00     0.250 C 
HETATM   15  O6  UNL     1      42.018  17.642  14.924  1.00  0.00    -0.270 OA
HETATM   16  N3  UNL     1      44.282  18.020  15.126  1.00  0.00    -0.341 N 
HETATM   17  C30 UNL     1      44.158  19.211  16.004  1.00  0.00     0.153 C 
HETATM   18  C31 UNL     1      45.524  17.916  14.377  1.00  0.00     0.174 C 
HETATM   19  C32 UNL     1      46.312  16.710  14.767  1.00  0.00     0.042 C 
HETATM   20  C33 UNL     1      45.313  18.130  12.933  1.00  0.00     0.240 C 
HETATM   21  O7  UNL     1      44.670  19.242  12.764  1.00  0.00    -0.271 OA
HETATM   22  N4  UNL     1      45.634  17.440  11.802  1.00  0.00    -0.354 N 
ATOM     23  H4  UNL     1      44.837  17.232  11.199  1.00  0.00     0.162 HD
ENDROOT
BRANCH   3  24
HETATM   24  C8  UNL     1      47.193  13.918   8.995  1.00  0.00     0.230 C 
HETATM   25  O1  UNL     1      47.109  14.636   7.969  1.00  0.00    -0.272 OA
HETATM   26  N1  UNL     1      47.751  12.673   9.013  1.00  0.00    -0.326 N 
ATOM     27  H1  UNL     1      47.672  12.339   9.973  1.00  0.00     0.168 HD
BRANCH  26  28
HETATM   28  C9  UNL     1      48.387  11.645   8.290  1.00  0.00     0.067 C 
BRANCH  28  29
HETATM   29  C10 UNL     1      47.937  10.291   8.646  1.00  0.00     0.186 C 
HETATM   30  O2  UNL     1      47.615   9.561   7.689  1.00  0.00    -0.290 OA
BRANCH  29  31
HETATM   31  C11 UNL     1      47.824   9.696   9.958  1.00  0.00     0.199 C 
HETATM   32 CL1  UNL     1      48.966   8.257  10.048  1.00  0.00    -0.122 Cl
ENDBRANCH  29  31
ENDBRANCH  28  29
BRANCH  28  33
HETATM   33  C12 UNL     1      49.842  11.872   8.097  1.00  0.00    -0.005 C 
HETATM   34  C13 UNL     1      50.107  12.780   6.917  1.00  0.00     0.021 C 
HETATM   35  C14 UNL     1      50.322  12.686   9.325  1.00  0.00     0.021 C 
HETATM   36  C15 UNL     1      50.725  10.685   7.915  1.00  0.00     0.021 C 
ENDBRANCH  28  33
ENDBRANCH  26  28
ENDBRANCH   3  24
BRANCH   1  37
HETATM   37  C3  UNL     1      47.888  18.017  10.966  1.00  0.00     0.004 C 
HETATM   38  C4  UNL     1      47.187  19.287  10.442  1.00  0.00     0.012 C 
BRANCH  37  39
HETATM   39  C2  UNL     1      49.091  17.852  10.184  1.00  0.00     0.002 C 
HETATM   40  C1  UNL     1      50.042  16.744  10.403  1.00  0.00     0.005 C 
ENDBRANCH  37  39
ENDBRANCH   1  37
BRANCH   6  41
HETATM   41  O3  UNL     1      46.388  12.192  13.046  1.00  0.00    -0.346 OA
ATOM     42  H3  UNL     1      47.004  11.687  12.528  1.00  0.00     0.219 HD
ENDBRANCH   6  41
BRANCH   9  43
HETATM   43  C20 UNL     1      42.813  13.248  11.128  1.00  0.00     0.039 C 
BRANCH  43  44
HETATM   44  C21 UNL     1      43.018  11.791  11.315  1.00  0.00    -0.020 C 
HETATM   45  C22 UNL     1      41.599  11.176  11.285  1.00  0.00     0.009 C 
HETATM   46  C23 UNL     1      43.738  11.117  10.172  1.00  0.00     0.009 C 
ENDBRANCH  43  44
ENDBRANCH   9  43
BRANCH  13  47
HETATM   47  C26 UNL     1      42.317  15.344  16.507  1.00  0.00     0.016 C 
HETATM   48  C27 UNL     1      42.919  15.902  17.756  1.00  0.00     0.012 C 
HETATM   49  C28 UNL     1      42.150  13.868  16.705  1.00  0.00     0.012 C 
ENDBRANCH  13  47
TORSDOF 11
ENDMDL
