MODEL 1
REMARK VINA RESULT: -9.384684553      0.000      0.000
REMARK  11 active torsions:
REMARK  status: ('A' for Active; 'I' for Inactive)
REMARK    1  A    between atoms: C4_7  and  C5_8 
REMARK    2  A    between atoms: C5_8  and  C6_9 
REMARK    3  A    between atoms: C6_9  and  C7_10 
REMARK    4  A    between atoms: C7_10  and  C8_11 
REMARK    5  A    between atoms: C17_21  and  C18_22 
REMARK    6  A    between atoms: C18_22  and  O3_24 
REMARK    7  A    between atoms: O3_24  and  C19_25 
REMARK    8  A    between atoms: C24_30  and  N2_31 
REMARK       I    between atoms: N2_31  and  C25_33 
REMARK    9  A    between atoms: C25_33  and  C26_35 
REMARK   10  A    between atoms: C26_35  and  N3_37 
REMARK   11  A    between atoms: N3_37  and  S1_39 
ROOT
HETATM    1  C1  UNL     1      50.767  15.112   9.229  1.00  0.00     0.021 C 
HETATM    2  C2  UNL     1      49.569  14.393   8.671  1.00  0.00     0.087 C 
HETATM    3  C3  UNL     1      48.385  15.243   8.457  1.00  0.00     0.222 C 
HETATM    4  O1  UNL     1      47.436  14.701   7.787  1.00  0.00    -0.273 OA
HETATM    5  N1  UNL     1      48.163  16.559   8.887  1.00  0.00    -0.356 N 
ATOM      6  H1  UNL     1      47.769  17.196   8.194  1.00  0.00     0.162 HD
HETATM    7  C4  UNL     1      48.425  17.126  10.195  1.00  0.00     0.084 C 
HETATM    8  C9  UNL     1      47.124  17.317  10.979  1.00  0.00     0.026 C 
HETATM    9  C10 UNL     1      47.188  16.446  12.209  1.00  0.00     0.009 C 
HETATM   10  C11 UNL     1      45.889  15.763  12.507  1.00  0.00     0.012 C 
HETATM   11  C12 UNL     1      46.022  14.291  12.853  1.00  0.00    -0.006 C 
HETATM   12  C13 UNL     1      45.612  13.342  11.799  1.00  0.00     0.005 C 
HETATM   13  C14 UNL     1      46.500  12.109  11.851  1.00  0.00     0.000 C 
HETATM   14  C15 UNL     1      47.866  12.315  11.284  1.00  0.00     0.001 C 
HETATM   15  C16 UNL     1      47.874  13.152  10.035  1.00  0.00     0.015 C 
HETATM   16  C17 UNL     1      49.268  13.134   9.442  1.00  0.00     0.098 C 
HETATM   17  C23 UNL     1      44.826  14.552  13.805  1.00  0.00     0.030 C 
HETATM   18  C24 UNL     1      45.490  15.953  13.945  1.00  0.00     0.089 C 
ENDROOT
BRANCH  18  19
HETATM   19  N2  UNL     1      44.518  16.935  14.271  1.00  0.00    -0.355 N 
HETATM   20  C25 UNL     1      44.763  18.051  15.100  1.00  0.00     0.236 C 
HETATM   21  O4  UNL     1      45.896  18.198  15.598  1.00  0.00    -0.272 OA
ATOM     22  H2  UNL     1      43.583  16.828  13.880  1.00  0.00     0.162 HD
BRANCH  20  23
HETATM   23  C26 UNL     1      43.703  19.025  15.377  1.00  0.00     0.164 C 
HETATM   24  C27 UNL     1      42.337  18.397  14.892  1.00  0.00     0.037 C 
BRANCH  23  25
HETATM   25  N3  UNL     1      43.760  20.261  14.657  1.00  0.00    -0.183 NA
HETATM   26  C28 UNL     1      44.482  20.128  13.412  1.00  0.00     0.133 C 
BRANCH  25  27
HETATM   27  S1  UNL     1      44.638  21.423  15.644  1.00  0.00     0.185 S 
HETATM   28  O5  UNL     1      46.035  21.608  15.169  1.00  0.00    -0.582 OA
HETATM   29  O6  UNL     1      43.941  22.774  15.543  1.00  0.00    -0.582 OA
HETATM   30  O7  UNL     1      44.559  20.901  17.228  1.00  0.00    -0.582 OA
ENDBRANCH  25  27
ENDBRANCH  23  25
ENDBRANCH  20  23
ENDBRANCH  18  19
BRANCH   7  31
HETATM   31  C5  UNL     1      49.134  18.472  10.068  1.00  0.00     0.025 C 
BRANCH  31  32
HETATM   32  C6  UNL     1      48.274  19.558   9.514  1.00  0.00     0.003 C 
BRANCH  32  33
HETATM   33  C7  UNL     1      49.188  20.656   8.991  1.00  0.00     0.011 C 
BRANCH  33  34
HETATM   34  C8  UNL     1      49.127  20.804   7.504  1.00  0.00     0.085 C 
HETATM   35 BR1  UNL     1      49.169  22.647   6.979  1.00  0.00    -0.097 Br
ENDBRANCH  33  34
ENDBRANCH  32  33
ENDBRANCH  31  32
ENDBRANCH   7  31
BRANCH  16  36
HETATM   36  C18 UNL     1      49.494  11.897   8.641  1.00  0.00     0.264 C 
HETATM   37  O2  UNL     1      49.699  11.910   7.400  1.00  0.00    -0.265 OA
BRANCH  36  38
HETATM   38  O3  UNL     1      49.485  10.631   9.236  1.00  0.00    -0.311 OA
BRANCH  38  39
HETATM   39  C19 UNL     1      48.592   9.632   8.774  1.00  0.00     0.060 C 
HETATM   40  C20 UNL     1      49.317   8.621   7.906  1.00  0.00     0.045 C 
HETATM   41  C21 UNL     1      47.418  10.158   8.019  1.00  0.00     0.045 C 
HETATM   42  C22 UNL     1      48.074   8.884  10.003  1.00  0.00     0.045 C 
ENDBRANCH  38  39
ENDBRANCH  36  38
ENDBRANCH  16  36
TORSDOF 11
ENDMDL
MODEL 2
REMARK VINA RESULT: -9.242124002      1.310      1.569
REMARK  11 active torsions:
REMARK  status: ('A' for Active; 'I' for Inactive)
REMARK    1  A    between atoms: C4_7  and  C5_8 
REMARK    2  A    between atoms: C5_8  and  C6_9 
REMARK    3  A    between atoms: C6_9  and  C7_10 
REMARK    4  A    between atoms: C7_10  and  C8_11 
REMARK    5  A    between atoms: C17_21  and  C18_22 
REMARK    6  A    between atoms: C18_22  and  O3_24 
REMARK    7  A    between atoms: O3_24  and  C19_25 
REMARK    8  A    between atoms: C24_30  and  N2_31 
REMARK       I    between atoms: N2_31  and  C25_33 
REMARK    9  A    between atoms: C25_33  and  C26_35 
REMARK   10  A    between atoms: C26_35  and  N3_37 
REMARK   11  A    between atoms: N3_37  and  S1_39 
ROOT
HETATM    1  C1  UNL     1      49.868  14.609   9.505  1.00  0.00     0.021 C 
HETATM    2  C2  UNL     1      48.517  14.010   9.223  1.00  0.00     0.087 C 
HETATM    3  C3  UNL     1      47.456  14.992   8.934  1.00  0.00     0.222 C 
HETATM    4  O1  UNL     1      46.363  14.499   8.482  1.00  0.00    -0.273 OA
HETATM    5  N1  UNL     1      47.489  16.385   9.087  1.00  0.00    -0.356 N 
ATOM      6  H1  UNL     1      47.114  16.930   8.310  1.00  0.00     0.162 HD
HETATM    7  C4  UNL     1      47.990  17.147  10.214  1.00  0.00     0.084 C 
HETATM    8  C9  UNL     1      46.837  17.711  11.049  1.00  0.00     0.026 C 
HETATM    9  C10 UNL     1      46.919  17.105  12.428  1.00  0.00     0.009 C 
HETATM   10  C11 UNL     1      45.578  16.729  12.978  1.00  0.00     0.012 C 
HETATM   11  C12 UNL     1      45.528  15.354  13.621  1.00  0.00    -0.006 C 
HETATM   12  C13 UNL     1      44.856  14.300  12.837  1.00  0.00     0.005 C 
HETATM   13  C14 UNL     1      45.549  12.968  13.076  1.00  0.00     0.000 C 
HETATM   14  C15 UNL     1      46.851  12.819  12.361  1.00  0.00     0.001 C 
HETATM   15  C16 UNL     1      46.833  13.376  10.965  1.00  0.00     0.015 C 
HETATM   16  C17 UNL     1      48.126  13.001  10.270  1.00  0.00     0.098 C 
HETATM   17  C23 UNL     1      44.510  16.001  14.594  1.00  0.00     0.030 C 
HETATM   18  C24 UNL     1      45.388  17.266  14.371  1.00  0.00     0.089 C 
ENDROOT
BRANCH  18  19
HETATM   19  N2  UNL     1      44.623  18.446  14.560  1.00  0.00    -0.355 N 
HETATM   20  C25 UNL     1      45.038  19.548  15.337  1.00  0.00     0.236 C 
HETATM   21  O4  UNL     1      46.143  19.500  15.914  1.00  0.00    -0.272 OA
ATOM     22  H2  UNL     1      43.712  18.501  14.104  1.00  0.00     0.162 HD
BRANCH  20  23
HETATM   23  C26 UNL     1      44.187  20.734  15.472  1.00  0.00     0.164 C 
HETATM   24  C27 UNL     1      42.703  20.296  15.155  1.00  0.00     0.037 C 
BRANCH  23  25
HETATM   25  N3  UNL     1      44.412  21.797  14.540  1.00  0.00    -0.183 NA
HETATM   26  C28 UNL     1      45.106  21.341  13.357  1.00  0.00     0.133 C 
BRANCH  25  27
HETATM   27  S1  UNL     1      45.446  22.989  15.319  1.00  0.00     0.185 S 
HETATM   28  O5  UNL     1      46.888  22.707  15.086  1.00  0.00    -0.582 OA
HETATM   29  O6  UNL     1      45.150  24.359  14.720  1.00  0.00    -0.582 OA
HETATM   30  O7  UNL     1      45.049  23.021  16.940  1.00  0.00    -0.582 OA
ENDBRANCH  25  27
ENDBRANCH  23  25
ENDBRANCH  20  23
ENDBRANCH  18  19
BRANCH   7  31
HETATM   31  C5  UNL     1      48.872  18.299   9.738  1.00  0.00     0.025 C 
BRANCH  31  32
HETATM   32  C6  UNL     1      48.205  19.205   8.758  1.00  0.00     0.003 C 
BRANCH  32  33
HETATM   33  C7  UNL     1      49.020  20.488   8.681  1.00  0.00     0.011 C 
BRANCH  33  34
HETATM   34  C8  UNL     1      49.286  20.923   7.275  1.00  0.00     0.085 C 
HETATM   35 BR1  UNL     1      48.978  22.802   7.050  1.00  0.00    -0.097 Br
ENDBRANCH  33  34
ENDBRANCH  32  33
ENDBRANCH  31  32
ENDBRANCH   7  31
BRANCH  16  36
HETATM   36  C18 UNL     1      48.065  11.609   9.739  1.00  0.00     0.264 C 
HETATM   37  O2  UNL     1      46.990  11.052   9.398  1.00  0.00    -0.265 OA
BRANCH  36  38
HETATM   38  O3  UNL     1      49.218  10.833   9.592  1.00  0.00    -0.311 OA
BRANCH  38  39
HETATM   39  C19 UNL     1      49.653  10.440   8.301  1.00  0.00     0.060 C 
HETATM   40  C20 UNL     1      50.599  11.471   7.715  1.00  0.00     0.045 C 
HETATM   41  C21 UNL     1      48.549  10.194   7.329  1.00  0.00     0.045 C 
HETATM   42  C22 UNL     1      50.444   9.141   8.465  1.00  0.00     0.045 C 
ENDBRANCH  38  39
ENDBRANCH  36  38
ENDBRANCH  16  36
TORSDOF 11
ENDMDL
MODEL 3
REMARK VINA RESULT: -9.181838920      3.557      5.615
REMARK  11 active torsions:
REMARK  status: ('A' for Active; 'I' for Inactive)
REMARK    1  A    between atoms: C4_7  and  C5_8 
REMARK    2  A    between atoms: C5_8  and  C6_9 
REMARK    3  A    between atoms: C6_9  and  C7_10 
REMARK    4  A    between atoms: C7_10  and  C8_11 
REMARK    5  A    between atoms: C17_21  and  C18_22 
REMARK    6  A    between atoms: C18_22  and  O3_24 
REMARK    7  A    between atoms: O3_24  and  C19_25 
REMARK    8  A    between atoms: C24_30  and  N2_31 
REMARK       I    between atoms: N2_31  and  C25_33 
REMARK    9  A    between atoms: C25_33  and  C26_35 
REMARK   10  A    between atoms: C26_35  and  N3_37 
REMARK   11  A    between atoms: N3_37  and  S1_39 
ROOT
HETATM    1  C1  UNL     1      44.930  12.722  12.506  1.00  0.00     0.021 C 
HETATM    2  C2  UNL     1      46.363  12.532  12.092  1.00  0.00     0.087 C 
HETATM    3  C3  UNL     1      47.324  13.420  12.770  1.00  0.00     0.222 C 
HETATM    4  O1  UNL     1      48.559  13.127  12.593  1.00  0.00    -0.273 OA
HETATM    5  N1  UNL     1      47.063  14.534  13.580  1.00  0.00    -0.356 N 
ATOM      6  H1  UNL     1      47.600  14.594  14.446  1.00  0.00     0.162 HD
HETATM    7  C4  UNL     1      46.124  15.612  13.340  1.00  0.00     0.084 C 
HETATM    8  C9  UNL     1      46.854  16.885  12.904  1.00  0.00     0.026 C 
HETATM    9  C10 UNL     1      46.399  17.229  11.507  1.00  0.00     0.009 C 
HETATM   10  C11 UNL     1      47.520  17.695  10.630  1.00  0.00     0.012 C 
HETATM   11  C12 UNL     1      47.530  17.072   9.245  1.00  0.00    -0.006 C 
HETATM   12  C13 UNL     1      48.554  16.035   9.013  1.00  0.00     0.005 C 
HETATM   13  C14 UNL     1      47.999  14.973   8.077  1.00  0.00     0.000 C 
HETATM   14  C15 UNL     1      47.036  14.031   8.724  1.00  0.00     0.001 C 
HETATM   15  C16 UNL     1      47.443  13.621  10.112  1.00  0.00     0.015 C 
HETATM   16  C17 UNL     1      46.512  12.527  10.593  1.00  0.00     0.098 C 
HETATM   17  C23 UNL     1      48.077  18.448   8.785  1.00  0.00     0.030 C 
HETATM   18  C24 UNL     1      47.167  18.980   9.930  1.00  0.00     0.089 C 
ENDROOT
BRANCH  18  19
HETATM   19  N2  UNL     1      47.668  20.206  10.438  1.00  0.00    -0.355 N 
HETATM   20  C25 UNL     1      46.880  21.180  11.086  1.00  0.00     0.236 C 
HETATM   21  O4  UNL     1      45.657  20.976  11.222  1.00  0.00    -0.272 OA
ATOM     22  H2  UNL     1      48.664  20.395  10.329  1.00  0.00     0.162 HD
BRANCH  20  23
HETATM   23  C26 UNL     1      47.482  22.418  11.591  1.00  0.00     0.164 C 
HETATM   24  C27 UNL     1      46.625  22.898  12.828  1.00  0.00     0.037 C 
BRANCH  23  25
HETATM   25  N3  UNL     1      47.448  23.553  10.719  1.00  0.00    -0.183 NA
HETATM   26  C28 UNL     1      46.097  23.920  10.362  1.00  0.00     0.133 C 
BRANCH  25  27
HETATM   27  S1  UNL     1      48.277  23.116   9.230  1.00  0.00     0.185 S 
HETATM   28  O5  UNL     1      47.455  22.209   8.385  1.00  0.00    -0.582 OA
HETATM   29  O6  UNL     1      48.531  24.383   8.423  1.00  0.00    -0.582 OA
HETATM   30  O7  UNL     1      49.750  22.449   9.648  1.00  0.00    -0.582 OA
ENDBRANCH  25  27
ENDBRANCH  23  25
ENDBRANCH  20  23
ENDBRANCH  18  19
BRANCH   7  31
HETATM   31  C5  UNL     1      45.308  15.908  14.596  1.00  0.00     0.025 C 
BRANCH  31  32
HETATM   32  C6  UNL     1      43.860  15.572  14.468  1.00  0.00     0.003 C 
BRANCH  32  33
HETATM   33  C7  UNL     1      43.410  15.979  13.072  1.00  0.00     0.011 C 
BRANCH  33  34
HETATM   34  C8  UNL     1      42.415  17.096  13.086  1.00  0.00     0.085 C 
HETATM   35 BR1  UNL     1      43.279  18.807  13.119  1.00  0.00    -0.097 Br
ENDBRANCH  33  34
ENDBRANCH  32  33
ENDBRANCH  31  32
ENDBRANCH   7  31
BRANCH  16  36
HETATM   36  C18 UNL     1      46.925  11.199  10.056  1.00  0.00     0.264 C 
HETATM   37  O2  UNL     1      46.102  10.337   9.650  1.00  0.00    -0.265 OA
BRANCH  36  38
HETATM   38  O3  UNL     1      48.271  10.830   9.975  1.00  0.00    -0.311 OA
BRANCH  38  39
HETATM   39  C19 UNL     1      48.837  10.466   8.727  1.00  0.00     0.060 C 
HETATM   40  C20 UNL     1      49.820  11.520   8.254  1.00  0.00     0.045 C 
HETATM   41  C21 UNL     1      47.838  10.222   7.647  1.00  0.00     0.045 C 
HETATM   42  C22 UNL     1      49.628   9.176   8.948  1.00  0.00     0.045 C 
ENDBRANCH  38  39
ENDBRANCH  36  38
ENDBRANCH  16  36
TORSDOF 11
ENDMDL
MODEL 4
REMARK VINA RESULT: -9.079396748      0.868      1.127
REMARK  11 active torsions:
REMARK  status: ('A' for Active; 'I' for Inactive)
REMARK    1  A    between atoms: C4_7  and  C5_8 
REMARK    2  A    between atoms: C5_8  and  C6_9 
REMARK    3  A    between atoms: C6_9  and  C7_10 
REMARK    4  A    between atoms: C7_10  and  C8_11 
REMARK    5  A    between atoms: C17_21  and  C18_22 
REMARK    6  A    between atoms: C18_22  and  O3_24 
REMARK    7  A    between atoms: O3_24  and  C19_25 
REMARK    8  A    between atoms: C24_30  and  N2_31 
REMARK       I    between atoms: N2_31  and  C25_33 
REMARK    9  A    between atoms: C25_33  and  C26_35 
REMARK   10  A    between atoms: C26_35  and  N3_37 
REMARK   11  A    between atoms: N3_37  and  S1_39 
ROOT
HETATM    1  C1  UNL     1      50.847  14.973   9.287  1.00  0.00     0.021 C 
HETATM    2  C2  UNL     1      49.693  14.295   8.601  1.00  0.00     0.087 C 
HETATM    3  C3  UNL     1      48.534  15.165   8.339  1.00  0.00     0.222 C 
HETATM    4  O1  UNL     1      47.638  14.668   7.569  1.00  0.00    -0.273 OA
HETATM    5  N1  UNL     1      48.286  16.459   8.819  1.00  0.00    -0.356 N 
ATOM      6  H1  UNL     1      47.951  17.135   8.131  1.00  0.00     0.162 HD
HETATM    7  C4  UNL     1      48.446  16.956  10.171  1.00  0.00     0.084 C 
HETATM    8  C9  UNL     1      47.089  17.117  10.859  1.00  0.00     0.026 C 
HETATM    9  C10 UNL     1      47.051  16.183  12.044  1.00  0.00     0.009 C 
HETATM   10  C11 UNL     1      45.730  15.498  12.203  1.00  0.00     0.012 C 
HETATM   11  C12 UNL     1      45.827  14.009  12.480  1.00  0.00    -0.006 C 
HETATM   12  C13 UNL     1      45.497  13.119  11.350  1.00  0.00     0.005 C 
HETATM   13  C14 UNL     1      46.372  11.877  11.407  1.00  0.00     0.000 C 
HETATM   14  C15 UNL     1      47.779  12.100  10.960  1.00  0.00     0.001 C 
HETATM   15  C16 UNL     1      47.890  13.000   9.761  1.00  0.00     0.015 C 
HETATM   16  C17 UNL     1      49.326  13.001   9.279  1.00  0.00     0.098 C 
HETATM   17  C23 UNL     1      44.561  14.231  13.348  1.00  0.00     0.030 C 
HETATM   18  C24 UNL     1      45.219  15.617  13.613  1.00  0.00     0.089 C 
ENDROOT
BRANCH  18  19
HETATM   19  N2  UNL     1      44.230  16.590  13.913  1.00  0.00    -0.355 N 
HETATM   20  C25 UNL     1      44.023  17.145  15.193  1.00  0.00     0.236 C 
HETATM   21  O4  UNL     1      44.737  16.763  16.141  1.00  0.00    -0.272 OA
ATOM     22  H2  UNL     1      43.630  16.908  13.152  1.00  0.00     0.162 HD
BRANCH  20  23
HETATM   23  C26 UNL     1      42.983  18.155  15.412  1.00  0.00     0.164 C 
HETATM   24  C27 UNL     1      41.796  17.843  14.418  1.00  0.00     0.037 C 
BRANCH  23  25
HETATM   25  N3  UNL     1      43.321  19.509  15.092  1.00  0.00    -0.183 NA
HETATM   26  C28 UNL     1      44.725  19.655  14.781  1.00  0.00     0.133 C 
BRANCH  25  27
HETATM   27  S1  UNL     1      42.999  20.498  16.511  1.00  0.00     0.185 S 
HETATM   28  O5  UNL     1      42.185  21.697  16.175  1.00  0.00    -0.582 OA
HETATM   29  O6  UNL     1      42.197  19.671  17.510  1.00  0.00    -0.582 OA
HETATM   30  O7  UNL     1      44.468  20.887  17.201  1.00  0.00    -0.582 OA
ENDBRANCH  25  27
ENDBRANCH  23  25
ENDBRANCH  20  23
ENDBRANCH  18  19
BRANCH   7  31
HETATM   31  C5  UNL     1      49.170  18.300  10.171  1.00  0.00     0.025 C 
BRANCH  31  32
HETATM   32  C6  UNL     1      48.322  19.441   9.717  1.00  0.00     0.003 C 
BRANCH  32  33
HETATM   33  C7  UNL     1      49.227  20.442   9.011  1.00  0.00     0.011 C 
BRANCH  33  34
HETATM   34  C8  UNL     1      48.812  20.703   7.599  1.00  0.00     0.085 C 
HETATM   35 BR1  UNL     1      49.257  22.487   7.054  1.00  0.00    -0.097 Br
ENDBRANCH  33  34
ENDBRANCH  32  33
ENDBRANCH  31  32
ENDBRANCH   7  31
BRANCH  16  36
HETATM   36  C18 UNL     1      49.608  11.804   8.435  1.00  0.00     0.264 C 
HETATM   37  O2  UNL     1      49.788  11.869   7.191  1.00  0.00    -0.265 OA
BRANCH  36  38
HETATM   38  O3  UNL     1      49.685  10.522   8.988  1.00  0.00    -0.311 OA
BRANCH  38  39
HETATM   39  C19 UNL     1      48.833   9.491   8.520  1.00  0.00     0.060 C 
HETATM   40  C20 UNL     1      49.591   8.534   7.619  1.00  0.00     0.045 C 
HETATM   41  C21 UNL     1      47.623   9.975   7.796  1.00  0.00     0.045 C 
HETATM   42  C22 UNL     1      48.373   8.694   9.741  1.00  0.00     0.045 C 
ENDBRANCH  38  39
ENDBRANCH  36  38
ENDBRANCH  16  36
TORSDOF 11
ENDMDL
MODEL 5
REMARK VINA RESULT: -9.071958243      1.744      2.048
REMARK  11 active torsions:
REMARK  status: ('A' for Active; 'I' for Inactive)
REMARK    1  A    between atoms: C4_7  and  C5_8 
REMARK    2  A    between atoms: C5_8  and  C6_9 
REMARK    3  A    between atoms: C6_9  and  C7_10 
REMARK    4  A    between atoms: C7_10  and  C8_11 
REMARK    5  A    between atoms: C17_21  and  C18_22 
REMARK    6  A    between atoms: C18_22  and  O3_24 
REMARK    7  A    between atoms: O3_24  and  C19_25 
REMARK    8  A    between atoms: C24_30  and  N2_31 
REMARK       I    between atoms: N2_31  and  C25_33 
REMARK    9  A    between atoms: C25_33  and  C26_35 
REMARK   10  A    between atoms: C26_35  and  N3_37 
REMARK   11  A    between atoms: N3_37  and  S1_39 
ROOT
HETATM    1  C1  UNL     1      50.809  15.053   9.384  1.00  0.00     0.021 C 
HETATM    2  C2  UNL     1      49.615  14.318   8.839  1.00  0.00     0.087 C 
HETATM    3  C3  UNL     1      48.480  15.181   8.463  1.00  0.00     0.222 C 
HETATM    4  O1  UNL     1      47.548  14.601   7.802  1.00  0.00    -0.273 OA
HETATM    5  N1  UNL     1      48.291  16.543   8.732  1.00  0.00    -0.356 N 
ATOM      6  H1  UNL     1      47.963  17.113   7.952  1.00  0.00     0.162 HD
HETATM    7  C4  UNL     1      48.505  17.244   9.983  1.00  0.00     0.084 C 
HETATM    8  C9  UNL     1      47.172  17.568  10.663  1.00  0.00     0.026 C 
HETATM    9  C10 UNL     1      47.132  16.839  11.984  1.00  0.00     0.009 C 
HETATM   10  C11 UNL     1      45.792  16.240  12.278  1.00  0.00     0.012 C 
HETATM   11  C12 UNL     1      45.843  14.813  12.790  1.00  0.00    -0.006 C 
HETATM   12  C13 UNL     1      45.452  13.766  11.825  1.00  0.00     0.005 C 
HETATM   13  C14 UNL     1      46.284  12.516  12.065  1.00  0.00     0.000 C 
HETATM   14  C15 UNL     1      47.686  12.609  11.560  1.00  0.00     0.001 C 
HETATM   15  C16 UNL     1      47.797  13.300  10.229  1.00  0.00     0.015 C 
HETATM   16  C17 UNL     1      49.220  13.166   9.725  1.00  0.00     0.098 C 
HETATM   17  C23 UNL     1      44.609  15.221  13.636  1.00  0.00     0.030 C 
HETATM   18  C24 UNL     1      45.322  16.604  13.660  1.00  0.00     0.089 C 
ENDROOT
BRANCH  18  19
HETATM   19  N2  UNL     1      44.377  17.651  13.818  1.00  0.00    -0.355 N 
HETATM   20  C25 UNL     1      44.448  18.643  14.819  1.00  0.00     0.236 C 
HETATM   21  O4  UNL     1      45.389  18.611  15.637  1.00  0.00    -0.272 OA
ATOM     22  H2  UNL     1      43.595  17.689  13.165  1.00  0.00     0.162 HD
BRANCH  20  23
HETATM   23  C26 UNL     1      43.432  19.696  14.904  1.00  0.00     0.164 C 
HETATM   24  C27 UNL     1      43.789  20.607  16.145  1.00  0.00     0.037 C 
BRANCH  23  25
HETATM   25  N3  UNL     1      42.093  19.277  15.190  1.00  0.00    -0.183 NA
HETATM   26  C28 UNL     1      42.062  18.110  16.042  1.00  0.00     0.133 C 
BRANCH  25  27
HETATM   27  S1  UNL     1      41.331  18.829  13.669  1.00  0.00     0.185 S 
HETATM   28  O5  UNL     1      39.943  19.354  13.570  1.00  0.00    -0.582 OA
HETATM   29  O6  UNL     1      42.130  19.441  12.524  1.00  0.00    -0.582 OA
HETATM   30  O7  UNL     1      41.402  17.166  13.538  1.00  0.00    -0.582 OA
ENDBRANCH  25  27
ENDBRANCH  23  25
ENDBRANCH  20  23
ENDBRANCH  18  19
BRANCH   7  31
HETATM   31  C5  UNL     1      49.276  18.542   9.751  1.00  0.00     0.025 C 
BRANCH  31  32
HETATM   32  C6  UNL     1      48.402  19.730   9.526  1.00  0.00     0.003 C 
BRANCH  32  33
HETATM   33  C7  UNL     1      48.797  20.354   8.195  1.00  0.00     0.011 C 
BRANCH  33  34
HETATM   34  C8  UNL     1      49.207  21.786   8.324  1.00  0.00     0.085 C 
HETATM   35 BR1  UNL     1      49.352  22.633   6.610  1.00  0.00    -0.097 Br
ENDBRANCH  33  34
ENDBRANCH  32  33
ENDBRANCH  31  32
ENDBRANCH   7  31
BRANCH  16  36
HETATM   36  C18 UNL     1      49.437  11.839   9.080  1.00  0.00     0.264 C 
HETATM   37  O2  UNL     1      49.935  11.707   7.932  1.00  0.00    -0.265 OA
BRANCH  36  38
HETATM   38  O3  UNL     1      49.089  10.648   9.725  1.00  0.00    -0.311 OA
BRANCH  38  39
HETATM   39  C19 UNL     1      48.251   9.705   9.078  1.00  0.00     0.060 C 
HETATM   40  C20 UNL     1      49.051   8.502   8.616  1.00  0.00     0.045 C 
HETATM   41  C21 UNL     1      47.492  10.252   7.917  1.00  0.00     0.045 C 
HETATM   42  C22 UNL     1      47.243   9.208  10.116  1.00  0.00     0.045 C 
ENDBRANCH  38  39
ENDBRANCH  36  38
ENDBRANCH  16  36
TORSDOF 11
ENDMDL
