MODEL 1
REMARK VINA RESULT: -8.288659935      0.000      0.000
REMARK  14 active torsions:
REMARK  status: ('A' for Active; 'I' for Inactive)
REMARK    1  A    between atoms: C2_2  and  C4_4 
REMARK    2  A    between atoms: C4_4  and  N1_5 
REMARK    3  A    between atoms: C4_4  and  C10_13 
REMARK       I    between atoms: N1_5  and  C5_6 
REMARK    4  A    between atoms: C5_6  and  O2_8 
REMARK    5  A    between atoms: O2_8  and  C6_9 
REMARK    6  A    between atoms: C10_13  and  O3_14 
REMARK    7  A    between atoms: C10_13  and  N2_16 
REMARK    8  A    between atoms: C17_24  and  O4_25 
REMARK    9  A    between atoms: C17_24  and  C18_27 
REMARK   10  A    between atoms: C18_27  and  N4_28 
REMARK   11  A    between atoms: C18_27  and  C25_40 
REMARK   12  A    between atoms: N4_28  and  S1_30 
REMARK   13  A    between atoms: S1_30  and  C19_33 
REMARK   14  A    between atoms: C29_44  and  C30_45 
ROOT
HETATM    1  N2  UNL     1      44.791  20.209  14.534  1.00  0.00    -0.332 N 
HETATM    2  C11 UNL     1      45.385  20.941  15.744  1.00  0.00     0.133 C 
HETATM    3  C12 UNL     1      44.219  21.470  16.458  1.00  0.00     0.014 A 
HETATM    4  C13 UNL     1      44.062  22.614  17.326  1.00  0.00    -0.006 A 
HETATM    5  C14 UNL     1      45.202  22.994  18.223  1.00  0.00     0.011 C 
HETATM    6  C15 UNL     1      44.125  22.952  15.932  1.00  0.00     0.014 A 
HETATM    7  C16 UNL     1      43.118  22.859  14.865  1.00  0.00     0.133 C 
HETATM    8  N3  UNL     1      43.838  22.254  13.706  1.00  0.00    -0.333 N 
HETATM    9  C17 UNL     1      44.186  23.171  12.759  1.00  0.00     0.140 C 
HETATM   10  C29 UNL     1      44.099  20.822  13.487  1.00  0.00     0.293 C 
ENDROOT
BRANCH   9  11
HETATM   11  O4  UNL     1      43.783  24.402  13.009  1.00  0.00    -0.348 OA
ATOM     12  H4  UNL     1      43.967  25.029  12.319  1.00  0.00     0.219 HD
ENDBRANCH   9  11
BRANCH   9  13
HETATM   13  C18 UNL     1      44.928  23.099  11.475  1.00  0.00     0.174 C 
BRANCH  13  14
HETATM   14  N4  UNL     1      44.948  24.449  10.950  1.00  0.00    -0.302 N 
ATOM     15  H4  UNL     1      45.795  25.013  11.000  1.00  0.00     0.173 HD
BRANCH  14  16
HETATM   16  S1  UNL     1      43.563  25.060  10.265  1.00  0.00     0.259 S 
HETATM   17  O5  UNL     1      42.274  24.390  10.673  1.00  0.00    -0.201 OA
HETATM   18  O6  UNL     1      43.403  26.529  10.680  1.00  0.00    -0.201 OA
BRANCH  16  19
HETATM   19  C19 UNL     1      43.548  25.091   8.482  1.00  0.00     0.081 A 
HETATM   20  C20 UNL     1      44.720  25.007   7.786  1.00  0.00     0.025 A 
HETATM   21  C21 UNL     1      44.746  25.043   6.420  1.00  0.00     0.003 A 
HETATM   22  C22 UNL     1      43.563  25.177   5.672  1.00  0.00     0.024 A 
HETATM   23  C23 UNL     1      42.393  25.263   6.405  1.00  0.00     0.035 A 
HETATM   24 CL1  UNL     1      40.896  25.400   5.463  1.00  0.00    -0.084 Cl
HETATM   25  C24 UNL     1      42.375  25.221   7.804  1.00  0.00     0.049 A 
ENDBRANCH  16  19
ENDBRANCH  14  16
ENDBRANCH  13  14
BRANCH  13  26
HETATM   26  C25 UNL     1      46.383  22.656  11.750  1.00  0.00    -0.023 C 
HETATM   27  C26 UNL     1      47.354  23.358  10.842  1.00  0.00     0.017 C 
HETATM   28  C27 UNL     1      46.813  22.980  13.158  1.00  0.00     0.017 C 
HETATM   29  C28 UNL     1      46.531  21.175  11.503  1.00  0.00     0.017 C 
ENDBRANCH  13  26
ENDBRANCH   9  13
BRANCH  10  30
HETATM   30  C30 UNL     1      42.836  20.339  12.948  1.00  0.00     0.217 C 
HETATM   31  O7  UNL     1      42.998  20.125  11.587  1.00  0.00    -0.645 OA
HETATM   32  O8  UNL     1      41.601  20.045  13.320  1.00  0.00    -0.645 OA
ENDBRANCH  10  30
BRANCH   1  33
HETATM   33  C10 UNL     1      45.141  18.878  14.602  1.00  0.00     0.153 C 
BRANCH  33  34
HETATM   34  C4  UNL     1      44.674  17.615  14.006  1.00  0.00     0.246 C 
BRANCH  34  35
HETATM   35  C2  UNL     1      44.150  16.733  15.166  1.00  0.00     0.022 C 
HETATM   36  C1  UNL     1      44.007  15.294  14.783  1.00  0.00     0.013 C 
HETATM   37  C3  UNL     1      42.950  17.339  15.816  1.00  0.00     0.013 C 
ENDBRANCH  34  35
BRANCH  34  38
HETATM   38  N1  UNL     1      45.747  16.933  13.388  1.00  0.00    -0.376 NA
HETATM   39  C5  UNL     1      46.768  16.275  12.802  1.00  0.00     0.436 C 
HETATM   40  O1  UNL     1      47.074  15.062  12.910  1.00  0.00    -0.221 OA
BRANCH  39  41
HETATM   41  O2  UNL     1      47.655  16.988  11.945  1.00  0.00    -0.283 OA
BRANCH  41  42
HETATM   42  C6  UNL     1      47.950  16.724  10.632  1.00  0.00     0.062 C 
HETATM   43  C7  UNL     1      49.397  16.287  10.481  1.00  0.00     0.046 C 
HETATM   44  C8  UNL     1      47.844  18.092   9.901  1.00  0.00     0.046 C 
HETATM   45  C9  UNL     1      46.977  15.815   9.910  1.00  0.00     0.046 C 
ENDBRANCH  41  42
ENDBRANCH  39  41
ENDBRANCH  34  38
ENDBRANCH  33  34
BRANCH  33  46
HETATM   46  O3  UNL     1      46.174  18.600  15.407  1.00  0.00    -0.347 OA
ATOM     47  H3  UNL     1      46.840  19.263  15.270  1.00  0.00     0.219 HD
ENDBRANCH  33  46
ENDBRANCH   1  33
TORSDOF 14
ENDMDL
MODEL 2
REMARK VINA RESULT: -8.199074364      6.054     10.127
REMARK  14 active torsions:
REMARK  status: ('A' for Active; 'I' for Inactive)
REMARK    1  A    between atoms: C2_2  and  C4_4 
REMARK    2  A    between atoms: C4_4  and  N1_5 
REMARK    3  A    between atoms: C4_4  and  C10_13 
REMARK       I    between atoms: N1_5  and  C5_6 
REMARK    4  A    between atoms: C5_6  and  O2_8 
REMARK    5  A    between atoms: O2_8  and  C6_9 
REMARK    6  A    between atoms: C10_13  and  O3_14 
REMARK    7  A    between atoms: C10_13  and  N2_16 
REMARK    8  A    between atoms: C17_24  and  O4_25 
REMARK    9  A    between atoms: C17_24  and  C18_27 
REMARK   10  A    between atoms: C18_27  and  N4_28 
REMARK   11  A    between atoms: C18_27  and  C25_40 
REMARK   12  A    between atoms: N4_28  and  S1_30 
REMARK   13  A    between atoms: S1_30  and  C19_33 
REMARK   14  A    between atoms: C29_44  and  C30_45 
ROOT
HETATM    1  N2  UNL     1      46.372  16.194  11.872  1.00  0.00    -0.332 N 
HETATM    2  C11 UNL     1      45.658  17.371  12.548  1.00  0.00     0.133 C 
HETATM    3  C12 UNL     1      46.143  17.346  13.931  1.00  0.00     0.014 A 
HETATM    4  C13 UNL     1      45.547  17.799  15.167  1.00  0.00    -0.006 A 
HETATM    5  C14 UNL     1      44.686  19.028  15.138  1.00  0.00     0.011 C 
HETATM    6  C15 UNL     1      45.010  16.557  14.690  1.00  0.00     0.014 A 
HETATM    7  C16 UNL     1      45.540  15.187  14.741  1.00  0.00     0.133 C 
HETATM    8  N3  UNL     1      45.321  14.636  13.371  1.00  0.00    -0.333 N 
HETATM    9  C17 UNL     1      44.248  13.798  13.301  1.00  0.00     0.140 C 
HETATM   10  C29 UNL     1      46.178  14.848  12.193  1.00  0.00     0.293 C 
ENDROOT
BRANCH   9  11
HETATM   11  O4  UNL     1      43.636  13.587  14.451  1.00  0.00    -0.348 OA
ATOM     12  H4  UNL     1      43.899  12.792  14.901  1.00  0.00     0.219 HD
ENDBRANCH   9  11
BRANCH   9  13
HETATM   13  C18 UNL     1      43.596  13.045  12.199  1.00  0.00     0.174 C 
BRANCH  13  14
HETATM   14  N4  UNL     1      44.408  11.863  11.992  1.00  0.00    -0.302 N 
ATOM     15  H4  UNL     1      44.732  11.310  12.785  1.00  0.00     0.173 HD
BRANCH  14  16
HETATM   16  S1  UNL     1      44.799  11.425  10.437  1.00  0.00     0.259 S 
HETATM   17  O5  UNL     1      43.692  10.787   9.634  1.00  0.00    -0.201 OA
HETATM   18  O6  UNL     1      45.200  12.679   9.648  1.00  0.00    -0.201 OA
BRANCH  16  19
HETATM   19  C19 UNL     1      46.198  10.331  10.287  1.00  0.00     0.081 A 
HETATM   20  C20 UNL     1      46.447   9.399  11.254  1.00  0.00     0.025 A 
HETATM   21  C21 UNL     1      47.519   8.555  11.177  1.00  0.00     0.003 A 
HETATM   22  C22 UNL     1      48.419   8.616  10.099  1.00  0.00     0.024 A 
HETATM   23  C23 UNL     1      48.143   9.571   9.137  1.00  0.00     0.035 A 
HETATM   24 CL1  UNL     1      49.259   9.631   7.759  1.00  0.00    -0.084 Cl
HETATM   25  C24 UNL     1      47.040  10.429   9.221  1.00  0.00     0.049 A 
ENDBRANCH  16  19
ENDBRANCH  14  16
ENDBRANCH  13  14
BRANCH  13  26
HETATM   26  C25 UNL     1      42.186  12.601  12.647  1.00  0.00    -0.023 C 
HETATM   27  C26 UNL     1      41.378  12.079  11.492  1.00  0.00     0.017 C 
HETATM   28  C27 UNL     1      42.241  11.486  13.660  1.00  0.00     0.017 C 
HETATM   29  C28 UNL     1      41.431  13.774  13.225  1.00  0.00     0.017 C 
ENDBRANCH  13  26
ENDBRANCH   9  13
BRANCH  10  30
HETATM   30  C30 UNL     1      47.257  13.892  12.399  1.00  0.00     0.217 C 
HETATM   31  O7  UNL     1      48.385  14.592  12.801  1.00  0.00    -0.645 OA
HETATM   32  O8  UNL     1      47.515  12.597  12.328  1.00  0.00    -0.645 OA
ENDBRANCH  10  30
BRANCH   1  33
HETATM   33  C10 UNL     1      47.148  16.675  10.840  1.00  0.00     0.153 C 
BRANCH  33  34
HETATM   34  C4  UNL     1      48.385  17.460  10.705  1.00  0.00     0.246 C 
BRANCH  34  35
HETATM   35  C2  UNL     1      48.037  18.714   9.865  1.00  0.00     0.022 C 
HETATM   36  C1  UNL     1      49.248  19.404   9.322  1.00  0.00     0.013 C 
HETATM   37  C3  UNL     1      47.068  19.598  10.576  1.00  0.00     0.013 C 
ENDBRANCH  34  35
BRANCH  34  38
HETATM   38  N1  UNL     1      49.366  16.722  10.003  1.00  0.00    -0.376 NA
HETATM   39  C5  UNL     1      50.307  16.022   9.339  1.00  0.00     0.436 C 
HETATM   40  O1  UNL     1      51.550  16.036   9.508  1.00  0.00    -0.221 OA
BRANCH  39  41
HETATM   41  O2  UNL     1      49.908  15.139   8.293  1.00  0.00    -0.283 OA
BRANCH  41  42
HETATM   42  C6  UNL     1      49.555  13.817   8.396  1.00  0.00     0.062 C 
HETATM   43  C7  UNL     1      50.120  13.016   7.236  1.00  0.00     0.046 C 
HETATM   44  C8  UNL     1      48.011  13.787   8.218  1.00  0.00     0.046 C 
HETATM   45  C9  UNL     1      49.810  13.173   9.743  1.00  0.00     0.046 C 
ENDBRANCH  41  42
ENDBRANCH  39  41
ENDBRANCH  34  38
ENDBRANCH  33  34
BRANCH  33  46
HETATM   46  O3  UNL     1      46.707  16.378   9.611  1.00  0.00    -0.347 OA
ATOM     47  H3  UNL     1      47.337  15.793   9.206  1.00  0.00     0.219 HD
ENDBRANCH  33  46
ENDBRANCH   1  33
TORSDOF 14
ENDMDL
MODEL 3
REMARK VINA RESULT: -8.155061003      4.912      9.573
REMARK  14 active torsions:
REMARK  status: ('A' for Active; 'I' for Inactive)
REMARK    1  A    between atoms: C2_2  and  C4_4 
REMARK    2  A    between atoms: C4_4  and  N1_5 
REMARK    3  A    between atoms: C4_4  and  C10_13 
REMARK       I    between atoms: N1_5  and  C5_6 
REMARK    4  A    between atoms: C5_6  and  O2_8 
REMARK    5  A    between atoms: O2_8  and  C6_9 
REMARK    6  A    between atoms: C10_13  and  O3_14 
REMARK    7  A    between atoms: C10_13  and  N2_16 
REMARK    8  A    between atoms: C17_24  and  O4_25 
REMARK    9  A    between atoms: C17_24  and  C18_27 
REMARK   10  A    between atoms: C18_27  and  N4_28 
REMARK   11  A    between atoms: C18_27  and  C25_40 
REMARK   12  A    between atoms: N4_28  and  S1_30 
REMARK   13  A    between atoms: S1_30  and  C19_33 
REMARK   14  A    between atoms: C29_44  and  C30_45 
ROOT
HETATM    1  N2  UNL     1      41.818  15.245  14.313  1.00  0.00    -0.332 N 
HETATM    2  C11 UNL     1      40.535  14.442  14.562  1.00  0.00     0.133 C 
HETATM    3  C12 UNL     1      40.693  13.914  15.920  1.00  0.00     0.014 A 
HETATM    4  C13 UNL     1      40.156  12.736  16.561  1.00  0.00    -0.006 A 
HETATM    5  C14 UNL     1      38.775  12.283  16.186  1.00  0.00     0.011 C 
HETATM    6  C15 UNL     1      41.248  12.460  15.673  1.00  0.00     0.014 A 
HETATM    7  C16 UNL     1      42.699  12.631  15.837  1.00  0.00     0.133 C 
HETATM    8  N3  UNL     1      43.160  13.267  14.568  1.00  0.00    -0.333 N 
HETATM    9  C17 UNL     1      43.757  12.385  13.717  1.00  0.00     0.140 C 
HETATM   10  C29 UNL     1      43.102  14.700  14.235  1.00  0.00     0.293 C 
ENDROOT
BRANCH   9  11
HETATM   11  O4  UNL     1      43.864  11.155  14.183  1.00  0.00    -0.348 OA
ATOM     12  H4  UNL     1      44.532  11.040  14.849  1.00  0.00     0.219 HD
ENDBRANCH   9  11
BRANCH   9  13
HETATM   13  C18 UNL     1      44.333  12.495  12.353  1.00  0.00     0.174 C 
BRANCH  13  14
HETATM   14  N4  UNL     1      45.342  11.460  12.262  1.00  0.00    -0.302 N 
ATOM     15  H4  UNL     1      45.127  10.501  12.531  1.00  0.00     0.173 HD
BRANCH  14  16
HETATM   16  S1  UNL     1      46.856  11.866  11.710  1.00  0.00     0.259 S 
HETATM   17  O5  UNL     1      47.929  11.996  12.764  1.00  0.00    -0.201 OA
HETATM   18  O6  UNL     1      47.355  10.770  10.759  1.00  0.00    -0.201 OA
BRANCH  16  19
HETATM   19  C19 UNL     1      46.937  13.367  10.751  1.00  0.00     0.081 A 
HETATM   20  C20 UNL     1      47.030  13.305   9.389  1.00  0.00     0.025 A 
HETATM   21  C21 UNL     1      47.109  14.435   8.624  1.00  0.00     0.003 A 
HETATM   22  C22 UNL     1      47.105  15.713   9.211  1.00  0.00     0.024 A 
HETATM   23  C23 UNL     1      47.012  15.743  10.590  1.00  0.00     0.035 A 
HETATM   24 CL1  UNL     1      46.975  17.355  11.331  1.00  0.00    -0.084 Cl
HETATM   25  C24 UNL     1      46.928  14.581  11.366  1.00  0.00     0.049 A 
ENDBRANCH  16  19
ENDBRANCH  14  16
ENDBRANCH  13  14
BRANCH  13  26
HETATM   26  C25 UNL     1      43.232  12.203  11.308  1.00  0.00    -0.023 C 
HETATM   27  C26 UNL     1      43.659  11.133  10.342  1.00  0.00     0.017 C 
HETATM   28  C27 UNL     1      41.963  11.708  11.952  1.00  0.00     0.017 C 
HETATM   29  C28 UNL     1      42.940  13.444  10.500  1.00  0.00     0.017 C 
ENDBRANCH  13  26
ENDBRANCH   9  13
BRANCH  10  30
HETATM   30  C30 UNL     1      44.265  15.242  14.924  1.00  0.00     0.217 C 
HETATM   31  O7  UNL     1      43.834  15.834  16.102  1.00  0.00    -0.645 OA
HETATM   32  O8  UNL     1      45.577  15.359  14.798  1.00  0.00    -0.645 OA
ENDBRANCH  10  30
BRANCH   1  33
HETATM   33  C10 UNL     1      41.483  16.561  14.081  1.00  0.00     0.153 C 
BRANCH  33  34
HETATM   34  C4  UNL     1      40.792  17.637  14.811  1.00  0.00     0.246 C 
BRANCH  34  35
HETATM   35  C2  UNL     1      39.835  18.324  13.805  1.00  0.00     0.022 C 
HETATM   36  C1  UNL     1      39.656  19.784  14.079  1.00  0.00     0.013 C 
HETATM   37  C3  UNL     1      38.571  17.550  13.635  1.00  0.00     0.013 C 
ENDBRANCH  34  35
BRANCH  34  38
HETATM   38  N1  UNL     1      41.719  18.603  15.263  1.00  0.00    -0.376 NA
HETATM   39  C5  UNL     1      42.602  19.523  15.702  1.00  0.00     0.436 C 
HETATM   40  O1  UNL     1      43.035  19.690  16.869  1.00  0.00    -0.221 OA
BRANCH  39  41
HETATM   41  O2  UNL     1      43.148  20.460  14.778  1.00  0.00    -0.283 OA
BRANCH  41  42
HETATM   42  C6  UNL     1      44.092  20.234  13.809  1.00  0.00     0.062 C 
HETATM   43  C7  UNL     1      45.098  21.371  13.759  1.00  0.00     0.046 C 
HETATM   44  C8  UNL     1      43.321  20.293  12.460  1.00  0.00     0.046 C 
HETATM   45  C9  UNL     1      44.743  18.866  13.832  1.00  0.00     0.046 C 
ENDBRANCH  41  42
ENDBRANCH  39  41
ENDBRANCH  34  38
ENDBRANCH  33  34
BRANCH  33  46
HETATM   46  O3  UNL     1      41.865  17.044  12.892  1.00  0.00    -0.347 OA
ATOM     47  H3  UNL     1      41.492  16.491  12.216  1.00  0.00     0.219 HD
ENDBRANCH  33  46
ENDBRANCH   1  33
TORSDOF 14
ENDMDL
MODEL 4
REMARK VINA RESULT: -8.103059699      5.435      8.716
REMARK  14 active torsions:
REMARK  status: ('A' for Active; 'I' for Inactive)
REMARK    1  A    between atoms: C2_2  and  C4_4 
REMARK    2  A    between atoms: C4_4  and  N1_5 
REMARK    3  A    between atoms: C4_4  and  C10_13 
REMARK       I    between atoms: N1_5  and  C5_6 
REMARK    4  A    between atoms: C5_6  and  O2_8 
REMARK    5  A    between atoms: O2_8  and  C6_9 
REMARK    6  A    between atoms: C10_13  and  O3_14 
REMARK    7  A    between atoms: C10_13  and  N2_16 
REMARK    8  A    between atoms: C17_24  and  O4_25 
REMARK    9  A    between atoms: C17_24  and  C18_27 
REMARK   10  A    between atoms: C18_27  and  N4_28 
REMARK   11  A    between atoms: C18_27  and  C25_40 
REMARK   12  A    between atoms: N4_28  and  S1_30 
REMARK   13  A    between atoms: S1_30  and  C19_33 
REMARK   14  A    between atoms: C29_44  and  C30_45 
ROOT
HETATM    1  N2  UNL     1      45.546  14.331  12.618  1.00  0.00    -0.332 N 
HETATM    2  C11 UNL     1      45.399  12.938  11.994  1.00  0.00     0.133 C 
HETATM    3  C12 UNL     1      44.526  13.148  10.836  1.00  0.00     0.014 A 
HETATM    4  C13 UNL     1      43.613  12.265  10.148  1.00  0.00    -0.006 A 
HETATM    5  C14 UNL     1      43.969  10.812  10.037  1.00  0.00     0.011 C 
HETATM    6  C15 UNL     1      43.102  12.767  11.392  1.00  0.00     0.014 A 
HETATM    7  C16 UNL     1      42.528  14.072  11.748  1.00  0.00     0.133 C 
HETATM    8  N3  UNL     1      43.182  14.443  13.038  1.00  0.00    -0.333 N 
HETATM    9  C17 UNL     1      42.378  14.235  14.120  1.00  0.00     0.140 C 
HETATM   10  C29 UNL     1      44.507  15.062  13.202  1.00  0.00     0.293 C 
ENDROOT
BRANCH   9  11
HETATM   11  O4  UNL     1      41.167  13.799  13.832  1.00  0.00    -0.348 OA
ATOM     12  H4  UNL     1      40.468  14.217  14.320  1.00  0.00     0.219 HD
ENDBRANCH   9  11
BRANCH   9  13
HETATM   13  C18 UNL     1      42.559  14.396  15.585  1.00  0.00     0.174 C 
BRANCH  13  14
HETATM   14  N4  UNL     1      41.763  15.548  15.959  1.00  0.00    -0.302 N 
ATOM     15  H4  UNL     1      40.748  15.532  15.861  1.00  0.00     0.173 HD
BRANCH  14  16
HETATM   16  S1  UNL     1      42.535  16.895  16.551  1.00  0.00     0.259 S 
HETATM   17  O5  UNL     1      42.183  17.289  17.965  1.00  0.00    -0.201 OA
HETATM   18  O6  UNL     1      44.049  16.638  16.569  1.00  0.00    -0.201 OA
BRANCH  16  19
HETATM   19  C19 UNL     1      42.340  18.373  15.574  1.00  0.00     0.081 A 
HETATM   20  C20 UNL     1      41.153  18.628  14.948  1.00  0.00     0.025 A 
HETATM   21  C21 UNL     1      40.974  19.744  14.179  1.00  0.00     0.003 A 
HETATM   22  C22 UNL     1      42.011  20.675  13.995  1.00  0.00     0.024 A 
HETATM   23  C23 UNL     1      43.201  20.388  14.639  1.00  0.00     0.035 A 
HETATM   24 CL1  UNL     1      44.502  21.577  14.433  1.00  0.00    -0.084 Cl
HETATM   25  C24 UNL     1      43.375  19.245  15.427  1.00  0.00     0.049 A 
ENDBRANCH  16  19
ENDBRANCH  14  16
ENDBRANCH  13  14
BRANCH  13  26
HETATM   26  C25 UNL     1      41.996  13.153  16.309  1.00  0.00    -0.023 C 
HETATM   27  C26 UNL     1      42.263  13.208  17.788  1.00  0.00     0.017 C 
HETATM   28  C27 UNL     1      40.501  13.041  16.156  1.00  0.00     0.017 C 
HETATM   29  C28 UNL     1      42.655  11.902  15.782  1.00  0.00     0.017 C 
ENDBRANCH  13  26
ENDBRANCH   9  13
BRANCH  10  30
HETATM   30  C30 UNL     1      44.246  16.469  12.935  1.00  0.00     0.217 C 
HETATM   31  O7  UNL     1      45.383  17.191  13.264  1.00  0.00    -0.645 OA
HETATM   32  O8  UNL     1      43.294  17.275  12.494  1.00  0.00    -0.645 OA
ENDBRANCH  10  30
BRANCH   1  33
HETATM   33  C10 UNL     1      46.875  14.692  12.599  1.00  0.00     0.153 C 
BRANCH  33  34
HETATM   34  C4  UNL     1      47.875  15.051  11.579  1.00  0.00     0.246 C 
BRANCH  34  35
HETATM   35  C2  UNL     1      47.198  16.059  10.617  1.00  0.00     0.022 C 
HETATM   36  C1  UNL     1      46.999  15.505   9.242  1.00  0.00     0.013 C 
HETATM   37  C3  UNL     1      47.857  17.397  10.674  1.00  0.00     0.013 C 
ENDBRANCH  34  35
BRANCH  34  38
HETATM   38  N1  UNL     1      48.247  13.913  10.829  1.00  0.00    -0.376 NA
HETATM   39  C5  UNL     1      48.596  12.824  10.114  1.00  0.00     0.436 C 
HETATM   40  O1  UNL     1      47.886  11.834   9.812  1.00  0.00    -0.221 OA
BRANCH  39  41
HETATM   41  O2  UNL     1      49.926  12.717   9.613  1.00  0.00    -0.283 OA
BRANCH  41  42
HETATM   42  C6  UNL     1      50.461  13.328   8.508  1.00  0.00     0.062 C 
HETATM   43  C7  UNL     1      51.563  12.477   7.901  1.00  0.00     0.046 C 
HETATM   44  C8  UNL     1      51.163  14.608   9.044  1.00  0.00     0.046 C 
HETATM   45  C9  UNL     1      49.462  13.826   7.485  1.00  0.00     0.046 C 
ENDBRANCH  41  42
ENDBRANCH  39  41
ENDBRANCH  34  38
ENDBRANCH  33  34
BRANCH  33  46
HETATM   46  O3  UNL     1      47.467  14.749  13.799  1.00  0.00    -0.347 OA
ATOM     47  H3  UNL     1      47.788  15.634  13.927  1.00  0.00     0.219 HD
ENDBRANCH  33  46
ENDBRANCH   1  33
TORSDOF 14
ENDMDL
MODEL 5
REMARK VINA RESULT: -8.081020002      2.788      4.632
REMARK  14 active torsions:
REMARK  status: ('A' for Active; 'I' for Inactive)
REMARK    1  A    between atoms: C2_2  and  C4_4 
REMARK    2  A    between atoms: C4_4  and  N1_5 
REMARK    3  A    between atoms: C4_4  and  C10_13 
REMARK       I    between atoms: N1_5  and  C5_6 
REMARK    4  A    between atoms: C5_6  and  O2_8 
REMARK    5  A    between atoms: O2_8  and  C6_9 
REMARK    6  A    between atoms: C10_13  and  O3_14 
REMARK    7  A    between atoms: C10_13  and  N2_16 
REMARK    8  A    between atoms: C17_24  and  O4_25 
REMARK    9  A    between atoms: C17_24  and  C18_27 
REMARK   10  A    between atoms: C18_27  and  N4_28 
REMARK   11  A    between atoms: C18_27  and  C25_40 
REMARK   12  A    between atoms: N4_28  and  S1_30 
REMARK   13  A    between atoms: S1_30  and  C19_33 
REMARK   14  A    between atoms: C29_44  and  C30_45 
ROOT
HETATM    1  N2  UNL     1      44.273  18.183  14.250  1.00  0.00    -0.332 N 
HETATM    2  C11 UNL     1      43.466  17.330  15.237  1.00  0.00     0.133 C 
HETATM    3  C12 UNL     1      42.125  17.266  14.651  1.00  0.00     0.014 A 
HETATM    4  C13 UNL     1      40.822  17.088  15.250  1.00  0.00    -0.006 A 
HETATM    5  C14 UNL     1      40.702  16.200  16.453  1.00  0.00     0.011 C 
HETATM    6  C15 UNL     1      41.352  18.412  15.407  1.00  0.00     0.014 A 
HETATM    7  C16 UNL     1      41.438  19.541  14.469  1.00  0.00     0.133 C 
HETATM    8  N3  UNL     1      42.827  20.066  14.622  1.00  0.00    -0.333 N 
HETATM    9  C17 UNL     1      42.886  21.200  15.377  1.00  0.00     0.140 C 
HETATM   10  C29 UNL     1      44.040  19.534  13.980  1.00  0.00     0.293 C 
ENDROOT
BRANCH   9  11
HETATM   11  O4  UNL     1      41.716  21.651  15.789  1.00  0.00    -0.348 OA
ATOM     12  H4  UNL     1      41.482  22.509  15.456  1.00  0.00     0.219 HD
ENDBRANCH   9  11
BRANCH   9  13
HETATM   13  C18 UNL     1      43.994  22.067  15.851  1.00  0.00     0.174 C 
BRANCH  13  14
HETATM   14  N4  UNL     1      44.078  23.159  14.901  1.00  0.00    -0.302 N 
ATOM     15  H4  UNL     1      43.232  23.615  14.559  1.00  0.00     0.173 HD
BRANCH  14  16
HETATM   16  S1  UNL     1      45.576  23.653  14.382  1.00  0.00     0.259 S 
HETATM   17  O5  UNL     1      46.020  25.017  14.851  1.00  0.00    -0.201 OA
HETATM   18  O6  UNL     1      46.638  22.679  14.912  1.00  0.00    -0.201 OA
BRANCH  16  19
HETATM   19  C19 UNL     1      45.805  23.651  12.614  1.00  0.00     0.081 A 
HETATM   20  C20 UNL     1      44.733  23.816  11.784  1.00  0.00     0.025 A 
HETATM   21  C21 UNL     1      44.871  23.804  10.424  1.00  0.00     0.003 A 
HETATM   22  C22 UNL     1      46.127  23.614   9.821  1.00  0.00     0.024 A 
HETATM   23  C23 UNL     1      47.192  23.447  10.687  1.00  0.00     0.035 A 
HETATM   24 CL1  UNL     1      48.783  23.237   9.929  1.00  0.00    -0.084 Cl
HETATM   25  C24 UNL     1      47.043  23.464  12.079  1.00  0.00     0.049 A 
ENDBRANCH  16  19
ENDBRANCH  14  16
ENDBRANCH  13  14
BRANCH  13  26
HETATM   26  C25 UNL     1      43.633  22.647  17.237  1.00  0.00    -0.023 C 
HETATM   27  C26 UNL     1      44.854  23.135  17.966  1.00  0.00     0.017 C 
HETATM   28  C27 UNL     1      42.706  23.831  17.128  1.00  0.00     0.017 C 
HETATM   29  C28 UNL     1      42.996  21.582  18.095  1.00  0.00     0.017 C 
ENDBRANCH  13  26
ENDBRANCH   9  13
BRANCH  10  30
HETATM   30  C30 UNL     1      43.977  20.103  12.641  1.00  0.00     0.217 C 
HETATM   31  O7  UNL     1      45.274  20.298  12.192  1.00  0.00    -0.645 OA
HETATM   32  O8  UNL     1      43.104  20.492  11.727  1.00  0.00    -0.645 OA
ENDBRANCH  10  30
BRANCH   1  33
HETATM   33  C10 UNL     1      45.317  17.430  13.758  1.00  0.00     0.153 C 
BRANCH  33  34
HETATM   34  C4  UNL     1      45.485  16.331  12.793  1.00  0.00     0.246 C 
BRANCH  34  35
HETATM   35  C2  UNL     1      46.155  15.159  13.553  1.00  0.00     0.022 C 
HETATM   36  C1  UNL     1      47.350  14.612  12.838  1.00  0.00     0.013 C 
HETATM   37  C3  UNL     1      45.153  14.142  13.986  1.00  0.00     0.013 C 
ENDBRANCH  34  35
BRANCH  34  38
HETATM   38  N1  UNL     1      46.346  16.721  11.743  1.00  0.00    -0.376 NA
HETATM   39  C5  UNL     1      47.171  17.098  10.745  1.00  0.00     0.436 C 
HETATM   40  O1  UNL     1      48.068  17.975  10.770  1.00  0.00    -0.221 OA
BRANCH  39  41
HETATM   41  O2  UNL     1      47.059  16.467   9.473  1.00  0.00    -0.283 OA
BRANCH  41  42
HETATM   42  C6  UNL     1      47.463  15.204   9.121  1.00  0.00     0.062 C 
HETATM   43  C7  UNL     1      48.908  14.968   9.524  1.00  0.00     0.046 C 
HETATM   44  C8  UNL     1      47.449  15.184   7.566  1.00  0.00     0.046 C 
HETATM   45  C9  UNL     1      46.539  14.079   9.538  1.00  0.00     0.046 C 
ENDBRANCH  41  42
ENDBRANCH  39  41
ENDBRANCH  34  38
ENDBRANCH  33  34
BRANCH  33  46
HETATM   46  O3  UNL     1      46.522  17.736  14.252  1.00  0.00    -0.347 OA
ATOM     47  H3  UNL     1      46.911  16.940  14.596  1.00  0.00     0.219 HD
ENDBRANCH  33  46
ENDBRANCH   1  33
TORSDOF 14
ENDMDL
