MODEL 1
REMARK VINA RESULT: -8.462669946      0.000      0.000
REMARK  6 active torsions:
REMARK  status: ('A' for Active; 'I' for Inactive)
REMARK    1  A    between atoms: C4_4  and  O1_5 
REMARK    2  A    between atoms: C5_7  and  N1_8 
REMARK    3  A    between atoms: C7_12  and  N2_13 
REMARK    4  A    between atoms: C8_16  and  O6_17 
REMARK    5  A    between atoms: O6_17  and  N3_18 
REMARK       I    between atoms: C9_20  and  N5_22 
REMARK    6  A    between atoms: N6_24  and  C10_26 
ROOT
HETATM    1  C1  UNL     1     -33.952 -12.702 -15.446  1.00  0.00     0.018 C 
HETATM    2  C2  UNL     1     -33.207 -12.320 -16.333  1.00  0.00    -0.072 C 
HETATM    3  C3  UNL     1     -32.314 -11.846 -17.373  1.00  0.00     0.090 A 
HETATM    4  C4  UNL     1     -31.458 -10.840 -17.109  1.00  0.00     0.120 A 
HETATM    5  C5  UNL     1     -30.623 -10.404 -18.102  1.00  0.00     0.140 A 
HETATM    6  C6  UNL     1     -30.657 -10.985 -19.344  1.00  0.00     0.078 A 
HETATM    7  C7  UNL     1     -31.550 -12.035 -19.614  1.00  0.00     0.142 A 
HETATM    8  C8  UNL     1     -32.396 -12.490 -18.644  1.00  0.00     0.153 A 
ENDROOT
BRANCH   4   9
HETATM    9  O1  UNL     1     -31.422 -10.249 -15.852  1.00  0.00    -0.357 OA
ATOM     10  H1  UNL     1     -30.729 -10.459 -15.238  1.00  0.00     0.218 HD
ENDBRANCH   4   9
BRANCH   8  11
HETATM   11  O6  UNL     1     -33.285 -13.465 -18.765  1.00  0.00    -0.231 OA
BRANCH  11  12
HETATM   12  N3  UNL     1     -33.616 -14.523 -19.416  1.00  0.00    -0.231 N 
HETATM   13  C9  UNL     1     -34.488 -15.406 -19.004  1.00  0.00     0.227 C 
HETATM   14  N4  UNL     1     -35.095 -15.158 -17.755  1.00  0.00    -0.060 NA
HETATM   15  N5  UNL     1     -34.713 -16.490 -19.857  1.00  0.00    -0.272 N 
HETATM   16  N6  UNL     1     -35.371 -17.527 -19.695  1.00  0.00    -0.297 N 
ATOM     17  H5  UNL     1     -34.260 -16.413 -20.767  1.00  0.00     0.189 HD
ATOM     18  H6  UNL     1     -35.416 -18.211 -20.450  1.00  0.00     0.187 HD
ATOM     19  H3  UNL     1     -33.168 -14.684 -20.318  1.00  0.00     0.197 HD
BRANCH  16  20
HETATM   20  C10 UNL     1     -36.058 -17.785 -18.491  1.00  0.00     0.070 A 
HETATM   21  C11 UNL     1     -35.410 -18.202 -17.343  1.00  0.00     0.034 A 
HETATM   22  C12 UNL     1     -36.135 -18.439 -16.220  1.00  0.00     0.026 A 
HETATM   23  C13 UNL     1     -37.500 -18.267 -16.220  1.00  0.00     0.035 A 
HETATM   24 CL1  UNL     1     -38.362 -18.595 -14.728  1.00  0.00    -0.084 Cl
HETATM   25  C14 UNL     1     -38.165 -17.853 -17.355  1.00  0.00     0.050 A 
HETATM   26  C15 UNL     1     -37.432 -17.611 -18.499  1.00  0.00     0.063 A 
HETATM   27 CL2  UNL     1     -38.233 -17.081 -19.976  1.00  0.00    -0.082 Cl
ENDBRANCH  16  20
ENDBRANCH  11  12
ENDBRANCH   8  11
BRANCH   5  28
HETATM   28  N1  UNL     1     -29.718  -9.341 -17.831  1.00  0.00    -0.113 N 
HETATM   29  O2  UNL     1     -28.537  -9.484 -18.202  1.00  0.00    -0.532 OA
HETATM   30  O3  UNL     1     -30.104  -8.181 -17.184  1.00  0.00    -0.532 OA
ENDBRANCH   5  28
BRANCH   7  31
HETATM   31  N2  UNL     1     -31.533 -12.579 -20.918  1.00  0.00    -0.113 N 
HETATM   32  O4  UNL     1     -32.426 -13.133 -21.532  1.00  0.00    -0.532 OA
HETATM   33  O5  UNL     1     -30.297 -12.515 -21.609  1.00  0.00    -0.532 OA
ENDBRANCH   7  31
TORSDOF 6
ENDMDL
MODEL 2
REMARK VINA RESULT: -8.392109652      5.652      9.130
REMARK  6 active torsions:
REMARK  status: ('A' for Active; 'I' for Inactive)
REMARK    1  A    between atoms: C4_4  and  O1_5 
REMARK    2  A    between atoms: C5_7  and  N1_8 
REMARK    3  A    between atoms: C7_12  and  N2_13 
REMARK    4  A    between atoms: C8_16  and  O6_17 
REMARK    5  A    between atoms: O6_17  and  N3_18 
REMARK       I    between atoms: C9_20  and  N5_22 
REMARK    6  A    between atoms: N6_24  and  C10_26 
ROOT
HETATM    1  C1  UNL     1     -29.483  -8.763 -16.809  1.00  0.00     0.018 C 
HETATM    2  C2  UNL     1     -29.960  -9.816 -17.197  1.00  0.00    -0.072 C 
HETATM    3  C3  UNL     1     -30.529 -11.058 -17.684  1.00  0.00     0.090 A 
HETATM    4  C4  UNL     1     -30.705 -11.239 -19.007  1.00  0.00     0.120 A 
HETATM    5  C5  UNL     1     -31.245 -12.416 -19.448  1.00  0.00     0.140 A 
HETATM    6  C6  UNL     1     -31.598 -13.396 -18.556  1.00  0.00     0.078 A 
HETATM    7  C7  UNL     1     -31.411 -13.205 -17.177  1.00  0.00     0.142 A 
HETATM    8  C8  UNL     1     -30.877 -12.040 -16.707  1.00  0.00     0.153 A 
ENDROOT
BRANCH   4   9
HETATM    9  O1  UNL     1     -30.348 -10.247 -19.912  1.00  0.00    -0.357 OA
ATOM     10  H1  UNL     1     -29.662 -10.397 -20.550  1.00  0.00     0.218 HD
ENDBRANCH   4   9
BRANCH   8  11
HETATM   11  O6  UNL     1     -30.652 -11.730 -15.439  1.00  0.00    -0.231 OA
BRANCH  11  12
HETATM   12  N3  UNL     1     -29.974 -12.010 -14.383  1.00  0.00    -0.231 N 
HETATM   13  C9  UNL     1     -29.825 -11.207 -13.362  1.00  0.00     0.227 C 
HETATM   14  N4  UNL     1     -30.463  -9.952 -13.447  1.00  0.00    -0.060 NA
HETATM   15  N5  UNL     1     -29.049 -11.695 -12.306  1.00  0.00    -0.272 N 
HETATM   16  N6  UNL     1     -28.633 -11.139 -11.281  1.00  0.00    -0.297 N 
ATOM     17  H5  UNL     1     -28.781 -12.675 -12.396  1.00  0.00     0.189 HD
ATOM     18  H6  UNL     1     -28.072 -11.674 -10.617  1.00  0.00     0.187 HD
ATOM     19  H3  UNL     1     -29.520 -12.922 -14.340  1.00  0.00     0.197 HD
BRANCH  16  20
HETATM   20  C10 UNL     1     -28.916  -9.785 -11.008  1.00  0.00     0.070 A 
HETATM   21  C11 UNL     1     -28.133  -8.753 -11.490  1.00  0.00     0.034 A 
HETATM   22  C12 UNL     1     -28.459  -7.472 -11.183  1.00  0.00     0.026 A 
HETATM   23  C13 UNL     1     -29.558  -7.198 -10.400  1.00  0.00     0.035 A 
HETATM   24 CL1  UNL     1     -29.910  -5.516 -10.050  1.00  0.00    -0.084 Cl
HETATM   25  C14 UNL     1     -30.351  -8.214  -9.909  1.00  0.00     0.050 A 
HETATM   26  C15 UNL     1     -30.023  -9.518 -10.218  1.00  0.00     0.063 A 
HETATM   27 CL2  UNL     1     -31.003 -10.852  -9.616  1.00  0.00    -0.082 Cl
ENDBRANCH  16  20
ENDBRANCH  11  12
ENDBRANCH   8  11
BRANCH   5  28
HETATM   28  N1  UNL     1     -31.434 -12.612 -20.844  1.00  0.00    -0.113 N 
HETATM   29  O2  UNL     1     -32.506 -13.133 -21.209  1.00  0.00    -0.532 OA
HETATM   30  O3  UNL     1     -30.486 -12.249 -21.783  1.00  0.00    -0.532 OA
ENDBRANCH   5  28
BRANCH   7  31
HETATM   31  N2  UNL     1     -31.806 -14.256 -16.319  1.00  0.00    -0.113 N 
HETATM   32  O4  UNL     1     -31.166 -14.824 -15.453  1.00  0.00    -0.532 OA
HETATM   33  O5  UNL     1     -33.117 -14.761 -16.507  1.00  0.00    -0.532 OA
ENDBRANCH   7  31
TORSDOF 6
ENDMDL
MODEL 3
REMARK VINA RESULT: -8.179403956      5.912      9.412
REMARK  6 active torsions:
REMARK  status: ('A' for Active; 'I' for Inactive)
REMARK    1  A    between atoms: C4_4  and  O1_5 
REMARK    2  A    between atoms: C5_7  and  N1_8 
REMARK    3  A    between atoms: C7_12  and  N2_13 
REMARK    4  A    between atoms: C8_16  and  O6_17 
REMARK    5  A    between atoms: O6_17  and  N3_18 
REMARK       I    between atoms: C9_20  and  N5_22 
REMARK    6  A    between atoms: N6_24  and  C10_26 
ROOT
HETATM    1  C1  UNL     1     -29.459  -8.464 -16.975  1.00  0.00     0.018 C 
HETATM    2  C2  UNL     1     -29.938  -9.530 -17.322  1.00  0.00    -0.072 C 
HETATM    3  C3  UNL     1     -30.510 -10.790 -17.760  1.00  0.00     0.090 A 
HETATM    4  C4  UNL     1     -30.667 -11.030 -19.076  1.00  0.00     0.120 A 
HETATM    5  C5  UNL     1     -31.209 -12.223 -19.471  1.00  0.00     0.140 A 
HETATM    6  C6  UNL     1     -31.583 -13.158 -18.540  1.00  0.00     0.078 A 
HETATM    7  C7  UNL     1     -31.417 -12.904 -17.169  1.00  0.00     0.142 A 
HETATM    8  C8  UNL     1     -30.881 -11.723 -16.745  1.00  0.00     0.153 A 
ENDROOT
BRANCH   4   9
HETATM    9  O1  UNL     1     -30.288 -10.083 -20.020  1.00  0.00    -0.357 OA
ATOM     10  H1  UNL     1     -29.444 -10.140 -20.451  1.00  0.00     0.218 HD
ENDBRANCH   4   9
BRANCH   8  11
HETATM   11  O6  UNL     1     -30.672 -11.355 -15.489  1.00  0.00    -0.231 OA
BRANCH  11  12
HETATM   12  N3  UNL     1     -29.924 -11.496 -14.453  1.00  0.00    -0.231 N 
HETATM   13  C9  UNL     1     -29.841 -10.634 -13.473  1.00  0.00     0.227 C 
HETATM   14  N4  UNL     1     -30.640  -9.477 -13.583  1.00  0.00    -0.060 NA
HETATM   15  N5  UNL     1     -28.969 -10.969 -12.434  1.00  0.00    -0.272 N 
HETATM   16  N6  UNL     1     -28.590 -10.316 -11.451  1.00  0.00    -0.297 N 
ATOM     17  H5  UNL     1     -28.580 -11.909 -12.494  1.00  0.00     0.189 HD
ATOM     18  H6  UNL     1     -27.939 -10.743 -10.792  1.00  0.00     0.187 HD
ATOM     19  H3  UNL     1     -29.354 -12.340 -14.392  1.00  0.00     0.197 HD
BRANCH  16  20
HETATM   20  C10 UNL     1     -29.036  -8.998 -11.223  1.00  0.00     0.070 A 
HETATM   21  C11 UNL     1     -30.151  -8.717 -10.454  1.00  0.00     0.034 A 
HETATM   22  C12 UNL     1     -30.529  -7.426 -10.280  1.00  0.00     0.026 A 
HETATM   23  C13 UNL     1     -29.814  -6.403 -10.862  1.00  0.00     0.035 A 
HETATM   24 CL1  UNL     1     -30.370  -4.762 -10.588  1.00  0.00    -0.084 Cl
HETATM   25  C14 UNL     1     -28.701  -6.663 -11.632  1.00  0.00     0.050 A 
HETATM   26  C15 UNL     1     -28.312  -7.975 -11.812  1.00  0.00     0.063 A 
HETATM   27 CL2  UNL     1     -26.897  -8.362 -12.788  1.00  0.00    -0.082 Cl
ENDBRANCH  16  20
ENDBRANCH  11  12
ENDBRANCH   8  11
BRANCH   5  28
HETATM   28  N1  UNL     1     -31.378 -12.482 -20.859  1.00  0.00    -0.113 N 
HETATM   29  O2  UNL     1     -32.462 -12.980 -21.221  1.00  0.00    -0.532 OA
HETATM   30  O3  UNL     1     -30.399 -12.201 -21.794  1.00  0.00    -0.532 OA
ENDBRANCH   5  28
BRANCH   7  31
HETATM   31  N2  UNL     1     -31.833 -13.911 -16.270  1.00  0.00    -0.113 N 
HETATM   32  O4  UNL     1     -31.192 -14.827 -15.789  1.00  0.00    -0.532 OA
HETATM   33  O5  UNL     1     -33.200 -13.891 -15.894  1.00  0.00    -0.532 OA
ENDBRANCH   7  31
TORSDOF 6
ENDMDL
MODEL 4
REMARK VINA RESULT: -8.038645944      5.881      9.277
REMARK  6 active torsions:
REMARK  status: ('A' for Active; 'I' for Inactive)
REMARK    1  A    between atoms: C4_4  and  O1_5 
REMARK    2  A    between atoms: C5_7  and  N1_8 
REMARK    3  A    between atoms: C7_12  and  N2_13 
REMARK    4  A    between atoms: C8_16  and  O6_17 
REMARK    5  A    between atoms: O6_17  and  N3_18 
REMARK       I    between atoms: C9_20  and  N5_22 
REMARK    6  A    between atoms: N6_24  and  C10_26 
ROOT
HETATM    1  C1  UNL     1     -29.594  -8.258 -17.292  1.00  0.00     0.018 C 
HETATM    2  C2  UNL     1     -30.076  -9.338 -17.587  1.00  0.00    -0.072 C 
HETATM    3  C3  UNL     1     -30.648 -10.617 -17.963  1.00  0.00     0.090 A 
HETATM    4  C4  UNL     1     -30.706 -10.966 -19.263  1.00  0.00     0.120 A 
HETATM    5  C5  UNL     1     -31.250 -12.176 -19.600  1.00  0.00     0.140 A 
HETATM    6  C6  UNL     1     -31.725 -13.019 -18.628  1.00  0.00     0.078 A 
HETATM    7  C7  UNL     1     -31.662 -12.652 -17.274  1.00  0.00     0.142 A 
HETATM    8  C8  UNL     1     -31.126 -11.451 -16.907  1.00  0.00     0.153 A 
ENDROOT
BRANCH   4   9
HETATM    9  O1  UNL     1     -30.225 -10.113 -20.248  1.00  0.00    -0.357 OA
ATOM     10  H1  UNL     1     -30.503 -10.210 -21.151  1.00  0.00     0.218 HD
ENDBRANCH   4   9
BRANCH   8  11
HETATM   11  O6  UNL     1     -31.008 -10.982 -15.673  1.00  0.00    -0.231 OA
BRANCH  11  12
HETATM   12  N3  UNL     1     -31.635 -10.649 -14.602  1.00  0.00    -0.231 N 
HETATM   13  C9  UNL     1     -31.113  -9.961 -13.620  1.00  0.00     0.227 C 
HETATM   14  N4  UNL     1     -29.767  -9.567 -13.771  1.00  0.00    -0.060 NA
HETATM   15  N5  UNL     1     -31.958  -9.699 -12.538  1.00  0.00    -0.272 N 
HETATM   16  N6  UNL     1     -31.726  -9.191 -11.432  1.00  0.00    -0.297 N 
ATOM     17  H5  UNL     1     -32.929  -9.970 -12.684  1.00  0.00     0.189 HD
ATOM     18  H6  UNL     1     -32.489  -9.081 -10.765  1.00  0.00     0.187 HD
ATOM     19  H3  UNL     1     -32.607 -10.942 -14.511  1.00  0.00     0.197 HD
BRANCH  16  20
HETATM   20  C10 UNL     1     -30.431  -8.762 -11.073  1.00  0.00     0.070 A 
HETATM   21  C11 UNL     1     -29.503  -9.610 -10.497  1.00  0.00     0.034 A 
HETATM   22  C12 UNL     1     -28.277  -9.130 -10.171  1.00  0.00     0.026 A 
HETATM   23  C13 UNL     1     -27.956  -7.812 -10.407  1.00  0.00     0.035 A 
HETATM   24 CL1  UNL     1     -26.351  -7.270  -9.955  1.00  0.00    -0.084 Cl
HETATM   25  C14 UNL     1     -28.869  -6.950 -10.979  1.00  0.00     0.050 A 
HETATM   26  C15 UNL     1     -30.116  -7.435 -11.313  1.00  0.00     0.063 A 
HETATM   27 CL2  UNL     1     -31.319  -6.376 -12.046  1.00  0.00    -0.082 Cl
ENDBRANCH  16  20
ENDBRANCH  11  12
ENDBRANCH   8  11
BRANCH   5  28
HETATM   28  N1  UNL     1     -31.315 -12.549 -20.970  1.00  0.00    -0.113 N 
HETATM   29  O2  UNL     1     -32.422 -12.912 -21.413  1.00  0.00    -0.532 OA
HETATM   30  O3  UNL     1     -30.212 -12.521 -21.804  1.00  0.00    -0.532 OA
ENDBRANCH   5  28
BRANCH   7  31
HETATM   31  N2  UNL     1     -32.178 -13.568 -16.331  1.00  0.00    -0.113 N 
HETATM   32  O4  UNL     1     -33.153 -13.463 -15.609  1.00  0.00    -0.532 OA
HETATM   33  O5  UNL     1     -31.446 -14.771 -16.157  1.00  0.00    -0.532 OA
ENDBRANCH   7  31
TORSDOF 6
ENDMDL
MODEL 5
REMARK VINA RESULT: -8.009277778      5.680      9.263
REMARK  6 active torsions:
REMARK  status: ('A' for Active; 'I' for Inactive)
REMARK    1  A    between atoms: C4_4  and  O1_5 
REMARK    2  A    between atoms: C5_7  and  N1_8 
REMARK    3  A    between atoms: C7_12  and  N2_13 
REMARK    4  A    between atoms: C8_16  and  O6_17 
REMARK    5  A    between atoms: O6_17  and  N3_18 
REMARK       I    between atoms: C9_20  and  N5_22 
REMARK    6  A    between atoms: N6_24  and  C10_26 
ROOT
HETATM    1  C1  UNL     1     -29.695  -8.384 -17.151  1.00  0.00     0.018 C 
HETATM    2  C2  UNL     1     -30.155  -9.468 -17.467  1.00  0.00    -0.072 C 
HETATM    3  C3  UNL     1     -30.703 -10.750 -17.868  1.00  0.00     0.090 A 
HETATM    4  C4  UNL     1     -30.760 -11.072 -19.174  1.00  0.00     0.120 A 
HETATM    5  C5  UNL     1     -31.280 -12.285 -19.535  1.00  0.00     0.140 A 
HETATM    6  C6  UNL     1     -31.733 -13.159 -18.579  1.00  0.00     0.078 A 
HETATM    7  C7  UNL     1     -31.670 -12.820 -17.217  1.00  0.00     0.142 A 
HETATM    8  C8  UNL     1     -31.158 -11.617 -16.828  1.00  0.00     0.153 A 
ENDROOT
BRANCH   4   9
HETATM    9  O1  UNL     1     -30.302 -10.188 -20.143  1.00  0.00    -0.357 OA
ATOM     10  H1  UNL     1     -29.840 -10.506 -20.909  1.00  0.00     0.218 HD
ENDBRANCH   4   9
BRANCH   8  11
HETATM   11  O6  UNL     1     -31.043 -11.172 -15.585  1.00  0.00    -0.231 OA
BRANCH  11  12
HETATM   12  N3  UNL     1     -31.670 -10.704 -14.564  1.00  0.00    -0.231 N 
HETATM   13  C9  UNL     1     -31.133  -9.937 -13.651  1.00  0.00     0.227 C 
HETATM   14  N4  UNL     1     -29.771  -9.612 -13.821  1.00  0.00    -0.060 NA
HETATM   15  N5  UNL     1     -31.981  -9.530 -12.617  1.00  0.00    -0.272 N 
HETATM   16  N6  UNL     1     -31.743  -8.918 -11.566  1.00  0.00    -0.297 N 
ATOM     17  H5  UNL     1     -32.961  -9.778 -12.750  1.00  0.00     0.189 HD
ATOM     18  H6  UNL     1     -32.510  -8.710 -10.927  1.00  0.00     0.187 HD
ATOM     19  H3  UNL     1     -32.654 -10.949 -14.459  1.00  0.00     0.197 HD
BRANCH  16  20
HETATM   20  C10 UNL     1     -30.437  -8.502 -11.233  1.00  0.00     0.070 A 
HETATM   21  C11 UNL     1     -29.925  -7.281 -11.632  1.00  0.00     0.034 A 
HETATM   22  C12 UNL     1     -28.657  -6.947 -11.281  1.00  0.00     0.026 A 
HETATM   23  C13 UNL     1     -27.886  -7.811 -10.538  1.00  0.00     0.035 A 
HETATM   24 CL1  UNL     1     -26.258  -7.303 -10.128  1.00  0.00    -0.084 Cl
HETATM   25  C14 UNL     1     -28.379  -9.033 -10.132  1.00  0.00     0.050 A 
HETATM   26  C15 UNL     1     -29.667  -9.377 -10.485  1.00  0.00     0.063 A 
HETATM   27 CL2  UNL     1     -30.345 -10.927  -9.993  1.00  0.00    -0.082 Cl
ENDBRANCH  16  20
ENDBRANCH  11  12
ENDBRANCH   8  11
BRANCH   5  28
HETATM   28  N1  UNL     1     -31.345 -12.631 -20.912  1.00  0.00    -0.113 N 
HETATM   29  O2  UNL     1     -32.392 -13.171 -21.319  1.00  0.00    -0.532 OA
HETATM   30  O3  UNL     1     -30.305 -12.388 -21.791  1.00  0.00    -0.532 OA
ENDBRANCH   5  28
BRANCH   7  31
HETATM   31  N2  UNL     1     -32.162 -13.767 -16.292  1.00  0.00    -0.113 N 
HETATM   32  O4  UNL     1     -33.245 -13.811 -15.737  1.00  0.00    -0.532 OA
HETATM   33  O5  UNL     1     -31.266 -14.798 -15.912  1.00  0.00    -0.532 OA
ENDBRANCH   7  31
TORSDOF 6
ENDMDL
