MODEL 1
REMARK VINA RESULT: -7.775465659      0.000      0.000
REMARK  9 active torsions:
REMARK  status: ('A' for Active; 'I' for Inactive)
REMARK    1  A    between atoms: N1_1  and  N2_4 
REMARK    2  A    between atoms: N2_4  and  C1_6 
REMARK    3  A    between atoms: C3_9  and  N4_10 
REMARK    4  A    between atoms: N4_10  and  O1_12 
REMARK    5  A    between atoms: C4_14  and  C5_15 
REMARK    6  A    between atoms: C5_15  and  O2_16 
REMARK    7  A    between atoms: O2_16  and  C6_17 
REMARK    8  A    between atoms: C6_17  and  C7_19 
REMARK    9  A    between atoms: N5_28  and  C14_29 
ROOT
HETATM    1  C1  UNL     1     -34.134 -14.254 -16.034  1.00  0.00     0.153 A 
HETATM    2  C2  UNL     1     -34.223 -15.031 -17.163  1.00  0.00     0.121 A 
HETATM    3  N3  UNL     1     -34.852 -16.289 -17.192  1.00  0.00    -0.096 NA
HETATM    4  C3  UNL     1     -33.757 -14.480 -18.330  1.00  0.00     0.092 A 
HETATM    5  C4  UNL     1     -33.227 -13.213 -18.318  1.00  0.00     0.013 A 
HETATM    6  C13 UNL     1     -33.165 -12.458 -17.128  1.00  0.00     0.110 A 
HETATM    7  N5  UNL     1     -33.618 -13.005 -16.034  1.00  0.00    -0.305 N 
ENDROOT
BRANCH   5   8
HETATM    8  C5  UNL     1     -32.578 -12.770 -19.577  1.00  0.00     0.221 C 
BRANCH   8   9
HETATM    9  O2  UNL     1     -31.832 -11.718 -19.613  1.00  0.00    -0.313 OA
BRANCH   9  10
HETATM   10  C6  UNL     1     -30.831 -10.930 -19.401  1.00  0.00     0.295 C 
HETATM   11  O3  UNL     1     -30.119 -10.580 -20.419  1.00  0.00    -0.259 OA
BRANCH  10  12
HETATM   12  C7  UNL     1     -30.525 -10.440 -18.045  1.00  0.00     0.061 A 
HETATM   13  C8  UNL     1     -29.733 -11.112 -17.137  1.00  0.00     0.021 A 
HETATM   14  C9  UNL     1     -29.480 -10.590 -15.880  1.00  0.00     0.025 A 
HETATM   15  C10 UNL     1     -30.022  -9.371 -15.499  1.00  0.00     0.035 A 
HETATM   16 CL1  UNL     1     -29.746  -8.694 -13.906  1.00  0.00    -0.084 Cl
HETATM   17  C11 UNL     1     -30.813  -8.696 -16.391  1.00  0.00     0.048 A 
HETATM   18  C12 UNL     1     -31.065  -9.228 -17.661  1.00  0.00     0.051 A 
HETATM   19 CL2  UNL     1     -32.072  -8.366 -18.793  1.00  0.00    -0.083 Cl
ENDBRANCH  10  12
ENDBRANCH   9  10
ENDBRANCH   8   9
ENDBRANCH   5   8
BRANCH   4  20
HETATM   20  N4  UNL     1     -33.886 -15.168 -19.591  1.00  0.00    -0.267 N 
ATOM     21  H4  UNL     1     -33.094 -15.365 -20.203  1.00  0.00     0.194 HD
BRANCH  20  22
HETATM   22  O1  UNL     1     -35.102 -15.511 -19.871  1.00  0.00    -0.289 OA
ATOM     23  H1  UNL     1     -35.615 -14.811 -20.258  1.00  0.00     0.244 HD
ENDBRANCH  20  22
ENDBRANCH   4  20
BRANCH   7  24
HETATM   24  C14 UNL     1     -33.732 -12.376 -14.762  1.00  0.00     0.040 A 
HETATM   25  C15 UNL     1     -32.505 -12.008 -14.142  1.00  0.00     0.030 A 
HETATM   26  C16 UNL     1     -32.461 -11.224 -13.014  1.00  0.00     0.002 A 
HETATM   27  C17 UNL     1     -33.646 -10.755 -12.424  1.00  0.00     0.000 A 
HETATM   28  C18 UNL     1     -34.828 -11.096 -13.003  1.00  0.00     0.002 A 
HETATM   29  C19 UNL     1     -34.860 -11.904 -14.166  1.00  0.00     0.030 A 
ENDBRANCH   7  24
BRANCH   1  30
HETATM   30  N2  UNL     1     -34.505 -14.726 -14.889  1.00  0.00    -0.290 N 
ATOM     31  H2  UNL     1     -33.831 -14.749 -14.123  1.00  0.00     0.188 HD
BRANCH  30  32
HETATM   32  N1  UNL     1     -35.780 -15.200 -14.669  1.00  0.00    -0.344 N 
ATOM     33  H12 UNL     1     -36.073 -16.036 -15.174  1.00  0.00     0.176 HD
ATOM     34  H11 UNL     1     -36.426 -14.744 -14.024  1.00  0.00     0.176 HD
ENDBRANCH  30  32
ENDBRANCH   1  30
TORSDOF 9
ENDMDL
MODEL 2
REMARK VINA RESULT: -7.639505010      1.652      2.327
REMARK  9 active torsions:
REMARK  status: ('A' for Active; 'I' for Inactive)
REMARK    1  A    between atoms: N1_1  and  N2_4 
REMARK    2  A    between atoms: N2_4  and  C1_6 
REMARK    3  A    between atoms: C3_9  and  N4_10 
REMARK    4  A    between atoms: N4_10  and  O1_12 
REMARK    5  A    between atoms: C4_14  and  C5_15 
REMARK    6  A    between atoms: C5_15  and  O2_16 
REMARK    7  A    between atoms: O2_16  and  C6_17 
REMARK    8  A    between atoms: C6_17  and  C7_19 
REMARK    9  A    between atoms: N5_28  and  C14_29 
ROOT
HETATM    1  C1  UNL     1     -33.417 -13.329 -17.344  1.00  0.00     0.153 A 
HETATM    2  C2  UNL     1     -33.071 -13.540 -18.656  1.00  0.00     0.121 A 
HETATM    3  N3  UNL     1     -33.651 -14.537 -19.462  1.00  0.00    -0.096 NA
HETATM    4  C3  UNL     1     -32.186 -12.650 -19.212  1.00  0.00     0.092 A 
HETATM    5  C4  UNL     1     -31.690 -11.620 -18.450  1.00  0.00     0.013 A 
HETATM    6  C13 UNL     1     -32.085 -11.449 -17.106  1.00  0.00     0.110 A 
HETATM    7  N5  UNL     1     -32.929 -12.308 -16.605  1.00  0.00    -0.305 N 
ENDROOT
BRANCH   5   8
HETATM    8  C5  UNL     1     -30.602 -10.823 -19.068  1.00  0.00     0.221 C 
BRANCH   8   9
HETATM    9  O2  UNL     1     -29.622 -10.366 -18.364  1.00  0.00    -0.313 OA
BRANCH   9  10
HETATM   10  C6  UNL     1     -28.965  -9.643 -17.519  1.00  0.00     0.295 C 
HETATM   11  O3  UNL     1     -27.953  -8.977 -17.962  1.00  0.00    -0.259 OA
BRANCH  10  12
HETATM   12  C7  UNL     1     -29.371  -9.575 -16.104  1.00  0.00     0.061 A 
HETATM   13  C8  UNL     1     -28.759 -10.276 -15.086  1.00  0.00     0.021 A 
HETATM   14  C9  UNL     1     -29.187 -10.159 -13.774  1.00  0.00     0.025 A 
HETATM   15  C10 UNL     1     -30.250  -9.329 -13.450  1.00  0.00     0.035 A 
HETATM   16 CL1  UNL     1     -30.837  -9.179 -11.805  1.00  0.00    -0.084 Cl
HETATM   17  C11 UNL     1     -30.868  -8.630 -14.454  1.00  0.00     0.048 A 
HETATM   18  C12 UNL     1     -30.431  -8.752 -15.778  1.00  0.00     0.051 A 
HETATM   19 CL2  UNL     1     -31.221  -7.860 -17.050  1.00  0.00    -0.083 Cl
ENDBRANCH  10  12
ENDBRANCH   9  10
ENDBRANCH   8   9
ENDBRANCH   5   8
BRANCH   4  20
HETATM   20  N4  UNL     1     -31.825 -12.720 -20.607  1.00  0.00    -0.267 N 
ATOM     21  H4  UNL     1     -32.071 -11.998 -21.284  1.00  0.00     0.194 HD
BRANCH  20  22
HETATM   22  O1  UNL     1     -31.160 -13.786 -20.916  1.00  0.00    -0.289 OA
ATOM     23  H1  UNL     1     -31.338 -14.524 -20.346  1.00  0.00     0.244 HD
ENDBRANCH  20  22
ENDBRANCH   4  20
BRANCH   7  24
HETATM   24  C14 UNL     1     -33.518 -12.251 -15.310  1.00  0.00     0.040 A 
HETATM   25  C15 UNL     1     -32.612 -12.101 -14.224  1.00  0.00     0.030 A 
HETATM   26  C16 UNL     1     -33.039 -11.837 -12.945  1.00  0.00     0.002 A 
HETATM   27  C17 UNL     1     -34.409 -11.708 -12.662  1.00  0.00     0.000 A 
HETATM   28  C18 UNL     1     -35.290 -11.847 -13.688  1.00  0.00     0.002 A 
HETATM   29  C19 UNL     1     -34.837 -12.119 -15.002  1.00  0.00     0.030 A 
ENDBRANCH   7  24
BRANCH   1  30
HETATM   30  N2  UNL     1     -34.204 -14.156 -16.738  1.00  0.00    -0.290 N 
ATOM     31  H2  UNL     1     -35.053 -13.798 -16.301  1.00  0.00     0.188 HD
BRANCH  30  32
HETATM   32  N1  UNL     1     -33.935 -15.506 -16.664  1.00  0.00    -0.344 N 
ATOM     33  H12 UNL     1     -33.154 -15.805 -16.079  1.00  0.00     0.176 HD
ATOM     34  H11 UNL     1     -34.486 -16.199 -17.169  1.00  0.00     0.176 HD
ENDBRANCH  30  32
ENDBRANCH   1  30
TORSDOF 9
ENDMDL
MODEL 3
REMARK VINA RESULT: -7.589807724      2.724      5.045
REMARK  9 active torsions:
REMARK  status: ('A' for Active; 'I' for Inactive)
REMARK    1  A    between atoms: N1_1  and  N2_4 
REMARK    2  A    between atoms: N2_4  and  C1_6 
REMARK    3  A    between atoms: C3_9  and  N4_10 
REMARK    4  A    between atoms: N4_10  and  O1_12 
REMARK    5  A    between atoms: C4_14  and  C5_15 
REMARK    6  A    between atoms: C5_15  and  O2_16 
REMARK    7  A    between atoms: O2_16  and  C6_17 
REMARK    8  A    between atoms: C6_17  and  C7_19 
REMARK    9  A    between atoms: N5_28  and  C14_29 
ROOT
HETATM    1  C1  UNL     1     -33.988 -13.656 -15.914  1.00  0.00     0.153 A 
HETATM    2  C2  UNL     1     -34.451 -13.611 -14.622  1.00  0.00     0.121 A 
HETATM    3  N3  UNL     1     -35.370 -14.536 -14.093  1.00  0.00    -0.096 NA
HETATM    4  C3  UNL     1     -33.891 -12.666 -13.798  1.00  0.00     0.092 A 
HETATM    5  C4  UNL     1     -32.925 -11.822 -14.291  1.00  0.00     0.013 A 
HETATM    6  C13 UNL     1     -32.485 -11.918 -15.628  1.00  0.00     0.110 A 
HETATM    7  N5  UNL     1     -33.032 -12.827 -16.386  1.00  0.00    -0.305 N 
ENDROOT
BRANCH   5   8
HETATM    8  C5  UNL     1     -32.514 -10.715 -13.393  1.00  0.00     0.221 C 
BRANCH   8   9
HETATM    9  O2  UNL     1     -31.459 -10.012 -13.635  1.00  0.00    -0.313 OA
BRANCH   9  10
HETATM   10  C6  UNL     1     -30.595  -9.297 -14.277  1.00  0.00     0.295 C 
HETATM   11  O3  UNL     1     -29.868  -8.481 -13.592  1.00  0.00    -0.259 OA
BRANCH  10  12
HETATM   12  C7  UNL     1     -30.443  -9.423 -15.738  1.00  0.00     0.061 A 
HETATM   13  C8  UNL     1     -31.074  -8.612 -16.657  1.00  0.00     0.021 A 
HETATM   14  C9  UNL     1     -30.879  -8.781 -18.018  1.00  0.00     0.025 A 
HETATM   15  C10 UNL     1     -30.039  -9.778 -18.492  1.00  0.00     0.035 A 
HETATM   16 CL1  UNL     1     -29.792 -10.039 -20.208  1.00  0.00    -0.084 Cl
HETATM   17  C11 UNL     1     -29.409 -10.592 -17.588  1.00  0.00     0.048 A 
HETATM   18  C12 UNL     1     -29.610 -10.416 -16.214  1.00  0.00     0.051 A 
HETATM   19 CL2  UNL     1     -28.805 -11.455 -15.068  1.00  0.00    -0.083 Cl
ENDBRANCH  10  12
ENDBRANCH   9  10
ENDBRANCH   8   9
ENDBRANCH   5   8
BRANCH   4  20
HETATM   20  N4  UNL     1     -34.233 -12.590 -12.399  1.00  0.00    -0.267 N 
ATOM     21  H4  UNL     1     -33.586 -12.840 -11.652  1.00  0.00     0.194 HD
BRANCH  20  22
HETATM   22  O1  UNL     1     -35.440 -12.174 -12.183  1.00  0.00    -0.289 OA
ATOM     23  H1  UNL     1     -35.771 -12.400 -11.322  1.00  0.00     0.244 HD
ENDBRANCH  20  22
ENDBRANCH   4  20
BRANCH   7  24
HETATM   24  C14 UNL     1     -32.658 -13.143 -17.723  1.00  0.00     0.040 A 
HETATM   25  C15 UNL     1     -33.059 -12.205 -18.716  1.00  0.00     0.030 A 
HETATM   26  C16 UNL     1     -32.607 -12.272 -20.012  1.00  0.00     0.002 A 
HETATM   27  C17 UNL     1     -31.722 -13.290 -20.408  1.00  0.00     0.000 A 
HETATM   28  C18 UNL     1     -31.328 -14.195 -19.472  1.00  0.00     0.002 A 
HETATM   29  C19 UNL     1     -31.800 -14.114 -18.139  1.00  0.00     0.030 A 
ENDBRANCH   7  24
BRANCH   1  30
HETATM   30  N2  UNL     1     -34.505 -14.485 -16.760  1.00  0.00    -0.290 N 
ATOM     31  H2  UNL     1     -34.915 -14.120 -17.620  1.00  0.00     0.188 HD
BRANCH  30  32
HETATM   32  N1  UNL     1     -34.521 -15.845 -16.540  1.00  0.00    -0.344 N 
ATOM     33  H12 UNL     1     -33.944 -16.213 -15.784  1.00  0.00     0.176 HD
ATOM     34  H11 UNL     1     -35.086 -16.480 -17.104  1.00  0.00     0.176 HD
ENDBRANCH  30  32
ENDBRANCH   1  30
TORSDOF 9
ENDMDL
MODEL 4
REMARK VINA RESULT: -7.396188412      1.972      2.634
REMARK  9 active torsions:
REMARK  status: ('A' for Active; 'I' for Inactive)
REMARK    1  A    between atoms: N1_1  and  N2_4 
REMARK    2  A    between atoms: N2_4  and  C1_6 
REMARK    3  A    between atoms: C3_9  and  N4_10 
REMARK    4  A    between atoms: N4_10  and  O1_12 
REMARK    5  A    between atoms: C4_14  and  C5_15 
REMARK    6  A    between atoms: C5_15  and  O2_16 
REMARK    7  A    between atoms: O2_16  and  C6_17 
REMARK    8  A    between atoms: C6_17  and  C7_19 
REMARK    9  A    between atoms: N5_28  and  C14_29 
ROOT
HETATM    1  C1  UNL     1     -35.861 -15.453 -15.656  1.00  0.00     0.153 A 
HETATM    2  C2  UNL     1     -36.257 -16.292 -16.669  1.00  0.00     0.121 A 
HETATM    3  N3  UNL     1     -37.281 -17.247 -16.531  1.00  0.00    -0.096 NA
HETATM    4  C3  UNL     1     -35.678 -16.093 -17.897  1.00  0.00     0.092 A 
HETATM    5  C4  UNL     1     -34.744 -15.098 -18.054  1.00  0.00     0.013 A 
HETATM    6  C13 UNL     1     -34.379 -14.262 -16.977  1.00  0.00     0.110 A 
HETATM    7  N5  UNL     1     -34.949 -14.471 -15.823  1.00  0.00    -0.305 N 
ENDROOT
BRANCH   5   8
HETATM    8  C5  UNL     1     -34.034 -15.075 -19.356  1.00  0.00     0.221 C 
BRANCH   8   9
HETATM    9  O2  UNL     1     -32.980 -14.353 -19.533  1.00  0.00    -0.313 OA
BRANCH   9  10
HETATM   10  C6  UNL     1     -31.783 -13.891 -19.381  1.00  0.00     0.295 C 
HETATM   11  O3  UNL     1     -30.800 -14.642 -19.745  1.00  0.00    -0.259 OA
BRANCH  10  12
HETATM   12  C7  UNL     1     -31.557 -12.546 -18.821  1.00  0.00     0.061 A 
HETATM   13  C8  UNL     1     -31.793 -12.202 -17.506  1.00  0.00     0.021 A 
HETATM   14  C9  UNL     1     -31.550 -10.920 -17.043  1.00  0.00     0.025 A 
HETATM   15  C10 UNL     1     -31.061  -9.942 -17.898  1.00  0.00     0.035 A 
HETATM   16 CL1  UNL     1     -30.770  -8.301 -17.355  1.00  0.00    -0.084 Cl
HETATM   17  C11 UNL     1     -30.826 -10.271 -19.207  1.00  0.00     0.048 A 
HETATM   18  C12 UNL     1     -31.073 -11.569 -19.669  1.00  0.00     0.051 A 
HETATM   19 CL2  UNL     1     -30.772 -11.982 -21.335  1.00  0.00    -0.083 Cl
ENDBRANCH  10  12
ENDBRANCH   9  10
ENDBRANCH   8   9
ENDBRANCH   5   8
BRANCH   4  20
HETATM   20  N4  UNL     1     -36.086 -16.852 -19.053  1.00  0.00    -0.267 N 
ATOM     21  H4  UNL     1     -36.639 -16.458 -19.814  1.00  0.00     0.194 HD
BRANCH  20  22
HETATM   22  O1  UNL     1     -35.683 -18.082 -19.033  1.00  0.00    -0.289 OA
ATOM     23  H1  UNL     1     -35.820 -18.513 -18.198  1.00  0.00     0.244 HD
ENDBRANCH  20  22
ENDBRANCH   4  20
BRANCH   7  24
HETATM   24  C14 UNL     1     -34.787 -13.681 -14.650  1.00  0.00     0.040 A 
HETATM   25  C15 UNL     1     -33.748 -14.088 -13.767  1.00  0.00     0.030 A 
HETATM   26  C16 UNL     1     -33.347 -13.316 -12.703  1.00  0.00     0.002 A 
HETATM   27  C17 UNL     1     -33.965 -12.081 -12.444  1.00  0.00     0.000 A 
HETATM   28  C18 UNL     1     -34.960 -11.676 -13.277  1.00  0.00     0.002 A 
HETATM   29  C19 UNL     1     -35.363 -12.480 -14.371  1.00  0.00     0.030 A 
ENDBRANCH   7  24
BRANCH   1  30
HETATM   30  N2  UNL     1     -36.326 -15.614 -14.460  1.00  0.00    -0.290 N 
ATOM     31  H2  UNL     1     -36.741 -14.815 -13.981  1.00  0.00     0.188 HD
BRANCH  30  32
HETATM   32  N1  UNL     1     -36.278 -16.829 -13.811  1.00  0.00    -0.344 N 
ATOM     33  H12 UNL     1     -35.584 -16.948 -13.073  1.00  0.00     0.176 HD
ATOM     34  H11 UNL     1     -36.906 -17.596 -14.047  1.00  0.00     0.176 HD
ENDBRANCH  30  32
ENDBRANCH   1  30
TORSDOF 9
ENDMDL
MODEL 5
REMARK VINA RESULT: -7.304606313      2.812      5.079
REMARK  9 active torsions:
REMARK  status: ('A' for Active; 'I' for Inactive)
REMARK    1  A    between atoms: N1_1  and  N2_4 
REMARK    2  A    between atoms: N2_4  and  C1_6 
REMARK    3  A    between atoms: C3_9  and  N4_10 
REMARK    4  A    between atoms: N4_10  and  O1_12 
REMARK    5  A    between atoms: C4_14  and  C5_15 
REMARK    6  A    between atoms: C5_15  and  O2_16 
REMARK    7  A    between atoms: O2_16  and  C6_17 
REMARK    8  A    between atoms: C6_17  and  C7_19 
REMARK    9  A    between atoms: N5_28  and  C14_29 
ROOT
HETATM    1  C1  UNL     1     -31.354 -11.760 -19.503  1.00  0.00     0.153 A 
HETATM    2  C2  UNL     1     -31.952 -12.903 -19.975  1.00  0.00     0.121 A 
HETATM    3  N3  UNL     1     -31.981 -13.259 -21.336  1.00  0.00    -0.096 NA
HETATM    4  C3  UNL     1     -32.448 -13.773 -19.037  1.00  0.00     0.092 A 
HETATM    5  C4  UNL     1     -32.337 -13.468 -17.702  1.00  0.00     0.013 A 
HETATM    6  C13 UNL     1     -31.706 -12.280 -17.274  1.00  0.00     0.110 A 
HETATM    7  N5  UNL     1     -31.242 -11.473 -18.188  1.00  0.00    -0.305 N 
ENDROOT
BRANCH   5   8
HETATM    8  C5  UNL     1     -33.062 -14.365 -16.770  1.00  0.00     0.221 C 
BRANCH   8   9
HETATM    9  O2  UNL     1     -32.821 -14.352 -15.502  1.00  0.00    -0.313 OA
BRANCH   9  10
HETATM   10  C6  UNL     1     -32.533 -13.909 -14.324  1.00  0.00     0.295 C 
HETATM   11  O3  UNL     1     -32.902 -14.618 -13.311  1.00  0.00    -0.259 OA
BRANCH  10  12
HETATM   12  C7  UNL     1     -31.799 -12.643 -14.149  1.00  0.00     0.061 A 
HETATM   13  C8  UNL     1     -30.423 -12.536 -14.155  1.00  0.00     0.021 A 
HETATM   14  C9  UNL     1     -29.797 -11.312 -13.994  1.00  0.00     0.025 A 
HETATM   15  C10 UNL     1     -30.542 -10.155 -13.819  1.00  0.00     0.035 A 
HETATM   16 CL1  UNL     1     -29.783  -8.593 -13.582  1.00  0.00    -0.084 Cl
HETATM   17  C11 UNL     1     -31.909 -10.249 -13.808  1.00  0.00     0.048 A 
HETATM   18  C12 UNL     1     -32.537 -11.490 -13.972  1.00  0.00     0.051 A 
HETATM   19 CL2  UNL     1     -34.277 -11.604 -13.957  1.00  0.00    -0.083 Cl
ENDBRANCH  10  12
ENDBRANCH   9  10
ENDBRANCH   8   9
ENDBRANCH   5   8
BRANCH   4  20
HETATM   20  N4  UNL     1     -33.012 -15.045 -19.415  1.00  0.00    -0.267 N 
ATOM     21  H4  UNL     1     -32.555 -15.937 -19.224  1.00  0.00     0.194 HD
BRANCH  20  22
HETATM   22  O1  UNL     1     -34.153 -14.947 -20.017  1.00  0.00    -0.289 OA
ATOM     23  H1  UNL     1     -34.874 -14.741 -19.434  1.00  0.00     0.244 HD
ENDBRANCH  20  22
ENDBRANCH   4  20
BRANCH   7  24
HETATM   24  C14 UNL     1     -30.494 -10.283 -17.958  1.00  0.00     0.040 A 
HETATM   25  C15 UNL     1     -31.246  -9.153 -17.530  1.00  0.00     0.030 A 
HETATM   26  C16 UNL     1     -30.645  -8.000 -17.084  1.00  0.00     0.002 A 
HETATM   27  C17 UNL     1     -29.245  -7.896 -17.040  1.00  0.00     0.000 A 
HETATM   28  C18 UNL     1     -28.510  -8.967 -17.444  1.00  0.00     0.002 A 
HETATM   29  C19 UNL     1     -29.141 -10.150 -17.901  1.00  0.00     0.030 A 
ENDBRANCH   7  24
BRANCH   1  30
HETATM   30  N2  UNL     1     -30.910 -10.870 -20.329  1.00  0.00    -0.290 N 
ATOM     31  H2  UNL     1     -31.262  -9.915 -20.260  1.00  0.00     0.188 HD
BRANCH  30  32
HETATM   32  N1  UNL     1     -29.979 -11.168 -21.300  1.00  0.00    -0.344 N 
ATOM     33  H12 UNL     1     -29.149 -11.691 -21.020  1.00  0.00     0.176 HD
ATOM     34  H11 UNL     1     -30.097 -10.884 -22.272  1.00  0.00     0.176 HD
ENDBRANCH  30  32
ENDBRANCH   1  30
TORSDOF 9
ENDMDL
