MODEL 1
REMARK VINA RESULT: -7.921933458      0.000      0.000
REMARK  7 active torsions:
REMARK  status: ('A' for Active; 'I' for Inactive)
REMARK    1  A    between atoms: C3_4  and  N2_5 
REMARK    2  A    between atoms: C4_7  and  C5_8 
REMARK    3  A    between atoms: C6_9  and  C7_10 
REMARK    4  A    between atoms: C11_15  and  O2_16 
REMARK    5  A    between atoms: C12_18  and  C13_19 
REMARK    6  A    between atoms: C13_19  and  C14_21 
REMARK    7  A    between atoms: N3_29  and  O4_30 
ROOT
HETATM    1  N1  UNL     1     -30.207 -10.624 -20.465  1.00  0.00    -0.191 NA
HETATM    2  C1  UNL     1     -30.208 -10.512 -19.303  1.00  0.00     0.107 C 
HETATM    3  C2  UNL     1     -30.210 -10.348 -17.866  1.00  0.00     0.144 A 
HETATM    4  C3  UNL     1     -31.245 -10.944 -17.173  1.00  0.00     0.094 A 
HETATM    5  C11 UNL     1     -31.234 -10.782 -15.810  1.00  0.00     0.127 A 
HETATM    6  C12 UNL     1     -30.215 -10.041 -15.172  1.00  0.00     0.152 A 
HETATM    7  N3  UNL     1     -29.224  -9.475 -15.873  1.00  0.00    -0.180 N 
HETATM    8  C20 UNL     1     -29.229  -9.632 -17.218  1.00  0.00     0.295 A 
HETATM    9  O5  UNL     1     -28.290  -9.091 -17.854  1.00  0.00    -0.264 OA
ENDROOT
BRANCH   4  10
HETATM   10  N2  UNL     1     -32.282 -11.678 -17.806  1.00  0.00    -0.362 N 
HETATM   11  C4  UNL     1     -32.180 -12.969 -17.765  1.00  0.00     0.088 C 
ATOM     12  H2  UNL     1     -33.065 -11.215 -18.267  1.00  0.00     0.165 HD
BRANCH  11  13
HETATM   13  C5  UNL     1     -33.170 -13.854 -18.373  1.00  0.00     0.020 C 
HETATM   14  C6  UNL     1     -33.958 -14.630 -17.672  1.00  0.00     0.038 C 
BRANCH  14  15
HETATM   15  C7  UNL     1     -34.939 -15.502 -18.327  1.00  0.00     0.074 A 
HETATM   16  C8  UNL     1     -35.007 -15.721 -19.703  1.00  0.00     0.039 A 
HETATM   17  C9  UNL     1     -36.047 -16.586 -19.911  1.00  0.00     0.027 A 
HETATM   18  C10 UNL     1     -36.567 -16.861 -18.671  1.00  0.00     0.142 A 
HETATM   19  O1  UNL     1     -35.883 -16.203 -17.789  1.00  0.00    -0.323 OA
ENDBRANCH  14  15
ENDBRANCH  11  13
ENDBRANCH   4  10
BRANCH   5  20
HETATM   20  O2  UNL     1     -32.239 -11.352 -15.039  1.00  0.00    -0.356 OA
ATOM     21  H2  UNL     1     -33.068 -10.900 -14.938  1.00  0.00     0.218 HD
ENDBRANCH   5  20
BRANCH   7  22
HETATM   22  O4  UNL     1     -28.185  -8.767 -15.269  1.00  0.00    -0.279 OA
ATOM     23  H4  UNL     1     -27.910  -7.908 -15.568  1.00  0.00     0.245 HD
ENDBRANCH   7  22
BRANCH   6  24
HETATM   24  C13 UNL     1     -30.274  -9.949 -13.733  1.00  0.00     0.215 C 
HETATM   25  O3  UNL     1     -29.994 -10.986 -13.027  1.00  0.00    -0.285 OA
BRANCH  24  26
HETATM   26  C14 UNL     1     -30.628  -8.779 -12.986  1.00  0.00     0.040 A 
HETATM   27  C15 UNL     1     -31.859  -8.179 -13.138  1.00  0.00     0.017 A 
HETATM   28  C16 UNL     1     -32.221  -7.057 -12.423  1.00  0.00     0.003 A 
HETATM   29  C17 UNL     1     -31.310  -6.532 -11.532  1.00  0.00     0.026 A 
HETATM   30  C18 UNL     1     -30.077  -7.098 -11.350  1.00  0.00     0.056 A 
HETATM   31 CL1  UNL     1     -28.969  -6.382 -10.199  1.00  0.00    -0.083 Cl
HETATM   32  C19 UNL     1     -29.745  -8.215 -12.077  1.00  0.00     0.070 A 
HETATM   33 CL2  UNL     1     -28.141  -8.882 -11.820  1.00  0.00    -0.081 Cl
ENDBRANCH  24  26
ENDBRANCH   6  24
TORSDOF 7
ENDMDL
MODEL 2
REMARK VINA RESULT: -7.909682802      1.747      2.307
REMARK  7 active torsions:
REMARK  status: ('A' for Active; 'I' for Inactive)
REMARK    1  A    between atoms: C3_4  and  N2_5 
REMARK    2  A    between atoms: C4_7  and  C5_8 
REMARK    3  A    between atoms: C6_9  and  C7_10 
REMARK    4  A    between atoms: C11_15  and  O2_16 
REMARK    5  A    between atoms: C12_18  and  C13_19 
REMARK    6  A    between atoms: C13_19  and  C14_21 
REMARK    7  A    between atoms: N3_29  and  O4_30 
ROOT
HETATM    1  N1  UNL     1     -32.114 -12.877 -21.242  1.00  0.00    -0.191 NA
HETATM    2  C1  UNL     1     -31.762 -12.602 -20.163  1.00  0.00     0.107 C 
HETATM    3  C2  UNL     1     -31.340 -12.239 -18.828  1.00  0.00     0.144 A 
HETATM    4  C3  UNL     1     -31.708 -13.091 -17.805  1.00  0.00     0.094 A 
HETATM    5  C11 UNL     1     -31.299 -12.736 -16.544  1.00  0.00     0.127 A 
HETATM    6  C12 UNL     1     -30.549 -11.560 -16.325  1.00  0.00     0.152 A 
HETATM    7  N3  UNL     1     -30.206 -10.754 -17.339  1.00  0.00    -0.180 N 
HETATM    8  C20 UNL     1     -30.606 -11.100 -18.585  1.00  0.00     0.295 A 
HETATM    9  O5  UNL     1     -30.275 -10.328 -19.521  1.00  0.00    -0.264 OA
ENDROOT
BRANCH   4  10
HETATM   10  N2  UNL     1     -32.476 -14.267 -18.013  1.00  0.00    -0.362 N 
HETATM   11  C4  UNL     1     -33.749 -14.170 -17.790  1.00  0.00     0.088 C 
ATOM     12  H2  UNL     1     -32.049 -15.141 -18.320  1.00  0.00     0.165 HD
BRANCH  11  13
HETATM   13  C5  UNL     1     -34.663 -15.295 -17.960  1.00  0.00     0.020 C 
HETATM   14  C6  UNL     1     -34.967 -15.795 -19.132  1.00  0.00     0.038 C 
BRANCH  14  15
HETATM   15  C7  UNL     1     -35.891 -16.929 -19.253  1.00  0.00     0.074 A 
HETATM   16  C8  UNL     1     -36.990 -16.964 -20.112  1.00  0.00     0.039 A 
HETATM   17  C9  UNL     1     -37.590 -18.180 -19.930  1.00  0.00     0.027 A 
HETATM   18  C10 UNL     1     -36.845 -18.833 -18.980  1.00  0.00     0.142 A 
HETATM   19  O1  UNL     1     -35.870 -18.057 -18.624  1.00  0.00    -0.323 OA
ENDBRANCH  14  15
ENDBRANCH  11  13
ENDBRANCH   4  10
BRANCH   5  20
HETATM   20  O2  UNL     1     -31.627 -13.540 -15.461  1.00  0.00    -0.356 OA
ATOM     21  H2  UNL     1     -32.377 -13.320 -14.920  1.00  0.00     0.218 HD
ENDBRANCH   5  20
BRANCH   7  22
HETATM   22  O4  UNL     1     -29.437  -9.605 -17.160  1.00  0.00    -0.279 OA
ATOM     23  H4  UNL     1     -28.494  -9.633 -17.046  1.00  0.00     0.245 HD
ENDBRANCH   7  22
BRANCH   6  24
HETATM   24  C13 UNL     1     -30.141 -11.285 -14.968  1.00  0.00     0.215 C 
HETATM   25  O3  UNL     1     -29.067 -11.825 -14.514  1.00  0.00    -0.285 OA
BRANCH  24  26
HETATM   26  C14 UNL     1     -30.840 -10.443 -14.043  1.00  0.00     0.040 A 
HETATM   27  C15 UNL     1     -32.113 -10.752 -13.615  1.00  0.00     0.017 A 
HETATM   28  C16 UNL     1     -32.798  -9.958 -12.719  1.00  0.00     0.003 A 
HETATM   29  C17 UNL     1     -32.174  -8.823 -12.247  1.00  0.00     0.026 A 
HETATM   30  C18 UNL     1     -30.910  -8.481 -12.646  1.00  0.00     0.056 A 
HETATM   31 CL1  UNL     1     -30.176  -7.028 -12.004  1.00  0.00    -0.083 Cl
HETATM   32  C19 UNL     1     -30.253  -9.291 -13.539  1.00  0.00     0.070 A 
HETATM   33 CL2  UNL     1     -28.646  -8.788 -14.033  1.00  0.00    -0.081 Cl
ENDBRANCH  24  26
ENDBRANCH   6  24
TORSDOF 7
ENDMDL
MODEL 3
REMARK VINA RESULT: -7.880439635      2.098      2.601
REMARK  7 active torsions:
REMARK  status: ('A' for Active; 'I' for Inactive)
REMARK    1  A    between atoms: C3_4  and  N2_5 
REMARK    2  A    between atoms: C4_7  and  C5_8 
REMARK    3  A    between atoms: C6_9  and  C7_10 
REMARK    4  A    between atoms: C11_15  and  O2_16 
REMARK    5  A    between atoms: C12_18  and  C13_19 
REMARK    6  A    between atoms: C13_19  and  C14_21 
REMARK    7  A    between atoms: N3_29  and  O4_30 
ROOT
HETATM    1  N1  UNL     1     -32.075 -12.854 -21.376  1.00  0.00    -0.191 NA
HETATM    2  C1  UNL     1     -31.676 -12.550 -20.322  1.00  0.00     0.107 C 
HETATM    3  C2  UNL     1     -31.195 -12.151 -19.017  1.00  0.00     0.144 A 
HETATM    4  C3  UNL     1     -31.522 -12.972 -17.955  1.00  0.00     0.094 A 
HETATM    5  C11 UNL     1     -31.058 -12.583 -16.724  1.00  0.00     0.127 A 
HETATM    6  C12 UNL     1     -30.294 -11.405 -16.571  1.00  0.00     0.152 A 
HETATM    7  N3  UNL     1     -29.993 -10.630 -17.622  1.00  0.00    -0.180 N 
HETATM    8  C20 UNL     1     -30.447 -11.010 -18.839  1.00  0.00     0.295 A 
HETATM    9  O5  UNL     1     -30.154 -10.267 -19.810  1.00  0.00    -0.264 OA
ENDROOT
BRANCH   4  10
HETATM   10  N2  UNL     1     -32.302 -14.150 -18.096  1.00  0.00    -0.362 N 
HETATM   11  C4  UNL     1     -33.579 -14.018 -17.920  1.00  0.00     0.088 C 
ATOM     12  H2  UNL     1     -31.880 -15.051 -18.322  1.00  0.00     0.165 HD
BRANCH  11  13
HETATM   13  C5  UNL     1     -34.506 -15.140 -18.032  1.00  0.00     0.020 C 
HETATM   14  C6  UNL     1     -34.781 -15.727 -19.170  1.00  0.00     0.038 C 
BRANCH  14  15
HETATM   15  C7  UNL     1     -35.719 -16.854 -19.232  1.00  0.00     0.074 A 
HETATM   16  C8  UNL     1     -36.860 -16.888 -20.034  1.00  0.00     0.039 A 
HETATM   17  C9  UNL     1     -37.460 -18.097 -19.809  1.00  0.00     0.027 A 
HETATM   18  C10 UNL     1     -36.674 -18.747 -18.891  1.00  0.00     0.142 A 
HETATM   19  O1  UNL     1     -35.676 -17.976 -18.592  1.00  0.00    -0.323 OA
ENDBRANCH  14  15
ENDBRANCH  11  13
ENDBRANCH   4  10
BRANCH   5  20
HETATM   20  O2  UNL     1     -31.341 -13.354 -15.605  1.00  0.00    -0.356 OA
ATOM     21  H2  UNL     1     -32.050 -13.986 -15.634  1.00  0.00     0.218 HD
ENDBRANCH   5  20
BRANCH   7  22
HETATM   22  O4  UNL     1     -29.212  -9.480 -17.509  1.00  0.00    -0.279 OA
ATOM     23  H4  UNL     1     -28.344  -9.411 -17.889  1.00  0.00     0.245 HD
ENDBRANCH   7  22
BRANCH   6  24
HETATM   24  C13 UNL     1     -29.827 -11.093 -15.241  1.00  0.00     0.215 C 
HETATM   25  O3  UNL     1     -28.685 -11.539 -14.858  1.00  0.00    -0.285 OA
BRANCH  24  26
HETATM   26  C14 UNL     1     -30.536 -10.312 -14.272  1.00  0.00     0.040 A 
HETATM   27  C15 UNL     1     -30.809  -8.980 -14.487  1.00  0.00     0.017 A 
HETATM   28  C16 UNL     1     -31.497  -8.214 -13.569  1.00  0.00     0.003 A 
HETATM   29  C17 UNL     1     -31.917  -8.818 -12.404  1.00  0.00     0.026 A 
HETATM   30  C18 UNL     1     -31.667 -10.140 -12.151  1.00  0.00     0.056 A 
HETATM   31 CL1  UNL     1     -32.233 -10.845 -10.652  1.00  0.00    -0.083 Cl
HETATM   32  C19 UNL     1     -30.980 -10.877 -13.084  1.00  0.00     0.070 A 
HETATM   33 CL2  UNL     1     -30.668 -12.560 -12.694  1.00  0.00    -0.081 Cl
ENDBRANCH  24  26
ENDBRANCH   6  24
TORSDOF 7
ENDMDL
MODEL 4
REMARK VINA RESULT: -7.813686790      2.649      3.511
REMARK  7 active torsions:
REMARK  status: ('A' for Active; 'I' for Inactive)
REMARK    1  A    between atoms: C3_4  and  N2_5 
REMARK    2  A    between atoms: C4_7  and  C5_8 
REMARK    3  A    between atoms: C6_9  and  C7_10 
REMARK    4  A    between atoms: C11_15  and  O2_16 
REMARK    5  A    between atoms: C12_18  and  C13_19 
REMARK    6  A    between atoms: C13_19  and  C14_21 
REMARK    7  A    between atoms: N3_29  and  O4_30 
ROOT
HETATM    1  N1  UNL     1     -31.691 -12.690 -21.622  1.00  0.00    -0.191 NA
HETATM    2  C1  UNL     1     -31.651 -12.757 -20.457  1.00  0.00     0.107 C 
HETATM    3  C2  UNL     1     -31.613 -12.817 -19.012  1.00  0.00     0.144 A 
HETATM    4  C3  UNL     1     -32.279 -13.870 -18.415  1.00  0.00     0.094 A 
HETATM    5  C11 UNL     1     -32.233 -13.916 -17.044  1.00  0.00     0.127 A 
HETATM    6  C12 UNL     1     -31.543 -12.932 -16.304  1.00  0.00     0.152 A 
HETATM    7  N3  UNL     1     -30.906 -11.923 -16.913  1.00  0.00    -0.180 N 
HETATM    8  C20 UNL     1     -30.946 -11.873 -18.266  1.00  0.00     0.295 A 
HETATM    9  O5  UNL     1     -30.343 -10.917 -18.815  1.00  0.00    -0.264 OA
ENDROOT
BRANCH   4  10
HETATM   10  N2  UNL     1     -32.989 -14.856 -19.149  1.00  0.00    -0.362 N 
HETATM   11  C4  UNL     1     -34.267 -14.915 -18.946  1.00  0.00     0.088 C 
ATOM     12  H2  UNL     1     -32.519 -15.484 -19.802  1.00  0.00     0.165 HD
BRANCH  11  13
HETATM   13  C5  UNL     1     -35.127 -15.878 -19.628  1.00  0.00     0.020 C 
HETATM   14  C6  UNL     1     -36.160 -16.442 -19.055  1.00  0.00     0.038 C 
BRANCH  14  15
HETATM   15  C7  UNL     1     -36.997 -17.404 -19.782  1.00  0.00     0.074 A 
HETATM   16  C8  UNL     1     -37.679 -17.122 -20.966  1.00  0.00     0.039 A 
HETATM   17  C9  UNL     1     -38.336 -18.268 -21.321  1.00  0.00     0.027 A 
HETATM   18  C10 UNL     1     -38.034 -19.195 -20.355  1.00  0.00     0.142 A 
HETATM   19  O1  UNL     1     -37.252 -18.636 -19.486  1.00  0.00    -0.323 OA
ENDBRANCH  14  15
ENDBRANCH  11  13
ENDBRANCH   4  10
BRANCH   5  20
HETATM   20  O2  UNL     1     -32.876 -14.943 -16.367  1.00  0.00    -0.356 OA
ATOM     21  H2  UNL     1     -32.563 -15.835 -16.456  1.00  0.00     0.218 HD
ENDBRANCH   5  20
BRANCH   7  22
HETATM   22  O4  UNL     1     -30.187 -10.955 -16.213  1.00  0.00    -0.279 OA
ATOM     23  H4  UNL     1     -30.576 -10.424 -15.528  1.00  0.00     0.245 HD
ENDBRANCH   7  22
BRANCH   6  24
HETATM   24  C13 UNL     1     -31.528 -13.080 -14.869  1.00  0.00     0.215 C 
HETATM   25  O3  UNL     1     -30.863 -14.047 -14.345  1.00  0.00    -0.285 OA
BRANCH  24  26
HETATM   26  C14 UNL     1     -32.207 -12.230 -13.936  1.00  0.00     0.040 A 
HETATM   27  C15 UNL     1     -33.579 -12.117 -13.939  1.00  0.00     0.017 A 
HETATM   28  C16 UNL     1     -34.251 -11.310 -13.044  1.00  0.00     0.003 A 
HETATM   29  C17 UNL     1     -33.508 -10.601 -12.125  1.00  0.00     0.026 A 
HETATM   30  C18 UNL     1     -32.142 -10.686 -12.088  1.00  0.00     0.056 A 
HETATM   31 CL1  UNL     1     -31.261  -9.760 -10.892  1.00  0.00    -0.083 Cl
HETATM   32  C19 UNL     1     -31.502 -11.497 -12.992  1.00  0.00     0.070 A 
HETATM   33 CL2  UNL     1     -29.749 -11.545 -12.912  1.00  0.00    -0.081 Cl
ENDBRANCH  24  26
ENDBRANCH   6  24
TORSDOF 7
ENDMDL
MODEL 5
REMARK VINA RESULT: -7.634523140      3.835      9.518
REMARK  7 active torsions:
REMARK  status: ('A' for Active; 'I' for Inactive)
REMARK    1  A    between atoms: C3_4  and  N2_5 
REMARK    2  A    between atoms: C4_7  and  C5_8 
REMARK    3  A    between atoms: C6_9  and  C7_10 
REMARK    4  A    between atoms: C11_15  and  O2_16 
REMARK    5  A    between atoms: C12_18  and  C13_19 
REMARK    6  A    between atoms: C13_19  and  C14_21 
REMARK    7  A    between atoms: N3_29  and  O4_30 
ROOT
HETATM    1  N1  UNL     1     -31.029  -7.813 -10.646  1.00  0.00    -0.191 NA
HETATM    2  C1  UNL     1     -31.044  -8.686 -11.421  1.00  0.00     0.107 C 
HETATM    3  C2  UNL     1     -31.077  -9.754 -12.397  1.00  0.00     0.144 A 
HETATM    4  C3  UNL     1     -29.858 -10.220 -12.850  1.00  0.00     0.094 A 
HETATM    5  C11 UNL     1     -29.904 -11.234 -13.774  1.00  0.00     0.127 A 
HETATM    6  C12 UNL     1     -31.136 -11.755 -14.226  1.00  0.00     0.152 A 
HETATM    7  N3  UNL     1     -32.302 -11.281 -13.766  1.00  0.00    -0.180 N 
HETATM    8  C20 UNL     1     -32.263 -10.281 -12.853  1.00  0.00     0.295 A 
HETATM    9  O5  UNL     1     -33.368  -9.851 -12.437  1.00  0.00    -0.264 OA
ENDROOT
BRANCH   4  10
HETATM   10  N2  UNL     1     -28.614  -9.693 -12.414  1.00  0.00    -0.362 N 
HETATM   11  C4  UNL     1     -28.206  -8.616 -13.007  1.00  0.00     0.088 C 
ATOM     12  H2  UNL     1     -28.071 -10.138 -11.674  1.00  0.00     0.165 HD
BRANCH  11  13
HETATM   13  C5  UNL     1     -26.947  -7.961 -12.666  1.00  0.00     0.020 C 
HETATM   14  C6  UNL     1     -26.458  -7.946 -11.451  1.00  0.00     0.038 C 
BRANCH  14  15
HETATM   15  C7  UNL     1     -25.187  -7.275 -11.156  1.00  0.00     0.074 A 
HETATM   16  C8  UNL     1     -24.050  -7.346 -11.962  1.00  0.00     0.039 A 
HETATM   17  C9  UNL     1     -23.087  -6.593 -11.347  1.00  0.00     0.027 A 
HETATM   18  C10 UNL     1     -23.664  -6.097 -10.204  1.00  0.00     0.142 A 
HETATM   19  O1  UNL     1     -24.885  -6.527 -10.146  1.00  0.00    -0.323 OA
ENDBRANCH  14  15
ENDBRANCH  11  13
ENDBRANCH   4  10
BRANCH   5  20
HETATM   20  O2  UNL     1     -28.722 -11.760 -14.279  1.00  0.00    -0.356 OA
ATOM     21  H2  UNL     1     -28.732 -12.597 -14.727  1.00  0.00     0.218 HD
ENDBRANCH   5  20
BRANCH   7  22
HETATM   22  O4  UNL     1     -33.533 -11.796 -14.166  1.00  0.00    -0.279 OA
ATOM     23  H4  UNL     1     -34.257 -11.243 -14.435  1.00  0.00     0.245 HD
ENDBRANCH   7  22
BRANCH   6  24
HETATM   24  C13 UNL     1     -31.081 -12.838 -15.178  1.00  0.00     0.215 C 
HETATM   25  O3  UNL     1     -30.556 -13.957 -14.825  1.00  0.00    -0.285 OA
BRANCH  24  26
HETATM   26  C14 UNL     1     -31.567 -12.789 -16.524  1.00  0.00     0.040 A 
HETATM   27  C15 UNL     1     -32.684 -13.497 -16.908  1.00  0.00     0.017 A 
HETATM   28  C16 UNL     1     -33.172 -13.457 -18.198  1.00  0.00     0.003 A 
HETATM   29  C17 UNL     1     -32.508 -12.675 -19.119  1.00  0.00     0.026 A 
HETATM   30  C18 UNL     1     -31.395 -11.955 -18.778  1.00  0.00     0.056 A 
HETATM   31 CL1  UNL     1     -30.602 -10.981 -19.998  1.00  0.00    -0.083 Cl
HETATM   32  C19 UNL     1     -30.933 -12.017 -17.487  1.00  0.00     0.070 A 
HETATM   33 CL2  UNL     1     -29.488 -11.091 -17.116  1.00  0.00    -0.081 Cl
ENDBRANCH  24  26
ENDBRANCH   6  24
TORSDOF 7
ENDMDL
