MODEL 1
REMARK VINA RESULT: -8.345408901      0.000      0.000
REMARK  5 active torsions:
REMARK  status: ('A' for Active; 'I' for Inactive)
REMARK    1  A    between atoms: C4_8  and  C5_9 
REMARK    2  A    between atoms: C7_11  and  O3_12 
REMARK    3  A    between atoms: O3_12  and  C8_13 
REMARK    4  A    between atoms: C12_21  and  N3_22 
REMARK    5  A    between atoms: C14_26  and  N4_27 
ROOT
HETATM    1  C5  UNL     1     -31.614 -11.109 -16.926  1.00  0.00     0.003 A 
HETATM    2  C6  UNL     1     -31.872 -12.462 -17.139  1.00  0.00     0.054 A 
HETATM    3  C7  UNL     1     -31.854 -13.026 -18.398  1.00  0.00     0.111 A 
HETATM    4  C12 UNL     1     -31.569 -12.224 -19.475  1.00  0.00     0.139 A 
HETATM    5  C13 UNL     1     -31.317 -10.872 -19.239  1.00  0.00     0.075 A 
HETATM    6  C14 UNL     1     -31.331 -10.288 -18.001  1.00  0.00     0.115 A 
ENDROOT
BRANCH   1   7
HETATM    7  C4  UNL     1     -31.682 -10.576 -15.577  1.00  0.00     0.057 C 
HETATM    8  C3  UNL     1     -30.697 -10.616 -14.708  1.00  0.00     0.149 A 
HETATM    9  C2  UNL     1     -29.352 -11.154 -14.781  1.00  0.00     0.283 A 
HETATM   10  O8  UNL     1     -30.803 -10.074 -13.406  1.00  0.00    -0.255 OA
HETATM   11  N1  UNL     1     -28.720 -10.906 -13.521  1.00  0.00    -0.267 N 
HETATM   12  O2  UNL     1     -28.854 -11.728 -15.774  1.00  0.00    -0.265 OA
HETATM   13  C1  UNL     1     -29.639 -10.242 -12.702  1.00  0.00     0.373 A 
ATOM     14  H1  UNL     1     -27.768 -11.168 -13.266  1.00  0.00     0.174 HD
HETATM   15  O1  UNL     1     -29.395  -9.880 -11.521  1.00  0.00    -0.238 OA
ENDBRANCH   1   7
BRANCH   6  16
HETATM   16  N4  UNL     1     -31.102  -8.882 -17.841  1.00  0.00    -0.115 N 
HETATM   17  O6  UNL     1     -31.959  -8.010 -18.065  1.00  0.00    -0.532 OA
HETATM   18  O7  UNL     1     -29.863  -8.462 -17.423  1.00  0.00    -0.532 OA
ENDBRANCH   6  16
BRANCH   3  19
HETATM   19  O3  UNL     1     -32.123 -14.384 -18.567  1.00  0.00    -0.289 OA
BRANCH  19  20
HETATM   20  C8  UNL     1     -33.419 -14.893 -18.619  1.00  0.00     0.171 A 
HETATM   21  N2  UNL     1     -34.063 -15.394 -19.713  1.00  0.00    -0.326 N 
HETATM   22  C9  UNL     1     -35.303 -15.787 -19.379  1.00  0.00     0.107 A 
ATOM     23  H2  UNL     1     -33.660 -15.460 -20.648  1.00  0.00     0.169 HD
HETATM   24 CL1  UNL     1     -36.538 -16.498 -20.395  1.00  0.00    -0.064 Cl
HETATM   25  C10 UNL     1     -35.448 -15.527 -18.031  1.00  0.00     0.070 A 
HETATM   26  C11 UNL     1     -34.276 -14.970 -17.555  1.00  0.00     0.088 A 
HETATM   27 CL2  UNL     1     -34.014 -14.485 -15.898  1.00  0.00    -0.080 Cl
ENDBRANCH  19  20
ENDBRANCH   3  19
BRANCH   4  28
HETATM   28  N3  UNL     1     -31.485 -12.710 -20.827  1.00  0.00    -0.113 N 
HETATM   29  O4  UNL     1     -32.454 -13.286 -21.333  1.00  0.00    -0.532 OA
HETATM   30  O5  UNL     1     -30.289 -12.537 -21.473  1.00  0.00    -0.532 OA
ENDBRANCH   4  28
TORSDOF 5
ENDMDL
MODEL 2
REMARK VINA RESULT: -8.091626927      2.883      3.897
REMARK  5 active torsions:
REMARK  status: ('A' for Active; 'I' for Inactive)
REMARK    1  A    between atoms: C4_8  and  C5_9 
REMARK    2  A    between atoms: C7_11  and  O3_12 
REMARK    3  A    between atoms: O3_12  and  C8_13 
REMARK    4  A    between atoms: C12_21  and  N3_22 
REMARK    5  A    between atoms: C14_26  and  N4_27 
ROOT
HETATM    1  C5  UNL     1     -29.315 -10.745 -15.806  1.00  0.00     0.003 A 
HETATM    2  C6  UNL     1     -29.951 -11.938 -15.468  1.00  0.00     0.054 A 
HETATM    3  C7  UNL     1     -30.792 -12.597 -16.341  1.00  0.00     0.111 A 
HETATM    4  C12 UNL     1     -31.005 -12.057 -17.584  1.00  0.00     0.139 A 
HETATM    5  C13 UNL     1     -30.361 -10.861 -17.901  1.00  0.00     0.075 A 
HETATM    6  C14 UNL     1     -29.524 -10.186 -17.053  1.00  0.00     0.115 A 
ENDROOT
BRANCH   1   7
HETATM    7  C4  UNL     1     -28.468 -10.088 -14.826  1.00  0.00     0.057 C 
HETATM    8  C3  UNL     1     -28.895  -9.232 -13.926  1.00  0.00     0.149 A 
HETATM    9  C2  UNL     1     -30.211  -8.696 -13.634  1.00  0.00     0.283 A 
HETATM   10  O8  UNL     1     -28.036  -8.623 -12.982  1.00  0.00    -0.255 OA
HETATM   11  N1  UNL     1     -30.074  -7.795 -12.530  1.00  0.00    -0.267 N 
HETATM   12  O2  UNL     1     -31.262  -8.981 -14.249  1.00  0.00    -0.265 OA
HETATM   13  C1  UNL     1     -28.727  -7.774 -12.156  1.00  0.00     0.373 A 
ATOM     14  H1  UNL     1     -30.827  -7.262 -12.095  1.00  0.00     0.174 HD
HETATM   15  O1  UNL     1     -28.270  -7.077 -11.212  1.00  0.00    -0.238 OA
ENDBRANCH   1   7
BRANCH   6  16
HETATM   16  N4  UNL     1     -28.930  -8.939 -17.433  1.00  0.00    -0.115 N 
HETATM   17  O6  UNL     1     -27.841  -8.841 -18.025  1.00  0.00    -0.532 OA
HETATM   18  O7  UNL     1     -29.591  -7.776 -17.123  1.00  0.00    -0.532 OA
ENDBRANCH   6  16
BRANCH   3  19
HETATM   19  O3  UNL     1     -31.412 -13.787 -15.960  1.00  0.00    -0.289 OA
BRANCH  19  20
HETATM   20  C8  UNL     1     -32.107 -13.922 -14.760  1.00  0.00     0.171 A 
HETATM   21  N2  UNL     1     -31.698 -14.590 -13.643  1.00  0.00    -0.326 N 
HETATM   22  C9  UNL     1     -32.636 -14.507 -12.685  1.00  0.00     0.107 A 
ATOM     23  H2  UNL     1     -30.809 -15.082 -13.550  1.00  0.00     0.169 HD
HETATM   24 CL1  UNL     1     -32.615 -15.179 -11.069  1.00  0.00    -0.064 Cl
HETATM   25  C10 UNL     1     -33.670 -13.760 -13.213  1.00  0.00     0.070 A 
HETATM   26  C11 UNL     1     -33.344 -13.395 -14.505  1.00  0.00     0.088 A 
HETATM   27 CL2  UNL     1     -34.366 -12.438 -15.550  1.00  0.00    -0.080 Cl
ENDBRANCH  19  20
ENDBRANCH   3  19
BRANCH   4  28
HETATM   28  N3  UNL     1     -31.830 -12.676 -18.589  1.00  0.00    -0.113 N 
HETATM   29  O4  UNL     1     -32.996 -12.298 -18.743  1.00  0.00    -0.532 OA
HETATM   30  O5  UNL     1     -31.271 -13.703 -19.302  1.00  0.00    -0.532 OA
ENDBRANCH   4  28
TORSDOF 5
ENDMDL
MODEL 3
REMARK VINA RESULT: -8.076393173      1.034      1.769
REMARK  5 active torsions:
REMARK  status: ('A' for Active; 'I' for Inactive)
REMARK    1  A    between atoms: C4_8  and  C5_9 
REMARK    2  A    between atoms: C7_11  and  O3_12 
REMARK    3  A    between atoms: O3_12  and  C8_13 
REMARK    4  A    between atoms: C12_21  and  N3_22 
REMARK    5  A    between atoms: C14_26  and  N4_27 
ROOT
HETATM    1  C5  UNL     1     -31.649 -11.207 -16.763  1.00  0.00     0.003 A 
HETATM    2  C6  UNL     1     -32.151 -12.492 -16.965  1.00  0.00     0.054 A 
HETATM    3  C7  UNL     1     -32.194 -13.079 -18.213  1.00  0.00     0.111 A 
HETATM    4  C12 UNL     1     -31.724 -12.370 -19.290  1.00  0.00     0.139 A 
HETATM    5  C13 UNL     1     -31.229 -11.084 -19.067  1.00  0.00     0.075 A 
HETATM    6  C14 UNL     1     -31.177 -10.479 -17.839  1.00  0.00     0.115 A 
ENDROOT
BRANCH   1   7
HETATM    7  C4  UNL     1     -31.664 -10.640 -15.427  1.00  0.00     0.057 C 
HETATM    8  C3  UNL     1     -30.705 -10.791 -14.541  1.00  0.00     0.149 A 
HETATM    9  C2  UNL     1     -29.442 -11.503 -14.581  1.00  0.00     0.283 A 
HETATM   10  O8  UNL     1     -30.755 -10.211 -13.253  1.00  0.00    -0.255 OA
HETATM   11  N1  UNL     1     -28.800 -11.314 -13.317  1.00  0.00    -0.267 N 
HETATM   12  O2  UNL     1     -29.012 -12.161 -15.554  1.00  0.00    -0.265 OA
HETATM   13  C1  UNL     1     -29.633 -10.516 -12.526  1.00  0.00     0.373 A 
ATOM     14  H1  UNL     1     -27.895 -11.694 -13.040  1.00  0.00     0.174 HD
HETATM   15  O1  UNL     1     -29.359 -10.163 -11.350  1.00  0.00    -0.238 OA
ENDBRANCH   1   7
BRANCH   6  16
HETATM   16  N4  UNL     1     -30.693  -9.139 -17.693  1.00  0.00    -0.115 N 
HETATM   17  O6  UNL     1     -31.414  -8.128 -17.767  1.00  0.00    -0.532 OA
HETATM   18  O7  UNL     1     -29.352  -8.946 -17.464  1.00  0.00    -0.532 OA
ENDBRANCH   6  16
BRANCH   3  19
HETATM   19  O3  UNL     1     -32.708 -14.365 -18.371  1.00  0.00    -0.289 OA
BRANCH  19  20
HETATM   20  C8  UNL     1     -33.796 -14.835 -17.636  1.00  0.00     0.171 A 
HETATM   21  N2  UNL     1     -33.945 -14.809 -16.280  1.00  0.00    -0.326 N 
HETATM   22  C9  UNL     1     -35.122 -15.356 -15.935  1.00  0.00     0.107 A 
ATOM     23  H2  UNL     1     -33.262 -14.429 -15.625  1.00  0.00     0.169 HD
HETATM   24 CL1  UNL     1     -35.806 -15.567 -14.338  1.00  0.00    -0.064 Cl
HETATM   25  C10 UNL     1     -35.737 -15.738 -17.110  1.00  0.00     0.070 A 
HETATM   26  C11 UNL     1     -34.913 -15.416 -18.171  1.00  0.00     0.088 A 
HETATM   27 CL2  UNL     1     -35.295 -15.720 -19.848  1.00  0.00    -0.080 Cl
ENDBRANCH  19  20
ENDBRANCH   3  19
BRANCH   4  28
HETATM   28  N3  UNL     1     -31.684 -12.894 -20.630  1.00  0.00    -0.113 N 
HETATM   29  O4  UNL     1     -32.605 -13.612 -21.035  1.00  0.00    -0.532 OA
HETATM   30  O5  UNL     1     -30.578 -12.593 -21.380  1.00  0.00    -0.532 OA
ENDBRANCH   4  28
TORSDOF 5
ENDMDL
MODEL 4
REMARK VINA RESULT: -8.054214098      3.172      6.515
REMARK  5 active torsions:
REMARK  status: ('A' for Active; 'I' for Inactive)
REMARK    1  A    between atoms: C4_8  and  C5_9 
REMARK    2  A    between atoms: C7_11  and  O3_12 
REMARK    3  A    between atoms: O3_12  and  C8_13 
REMARK    4  A    between atoms: C12_21  and  N3_22 
REMARK    5  A    between atoms: C14_26  and  N4_27 
ROOT
HETATM    1  C5  UNL     1     -31.184 -12.623 -17.571  1.00  0.00     0.003 A 
HETATM    2  C6  UNL     1     -30.422 -12.223 -16.475  1.00  0.00     0.054 A 
HETATM    3  C7  UNL     1     -29.636 -11.089 -16.499  1.00  0.00     0.111 A 
HETATM    4  C12 UNL     1     -29.608 -10.332 -17.643  1.00  0.00     0.139 A 
HETATM    5  C13 UNL     1     -30.376 -10.752 -18.729  1.00  0.00     0.075 A 
HETATM    6  C14 UNL     1     -31.162 -11.874 -18.731  1.00  0.00     0.115 A 
ENDROOT
BRANCH   1   7
HETATM    7  C4  UNL     1     -31.964 -13.845 -17.486  1.00  0.00     0.057 C 
HETATM    8  C3  UNL     1     -33.094 -13.966 -16.826  1.00  0.00     0.149 A 
HETATM    9  C2  UNL     1     -33.866 -13.029 -16.033  1.00  0.00     0.283 A 
HETATM   10  O8  UNL     1     -33.827 -15.174 -16.779  1.00  0.00    -0.255 OA
HETATM   11  N1  UNL     1     -35.022 -13.722 -15.552  1.00  0.00    -0.267 N 
HETATM   12  O2  UNL     1     -33.558 -11.836 -15.818  1.00  0.00    -0.265 OA
HETATM   13  C1  UNL     1     -34.966 -15.035 -16.029  1.00  0.00     0.373 A 
ATOM     14  H1  UNL     1     -35.757 -13.327 -14.965  1.00  0.00     0.174 HD
HETATM   15  O1  UNL     1     -35.838 -15.910 -15.784  1.00  0.00    -0.238 OA
ENDBRANCH   1   7
BRANCH   6  16
HETATM   16  N4  UNL     1     -31.892 -12.266 -19.901  1.00  0.00    -0.115 N 
HETATM   17  O6  UNL     1     -33.117 -12.109 -20.040  1.00  0.00    -0.532 OA
HETATM   18  O7  UNL     1     -31.207 -12.859 -20.933  1.00  0.00    -0.532 OA
ENDBRANCH   6  16
BRANCH   3  19
HETATM   19  O3  UNL     1     -28.886 -10.727 -15.381  1.00  0.00    -0.289 OA
BRANCH  19  20
HETATM   20  C8  UNL     1     -29.403 -10.758 -14.087  1.00  0.00     0.171 A 
HETATM   21  N2  UNL     1     -29.103 -11.653 -13.102  1.00  0.00    -0.326 N 
HETATM   22  C9  UNL     1     -29.800 -11.368 -11.990  1.00  0.00     0.107 A 
ATOM     23  H2  UNL     1     -28.445 -12.427 -13.197  1.00  0.00     0.169 HD
HETATM   24 CL1  UNL     1     -29.788 -12.193 -10.447  1.00  0.00    -0.064 Cl
HETATM   25  C10 UNL     1     -30.565 -10.256 -12.281  1.00  0.00     0.070 A 
HETATM   26  C11 UNL     1     -30.319  -9.874 -13.586  1.00  0.00     0.088 A 
HETATM   27 CL2  UNL     1     -31.072  -8.509 -14.375  1.00  0.00    -0.080 Cl
ENDBRANCH  19  20
ENDBRANCH   3  19
BRANCH   4  28
HETATM   28  N3  UNL     1     -28.856  -9.111 -17.769  1.00  0.00    -0.113 N 
HETATM   29  O4  UNL     1     -27.760  -9.122 -18.340  1.00  0.00    -0.532 OA
HETATM   30  O5  UNL     1     -29.395  -7.990 -17.195  1.00  0.00    -0.532 OA
ENDBRANCH   4  28
TORSDOF 5
ENDMDL
MODEL 5
REMARK VINA RESULT: -7.914201097      2.307      3.004
REMARK  5 active torsions:
REMARK  status: ('A' for Active; 'I' for Inactive)
REMARK    1  A    between atoms: C4_8  and  C5_9 
REMARK    2  A    between atoms: C7_11  and  O3_12 
REMARK    3  A    between atoms: O3_12  and  C8_13 
REMARK    4  A    between atoms: C12_21  and  N3_22 
REMARK    5  A    between atoms: C14_26  and  N4_27 
ROOT
HETATM    1  C5  UNL     1     -29.294 -10.727 -15.730  1.00  0.00     0.003 A 
HETATM    2  C6  UNL     1     -29.917 -11.923 -15.379  1.00  0.00     0.054 A 
HETATM    3  C7  UNL     1     -30.737 -12.610 -16.251  1.00  0.00     0.111 A 
HETATM    4  C12 UNL     1     -30.941 -12.096 -17.507  1.00  0.00     0.139 A 
HETATM    5  C13 UNL     1     -30.310 -10.895 -17.836  1.00  0.00     0.075 A 
HETATM    6  C14 UNL     1     -29.494 -10.194 -16.989  1.00  0.00     0.115 A 
ENDROOT
BRANCH   1   7
HETATM    7  C4  UNL     1     -28.470 -10.041 -14.751  1.00  0.00     0.057 C 
HETATM    8  C3  UNL     1     -28.922  -9.180 -13.867  1.00  0.00     0.149 A 
HETATM    9  C2  UNL     1     -30.251  -8.666 -13.596  1.00  0.00     0.283 A 
HETATM   10  O8  UNL     1     -28.086  -8.541 -12.923  1.00  0.00    -0.255 OA
HETATM   11  N1  UNL     1     -30.144  -7.747 -12.504  1.00  0.00    -0.267 N 
HETATM   12  O2  UNL     1     -31.290  -8.979 -14.217  1.00  0.00    -0.265 OA
HETATM   13  C1  UNL     1     -28.801  -7.695 -12.116  1.00  0.00     0.373 A 
ATOM     14  H1  UNL     1     -30.911  -7.222 -12.084  1.00  0.00     0.174 HD
HETATM   15  O1  UNL     1     -28.368  -6.976 -11.178  1.00  0.00    -0.238 OA
ENDBRANCH   1   7
BRANCH   6  16
HETATM   16  N4  UNL     1     -28.913  -8.945 -17.384  1.00  0.00    -0.115 N 
HETATM   17  O6  UNL     1     -27.836  -8.843 -17.996  1.00  0.00    -0.532 OA
HETATM   18  O7  UNL     1     -29.574  -7.783 -17.064  1.00  0.00    -0.532 OA
ENDBRANCH   6  16
BRANCH   3  19
HETATM   19  O3  UNL     1     -31.344 -13.802 -15.857  1.00  0.00    -0.289 OA
BRANCH  19  20
HETATM   20  C8  UNL     1     -32.728 -13.953 -15.787  1.00  0.00     0.171 A 
HETATM   21  N2  UNL     1     -33.491 -14.865 -16.456  1.00  0.00    -0.326 N 
HETATM   22  C9  UNL     1     -34.786 -14.705 -16.139  1.00  0.00     0.107 A 
ATOM     23  H2  UNL     1     -33.129 -15.566 -17.102  1.00  0.00     0.169 HD
HETATM   24 CL1  UNL     1     -36.173 -15.608 -16.707  1.00  0.00    -0.064 Cl
HETATM   25  C10 UNL     1     -34.844 -13.659 -15.239  1.00  0.00     0.070 A 
HETATM   26  C11 UNL     1     -33.563 -13.188 -15.019  1.00  0.00     0.088 A 
HETATM   27 CL2  UNL     1     -33.167 -11.867 -13.947  1.00  0.00    -0.080 Cl
ENDBRANCH  19  20
ENDBRANCH   3  19
BRANCH   4  28
HETATM   28  N3  UNL     1     -31.743 -12.745 -18.511  1.00  0.00    -0.113 N 
HETATM   29  O4  UNL     1     -31.229 -13.588 -19.254  1.00  0.00    -0.532 OA
HETATM   30  O5  UNL     1     -33.050 -12.346 -18.612  1.00  0.00    -0.532 OA
ENDBRANCH   4  28
TORSDOF 5
ENDMDL
