MODEL 1
REMARK VINA RESULT: -11.368333919      0.000      0.000
REMARK  11 active torsions:
REMARK  status: ('A' for Active; 'I' for Inactive)
REMARK    1  A    between atoms: C4_4  and  O1_5 
REMARK    2  A    between atoms: O1_5  and  C5_6 
REMARK    3  A    between atoms: N2_10  and  C7_11 
REMARK    4  A    between atoms: C7_11  and  C8_12 
REMARK    5  A    between atoms: C8_12  and  N3_13 
REMARK    6  A    between atoms: C15_20  and  C16_21 
REMARK    7  A    between atoms: C17_22  and  C18_23 
REMARK    8  A    between atoms: C19_24  and  O2_25 
REMARK    9  A    between atoms: O2_25  and  C20_26 
REMARK   10  A    between atoms: C26_35  and  C27_36 
REMARK   11  A    between atoms: C29_41  and  C30_42 
ROOT
HETATM    1  C16 UNL     1     -87.270 162.261 -14.673  1.00  0.00     0.016 C 
HETATM    2  C17 UNL     1     -86.595 161.448 -13.937  1.00  0.00     0.016 C 
ENDROOT
BRANCH   1   3
HETATM    3  C15 UNL     1     -86.968 163.542 -15.301  1.00  0.00     0.013 A 
HETATM    4  C4  UNL     1     -88.018 164.262 -15.857  1.00  0.00     0.089 A 
HETATM    5  C3  UNL     1     -87.762 165.489 -16.417  1.00  0.00     0.062 A 
HETATM    6  C2  UNL     1     -86.501 166.041 -16.454  1.00  0.00     0.007 A 
HETATM    7  C1  UNL     1     -86.253 167.392 -17.059  1.00  0.00     0.068 C 
HETATM    8  N5  UNL     1     -85.528 165.326 -15.918  1.00  0.00    -0.368 N 
HETATM    9  C31 UNL     1     -85.710 164.112 -15.351  1.00  0.00     0.102 A 
ATOM     10  H5  UNL     1     -84.584 165.712 -15.933  1.00  0.00     0.165 HD
BRANCH   4  11
HETATM   11  O1  UNL     1     -89.314 163.723 -15.852  1.00  0.00    -0.307 OA
BRANCH  11  12
HETATM   12  C5  UNL     1     -90.318 164.694 -15.972  1.00  0.00     0.110 A 
HETATM   13  C6  UNL     1     -91.200 165.003 -16.956  1.00  0.00     0.146 A 
HETATM   14  N1  UNL     1     -91.964 166.054 -16.508  1.00  0.00    -0.307 N 
HETATM   15  N2  UNL     1     -91.617 166.422 -15.304  1.00  0.00    -0.299 N 
ATOM     16  H1  UNL     1     -92.709 166.492 -17.049  1.00  0.00     0.186 HD
HETATM   17  C14 UNL     1     -90.593 165.600 -14.936  1.00  0.00     0.148 A 
BRANCH  15  18
HETATM   18  C7  UNL     1     -92.182 167.478 -14.450  1.00  0.00     0.168 C 
BRANCH  18  19
HETATM   19  C8  UNL     1     -91.590 168.801 -14.764  1.00  0.00     0.143 C 
BRANCH  19  20
HETATM   20  N3  UNL     1     -92.167 169.909 -14.108  1.00  0.00    -0.392 N 
HETATM   21  C9  UNL     1     -93.563 169.995 -13.970  1.00  0.00     0.058 C 
HETATM   22  C10 UNL     1     -94.292 170.925 -14.887  1.00  0.00     0.044 C 
HETATM   23  C11 UNL     1     -93.385 172.015 -15.428  1.00  0.00     0.007 C 
HETATM   24  C12 UNL     1     -92.312 172.337 -14.419  1.00  0.00     0.020 C 
HETATM   25  C13 UNL     1     -91.444 171.121 -14.110  1.00  0.00     0.122 C 
ENDBRANCH  19  20
ENDBRANCH  18  19
ENDBRANCH  15  18
ENDBRANCH  11  12
ENDBRANCH   4  11
ENDBRANCH   1   3
BRANCH   2  26
HETATM   26  C18 UNL     1     -85.246 161.543 -13.473  1.00  0.00     0.012 A 
HETATM   27  C19 UNL     1     -84.881 162.587 -12.631  1.00  0.00     0.081 A 
HETATM   28  C25 UNL     1     -83.498 162.612 -12.281  1.00  0.00     0.053 A 
HETATM   29  C26 UNL     1     -82.580 161.715 -12.702  1.00  0.00     0.051 A 
HETATM   30  C28 UNL     1     -82.999 160.702 -13.526  1.00  0.00     0.033 A 
HETATM   31  C29 UNL     1     -84.303 160.596 -13.918  1.00  0.00     0.061 A 
BRANCH  27  32
HETATM   32  O2  UNL     1     -85.644 163.553 -12.114  1.00  0.00    -0.345 OA
BRANCH  32  33
HETATM   33  C20 UNL     1     -86.091 163.965 -10.914  1.00  0.00     0.132 C 
HETATM   34  C21 UNL     1     -86.977 165.234 -11.110  1.00  0.00     0.060 C 
HETATM   35  C22 UNL     1     -88.326 164.795 -11.555  1.00  0.00     0.235 C 
HETATM   36  N4  UNL     1     -89.070 164.112 -10.539  1.00  0.00    -0.075 N 
HETATM   37  C23 UNL     1     -88.147 163.706  -9.475  1.00  0.00     0.235 C 
ATOM     38  H42 UNL     1     -89.852 164.666 -10.188  1.00  0.00     0.277 HD
ATOM     39  H41 UNL     1     -89.608 163.328 -10.909  1.00  0.00     0.277 HD
HETATM   40  C24 UNL     1     -86.988 163.000 -10.146  1.00  0.00     0.060 C 
ENDBRANCH  32  33
ENDBRANCH  27  32
BRANCH  29  41
HETATM   41  C27 UNL     1     -81.157 161.823 -12.296  1.00  0.00     0.417 C 
HETATM   42  F1  UNL     1     -80.518 162.484 -13.333  1.00  0.00    -0.166 F 
HETATM   43  F2  UNL     1     -81.045 162.570 -11.152  1.00  0.00    -0.166 F 
HETATM   44  F3  UNL     1     -80.575 160.588 -12.069  1.00  0.00    -0.166 F 
ENDBRANCH  29  41
BRANCH  31  45
HETATM   45  C30 UNL     1     -84.753 159.446 -14.772  1.00  0.00     0.418 C 
HETATM   46  F4  UNL     1     -85.124 158.344 -13.983  1.00  0.00    -0.166 F 
HETATM   47  F5  UNL     1     -83.534 158.947 -15.346  1.00  0.00    -0.166 F 
HETATM   48  F6  UNL     1     -85.558 159.719 -15.799  1.00  0.00    -0.166 F 
ENDBRANCH  31  45
ENDBRANCH   2  26
TORSDOF 11
ENDMDL
MODEL 2
REMARK VINA RESULT: -11.248673751      5.019     10.989
REMARK  11 active torsions:
REMARK  status: ('A' for Active; 'I' for Inactive)
REMARK    1  A    between atoms: C4_4  and  O1_5 
REMARK    2  A    between atoms: O1_5  and  C5_6 
REMARK    3  A    between atoms: N2_10  and  C7_11 
REMARK    4  A    between atoms: C7_11  and  C8_12 
REMARK    5  A    between atoms: C8_12  and  N3_13 
REMARK    6  A    between atoms: C15_20  and  C16_21 
REMARK    7  A    between atoms: C17_22  and  C18_23 
REMARK    8  A    between atoms: C19_24  and  O2_25 
REMARK    9  A    between atoms: O2_25  and  C20_26 
REMARK   10  A    between atoms: C26_35  and  C27_36 
REMARK   11  A    between atoms: C29_41  and  C30_42 
ROOT
HETATM    1  C16 UNL     1     -86.431 161.075 -11.634  1.00  0.00     0.016 C 
HETATM    2  C17 UNL     1     -87.513 161.513 -12.177  1.00  0.00     0.016 C 
ENDROOT
BRANCH   1   3
HETATM    3  C15 UNL     1     -85.036 161.498 -11.676  1.00  0.00     0.013 A 
HETATM    4  C4  UNL     1     -84.058 160.520 -11.799  1.00  0.00     0.089 A 
HETATM    5  C3  UNL     1     -82.742 160.900 -11.882  1.00  0.00     0.062 A 
HETATM    6  C2  UNL     1     -82.344 162.217 -11.847  1.00  0.00     0.007 A 
HETATM    7  C1  UNL     1     -80.898 162.604 -11.956  1.00  0.00     0.068 C 
HETATM    8  N5  UNL     1     -83.302 163.119 -11.727  1.00  0.00    -0.368 N 
HETATM    9  C31 UNL     1     -84.617 162.814 -11.641  1.00  0.00     0.102 A 
ATOM     10  H5  UNL     1     -83.035 164.103 -11.698  1.00  0.00     0.165 HD
BRANCH   4  11
HETATM   11  O1  UNL     1     -84.424 159.165 -11.821  1.00  0.00    -0.307 OA
BRANCH  11  12
HETATM   12  C5  UNL     1     -83.704 158.411 -12.757  1.00  0.00     0.110 A 
HETATM   13  C6  UNL     1     -82.402 158.402 -13.141  1.00  0.00     0.146 A 
HETATM   14  N1  UNL     1     -82.263 157.429 -14.102  1.00  0.00    -0.307 N 
HETATM   15  N2  UNL     1     -83.396 156.826 -14.342  1.00  0.00    -0.299 N 
ATOM     16  H1  UNL     1     -81.384 157.206 -14.568  1.00  0.00     0.186 HD
HETATM   17  C14 UNL     1     -84.319 157.410 -13.526  1.00  0.00     0.148 A 
BRANCH  15  18
HETATM   18  C7  UNL     1     -83.688 155.723 -15.270  1.00  0.00     0.168 C 
BRANCH  18  19
HETATM   19  C8  UNL     1     -82.535 154.798 -15.391  1.00  0.00     0.143 C 
BRANCH  19  20
HETATM   20  N3  UNL     1     -82.736 153.490 -14.904  1.00  0.00    -0.392 N 
HETATM   21  C9  UNL     1     -81.801 152.481 -15.191  1.00  0.00     0.058 C 
HETATM   22  C10 UNL     1     -82.157 151.491 -16.254  1.00  0.00     0.044 C 
HETATM   23  C11 UNL     1     -83.658 151.393 -16.459  1.00  0.00     0.007 C 
HETATM   24  C12 UNL     1     -84.371 151.681 -15.163  1.00  0.00     0.020 C 
HETATM   25  C13 UNL     1     -84.063 153.083 -14.646  1.00  0.00     0.122 C 
ENDBRANCH  19  20
ENDBRANCH  18  19
ENDBRANCH  15  18
ENDBRANCH  11  12
ENDBRANCH   4  11
ENDBRANCH   1   3
BRANCH   2  26
HETATM   26  C18 UNL     1     -87.709 162.630 -13.047  1.00  0.00     0.012 A 
HETATM   27  C19 UNL     1     -87.454 162.494 -14.407  1.00  0.00     0.081 A 
HETATM   28  C25 UNL     1     -87.628 163.690 -15.167  1.00  0.00     0.053 A 
HETATM   29  C26 UNL     1     -88.013 164.879 -14.654  1.00  0.00     0.051 A 
HETATM   30  C28 UNL     1     -88.257 164.952 -13.307  1.00  0.00     0.033 A 
HETATM   31  C29 UNL     1     -88.115 163.862 -12.497  1.00  0.00     0.061 A 
BRANCH  27  32
HETATM   32  O2  UNL     1     -87.075 161.408 -15.084  1.00  0.00    -0.345 OA
BRANCH  32  33
HETATM   33  C20 UNL     1     -86.041 160.986 -15.835  1.00  0.00     0.132 C 
HETATM   34  C21 UNL     1     -85.336 162.224 -16.470  1.00  0.00     0.060 C 
HETATM   35  C22 UNL     1     -84.450 162.834 -15.443  1.00  0.00     0.235 C 
HETATM   36  N4  UNL     1     -83.313 162.026 -15.116  1.00  0.00    -0.075 N 
HETATM   37  C23 UNL     1     -83.549 160.664 -15.605  1.00  0.00     0.235 C 
ATOM     38  H42 UNL     1     -82.440 162.421 -15.466  1.00  0.00     0.277 HD
ATOM     39  H41 UNL     1     -83.090 162.050 -14.121  1.00  0.00     0.277 HD
HETATM   40  C24 UNL     1     -84.919 160.251 -15.109  1.00  0.00     0.060 C 
ENDBRANCH  32  33
ENDBRANCH  27  32
BRANCH  29  41
HETATM   41  C27 UNL     1     -88.159 166.076 -15.518  1.00  0.00     0.417 C 
HETATM   42  F1  UNL     1     -89.365 166.657 -15.157  1.00  0.00    -0.166 F 
HETATM   43  F2  UNL     1     -87.144 166.965 -15.276  1.00  0.00    -0.166 F 
HETATM   44  F3  UNL     1     -88.152 165.761 -16.866  1.00  0.00    -0.166 F 
ENDBRANCH  29  41
BRANCH  31  45
HETATM   45  C30 UNL     1     -88.445 163.947 -11.035  1.00  0.00     0.418 C 
HETATM   46  F4  UNL     1     -89.581 164.744 -10.818  1.00  0.00    -0.166 F 
HETATM   47  F5  UNL     1     -87.426 164.810 -10.504  1.00  0.00    -0.166 F 
HETATM   48  F6  UNL     1     -88.383 162.822 -10.321  1.00  0.00    -0.166 F 
ENDBRANCH  31  45
ENDBRANCH   2  26
TORSDOF 11
ENDMDL
MODEL 3
REMARK VINA RESULT: -11.238626652      0.488      1.072
REMARK  11 active torsions:
REMARK  status: ('A' for Active; 'I' for Inactive)
REMARK    1  A    between atoms: C4_4  and  O1_5 
REMARK    2  A    between atoms: O1_5  and  C5_6 
REMARK    3  A    between atoms: N2_10  and  C7_11 
REMARK    4  A    between atoms: C7_11  and  C8_12 
REMARK    5  A    between atoms: C8_12  and  N3_13 
REMARK    6  A    between atoms: C15_20  and  C16_21 
REMARK    7  A    between atoms: C17_22  and  C18_23 
REMARK    8  A    between atoms: C19_24  and  O2_25 
REMARK    9  A    between atoms: O2_25  and  C20_26 
REMARK   10  A    between atoms: C26_35  and  C27_36 
REMARK   11  A    between atoms: C29_41  and  C30_42 
ROOT
HETATM    1  C16 UNL     1     -87.288 162.285 -14.709  1.00  0.00     0.016 C 
HETATM    2  C17 UNL     1     -86.611 161.472 -13.976  1.00  0.00     0.016 C 
ENDROOT
BRANCH   1   3
HETATM    3  C15 UNL     1     -86.992 163.573 -15.328  1.00  0.00     0.013 A 
HETATM    4  C4  UNL     1     -88.019 164.232 -15.991  1.00  0.00     0.089 A 
HETATM    5  C3  UNL     1     -87.772 165.462 -16.545  1.00  0.00     0.062 A 
HETATM    6  C2  UNL     1     -86.543 166.078 -16.473  1.00  0.00     0.007 A 
HETATM    7  C1  UNL     1     -86.306 167.432 -17.075  1.00  0.00     0.068 C 
HETATM    8  N5  UNL     1     -85.590 165.419 -15.837  1.00  0.00    -0.368 N 
HETATM    9  C31 UNL     1     -85.765 164.205 -15.269  1.00  0.00     0.102 A 
ATOM     10  H5  UNL     1     -84.669 165.853 -15.770  1.00  0.00     0.165 HD
BRANCH   4  11
HETATM   11  O1  UNL     1     -89.282 163.628 -16.099  1.00  0.00    -0.307 OA
BRANCH  11  12
HETATM   12  C5  UNL     1     -90.340 164.544 -16.044  1.00  0.00     0.110 A 
HETATM   13  C6  UNL     1     -91.293 164.920 -16.934  1.00  0.00     0.146 A 
HETATM   14  N1  UNL     1     -92.084 165.859 -16.318  1.00  0.00    -0.307 N 
HETATM   15  N2  UNL     1     -91.688 166.094 -15.095  1.00  0.00    -0.299 N 
ATOM     16  H1  UNL     1     -92.882 166.316 -16.760  1.00  0.00     0.186 HD
HETATM   17  C14 UNL     1     -90.603 165.296 -14.888  1.00  0.00     0.148 A 
BRANCH  15  18
HETATM   18  C7  UNL     1     -92.259 167.000 -14.087  1.00  0.00     0.168 C 
BRANCH  18  19
HETATM   19  C8  UNL     1     -93.276 167.900 -14.682  1.00  0.00     0.143 C 
BRANCH  19  20
HETATM   20  N3  UNL     1     -92.782 169.060 -15.315  1.00  0.00    -0.392 N 
HETATM   21  C9  UNL     1     -91.597 169.660 -14.858  1.00  0.00     0.058 C 
HETATM   22  C10 UNL     1     -91.725 170.899 -14.030  1.00  0.00     0.044 C 
HETATM   23  C11 UNL     1     -93.043 171.611 -14.274  1.00  0.00     0.007 C 
HETATM   24  C12 UNL     1     -93.498 171.375 -15.691  1.00  0.00     0.020 C 
HETATM   25  C13 UNL     1     -93.712 169.892 -15.976  1.00  0.00     0.122 C 
ENDBRANCH  19  20
ENDBRANCH  18  19
ENDBRANCH  15  18
ENDBRANCH  11  12
ENDBRANCH   4  11
ENDBRANCH   1   3
BRANCH   2  26
HETATM   26  C18 UNL     1     -85.263 161.571 -13.509  1.00  0.00     0.012 A 
HETATM   27  C19 UNL     1     -84.908 162.608 -12.654  1.00  0.00     0.081 A 
HETATM   28  C25 UNL     1     -83.525 162.639 -12.300  1.00  0.00     0.053 A 
HETATM   29  C26 UNL     1     -82.600 161.754 -12.730  1.00  0.00     0.051 A 
HETATM   30  C28 UNL     1     -83.010 160.747 -13.566  1.00  0.00     0.033 A 
HETATM   31  C29 UNL     1     -84.312 160.636 -13.962  1.00  0.00     0.061 A 
BRANCH  27  32
HETATM   32  O2  UNL     1     -85.679 163.562 -12.128  1.00  0.00    -0.345 OA
BRANCH  32  33
HETATM   33  C20 UNL     1     -86.109 163.974 -10.921  1.00  0.00     0.132 C 
HETATM   34  C21 UNL     1     -87.018 165.228 -11.106  1.00  0.00     0.060 C 
HETATM   35  C22 UNL     1     -88.369 164.766 -11.524  1.00  0.00     0.235 C 
HETATM   36  N4  UNL     1     -89.082 164.077 -10.491  1.00  0.00    -0.075 N 
HETATM   37  C23 UNL     1     -88.133 163.691  -9.443  1.00  0.00     0.235 C 
ATOM     38  H42 UNL     1     -89.866 164.621 -10.127  1.00  0.00     0.277 HD
ATOM     39  H41 UNL     1     -89.616 163.284 -10.847  1.00  0.00     0.277 HD
HETATM   40  C24 UNL     1     -86.976 162.999 -10.132  1.00  0.00     0.060 C 
ENDBRANCH  32  33
ENDBRANCH  27  32
BRANCH  29  41
HETATM   41  C27 UNL     1     -81.179 161.868 -12.319  1.00  0.00     0.417 C 
HETATM   42  F1  UNL     1     -81.189 162.547 -11.110  1.00  0.00    -0.166 F 
HETATM   43  F2  UNL     1     -80.636 160.624 -12.130  1.00  0.00    -0.166 F 
HETATM   44  F3  UNL     1     -80.410 162.542 -13.253  1.00  0.00    -0.166 F 
ENDBRANCH  29  41
BRANCH  31  45
HETATM   45  C30 UNL     1     -84.752 159.493 -14.830  1.00  0.00     0.418 C 
HETATM   46  F4  UNL     1     -85.097 158.373 -14.056  1.00  0.00    -0.166 F 
HETATM   47  F5  UNL     1     -83.530 159.022 -15.423  1.00  0.00    -0.166 F 
HETATM   48  F6  UNL     1     -85.570 159.769 -15.846  1.00  0.00    -0.166 F 
ENDBRANCH  31  45
ENDBRANCH   2  26
TORSDOF 11
ENDMDL
MODEL 4
REMARK VINA RESULT: -11.226819417      2.374      3.935
REMARK  11 active torsions:
REMARK  status: ('A' for Active; 'I' for Inactive)
REMARK    1  A    between atoms: C4_4  and  O1_5 
REMARK    2  A    between atoms: O1_5  and  C5_6 
REMARK    3  A    between atoms: N2_10  and  C7_11 
REMARK    4  A    between atoms: C7_11  and  C8_12 
REMARK    5  A    between atoms: C8_12  and  N3_13 
REMARK    6  A    between atoms: C15_20  and  C16_21 
REMARK    7  A    between atoms: C17_22  and  C18_23 
REMARK    8  A    between atoms: C19_24  and  O2_25 
REMARK    9  A    between atoms: O2_25  and  C20_26 
REMARK   10  A    between atoms: C26_35  and  C27_36 
REMARK   11  A    between atoms: C29_41  and  C30_42 
ROOT
HETATM    1  C16 UNL     1     -87.838 162.342 -14.617  1.00  0.00     0.016 C 
HETATM    2  C17 UNL     1     -87.323 161.526 -13.765  1.00  0.00     0.016 C 
ENDROOT
BRANCH   1   3
HETATM    3  C15 UNL     1     -87.374 163.575 -15.243  1.00  0.00     0.013 A 
HETATM    4  C4  UNL     1     -88.291 164.328 -15.965  1.00  0.00     0.089 A 
HETATM    5  C3  UNL     1     -87.885 165.512 -16.528  1.00  0.00     0.062 A 
HETATM    6  C2  UNL     1     -86.600 165.990 -16.408  1.00  0.00     0.007 A 
HETATM    7  C1  UNL     1     -86.188 167.297 -17.021  1.00  0.00     0.068 C 
HETATM    8  N5  UNL     1     -85.756 165.246 -15.716  1.00  0.00    -0.368 N 
HETATM    9  C31 UNL     1     -86.089 164.071 -15.137  1.00  0.00     0.102 A 
ATOM     10  H5  UNL     1     -84.797 165.577 -15.613  1.00  0.00     0.165 HD
BRANCH   4  11
HETATM   11  O1  UNL     1     -89.607 163.864 -16.123  1.00  0.00    -0.307 OA
BRANCH  11  12
HETATM   12  C5  UNL     1     -90.556 164.894 -16.162  1.00  0.00     0.110 A 
HETATM   13  C6  UNL     1     -91.449 165.301 -17.099  1.00  0.00     0.146 A 
HETATM   14  N1  UNL     1     -92.138 166.369 -16.576  1.00  0.00    -0.307 N 
HETATM   15  N2  UNL     1     -91.734 166.655 -15.367  1.00  0.00    -0.299 N 
ATOM     16  H1  UNL     1     -92.873 166.874 -17.070  1.00  0.00     0.186 HD
HETATM   17  C14 UNL     1     -90.748 165.760 -15.074  1.00  0.00     0.148 A 
BRANCH  15  18
HETATM   18  C7  UNL     1     -92.211 167.697 -14.445  1.00  0.00     0.168 C 
BRANCH  18  19
HETATM   19  C8  UNL     1     -91.609 169.014 -14.759  1.00  0.00     0.143 C 
BRANCH  19  20
HETATM   20  N3  UNL     1     -92.187 170.129 -14.116  1.00  0.00    -0.392 N 
HETATM   21  C9  UNL     1     -93.585 170.271 -14.077  1.00  0.00     0.058 C 
HETATM   22  C10 UNL     1     -94.207 171.252 -15.018  1.00  0.00     0.044 C 
HETATM   23  C11 UNL     1     -93.220 172.317 -15.463  1.00  0.00     0.007 C 
HETATM   24  C12 UNL     1     -92.212 172.568 -14.370  1.00  0.00     0.020 C 
HETATM   25  C13 UNL     1     -91.418 171.310 -14.033  1.00  0.00     0.122 C 
ENDBRANCH  19  20
ENDBRANCH  18  19
ENDBRANCH  15  18
ENDBRANCH  11  12
ENDBRANCH   4  11
ENDBRANCH   1   3
BRANCH   2  26
HETATM   26  C18 UNL     1     -86.047 161.565 -13.121  1.00  0.00     0.012 A 
HETATM   27  C19 UNL     1     -84.993 160.825 -13.642  1.00  0.00     0.081 A 
HETATM   28  C25 UNL     1     -83.785 160.895 -12.883  1.00  0.00     0.053 A 
HETATM   29  C26 UNL     1     -83.629 161.611 -11.749  1.00  0.00     0.051 A 
HETATM   30  C28 UNL     1     -84.702 162.328 -11.286  1.00  0.00     0.033 A 
HETATM   31  C29 UNL     1     -85.900 162.322 -11.942  1.00  0.00     0.061 A 
BRANCH  27  32
HETATM   32  O2  UNL     1     -84.961 160.069 -14.743  1.00  0.00    -0.345 OA
BRANCH  32  33
HETATM   33  C20 UNL     1     -84.781 158.782 -15.089  1.00  0.00     0.132 C 
HETATM   34  C21 UNL     1     -83.372 158.623 -15.741  1.00  0.00     0.060 C 
HETATM   35  C22 UNL     1     -82.360 158.561 -14.653  1.00  0.00     0.235 C 
HETATM   36  N4  UNL     1     -82.426 157.356 -13.880  1.00  0.00    -0.075 N 
HETATM   37  C23 UNL     1     -83.713 156.704 -14.137  1.00  0.00     0.235 C 
ATOM     38  H42 UNL     1     -81.633 156.738 -14.051  1.00  0.00     0.277 HD
ATOM     39  H41 UNL     1     -82.264 157.521 -12.886  1.00  0.00     0.277 HD
HETATM   40  C24 UNL     1     -84.784 157.760 -13.958  1.00  0.00     0.060 C 
ENDBRANCH  32  33
ENDBRANCH  27  32
BRANCH  29  41
HETATM   41  C27 UNL     1     -82.339 161.619 -11.017  1.00  0.00     0.417 C 
HETATM   42  F1  UNL     1     -81.611 162.674 -11.546  1.00  0.00    -0.166 F 
HETATM   43  F2  UNL     1     -82.550 161.845  -9.682  1.00  0.00    -0.166 F 
HETATM   44  F3  UNL     1     -81.645 160.428 -11.154  1.00  0.00    -0.166 F 
ENDBRANCH  29  41
BRANCH  31  45
HETATM   45  C30 UNL     1     -87.045 163.160 -11.452  1.00  0.00     0.418 C 
HETATM   46  F4  UNL     1     -87.060 164.415 -12.082  1.00  0.00    -0.166 F 
HETATM   47  F5  UNL     1     -86.644 163.548 -10.128  1.00  0.00    -0.166 F 
HETATM   48  F6  UNL     1     -88.231 162.566 -11.317  1.00  0.00    -0.166 F 
ENDBRANCH  31  45
ENDBRANCH   2  26
TORSDOF 11
ENDMDL
MODEL 5
REMARK VINA RESULT: -11.120511257      2.330      3.903
REMARK  11 active torsions:
REMARK  status: ('A' for Active; 'I' for Inactive)
REMARK    1  A    between atoms: C4_4  and  O1_5 
REMARK    2  A    between atoms: O1_5  and  C5_6 
REMARK    3  A    between atoms: N2_10  and  C7_11 
REMARK    4  A    between atoms: C7_11  and  C8_12 
REMARK    5  A    between atoms: C8_12  and  N3_13 
REMARK    6  A    between atoms: C15_20  and  C16_21 
REMARK    7  A    between atoms: C17_22  and  C18_23 
REMARK    8  A    between atoms: C19_24  and  O2_25 
REMARK    9  A    between atoms: O2_25  and  C20_26 
REMARK   10  A    between atoms: C26_35  and  C27_36 
REMARK   11  A    between atoms: C29_41  and  C30_42 
ROOT
HETATM    1  C16 UNL     1     -88.432 163.428 -13.880  1.00  0.00     0.016 C 
HETATM    2  C17 UNL     1     -88.020 162.606 -12.980  1.00  0.00     0.016 C 
ENDROOT
BRANCH   1   3
HETATM    3  C15 UNL     1     -87.773 164.431 -14.710  1.00  0.00     0.013 A 
HETATM    4  C4  UNL     1     -88.377 164.788 -15.909  1.00  0.00     0.089 A 
HETATM    5  C3  UNL     1     -87.794 165.758 -16.685  1.00  0.00     0.062 A 
HETATM    6  C2  UNL     1     -86.629 166.398 -16.326  1.00  0.00     0.007 A 
HETATM    7  C1  UNL     1     -86.023 167.467 -17.188  1.00  0.00     0.068 C 
HETATM    8  N5  UNL     1     -86.083 166.029 -15.181  1.00  0.00    -0.368 N 
HETATM    9  C31 UNL     1     -86.603 165.082 -14.370  1.00  0.00     0.102 A 
ATOM     10  H5  UNL     1     -85.218 166.487 -14.893  1.00  0.00     0.165 HD
BRANCH   4  11
HETATM   11  O1  UNL     1     -89.557 164.146 -16.315  1.00  0.00    -0.307 OA
BRANCH  11  12
HETATM   12  C5  UNL     1     -90.651 165.014 -16.423  1.00  0.00     0.110 A 
HETATM   13  C6  UNL     1     -91.601 165.202 -17.375  1.00  0.00     0.146 A 
HETATM   14  N1  UNL     1     -92.439 166.195 -16.930  1.00  0.00    -0.307 N 
HETATM   15  N2  UNL     1     -92.076 166.641 -15.757  1.00  0.00    -0.299 N 
ATOM     16  H1  UNL     1     -93.245 166.541 -17.451  1.00  0.00     0.186 HD
HETATM   17  C14 UNL     1     -90.965 165.932 -15.408  1.00  0.00     0.148 A 
BRANCH  15  18
HETATM   18  C7  UNL     1     -92.700 167.674 -14.917  1.00  0.00     0.168 C 
BRANCH  18  19
HETATM   19  C8  UNL     1     -91.796 168.833 -14.723  1.00  0.00     0.143 C 
BRANCH  19  20
HETATM   20  N3  UNL     1     -92.358 169.958 -14.086  1.00  0.00    -0.392 N 
HETATM   21  C9  UNL     1     -93.750 170.156 -14.108  1.00  0.00     0.058 C 
HETATM   22  C10 UNL     1     -94.288 171.179 -15.057  1.00  0.00     0.044 C 
HETATM   23  C11 UNL     1     -93.240 172.210 -15.435  1.00  0.00     0.007 C 
HETATM   24  C12 UNL     1     -92.274 172.401 -14.293  1.00  0.00     0.020 C 
HETATM   25  C13 UNL     1     -91.547 171.105 -13.944  1.00  0.00     0.122 C 
ENDBRANCH  19  20
ENDBRANCH  18  19
ENDBRANCH  15  18
ENDBRANCH  11  12
ENDBRANCH   4  11
ENDBRANCH   1   3
BRANCH   2  26
HETATM   26  C18 UNL     1     -86.699 162.393 -12.474  1.00  0.00     0.012 A 
HETATM   27  C19 UNL     1     -85.747 161.777 -13.278  1.00  0.00     0.081 A 
HETATM   28  C25 UNL     1     -84.484 161.565 -12.647  1.00  0.00     0.053 A 
HETATM   29  C26 UNL     1     -84.188 161.921 -11.378  1.00  0.00     0.051 A 
HETATM   30  C28 UNL     1     -85.164 162.532 -10.635  1.00  0.00     0.033 A 
HETATM   31  C29 UNL     1     -86.405 162.775 -11.150  1.00  0.00     0.061 A 
BRANCH  27  32
HETATM   32  O2  UNL     1     -85.858 161.364 -14.543  1.00  0.00    -0.345 OA
BRANCH  32  33
HETATM   33  C20 UNL     1     -85.114 160.754 -15.483  1.00  0.00     0.132 C 
HETATM   34  C21 UNL     1     -84.417 161.838 -16.362  1.00  0.00     0.060 C 
HETATM   35  C22 UNL     1     -83.227 162.340 -15.626  1.00  0.00     0.235 C 
HETATM   36  N4  UNL     1     -82.173 161.376 -15.518  1.00  0.00    -0.075 N 
HETATM   37  C23 UNL     1     -82.716 160.051 -15.829  1.00  0.00     0.235 C 
ATOM     38  H42 UNL     1     -81.366 161.613 -16.095  1.00  0.00     0.277 HD
ATOM     39  H41 UNL     1     -81.709 161.405 -14.610  1.00  0.00     0.277 HD
HETATM   40  C24 UNL     1     -83.965 159.881 -14.990  1.00  0.00     0.060 C 
ENDBRANCH  32  33
ENDBRANCH  27  32
BRANCH  29  41
HETATM   41  C27 UNL     1     -82.849 161.652 -10.799  1.00  0.00     0.417 C 
HETATM   42  F1  UNL     1     -82.957 161.941  -9.447  1.00  0.00    -0.166 F 
HETATM   43  F2  UNL     1     -82.521 160.330 -10.949  1.00  0.00    -0.166 F 
HETATM   44  F3  UNL     1     -81.854 162.417 -11.385  1.00  0.00    -0.166 F 
ENDBRANCH  29  41
BRANCH  31  45
HETATM   45  C30 UNL     1     -87.441 163.499 -10.340  1.00  0.00     0.418 C 
HETATM   46  F4  UNL     1     -87.385 164.884 -10.567  1.00  0.00    -0.166 F 
HETATM   47  F5  UNL     1     -86.929 163.443  -8.999  1.00  0.00    -0.166 F 
HETATM   48  F6  UNL     1     -88.664 162.970 -10.289  1.00  0.00    -0.166 F 
ENDBRANCH  31  45
ENDBRANCH   2  26
TORSDOF 11
ENDMDL
