MODEL 1
REMARK VINA RESULT: -11.215943863      0.000      0.000
REMARK  11 active torsions:
REMARK  status: ('A' for Active; 'I' for Inactive)
REMARK    1  A    between atoms: C2_2  and  C4_4 
REMARK    2  A    between atoms: C4_4  and  N1_5 
REMARK    3  A    between atoms: C5_8  and  C6_9 
REMARK    4  A    between atoms: C12_18  and  C13_19 
REMARK    5  A    between atoms: C13_19  and  C14_20 
REMARK    6  A    between atoms: C13_19  and  N5_35 
REMARK    7  A    between atoms: C14_20  and  C15_21 
REMARK    8  A    between atoms: C17_23  and  C18_24 
REMARK    9  A    between atoms: C20_29  and  C21_30 
REMARK   10  A    between atoms: N5_35  and  C23_37 
REMARK   11  A    between atoms: C23_37  and  C24_38 
ROOT
HETATM    1  C24 UNL     1     -85.823 163.621 -11.825  1.00  0.00     0.081 C 
HETATM    2  C25 UNL     1     -86.301 164.899 -11.334  1.00  0.00     0.072 C 
HETATM    3  N6  UNL     1     -86.693 165.919 -10.948  1.00  0.00    -0.196 NA
HETATM    4  C26 UNL     1     -84.321 163.618 -11.839  1.00  0.00     0.028 C 
HETATM    5  C27 UNL     1     -83.882 162.153 -11.750  1.00  0.00     0.002 C 
HETATM    6  C28 UNL     1     -84.046 161.785 -10.306  1.00  0.00     0.001 C 
HETATM    7  C29 UNL     1     -85.499 161.955  -9.933  1.00  0.00     0.021 C 
HETATM    8  C30 UNL     1     -86.385 162.501 -10.981  1.00  0.00     0.117 C 
HETATM    9  C31 UNL     1     -87.550 163.102 -10.257  1.00  0.00     0.065 C 
HETATM   10  N7  UNL     1     -88.469 163.550  -9.716  1.00  0.00    -0.197 NA
ENDROOT
BRANCH   1  11
HETATM   11  C23 UNL     1     -86.253 163.419 -13.259  1.00  0.00     0.146 C 
BRANCH  11  12
HETATM   12  N5  UNL     1     -87.116 162.301 -13.464  1.00  0.00    -0.385 N 
ATOM     13  H5  UNL     1     -87.503 161.714 -12.726  1.00  0.00     0.159 HD
BRANCH  12  14
HETATM   14  C13 UNL     1     -87.366 162.123 -14.938  1.00  0.00     0.075 C 
BRANCH  14  15
HETATM   15  C12 UNL     1     -87.885 163.313 -15.521  1.00  0.00     0.150 A 
HETATM   16  N1  UNL     1     -87.489 164.345 -16.263  1.00  0.00    -0.273 N 
HETATM   17  N2  UNL     1     -88.527 165.133 -16.541  1.00  0.00    -0.285 N 
HETATM   18  C5  UNL     1     -89.610 164.638 -15.985  1.00  0.00     0.102 A 
ATOM     19  H2  UNL     1     -88.487 165.986 -17.098  1.00  0.00     0.188 HD
HETATM   20  N4  UNL     1     -89.259 163.547 -15.366  1.00  0.00    -0.328 N 
ATOM     21  H4  UNL     1     -89.894 162.947 -14.840  1.00  0.00     0.169 HD
BRANCH  16  22
HETATM   22  C4  UNL     1     -86.150 164.691 -16.522  1.00  0.00     0.155 C 
BRANCH  22  23
HETATM   23  C2  UNL     1     -85.829 166.086 -15.952  1.00  0.00    -0.003 C 
HETATM   24  C1  UNL     1     -86.262 167.141 -16.959  1.00  0.00     0.011 C 
HETATM   25  C3  UNL     1     -86.483 166.340 -14.615  1.00  0.00     0.011 C 
ENDBRANCH  22  23
ENDBRANCH  16  22
BRANCH  18  26
HETATM   26  C6  UNL     1     -90.944 165.285 -16.001  1.00  0.00     0.058 C 
HETATM   27  C7  UNL     1     -91.105 166.173 -14.794  1.00  0.00     0.032 C 
HETATM   28  C8  UNL     1     -92.538 166.609 -14.702  1.00  0.00     0.117 C 
HETATM   29  N3  UNL     1     -93.023 167.178 -15.906  1.00  0.00    -0.417 N 
HETATM   30  C9  UNL     1     -92.959 168.603 -15.996  1.00  0.00     0.143 C 
HETATM   31  C10 UNL     1     -92.753 166.446 -17.083  1.00  0.00     0.117 C 
HETATM   32  C11 UNL     1     -91.254 166.089 -17.202  1.00  0.00     0.032 C 
ENDBRANCH  18  26
ENDBRANCH  14  15
BRANCH  14  33
HETATM   33  C14 UNL     1     -86.679 160.991 -15.428  1.00  0.00     0.044 C 
BRANCH  33  34
HETATM   34  C15 UNL     1     -85.223 160.851 -15.109  1.00  0.00    -0.032 A 
HETATM   35  C16 UNL     1     -84.307 161.639 -15.730  1.00  0.00     0.027 A 
HETATM   36  C17 UNL     1     -82.963 161.483 -15.514  1.00  0.00     0.049 A 
HETATM   37  C19 UNL     1     -82.522 160.513 -14.645  1.00  0.00     0.032 A 
HETATM   38  C20 UNL     1     -83.460 159.699 -13.994  1.00  0.00     0.049 A 
HETATM   39  C22 UNL     1     -84.805 159.876 -14.233  1.00  0.00     0.027 A 
BRANCH  36  40
HETATM   40  C18 UNL     1     -81.982 162.387 -16.251  1.00  0.00     0.417 C 
HETATM   41  F1  UNL     1     -82.626 163.541 -16.548  1.00  0.00    -0.166 F 
HETATM   42  F2  UNL     1     -80.920 162.655 -15.417  1.00  0.00    -0.166 F 
HETATM   43  F3  UNL     1     -81.568 161.717 -17.363  1.00  0.00    -0.166 F 
ENDBRANCH  36  40
BRANCH  38  44
HETATM   44  C21 UNL     1     -83.007 158.621 -13.065  1.00  0.00     0.417 C 
HETATM   45  F4  UNL     1     -81.901 159.114 -12.376  1.00  0.00    -0.166 F 
HETATM   46  F5  UNL     1     -84.044 158.387 -12.188  1.00  0.00    -0.166 F 
HETATM   47  F6  UNL     1     -82.685 157.492 -13.792  1.00  0.00    -0.166 F 
ENDBRANCH  38  44
ENDBRANCH  33  34
ENDBRANCH  14  33
ENDBRANCH  12  14
ENDBRANCH  11  12
ENDBRANCH   1  11
TORSDOF 11
ENDMDL
MODEL 2
REMARK VINA RESULT: -11.101173805      0.094      2.596
REMARK  11 active torsions:
REMARK  status: ('A' for Active; 'I' for Inactive)
REMARK    1  A    between atoms: C2_2  and  C4_4 
REMARK    2  A    between atoms: C4_4  and  N1_5 
REMARK    3  A    between atoms: C5_8  and  C6_9 
REMARK    4  A    between atoms: C12_18  and  C13_19 
REMARK    5  A    between atoms: C13_19  and  C14_20 
REMARK    6  A    between atoms: C13_19  and  N5_35 
REMARK    7  A    between atoms: C14_20  and  C15_21 
REMARK    8  A    between atoms: C17_23  and  C18_24 
REMARK    9  A    between atoms: C20_29  and  C21_30 
REMARK   10  A    between atoms: N5_35  and  C23_37 
REMARK   11  A    between atoms: C23_37  and  C24_38 
ROOT
HETATM    1  C24 UNL     1     -85.794 163.582 -11.824  1.00  0.00     0.081 C 
HETATM    2  C25 UNL     1     -86.284 164.862 -11.353  1.00  0.00     0.072 C 
HETATM    3  N6  UNL     1     -86.687 165.885 -10.981  1.00  0.00    -0.196 NA
HETATM    4  C26 UNL     1     -84.291 163.594 -11.837  1.00  0.00     0.028 C 
HETATM    5  C27 UNL     1     -83.839 162.134 -11.726  1.00  0.00     0.002 C 
HETATM    6  C28 UNL     1     -84.001 161.785 -10.277  1.00  0.00     0.001 C 
HETATM    7  C29 UNL     1     -85.456 161.947  -9.909  1.00  0.00     0.021 C 
HETATM    8  C30 UNL     1     -86.346 162.469 -10.966  1.00  0.00     0.117 C 
HETATM    9  C31 UNL     1     -87.518 163.070 -10.251  1.00  0.00     0.065 C 
HETATM   10  N7  UNL     1     -88.442 163.516  -9.718  1.00  0.00    -0.197 NA
ENDROOT
BRANCH   1  11
HETATM   11  C23 UNL     1     -86.220 163.356 -13.256  1.00  0.00     0.146 C 
BRANCH  11  12
HETATM   12  N5  UNL     1     -87.053 162.215 -13.450  1.00  0.00    -0.385 N 
ATOM     13  H5  UNL     1     -87.399 161.606 -12.709  1.00  0.00     0.159 HD
BRANCH  12  14
HETATM   14  C13 UNL     1     -87.344 162.048 -14.918  1.00  0.00     0.075 C 
BRANCH  14  15
HETATM   15  C12 UNL     1     -87.847 163.252 -15.485  1.00  0.00     0.150 A 
HETATM   16  N1  UNL     1     -87.436 164.292 -16.208  1.00  0.00    -0.273 N 
HETATM   17  N2  UNL     1     -88.464 165.094 -16.479  1.00  0.00    -0.285 N 
HETATM   18  C5  UNL     1     -89.557 164.601 -15.939  1.00  0.00     0.102 A 
ATOM     19  H2  UNL     1     -88.413 165.956 -17.021  1.00  0.00     0.188 HD
HETATM   20  N4  UNL     1     -89.220 163.497 -15.335  1.00  0.00    -0.328 N 
ATOM     21  H4  UNL     1     -89.865 162.894 -14.824  1.00  0.00     0.169 HD
BRANCH  16  22
HETATM   22  C4  UNL     1     -86.092 164.629 -16.451  1.00  0.00     0.155 C 
BRANCH  22  23
HETATM   23  C2  UNL     1     -85.786 166.050 -15.938  1.00  0.00    -0.003 C 
HETATM   24  C1  UNL     1     -86.316 167.061 -16.945  1.00  0.00     0.011 C 
HETATM   25  C3  UNL     1     -86.367 166.320 -14.571  1.00  0.00     0.011 C 
ENDBRANCH  22  23
ENDBRANCH  16  22
BRANCH  18  26
HETATM   26  C6  UNL     1     -90.884 165.261 -15.953  1.00  0.00     0.058 C 
HETATM   27  C7  UNL     1     -91.044 166.131 -14.733  1.00  0.00     0.032 C 
HETATM   28  C8  UNL     1     -92.474 166.579 -14.644  1.00  0.00     0.117 C 
HETATM   29  N3  UNL     1     -92.945 167.172 -15.842  1.00  0.00    -0.417 N 
HETATM   30  C9  UNL     1     -92.867 168.597 -15.908  1.00  0.00     0.143 C 
HETATM   31  C10 UNL     1     -92.674 166.456 -17.029  1.00  0.00     0.117 C 
HETATM   32  C11 UNL     1     -91.177 166.087 -17.144  1.00  0.00     0.032 C 
ENDBRANCH  18  26
ENDBRANCH  14  15
BRANCH  14  33
HETATM   33  C14 UNL     1     -86.697 160.900 -15.428  1.00  0.00     0.044 C 
BRANCH  33  34
HETATM   34  C15 UNL     1     -85.227 160.750 -15.189  1.00  0.00    -0.032 A 
HETATM   35  C16 UNL     1     -84.769 159.840 -14.289  1.00  0.00     0.027 A 
HETATM   36  C17 UNL     1     -83.436 159.732 -13.994  1.00  0.00     0.049 A 
HETATM   37  C19 UNL     1     -82.531 160.556 -14.622  1.00  0.00     0.032 A 
HETATM   38  C20 UNL     1     -82.993 161.493 -15.557  1.00  0.00     0.049 A 
HETATM   39  C22 UNL     1     -84.340 161.582 -15.831  1.00  0.00     0.027 A 
BRANCH  36  40
HETATM   40  C18 UNL     1     -82.983 158.703 -12.966  1.00  0.00     0.417 C 
HETATM   41  F1  UNL     1     -82.553 157.609 -13.639  1.00  0.00    -0.166 F 
HETATM   42  F2  UNL     1     -81.940 159.236 -12.240  1.00  0.00    -0.166 F 
HETATM   43  F3  UNL     1     -84.048 158.438 -12.159  1.00  0.00    -0.166 F 
ENDBRANCH  36  40
BRANCH  38  44
HETATM   44  C21 UNL     1     -82.035 162.418 -16.235  1.00  0.00     0.417 C 
HETATM   45  F4  UNL     1     -81.637 161.798 -17.417  1.00  0.00    -0.166 F 
HETATM   46  F5  UNL     1     -82.729 163.574 -16.519  1.00  0.00    -0.166 F 
HETATM   47  F6  UNL     1     -80.959 162.656 -15.404  1.00  0.00    -0.166 F 
ENDBRANCH  38  44
ENDBRANCH  33  34
ENDBRANCH  14  33
ENDBRANCH  12  14
ENDBRANCH  11  12
ENDBRANCH   1  11
TORSDOF 11
ENDMDL
MODEL 3
REMARK VINA RESULT: -11.098732363      6.374     10.646
REMARK  11 active torsions:
REMARK  status: ('A' for Active; 'I' for Inactive)
REMARK    1  A    between atoms: C2_2  and  C4_4 
REMARK    2  A    between atoms: C4_4  and  N1_5 
REMARK    3  A    between atoms: C5_8  and  C6_9 
REMARK    4  A    between atoms: C12_18  and  C13_19 
REMARK    5  A    between atoms: C13_19  and  C14_20 
REMARK    6  A    between atoms: C13_19  and  N5_35 
REMARK    7  A    between atoms: C14_20  and  C15_21 
REMARK    8  A    between atoms: C17_23  and  C18_24 
REMARK    9  A    between atoms: C20_29  and  C21_30 
REMARK   10  A    between atoms: N5_35  and  C23_37 
REMARK   11  A    between atoms: C23_37  and  C24_38 
ROOT
HETATM    1  C24 UNL     1     -89.458 165.954 -15.501  1.00  0.00     0.081 C 
HETATM    2  C25 UNL     1     -88.253 166.754 -15.403  1.00  0.00     0.072 C 
HETATM    3  N6  UNL     1     -87.292 167.398 -15.313  1.00  0.00    -0.196 NA
HETATM    4  C26 UNL     1     -89.882 165.859 -16.940  1.00  0.00     0.028 C 
HETATM    5  C27 UNL     1     -90.712 164.578 -17.070  1.00  0.00     0.002 C 
HETATM    6  C28 UNL     1     -89.707 163.465 -17.109  1.00  0.00     0.001 C 
HETATM    7  C29 UNL     1     -88.920 163.491 -15.821  1.00  0.00     0.021 C 
HETATM    8  C30 UNL     1     -89.225 164.594 -14.887  1.00  0.00     0.117 C 
HETATM    9  C31 UNL     1     -88.006 164.753 -14.032  1.00  0.00     0.065 C 
HETATM   10  N7  UNL     1     -87.083 164.874 -13.346  1.00  0.00    -0.197 NA
ENDROOT
BRANCH   1  11
HETATM   11  C23 UNL     1     -90.596 166.632 -14.776  1.00  0.00     0.146 C 
BRANCH  11  12
HETATM   12  N5  UNL     1     -90.783 168.003 -15.123  1.00  0.00    -0.385 N 
ATOM     13  H5  UNL     1     -90.078 168.602 -15.554  1.00  0.00     0.159 HD
BRANCH  12  14
HETATM   14  C13 UNL     1     -92.180 168.429 -14.757  1.00  0.00     0.075 C 
BRANCH  14  15
HETATM   15  C12 UNL     1     -92.327 169.842 -14.841  1.00  0.00     0.150 A 
HETATM   16  N1  UNL     1     -93.137 170.756 -15.371  1.00  0.00    -0.273 N 
HETATM   17  N2  UNL     1     -92.745 171.978 -15.013  1.00  0.00    -0.285 N 
HETATM   18  C5  UNL     1     -91.676 171.886 -14.253  1.00  0.00     0.102 A 
ATOM     19  H2  UNL     1     -93.202 172.847 -15.286  1.00  0.00     0.188 HD
HETATM   20  N4  UNL     1     -91.400 170.619 -14.132  1.00  0.00    -0.328 N 
ATOM     21  H4  UNL     1     -90.618 170.244 -13.595  1.00  0.00     0.169 HD
BRANCH  16  22
HETATM   22  C4  UNL     1     -94.114 170.502 -16.351  1.00  0.00     0.155 C 
BRANCH  22  23
HETATM   23  C2  UNL     1     -95.481 171.064 -15.915  1.00  0.00    -0.003 C 
HETATM   24  C1  UNL     1     -96.501 170.785 -17.011  1.00  0.00     0.011 C 
HETATM   25  C3  UNL     1     -95.959 170.496 -14.601  1.00  0.00     0.011 C 
ENDBRANCH  22  23
ENDBRANCH  16  22
BRANCH  18  26
HETATM   26  C6  UNL     1     -90.902 173.039 -13.734  1.00  0.00     0.058 C 
HETATM   27  C7  UNL     1     -89.425 172.756 -13.824  1.00  0.00     0.032 C 
HETATM   28  C8  UNL     1     -88.682 173.817 -13.067  1.00  0.00     0.117 C 
HETATM   29  N3  UNL     1     -89.043 175.132 -13.457  1.00  0.00    -0.417 N 
HETATM   30  C9  UNL     1     -88.209 175.743 -14.443  1.00  0.00     0.143 C 
HETATM   31  C10 UNL     1     -90.429 175.390 -13.535  1.00  0.00     0.117 C 
HETATM   32  C11 UNL     1     -91.159 174.335 -14.397  1.00  0.00     0.032 C 
ENDBRANCH  18  26
ENDBRANCH  14  15
BRANCH  14  33
HETATM   33  C14 UNL     1     -93.066 167.330 -14.803  1.00  0.00     0.044 C 
BRANCH  33  34
HETATM   34  C15 UNL     1     -93.960 167.190 -15.995  1.00  0.00    -0.032 A 
HETATM   35  C16 UNL     1     -95.310 167.213 -15.843  1.00  0.00     0.027 A 
HETATM   36  C17 UNL     1     -96.154 167.011 -16.904  1.00  0.00     0.049 A 
HETATM   37  C19 UNL     1     -95.631 166.786 -18.156  1.00  0.00     0.032 A 
HETATM   38  C20 UNL     1     -94.238 166.766 -18.323  1.00  0.00     0.049 A 
HETATM   39  C22 UNL     1     -93.415 166.968 -17.237  1.00  0.00     0.027 A 
BRANCH  36  40
HETATM   40  C18 UNL     1     -97.660 167.034 -16.672  1.00  0.00     0.417 C 
HETATM   41  F1  UNL     1     -98.258 167.275 -17.863  1.00  0.00    -0.166 F 
HETATM   42  F2  UNL     1     -98.051 165.800 -16.203  1.00  0.00    -0.166 F 
HETATM   43  F3  UNL     1     -97.914 168.006 -15.751  1.00  0.00    -0.166 F 
ENDBRANCH  36  40
BRANCH  38  44
HETATM   44  C21 UNL     1     -93.643 166.497 -19.666  1.00  0.00     0.417 C 
HETATM   45  F4  UNL     1     -92.361 167.042 -19.661  1.00  0.00    -0.166 F 
HETATM   46  F5  UNL     1     -93.574 165.128 -19.805  1.00  0.00    -0.166 F 
HETATM   47  F6  UNL     1     -94.431 167.073 -20.643  1.00  0.00    -0.166 F 
ENDBRANCH  38  44
ENDBRANCH  33  34
ENDBRANCH  14  33
ENDBRANCH  12  14
ENDBRANCH  11  12
ENDBRANCH   1  11
TORSDOF 11
ENDMDL
MODEL 4
REMARK VINA RESULT: -11.081701872      6.360     10.523
REMARK  11 active torsions:
REMARK  status: ('A' for Active; 'I' for Inactive)
REMARK    1  A    between atoms: C2_2  and  C4_4 
REMARK    2  A    between atoms: C4_4  and  N1_5 
REMARK    3  A    between atoms: C5_8  and  C6_9 
REMARK    4  A    between atoms: C12_18  and  C13_19 
REMARK    5  A    between atoms: C13_19  and  C14_20 
REMARK    6  A    between atoms: C13_19  and  N5_35 
REMARK    7  A    between atoms: C14_20  and  C15_21 
REMARK    8  A    between atoms: C17_23  and  C18_24 
REMARK    9  A    between atoms: C20_29  and  C21_30 
REMARK   10  A    between atoms: N5_35  and  C23_37 
REMARK   11  A    between atoms: C23_37  and  C24_38 
ROOT
HETATM    1  C24 UNL     1     -89.443 165.938 -15.498  1.00  0.00     0.081 C 
HETATM    2  C25 UNL     1     -88.247 166.752 -15.402  1.00  0.00     0.072 C 
HETATM    3  N6  UNL     1     -87.293 167.405 -15.315  1.00  0.00    -0.196 NA
HETATM    4  C26 UNL     1     -89.864 165.831 -16.937  1.00  0.00     0.028 C 
HETATM    5  C27 UNL     1     -90.680 164.540 -17.062  1.00  0.00     0.002 C 
HETATM    6  C28 UNL     1     -89.663 163.438 -17.093  1.00  0.00     0.001 C 
HETATM    7  C29 UNL     1     -88.879 163.479 -15.804  1.00  0.00     0.021 C 
HETATM    8  C30 UNL     1     -89.197 164.583 -14.876  1.00  0.00     0.117 C 
HETATM    9  C31 UNL     1     -87.981 164.760 -14.020  1.00  0.00     0.065 C 
HETATM   10  N7  UNL     1     -87.060 164.894 -13.334  1.00  0.00    -0.197 NA
ENDROOT
BRANCH   1  11
HETATM   11  C23 UNL     1     -90.589 166.608 -14.778  1.00  0.00     0.146 C 
BRANCH  11  12
HETATM   12  N5  UNL     1     -90.792 167.974 -15.135  1.00  0.00    -0.385 N 
ATOM     13  H5  UNL     1     -90.103 168.570 -15.594  1.00  0.00     0.159 HD
BRANCH  12  14
HETATM   14  C13 UNL     1     -92.177 168.401 -14.728  1.00  0.00     0.075 C 
BRANCH  14  15
HETATM   15  C12 UNL     1     -92.333 169.812 -14.829  1.00  0.00     0.150 A 
HETATM   16  N1  UNL     1     -93.150 170.714 -15.368  1.00  0.00    -0.273 N 
HETATM   17  N2  UNL     1     -92.764 171.942 -15.026  1.00  0.00    -0.285 N 
HETATM   18  C5  UNL     1     -91.693 171.866 -14.267  1.00  0.00     0.102 A 
ATOM     19  H2  UNL     1     -93.227 172.806 -15.307  1.00  0.00     0.188 HD
HETATM   20  N4  UNL     1     -91.409 170.602 -14.131  1.00  0.00    -0.328 N 
ATOM     21  H4  UNL     1     -90.623 170.238 -13.593  1.00  0.00     0.169 HD
BRANCH  16  22
HETATM   22  C4  UNL     1     -94.129 170.442 -16.342  1.00  0.00     0.155 C 
BRANCH  22  23
HETATM   23  C2  UNL     1     -95.473 171.093 -15.960  1.00  0.00    -0.003 C 
HETATM   24  C1  UNL     1     -96.466 170.870 -17.091  1.00  0.00     0.011 C 
HETATM   25  C3  UNL     1     -96.033 170.565 -14.661  1.00  0.00     0.011 C 
ENDBRANCH  22  23
ENDBRANCH  16  22
BRANCH  18  26
HETATM   26  C6  UNL     1     -90.925 173.030 -13.764  1.00  0.00     0.058 C 
HETATM   27  C7  UNL     1     -89.447 172.735 -13.807  1.00  0.00     0.032 C 
HETATM   28  C8  UNL     1     -88.717 173.815 -13.064  1.00  0.00     0.117 C 
HETATM   29  N3  UNL     1     -89.058 175.119 -13.504  1.00  0.00    -0.417 N 
HETATM   30  C9  UNL     1     -88.195 175.694 -14.487  1.00  0.00     0.143 C 
HETATM   31  C10 UNL     1     -90.440 175.383 -13.626  1.00  0.00     0.117 C 
HETATM   32  C11 UNL     1     -91.155 174.307 -14.474  1.00  0.00     0.032 C 
ENDBRANCH  18  26
ENDBRANCH  14  15
BRANCH  14  33
HETATM   33  C14 UNL     1     -93.059 167.298 -14.727  1.00  0.00     0.044 C 
BRANCH  33  34
HETATM   34  C15 UNL     1     -93.952 167.103 -15.913  1.00  0.00    -0.032 A 
HETATM   35  C16 UNL     1     -93.419 166.863 -17.139  1.00  0.00     0.027 A 
HETATM   36  C17 UNL     1     -94.207 166.756 -18.255  1.00  0.00     0.049 A 
HETATM   37  C19 UNL     1     -95.571 166.886 -18.139  1.00  0.00     0.032 A 
HETATM   38  C20 UNL     1     -96.132 167.127 -16.876  1.00  0.00     0.049 A 
HETATM   39  C22 UNL     1     -95.314 167.234 -15.773  1.00  0.00     0.027 A 
BRANCH  36  40
HETATM   40  C18 UNL     1     -93.552 166.501 -19.607  1.00  0.00     0.417 C 
HETATM   41  F1  UNL     1     -93.507 165.160 -19.797  1.00  0.00    -0.166 F 
HETATM   42  F2  UNL     1     -94.327 167.080 -20.587  1.00  0.00    -0.166 F 
HETATM   43  F3  UNL     1     -92.313 167.067 -19.571  1.00  0.00    -0.166 F 
ENDBRANCH  36  40
BRANCH  38  44
HETATM   44  C21 UNL     1     -97.608 167.299 -16.726  1.00  0.00     0.417 C 
HETATM   45  F4  UNL     1     -98.053 167.997 -17.847  1.00  0.00    -0.166 F 
HETATM   46  F5  UNL     1     -98.157 166.036 -16.707  1.00  0.00    -0.166 F 
HETATM   47  F6  UNL     1     -97.875 167.993 -15.563  1.00  0.00    -0.166 F 
ENDBRANCH  38  44
ENDBRANCH  33  34
ENDBRANCH  14  33
ENDBRANCH  12  14
ENDBRANCH  11  12
ENDBRANCH   1  11
TORSDOF 11
ENDMDL
MODEL 5
REMARK VINA RESULT: -10.734507613      3.583      8.113
REMARK  11 active torsions:
REMARK  status: ('A' for Active; 'I' for Inactive)
REMARK    1  A    between atoms: C2_2  and  C4_4 
REMARK    2  A    between atoms: C4_4  and  N1_5 
REMARK    3  A    between atoms: C5_8  and  C6_9 
REMARK    4  A    between atoms: C12_18  and  C13_19 
REMARK    5  A    between atoms: C13_19  and  C14_20 
REMARK    6  A    between atoms: C13_19  and  N5_35 
REMARK    7  A    between atoms: C14_20  and  C15_21 
REMARK    8  A    between atoms: C17_23  and  C18_24 
REMARK    9  A    between atoms: C20_29  and  C21_30 
REMARK   10  A    between atoms: N5_35  and  C23_37 
REMARK   11  A    between atoms: C23_37  and  C24_38 
ROOT
HETATM    1  C24 UNL     1     -86.666 162.763 -11.562  1.00  0.00     0.081 C 
HETATM    2  C25 UNL     1     -85.889 161.834 -10.764  1.00  0.00     0.072 C 
HETATM    3  N6  UNL     1     -85.266 161.086 -10.136  1.00  0.00    -0.196 NA
HETATM    4  C26 UNL     1     -87.679 163.450 -10.690  1.00  0.00     0.028 C 
HETATM    5  C27 UNL     1     -88.013 164.782 -11.369  1.00  0.00     0.002 C 
HETATM    6  C28 UNL     1     -86.860 165.684 -11.046  1.00  0.00     0.001 C 
HETATM    7  C29 UNL     1     -85.603 165.070 -11.612  1.00  0.00     0.021 C 
HETATM    8  C30 UNL     1     -85.749 163.746 -12.250  1.00  0.00     0.117 C 
HETATM    9  C31 UNL     1     -84.390 163.117 -12.198  1.00  0.00     0.065 C 
HETATM   10  N7  UNL     1     -83.344 162.625 -12.190  1.00  0.00    -0.197 NA
ENDROOT
BRANCH   1  11
HETATM   11  C23 UNL     1     -87.459 162.015 -12.609  1.00  0.00     0.146 C 
BRANCH  11  12
HETATM   12  N5  UNL     1     -86.834 160.822 -13.080  1.00  0.00    -0.385 N 
ATOM     13  H5  UNL     1     -86.731 159.961 -12.544  1.00  0.00     0.159 HD
BRANCH  12  14
HETATM   14  C13 UNL     1     -86.352 161.031 -14.491  1.00  0.00     0.075 C 
BRANCH  14  15
HETATM   15  C12 UNL     1     -85.084 160.419 -14.699  1.00  0.00     0.150 A 
HETATM   16  N1  UNL     1     -83.841 160.737 -15.052  1.00  0.00    -0.273 N 
HETATM   17  N2  UNL     1     -83.059 159.660 -14.992  1.00  0.00    -0.285 N 
HETATM   18  C5  UNL     1     -83.772 158.625 -14.605  1.00  0.00     0.102 A 
ATOM     19  H2  UNL     1     -82.063 159.641 -15.210  1.00  0.00     0.188 HD
HETATM   20  N4  UNL     1     -84.991 159.047 -14.423  1.00  0.00    -0.328 N 
ATOM     21  H4  UNL     1     -85.769 158.461 -14.121  1.00  0.00     0.169 HD
BRANCH  16  22
HETATM   22  C4  UNL     1     -83.450 161.959 -15.631  1.00  0.00     0.155 C 
BRANCH  22  23
HETATM   23  C2  UNL     1     -81.924 161.998 -15.842  1.00  0.00    -0.003 C 
HETATM   24  C1  UNL     1     -81.610 162.948 -16.988  1.00  0.00     0.011 C 
HETATM   25  C3  UNL     1     -81.169 162.409 -14.601  1.00  0.00     0.011 C 
ENDBRANCH  22  23
ENDBRANCH  16  22
BRANCH  18  26
HETATM   26  C6  UNL     1     -83.267 157.235 -14.506  1.00  0.00     0.058 C 
HETATM   27  C7  UNL     1     -84.387 156.257 -14.751  1.00  0.00     0.032 C 
HETATM   28  C8  UNL     1     -83.909 154.879 -14.397  1.00  0.00     0.117 C 
HETATM   29  N3  UNL     1     -82.691 154.532 -15.034  1.00  0.00    -0.417 N 
HETATM   30  C9  UNL     1     -82.810 153.800 -16.255  1.00  0.00     0.143 C 
HETATM   31  C10 UNL     1     -81.664 155.498 -14.959  1.00  0.00     0.117 C 
HETATM   32  C11 UNL     1     -82.154 156.890 -15.417  1.00  0.00     0.032 C 
ENDBRANCH  18  26
ENDBRANCH  14  15
BRANCH  14  33
HETATM   33  C14 UNL     1     -87.417 161.427 -15.330  1.00  0.00     0.044 C 
BRANCH  33  34
HETATM   34  C15 UNL     1     -87.662 162.891 -15.523  1.00  0.00    -0.032 A 
HETATM   35  C16 UNL     1     -88.907 163.343 -15.823  1.00  0.00     0.027 A 
HETATM   36  C17 UNL     1     -89.146 164.667 -16.080  1.00  0.00     0.049 A 
HETATM   37  C19 UNL     1     -88.109 165.569 -16.028  1.00  0.00     0.032 A 
HETATM   38  C20 UNL     1     -86.821 165.112 -15.712  1.00  0.00     0.049 A 
HETATM   39  C22 UNL     1     -86.609 163.774 -15.463  1.00  0.00     0.027 A 
BRANCH  36  40
HETATM   40  C18 UNL     1     -90.562 165.114 -16.426  1.00  0.00     0.417 C 
HETATM   41  F1  UNL     1     -91.227 165.315 -15.262  1.00  0.00    -0.166 F 
HETATM   42  F2  UNL     1     -90.490 166.298 -17.125  1.00  0.00    -0.166 F 
HETATM   43  F3  UNL     1     -91.123 164.134 -17.188  1.00  0.00    -0.166 F 
ENDBRANCH  36  40
BRANCH  38  44
HETATM   44  C21 UNL     1     -85.671 166.065 -15.675  1.00  0.00     0.417 C 
HETATM   45  F4  UNL     1     -84.538 165.352 -16.062  1.00  0.00    -0.166 F 
HETATM   46  F5  UNL     1     -85.943 167.055 -16.595  1.00  0.00    -0.166 F 
HETATM   47  F6  UNL     1     -85.534 166.573 -14.399  1.00  0.00    -0.166 F 
ENDBRANCH  38  44
ENDBRANCH  33  34
ENDBRANCH  14  33
ENDBRANCH  12  14
ENDBRANCH  11  12
ENDBRANCH   1  11
TORSDOF 11
ENDMDL
