MODEL 1
REMARK VINA RESULT: -10.945054447      0.000      0.000
REMARK  13 active torsions:
REMARK  status: ('A' for Active; 'I' for Inactive)
REMARK    1  A    between atoms: C3_5  and  C4_6 
REMARK    2  A    between atoms: C4_6  and  O2_8 
REMARK    3  A    between atoms: O2_8  and  C5_9 
REMARK    4  A    between atoms: C12_16  and  O3_17 
REMARK    5  A    between atoms: O3_17  and  C13_18 
REMARK    6  A    between atoms: C13_18  and  C14_19 
REMARK    7  A    between atoms: C14_19  and  C15_20 
REMARK    8  A    between atoms: C15_20  and  C16_21 
REMARK    9  A    between atoms: C16_21  and  C17_23 
REMARK   10  A    between atoms: C21_29  and  O5_30 
REMARK   11  A    between atoms: O5_30  and  C22_31 
REMARK   12  A    between atoms: C22_31  and  C23_32 
REMARK   13  A    between atoms: C22_31  and  C24_36 
ROOT
HETATM    1  C1  UNL     1     -85.102 154.039 -13.932  1.00  0.00     0.070 C 
HETATM    2  C2  UNL     1     -84.570 155.379 -14.353  1.00  0.00     0.027 A 
HETATM    3  N1  UNL     1     -85.110 156.576 -14.130  1.00  0.00    -0.353 N 
ATOM      4  H1  UNL     1     -85.985 156.719 -13.626  1.00  0.00     0.166 HD
HETATM    5  C3  UNL     1     -84.369 157.580 -14.646  1.00  0.00     0.116 A 
HETATM    6  C26 UNL     1     -83.283 156.974 -15.236  1.00  0.00    -0.006 A 
HETATM    7  C27 UNL     1     -82.186 157.697 -15.933  1.00  0.00     0.052 C 
HETATM    8  C28 UNL     1     -83.403 155.618 -15.057  1.00  0.00     0.075 A 
HETATM    9  C29 UNL     1     -82.511 154.589 -15.497  1.00  0.00     0.102 C 
HETATM   10  N3  UNL     1     -81.792 153.769 -15.842  1.00  0.00    -0.191 NA
ENDROOT
BRANCH   5  11
HETATM   11  C4  UNL     1     -84.662 159.018 -14.580  1.00  0.00     0.311 C 
HETATM   12  O1  UNL     1     -85.848 159.374 -14.769  1.00  0.00    -0.258 OA
BRANCH  11  13
HETATM   13  O2  UNL     1     -83.714 159.966 -14.326  1.00  0.00    -0.306 OA
BRANCH  13  14
HETATM   14  C5  UNL     1     -83.908 161.094 -13.444  1.00  0.00     0.170 C 
HETATM   15  C6  UNL     1     -82.519 161.588 -13.107  1.00  0.00     0.037 C 
HETATM   16  C7  UNL     1     -81.927 162.412 -14.220  1.00  0.00     0.003 C 
HETATM   17  C8  UNL     1     -81.896 161.737 -15.550  1.00  0.00     0.005 C 
HETATM   18  C9  UNL     1     -83.123 161.876 -16.380  1.00  0.00     0.039 C 
HETATM   19  C10 UNL     1     -84.183 162.523 -15.546  1.00  0.00    -0.041 A 
HETATM   20  C11 UNL     1     -84.835 163.539 -16.204  1.00  0.00     0.064 A 
HETATM   21  C25 UNL     1     -84.527 162.205 -14.259  1.00  0.00     0.029 A 
HETATM   22  C12 UNL     1     -85.839 164.218 -15.525  1.00  0.00     0.144 A 
HETATM   23  N2  UNL     1     -86.184 163.927 -14.282  1.00  0.00    -0.317 N 
HETATM   24  C21 UNL     1     -85.528 162.900 -13.609  1.00  0.00     0.154 A 
ATOM     25  H2  UNL     1     -86.925 164.452 -13.819  1.00  0.00     0.170 HD
BRANCH  22  26
HETATM   26  O3  UNL     1     -86.460 165.241 -16.266  1.00  0.00    -0.336 OA
BRANCH  26  27
HETATM   27  C13 UNL     1     -87.599 165.836 -15.694  1.00  0.00     0.178 C 
BRANCH  27  28
HETATM   28  C14 UNL     1     -88.853 165.601 -16.487  1.00  0.00     0.034 C 
BRANCH  28  29
HETATM   29  C15 UNL     1     -90.066 165.399 -15.633  1.00  0.00     0.081 C 
BRANCH  29  30
HETATM   30  C16 UNL     1     -91.187 166.230 -16.094  1.00  0.00     0.134 C 
HETATM   31  O4  UNL     1     -91.456 166.254 -17.294  1.00  0.00    -0.297 OA
BRANCH  30  32
HETATM   32  C17 UNL     1     -92.007 167.046 -15.159  1.00  0.00     0.009 C 
HETATM   33  C18 UNL     1     -92.186 166.378 -13.816  1.00  0.00     0.022 C 
HETATM   34  C19 UNL     1     -91.451 168.441 -15.004  1.00  0.00     0.022 C 
HETATM   35  C20 UNL     1     -93.423 167.187 -15.733  1.00  0.00     0.022 C 
ENDBRANCH  30  32
ENDBRANCH  29  30
ENDBRANCH  28  29
ENDBRANCH  27  28
ENDBRANCH  26  27
ENDBRANCH  22  26
BRANCH  24  36
HETATM   36  O5  UNL     1     -85.857 162.603 -12.381  1.00  0.00    -0.311 OA
BRANCH  36  37
HETATM   37  C22 UNL     1     -86.158 162.299 -11.167  1.00  0.00     0.344 C 
BRANCH  37  38
HETATM   38  C23 UNL     1     -84.949 162.258 -10.186  1.00  0.00     0.422 C 
HETATM   39  F1  UNL     1     -85.330 162.647  -8.942  1.00  0.00    -0.168 F 
HETATM   40  F2  UNL     1     -84.401 161.007 -10.268  1.00  0.00    -0.168 F 
HETATM   41  F3  UNL     1     -84.015 163.144 -10.745  1.00  0.00    -0.168 F 
ENDBRANCH  37  38
BRANCH  37  42
HETATM   42  C24 UNL     1     -87.133 163.325 -10.548  1.00  0.00     0.422 C 
HETATM   43  F4  UNL     1     -86.607 164.590 -10.623  1.00  0.00    -0.168 F 
HETATM   44  F5  UNL     1     -87.379 163.026  -9.230  1.00  0.00    -0.168 F 
HETATM   45  F6  UNL     1     -88.286 163.318 -11.310  1.00  0.00    -0.168 F 
ENDBRANCH  37  42
ENDBRANCH  36  37
ENDBRANCH  24  36
ENDBRANCH  13  14
ENDBRANCH  11  13
ENDBRANCH   5  11
TORSDOF 13
ENDMDL
MODEL 2
REMARK VINA RESULT: -10.475579366      0.849      1.789
REMARK  13 active torsions:
REMARK  status: ('A' for Active; 'I' for Inactive)
REMARK    1  A    between atoms: C3_5  and  C4_6 
REMARK    2  A    between atoms: C4_6  and  O2_8 
REMARK    3  A    between atoms: O2_8  and  C5_9 
REMARK    4  A    between atoms: C12_16  and  O3_17 
REMARK    5  A    between atoms: O3_17  and  C13_18 
REMARK    6  A    between atoms: C13_18  and  C14_19 
REMARK    7  A    between atoms: C14_19  and  C15_20 
REMARK    8  A    between atoms: C15_20  and  C16_21 
REMARK    9  A    between atoms: C16_21  and  C17_23 
REMARK   10  A    between atoms: C21_29  and  O5_30 
REMARK   11  A    between atoms: O5_30  and  C22_31 
REMARK   12  A    between atoms: C22_31  and  C23_32 
REMARK   13  A    between atoms: C22_31  and  C24_36 
ROOT
HETATM    1  C1  UNL     1     -85.086 154.220 -14.346  1.00  0.00     0.070 C 
HETATM    2  C2  UNL     1     -84.545 155.615 -14.214  1.00  0.00     0.027 A 
HETATM    3  N1  UNL     1     -85.108 156.652 -13.595  1.00  0.00    -0.353 N 
ATOM      4  H1  UNL     1     -86.009 156.608 -13.120  1.00  0.00     0.166 HD
HETATM    5  C3  UNL     1     -84.350 157.767 -13.665  1.00  0.00     0.116 A 
HETATM    6  C26 UNL     1     -83.228 157.410 -14.379  1.00  0.00    -0.006 A 
HETATM    7  C27 UNL     1     -82.103 158.327 -14.702  1.00  0.00     0.052 C 
HETATM    8  C28 UNL     1     -83.345 156.084 -14.719  1.00  0.00     0.075 A 
HETATM    9  C29 UNL     1     -82.422 155.280 -15.460  1.00  0.00     0.102 C 
HETATM   10  N3  UNL     1     -81.678 154.638 -16.045  1.00  0.00    -0.191 NA
ENDROOT
BRANCH   5  11
HETATM   11  C4  UNL     1     -84.659 159.082 -13.088  1.00  0.00     0.311 C 
HETATM   12  O1  UNL     1     -85.096 159.109 -11.915  1.00  0.00    -0.258 OA
BRANCH  11  13
HETATM   13  O2  UNL     1     -84.494 160.256 -13.764  1.00  0.00    -0.306 OA
BRANCH  13  14
HETATM   14  C5  UNL     1     -84.369 161.549 -13.131  1.00  0.00     0.170 C 
HETATM   15  C6  UNL     1     -82.885 161.831 -13.076  1.00  0.00     0.037 C 
HETATM   16  C7  UNL     1     -82.350 162.301 -14.404  1.00  0.00     0.003 C 
HETATM   17  C8  UNL     1     -82.633 161.389 -15.550  1.00  0.00     0.005 C 
HETATM   18  C9  UNL     1     -83.936 161.592 -16.238  1.00  0.00     0.039 C 
HETATM   19  C10 UNL     1     -84.738 162.572 -15.444  1.00  0.00    -0.041 A 
HETATM   20  C11 UNL     1     -85.317 163.547 -16.223  1.00  0.00     0.064 A 
HETATM   21  C25 UNL     1     -84.925 162.578 -14.087  1.00  0.00     0.029 A 
HETATM   22  C12 UNL     1     -86.083 164.518 -15.592  1.00  0.00     0.144 A 
HETATM   23  N2  UNL     1     -86.273 164.541 -14.284  1.00  0.00    -0.317 N 
HETATM   24  C21 UNL     1     -85.691 163.558 -13.488  1.00  0.00     0.154 A 
ATOM     25  H2  UNL     1     -86.842 165.273 -13.860  1.00  0.00     0.170 HD
BRANCH  22  26
HETATM   26  O3  UNL     1     -86.643 165.477 -16.457  1.00  0.00    -0.336 OA
BRANCH  26  27
HETATM   27  C13 UNL     1     -87.870 166.044 -16.067  1.00  0.00     0.178 C 
BRANCH  27  28
HETATM   28  C14 UNL     1     -89.063 165.291 -16.582  1.00  0.00     0.034 C 
BRANCH  28  29
HETATM   29  C15 UNL     1     -90.234 165.324 -15.650  1.00  0.00     0.081 C 
BRANCH  29  30
HETATM   30  C16 UNL     1     -91.289 166.215 -16.153  1.00  0.00     0.134 C 
HETATM   31  O4  UNL     1     -91.512 166.250 -17.362  1.00  0.00    -0.297 OA
BRANCH  30  32
HETATM   32  C17 UNL     1     -92.098 167.077 -15.250  1.00  0.00     0.009 C 
HETATM   33  C18 UNL     1     -91.445 168.416 -14.994  1.00  0.00     0.022 C 
HETATM   34  C19 UNL     1     -93.509 167.247 -15.759  1.00  0.00     0.022 C 
HETATM   35  C20 UNL     1     -92.194 166.404 -13.874  1.00  0.00     0.022 C 
ENDBRANCH  30  32
ENDBRANCH  29  30
ENDBRANCH  28  29
ENDBRANCH  27  28
ENDBRANCH  26  27
ENDBRANCH  22  26
BRANCH  24  36
HETATM   36  O5  UNL     1     -85.868 163.570 -12.195  1.00  0.00    -0.311 OA
BRANCH  36  37
HETATM   37  C22 UNL     1     -86.065 163.592 -10.922  1.00  0.00     0.344 C 
BRANCH  37  38
HETATM   38  C23 UNL     1     -87.546 163.374 -10.489  1.00  0.00     0.422 C 
HETATM   39  F1  UNL     1     -88.060 162.268 -11.084  1.00  0.00    -0.168 F 
HETATM   40  F2  UNL     1     -87.573 163.373  -9.122  1.00  0.00    -0.168 F 
HETATM   41  F3  UNL     1     -88.207 164.542 -10.903  1.00  0.00    -0.168 F 
ENDBRANCH  37  38
BRANCH  37  42
HETATM   42  C24 UNL     1     -85.276 162.475 -10.205  1.00  0.00     0.422 C 
HETATM   43  F4  UNL     1     -85.393 162.605  -8.844  1.00  0.00    -0.168 F 
HETATM   44  F5  UNL     1     -83.945 162.530 -10.541  1.00  0.00    -0.168 F 
HETATM   45  F6  UNL     1     -85.853 161.268 -10.550  1.00  0.00    -0.168 F 
ENDBRANCH  37  42
ENDBRANCH  36  37
ENDBRANCH  24  36
ENDBRANCH  13  14
ENDBRANCH  11  13
ENDBRANCH   5  11
TORSDOF 13
ENDMDL
MODEL 3
REMARK VINA RESULT: -10.449633698      2.597      8.387
REMARK  13 active torsions:
REMARK  status: ('A' for Active; 'I' for Inactive)
REMARK    1  A    between atoms: C3_5  and  C4_6 
REMARK    2  A    between atoms: C4_6  and  O2_8 
REMARK    3  A    between atoms: O2_8  and  C5_9 
REMARK    4  A    between atoms: C12_16  and  O3_17 
REMARK    5  A    between atoms: O3_17  and  C13_18 
REMARK    6  A    between atoms: C13_18  and  C14_19 
REMARK    7  A    between atoms: C14_19  and  C15_20 
REMARK    8  A    between atoms: C15_20  and  C16_21 
REMARK    9  A    between atoms: C16_21  and  C17_23 
REMARK   10  A    between atoms: C21_29  and  O5_30 
REMARK   11  A    between atoms: O5_30  and  C22_31 
REMARK   12  A    between atoms: C22_31  and  C23_32 
REMARK   13  A    between atoms: C22_31  and  C24_36 
ROOT
HETATM    1  C1  UNL     1     -90.938 167.825 -15.070  1.00  0.00     0.070 C 
HETATM    2  C2  UNL     1     -89.948 166.801 -15.551  1.00  0.00     0.027 A 
HETATM    3  N1  UNL     1     -88.654 166.715 -15.247  1.00  0.00    -0.353 N 
ATOM      4  H1  UNL     1     -88.172 167.365 -14.627  1.00  0.00     0.166 HD
HETATM    5  C3  UNL     1     -88.052 165.670 -15.854  1.00  0.00     0.116 A 
HETATM    6  C26 UNL     1     -89.036 165.052 -16.592  1.00  0.00    -0.006 A 
HETATM    7  C27 UNL     1     -88.830 163.839 -17.429  1.00  0.00     0.052 C 
HETATM    8  C28 UNL     1     -90.206 165.746 -16.407  1.00  0.00     0.075 A 
HETATM    9  C29 UNL     1     -91.491 165.472 -16.973  1.00  0.00     0.102 C 
HETATM   10  N3  UNL     1     -92.520 165.246 -17.420  1.00  0.00    -0.191 NA
ENDROOT
BRANCH   5  11
HETATM   11  C4  UNL     1     -86.642 165.274 -15.738  1.00  0.00     0.311 C 
HETATM   12  O1  UNL     1     -85.779 166.175 -15.855  1.00  0.00    -0.258 OA
BRANCH  11  13
HETATM   13  O2  UNL     1     -86.239 163.991 -15.512  1.00  0.00    -0.306 OA
BRANCH  13  14
HETATM   14  C5  UNL     1     -86.367 163.309 -14.244  1.00  0.00     0.170 C 
HETATM   15  C6  UNL     1     -87.186 162.071 -14.532  1.00  0.00     0.037 C 
HETATM   16  C7  UNL     1     -86.360 160.982 -15.164  1.00  0.00     0.003 C 
HETATM   17  C8  UNL     1     -85.635 161.387 -16.404  1.00  0.00     0.005 C 
HETATM   18  C9  UNL     1     -84.294 162.001 -16.203  1.00  0.00     0.039 C 
HETATM   19  C10 UNL     1     -84.100 162.236 -14.739  1.00  0.00    -0.041 A 
HETATM   20  C11 UNL     1     -82.868 161.823 -14.289  1.00  0.00     0.064 A 
HETATM   21  C25 UNL     1     -84.999 162.790 -13.867  1.00  0.00     0.029 A 
HETATM   22  C12 UNL     1     -82.577 161.986 -12.941  1.00  0.00     0.144 A 
HETATM   23  N2  UNL     1     -83.432 162.518 -12.084  1.00  0.00    -0.317 N 
HETATM   24  C21 UNL     1     -84.681 162.938 -12.531  1.00  0.00     0.154 A 
ATOM     25  H2  UNL     1     -83.179 162.618 -11.102  1.00  0.00     0.170 HD
BRANCH  22  26
HETATM   26  O3  UNL     1     -81.297 161.543 -12.560  1.00  0.00    -0.336 OA
BRANCH  26  27
HETATM   27  C13 UNL     1     -81.233 160.344 -11.826  1.00  0.00     0.178 C 
BRANCH  27  28
HETATM   28  C14 UNL     1     -82.488 159.524 -11.918  1.00  0.00     0.034 C 
BRANCH  28  29
HETATM   29  C15 UNL     1     -82.437 158.479 -12.988  1.00  0.00     0.081 C 
BRANCH  29  30
HETATM   30  C16 UNL     1     -83.788 158.084 -13.412  1.00  0.00     0.134 C 
HETATM   31  O4  UNL     1     -84.757 158.523 -12.794  1.00  0.00    -0.297 OA
BRANCH  30  32
HETATM   32  C17 UNL     1     -84.024 157.171 -14.562  1.00  0.00     0.009 C 
HETATM   33  C18 UNL     1     -84.585 155.836 -14.132  1.00  0.00     0.022 C 
HETATM   34  C19 UNL     1     -84.895 157.816 -15.614  1.00  0.00     0.022 C 
HETATM   35  C20 UNL     1     -82.679 156.850 -15.227  1.00  0.00     0.022 C 
ENDBRANCH  30  32
ENDBRANCH  29  30
ENDBRANCH  28  29
ENDBRANCH  27  28
ENDBRANCH  26  27
ENDBRANCH  22  26
BRANCH  24  36
HETATM   36  O5  UNL     1     -85.536 163.463 -11.696  1.00  0.00    -0.311 OA
BRANCH  36  37
HETATM   37  C22 UNL     1     -86.369 164.003 -10.875  1.00  0.00     0.344 C 
BRANCH  37  38
HETATM   38  C23 UNL     1     -86.810 165.449 -11.250  1.00  0.00     0.422 C 
HETATM   39  F1  UNL     1     -87.483 165.451 -12.429  1.00  0.00    -0.168 F 
HETATM   40  F2  UNL     1     -87.496 165.955 -10.181  1.00  0.00    -0.168 F 
HETATM   41  F3  UNL     1     -85.609 166.170 -11.336  1.00  0.00    -0.168 F 
ENDBRANCH  37  38
BRANCH  37  42
HETATM   42  C24 UNL     1     -87.684 163.198 -10.787  1.00  0.00     0.422 C 
HETATM   43  F4  UNL     1     -88.173 163.218  -9.505  1.00  0.00    -0.168 F 
HETATM   44  F5  UNL     1     -87.479 161.893 -11.163  1.00  0.00    -0.168 F 
HETATM   45  F6  UNL     1     -88.615 163.832 -11.587  1.00  0.00    -0.168 F 
ENDBRANCH  37  42
ENDBRANCH  36  37
ENDBRANCH  24  36
ENDBRANCH  13  14
ENDBRANCH  11  13
ENDBRANCH   5  11
TORSDOF 13
ENDMDL
MODEL 4
REMARK VINA RESULT: -10.390865177      2.687      9.660
REMARK  13 active torsions:
REMARK  status: ('A' for Active; 'I' for Inactive)
REMARK    1  A    between atoms: C3_5  and  C4_6 
REMARK    2  A    between atoms: C4_6  and  O2_8 
REMARK    3  A    between atoms: O2_8  and  C5_9 
REMARK    4  A    between atoms: C12_16  and  O3_17 
REMARK    5  A    between atoms: O3_17  and  C13_18 
REMARK    6  A    between atoms: C13_18  and  C14_19 
REMARK    7  A    between atoms: C14_19  and  C15_20 
REMARK    8  A    between atoms: C15_20  and  C16_21 
REMARK    9  A    between atoms: C16_21  and  C17_23 
REMARK   10  A    between atoms: C21_29  and  O5_30 
REMARK   11  A    between atoms: O5_30  and  C22_31 
REMARK   12  A    between atoms: C22_31  and  C23_32 
REMARK   13  A    between atoms: C22_31  and  C24_36 
ROOT
HETATM    1  C1  UNL     1     -91.355 165.999 -14.022  1.00  0.00     0.070 C 
HETATM    2  C2  UNL     1     -90.016 165.598 -14.570  1.00  0.00     0.027 A 
HETATM    3  N1  UNL     1     -88.861 165.504 -13.913  1.00  0.00    -0.353 N 
ATOM      4  H1  UNL     1     -88.757 165.704 -12.918  1.00  0.00     0.166 HD
HETATM    5  C3  UNL     1     -87.844 165.114 -14.711  1.00  0.00     0.116 A 
HETATM    6  C26 UNL     1     -88.396 164.949 -15.961  1.00  0.00    -0.006 A 
HETATM    7  C27 UNL     1     -87.641 164.516 -17.168  1.00  0.00     0.052 C 
HETATM    8  C28 UNL     1     -89.734 165.246 -15.878  1.00  0.00     0.075 A 
HETATM    9  C29 UNL     1     -90.710 165.213 -16.925  1.00  0.00     0.102 C 
HETATM   10  N3  UNL     1     -91.489 165.177 -17.761  1.00  0.00    -0.191 NA
ENDROOT
BRANCH   5  11
HETATM   11  C4  UNL     1     -86.445 164.902 -14.317  1.00  0.00     0.311 C 
HETATM   12  O1  UNL     1     -85.838 165.870 -13.802  1.00  0.00    -0.258 OA
BRANCH  11  13
HETATM   13  O2  UNL     1     -85.789 163.718 -14.486  1.00  0.00    -0.306 OA
BRANCH  13  14
HETATM   14  C5  UNL     1     -85.180 162.965 -13.413  1.00  0.00     0.170 C 
HETATM   15  C6  UNL     1     -86.270 162.776 -12.382  1.00  0.00     0.037 C 
HETATM   16  C7  UNL     1     -87.225 161.676 -12.766  1.00  0.00     0.003 C 
HETATM   17  C8  UNL     1     -87.848 161.832 -14.113  1.00  0.00     0.005 C 
HETATM   18  C9  UNL     1     -87.075 161.275 -15.256  1.00  0.00     0.039 C 
HETATM   19  C10 UNL     1     -85.730 160.860 -14.755  1.00  0.00    -0.041 A 
HETATM   20  C11 UNL     1     -85.355 159.612 -15.196  1.00  0.00     0.064 A 
HETATM   21  C25 UNL     1     -84.896 161.577 -13.938  1.00  0.00     0.029 A 
HETATM   22  C12 UNL     1     -84.123 159.117 -14.789  1.00  0.00     0.144 A 
HETATM   23  N2  UNL     1     -83.307 159.794 -13.999  1.00  0.00    -0.317 N 
HETATM   24  C21 UNL     1     -83.678 161.058 -13.548  1.00  0.00     0.154 A 
ATOM     25  H2  UNL     1     -82.411 159.394 -13.722  1.00  0.00     0.170 HD
BRANCH  22  26
HETATM   26  O3  UNL     1     -83.812 157.837 -15.285  1.00  0.00    -0.336 OA
BRANCH  26  27
HETATM   27  C13 UNL     1     -82.615 157.254 -14.830  1.00  0.00     0.178 C 
BRANCH  27  28
HETATM   28  C14 UNL     1     -82.295 155.951 -15.504  1.00  0.00     0.034 C 
BRANCH  28  29
HETATM   29  C15 UNL     1     -83.196 154.831 -15.089  1.00  0.00     0.081 C 
BRANCH  29  30
HETATM   30  C16 UNL     1     -82.614 153.525 -15.428  1.00  0.00     0.134 C 
HETATM   31  O4  UNL     1     -81.600 153.489 -16.124  1.00  0.00    -0.297 OA
BRANCH  30  32
HETATM   32  C17 UNL     1     -83.209 152.244 -14.960  1.00  0.00     0.009 C 
HETATM   33  C18 UNL     1     -82.416 151.617 -13.836  1.00  0.00     0.022 C 
HETATM   34  C19 UNL     1     -84.659 152.412 -14.578  1.00  0.00     0.022 C 
HETATM   35  C20 UNL     1     -83.160 151.225 -16.107  1.00  0.00     0.022 C 
ENDBRANCH  30  32
ENDBRANCH  29  30
ENDBRANCH  28  29
ENDBRANCH  27  28
ENDBRANCH  26  27
ENDBRANCH  22  26
BRANCH  24  36
HETATM   36  O5  UNL     1     -82.883 161.736 -12.766  1.00  0.00    -0.311 OA
BRANCH  36  37
HETATM   37  C22 UNL     1     -82.111 162.396 -11.974  1.00  0.00     0.344 C 
BRANCH  37  38
HETATM   38  C23 UNL     1     -81.872 161.725 -10.589  1.00  0.00     0.422 C 
HETATM   39  F1  UNL     1     -80.766 162.241  -9.993  1.00  0.00    -0.168 F 
HETATM   40  F2  UNL     1     -83.032 161.842  -9.875  1.00  0.00    -0.168 F 
HETATM   41  F3  UNL     1     -81.715 160.361 -10.883  1.00  0.00    -0.168 F 
ENDBRANCH  37  38
BRANCH  37  42
HETATM   42  C24 UNL     1     -80.699 162.574 -12.575  1.00  0.00     0.422 C 
HETATM   43  F4  UNL     1     -79.871 161.560 -12.162  1.00  0.00    -0.168 F 
HETATM   44  F5  UNL     1     -80.155 163.775 -12.186  1.00  0.00    -0.168 F 
HETATM   45  F6  UNL     1     -80.813 162.473 -13.948  1.00  0.00    -0.168 F 
ENDBRANCH  37  42
ENDBRANCH  36  37
ENDBRANCH  24  36
ENDBRANCH  13  14
ENDBRANCH  11  13
ENDBRANCH   5  11
TORSDOF 13
ENDMDL
MODEL 5
REMARK VINA RESULT: -10.225455387      0.982      1.545
REMARK  13 active torsions:
REMARK  status: ('A' for Active; 'I' for Inactive)
REMARK    1  A    between atoms: C3_5  and  C4_6 
REMARK    2  A    between atoms: C4_6  and  O2_8 
REMARK    3  A    between atoms: O2_8  and  C5_9 
REMARK    4  A    between atoms: C12_16  and  O3_17 
REMARK    5  A    between atoms: O3_17  and  C13_18 
REMARK    6  A    between atoms: C13_18  and  C14_19 
REMARK    7  A    between atoms: C14_19  and  C15_20 
REMARK    8  A    between atoms: C15_20  and  C16_21 
REMARK    9  A    between atoms: C16_21  and  C17_23 
REMARK   10  A    between atoms: C21_29  and  O5_30 
REMARK   11  A    between atoms: O5_30  and  C22_31 
REMARK   12  A    between atoms: C22_31  and  C23_32 
REMARK   13  A    between atoms: C22_31  and  C24_36 
ROOT
HETATM    1  C1  UNL     1     -80.610 155.546 -15.156  1.00  0.00     0.070 C 
HETATM    2  C2  UNL     1     -81.967 156.032 -14.730  1.00  0.00     0.027 A 
HETATM    3  N1  UNL     1     -82.295 157.244 -14.286  1.00  0.00    -0.353 N 
ATOM      4  H1  UNL     1     -81.629 158.010 -14.182  1.00  0.00     0.166 HD
HETATM    5  C3  UNL     1     -83.608 157.345 -13.988  1.00  0.00     0.116 A 
HETATM    6  C26 UNL     1     -84.148 156.110 -14.266  1.00  0.00    -0.006 A 
HETATM    7  C27 UNL     1     -85.582 155.755 -14.092  1.00  0.00     0.052 C 
HETATM    8  C28 UNL     1     -83.139 155.298 -14.723  1.00  0.00     0.075 A 
HETATM    9  C29 UNL     1     -83.228 153.930 -15.134  1.00  0.00     0.102 C 
HETATM   10  N3  UNL     1     -83.303 152.839 -15.470  1.00  0.00    -0.191 NA
ENDROOT
BRANCH   5  11
HETATM   11  C4  UNL     1     -84.310 158.533 -13.485  1.00  0.00     0.311 C 
HETATM   12  O1  UNL     1     -85.091 158.375 -12.518  1.00  0.00    -0.258 OA
BRANCH  11  13
HETATM   13  O2  UNL     1     -84.152 159.780 -14.016  1.00  0.00    -0.306 OA
BRANCH  13  14
HETATM   14  C5  UNL     1     -84.372 161.008 -13.287  1.00  0.00     0.170 C 
HETATM   15  C6  UNL     1     -82.995 161.566 -13.009  1.00  0.00     0.037 C 
HETATM   16  C7  UNL     1     -82.410 162.253 -14.215  1.00  0.00     0.003 C 
HETATM   17  C8  UNL     1     -82.357 161.413 -15.447  1.00  0.00     0.005 C 
HETATM   18  C9  UNL     1     -83.580 161.422 -16.295  1.00  0.00     0.039 C 
HETATM   19  C10 UNL     1     -84.657 162.151 -15.556  1.00  0.00    -0.041 A 
HETATM   20  C11 UNL     1     -85.322 163.062 -16.342  1.00  0.00     0.064 A 
HETATM   21  C25 UNL     1     -85.005 161.994 -14.241  1.00  0.00     0.029 A 
HETATM   22  C12 UNL     1     -86.343 163.804 -15.760  1.00  0.00     0.144 A 
HETATM   23  N2  UNL     1     -86.691 163.668 -14.492  1.00  0.00    -0.317 N 
HETATM   24  C21 UNL     1     -86.023 162.748 -13.690  1.00  0.00     0.154 A 
ATOM     25  H2  UNL     1     -87.446 164.234 -14.104  1.00  0.00     0.170 HD
BRANCH  22  26
HETATM   26  O3  UNL     1     -86.976 164.712 -16.629  1.00  0.00    -0.336 OA
BRANCH  26  27
HETATM   27  C13 UNL     1     -87.926 165.578 -16.059  1.00  0.00     0.178 C 
BRANCH  27  28
HETATM   28  C14 UNL     1     -89.263 165.528 -16.742  1.00  0.00     0.034 C 
BRANCH  28  29
HETATM   29  C15 UNL     1     -90.414 165.445 -15.790  1.00  0.00     0.081 C 
BRANCH  29  30
HETATM   30  C16 UNL     1     -91.493 166.365 -16.177  1.00  0.00     0.134 C 
HETATM   31  O4  UNL     1     -91.812 166.441 -17.362  1.00  0.00    -0.297 OA
BRANCH  30  32
HETATM   32  C17 UNL     1     -92.212 167.208 -15.185  1.00  0.00     0.009 C 
HETATM   33  C18 UNL     1     -91.501 168.513 -14.914  1.00  0.00     0.022 C 
HETATM   34  C19 UNL     1     -93.647 167.443 -15.591  1.00  0.00     0.022 C 
HETATM   35  C20 UNL     1     -92.241 166.475 -13.837  1.00  0.00     0.022 C 
ENDBRANCH  30  32
ENDBRANCH  29  30
ENDBRANCH  28  29
ENDBRANCH  27  28
ENDBRANCH  26  27
ENDBRANCH  22  26
BRANCH  24  36
HETATM   36  O5  UNL     1     -86.355 162.605 -12.436  1.00  0.00    -0.311 OA
BRANCH  36  37
HETATM   37  C22 UNL     1     -86.700 162.483 -11.201  1.00  0.00     0.344 C 
BRANCH  37  38
HETATM   38  C23 UNL     1     -85.522 162.558 -10.185  1.00  0.00     0.422 C 
HETATM   39  F1  UNL     1     -85.964 162.970  -8.970  1.00  0.00    -0.168 F 
HETATM   40  F2  UNL     1     -84.894 161.343 -10.200  1.00  0.00    -0.168 F 
HETATM   41  F3  UNL     1     -84.628 163.480 -10.753  1.00  0.00    -0.168 F 
ENDBRANCH  37  38
BRANCH  37  42
HETATM   42  C24 UNL     1     -87.667 163.607 -10.767  1.00  0.00     0.422 C 
HETATM   43  F4  UNL     1     -87.013 164.813 -10.730  1.00  0.00    -0.168 F 
HETATM   44  F5  UNL     1     -88.184 163.346  -9.521  1.00  0.00    -0.168 F 
HETATM   45  F6  UNL     1     -88.651 163.707 -11.731  1.00  0.00    -0.168 F 
ENDBRANCH  37  42
ENDBRANCH  36  37
ENDBRANCH  24  36
ENDBRANCH  13  14
ENDBRANCH  11  13
ENDBRANCH   5  11
TORSDOF 13
ENDMDL
