MODEL 1
REMARK VINA RESULT: -5.454053350      0.000      0.000
REMARK  1 active torsions:
REMARK  status: ('A' for Active; 'I' for Inactive)
REMARK    1  A    between atoms: C3_3  and  C4_4 
ROOT
HETATM    1  C1  UNL     1      31.043  -3.531 -11.002  1.00  0.00     0.012 C 
HETATM    2  C2  UNL     1      30.224  -4.244 -10.478  1.00  0.00    -0.110 C 
HETATM    3  C3  UNL     1      29.232  -5.137  -9.829  1.00  0.00     0.171 C 
ENDROOT
BRANCH   3   4
HETATM    4  C4  UNL     1      28.746  -4.476  -8.610  1.00  0.00     0.109 A 
HETATM    5  N1  UNL     1      27.563  -4.659  -8.032  1.00  0.00    -0.320 N 
HETATM    6  C5  UNL     1      27.509  -3.872  -6.945  1.00  0.00     0.192 A 
ATOM      7  H1  UNL     1      26.828  -5.286  -8.357  1.00  0.00     0.169 HD
HETATM    8  S1  UNL     1      26.285  -3.702  -5.868  1.00  0.00    -0.039 SA
HETATM    9  N2  UNL     1      28.671  -3.203  -6.861  1.00  0.00    -0.275 N 
HETATM   10  N3  UNL     1      29.425  -3.585  -7.894  1.00  0.00    -0.286 N 
ATOM     11  H2  UNL     1      28.930  -2.529  -6.141  1.00  0.00     0.189 HD
ATOM     12  H3  UNL     1      30.365  -3.248  -8.100  1.00  0.00     0.188 HD
ENDBRANCH   3   4
TORSDOF 1
ENDMDL
MODEL 2
REMARK VINA RESULT: -5.072287057      0.961      1.052
REMARK  1 active torsions:
REMARK  status: ('A' for Active; 'I' for Inactive)
REMARK    1  A    between atoms: C3_3  and  C4_4 
ROOT
HETATM    1  C1  UNL     1      30.379  -2.934 -10.192  1.00  0.00     0.012 C 
HETATM    2  C2  UNL     1      29.655  -3.767  -9.708  1.00  0.00    -0.110 C 
HETATM    3  C3  UNL     1      28.781  -4.805  -9.108  1.00  0.00     0.171 C 
ENDROOT
BRANCH   3   4
HETATM    4  C4  UNL     1      28.152  -4.240  -7.906  1.00  0.00     0.109 A 
HETATM    5  N1  UNL     1      27.105  -4.736  -7.257  1.00  0.00    -0.320 N 
HETATM    6  C5  UNL     1      26.842  -3.927  -6.218  1.00  0.00     0.192 A 
ATOM      7  H1  UNL     1      26.592  -5.582  -7.504  1.00  0.00     0.169 HD
HETATM    8  S1  UNL     1      25.661  -4.066  -5.089  1.00  0.00    -0.039 SA
HETATM    9  N2  UNL     1      27.740  -2.928  -6.235  1.00  0.00    -0.275 N 
HETATM   10  N3  UNL     1      28.541  -3.132  -7.282  1.00  0.00    -0.286 N 
ATOM     11  H2  UNL     1      27.797  -2.156  -5.571  1.00  0.00     0.189 HD
ATOM     12  H3  UNL     1      29.322  -2.538  -7.557  1.00  0.00     0.188 HD
ENDBRANCH   3   4
TORSDOF 1
ENDMDL
MODEL 3
REMARK VINA RESULT: -5.005187401      3.659      4.773
REMARK  1 active torsions:
REMARK  status: ('A' for Active; 'I' for Inactive)
REMARK    1  A    between atoms: C3_3  and  C4_4 
ROOT
HETATM    1  C1  UNL     1      27.993  -3.938  -8.001  1.00  0.00     0.012 C 
HETATM    2  C2  UNL     1      28.502  -4.664  -8.818  1.00  0.00    -0.110 C 
HETATM    3  C3  UNL     1      29.110  -5.559  -9.833  1.00  0.00     0.171 C 
ENDROOT
BRANCH   3   4
HETATM    4  C4  UNL     1      30.091  -4.784 -10.604  1.00  0.00     0.109 A 
HETATM    5  N1  UNL     1      30.398  -3.503 -10.427  1.00  0.00    -0.320 N 
HETATM    6  C5  UNL     1      31.335  -3.175 -11.331  1.00  0.00     0.192 A 
ATOM      7  H1  UNL     1      29.994  -2.881  -9.728  1.00  0.00     0.169 HD
HETATM    8  S1  UNL     1      32.071  -1.728 -11.560  1.00  0.00    -0.039 SA
HETATM    9  N2  UNL     1      31.601  -4.268 -12.066  1.00  0.00    -0.275 N 
HETATM   10  N3  UNL     1      30.826  -5.253 -11.608  1.00  0.00    -0.286 N 
ATOM     11  H2  UNL     1      32.271  -4.333 -12.832  1.00  0.00     0.189 HD
ATOM     12  H3  UNL     1      30.802  -6.207 -11.967  1.00  0.00     0.188 HD
ENDBRANCH   3   4
TORSDOF 1
ENDMDL
MODEL 4
REMARK VINA RESULT: -4.935409902      3.794      4.881
REMARK  1 active torsions:
REMARK  status: ('A' for Active; 'I' for Inactive)
REMARK    1  A    between atoms: C3_3  and  C4_4 
ROOT
HETATM    1  C1  UNL     1      27.886  -3.894  -7.744  1.00  0.00     0.012 C 
HETATM    2  C2  UNL     1      28.370  -4.612  -8.583  1.00  0.00    -0.110 C 
HETATM    3  C3  UNL     1      28.947  -5.497  -9.626  1.00  0.00     0.171 C 
ENDROOT
BRANCH   3   4
HETATM    4  C4  UNL     1      29.921  -4.719 -10.403  1.00  0.00     0.109 A 
HETATM    5  N1  UNL     1      30.662  -5.167 -11.411  1.00  0.00    -0.320 N 
HETATM    6  C5  UNL     1      31.421  -4.149 -11.849  1.00  0.00     0.192 A 
ATOM      7  H1  UNL     1      30.655  -6.115 -11.786  1.00  0.00     0.169 HD
HETATM    8  S1  UNL     1      32.515  -4.143 -13.070  1.00  0.00    -0.039 SA
HETATM    9  N2  UNL     1      31.138  -3.071 -11.099  1.00  0.00    -0.275 N 
HETATM   10  N3  UNL     1      30.212  -3.436 -10.211  1.00  0.00    -0.286 N 
ATOM     11  H2  UNL     1      31.554  -2.144 -11.192  1.00  0.00     0.189 HD
ATOM     12  H3  UNL     1      29.797  -2.832  -9.502  1.00  0.00     0.188 HD
ENDBRANCH   3   4
TORSDOF 1
ENDMDL
MODEL 5
REMARK VINA RESULT: -4.786752816      0.977      1.557
REMARK  1 active torsions:
REMARK  status: ('A' for Active; 'I' for Inactive)
REMARK    1  A    between atoms: C3_3  and  C4_4 
ROOT
HETATM    1  C1  UNL     1      30.758  -4.077 -10.963  1.00  0.00     0.012 C 
HETATM    2  C2  UNL     1      30.632  -3.700  -9.824  1.00  0.00    -0.110 C 
HETATM    3  C3  UNL     1      30.477  -3.217  -8.430  1.00  0.00     0.171 C 
ENDROOT
BRANCH   3   4
HETATM    4  C4  UNL     1      29.161  -3.646  -7.937  1.00  0.00     0.109 A 
HETATM    5  N1  UNL     1      28.530  -3.177  -6.866  1.00  0.00    -0.320 N 
HETATM    6  C5  UNL     1      27.360  -3.828  -6.759  1.00  0.00     0.192 A 
ATOM      7  H1  UNL     1      28.873  -2.450  -6.238  1.00  0.00     0.169 HD
HETATM    8  S1  UNL     1      26.191  -3.646  -5.624  1.00  0.00    -0.039 SA
HETATM    9  N2  UNL     1      27.280  -4.702  -7.776  1.00  0.00    -0.275 N 
HETATM   10  N3  UNL     1      28.397  -4.581  -8.494  1.00  0.00    -0.286 N 
ATOM     11  H2  UNL     1      26.507  -5.341  -7.963  1.00  0.00     0.189 HD
ATOM     12  H3  UNL     1      28.627  -5.115  -9.331  1.00  0.00     0.188 HD
ENDBRANCH   3   4
TORSDOF 1
ENDMDL
