MODEL 1
REMARK VINA RESULT: -5.050867941      0.000      0.000
REMARK  2 active torsions:
REMARK  status: ('A' for Active; 'I' for Inactive)
REMARK    1  A    between atoms: C2_2  and  C3_3 
REMARK    2  A    between atoms: C6_8  and  C7_9 
ROOT
HETATM    1  C3  UNL     1      29.115  -4.143  -9.377  1.00  0.00     0.102 C 
HETATM    2  C4  UNL     1      29.534  -5.291 -10.180  1.00  0.00     0.014 C 
HETATM    3  C5  UNL     1      30.732  -5.283 -10.730  1.00  0.00     0.083 C 
HETATM    4  N1  UNL     1      31.548  -4.150 -10.508  1.00  0.00    -0.379 N 
ATOM      5  H1  UNL     1      32.240  -3.877 -11.206  1.00  0.00     0.161 HD
HETATM    6  C6  UNL     1      31.407  -3.389  -9.310  1.00  0.00     0.176 C 
HETATM    7  N2  UNL     1      30.130  -3.434  -8.705  1.00  0.00    -0.394 N 
ATOM      8  H2  UNL     1      29.951  -2.969  -7.814  1.00  0.00     0.155 HD
ENDROOT
BRANCH   1   9
HETATM    9  C2  UNL     1      27.992  -4.609  -8.448  1.00  0.00     0.024 C 
HETATM   10  C1  UNL     1      27.850  -3.582  -7.329  1.00  0.00     0.007 C 
ENDBRANCH   1   9
BRANCH   6  11
HETATM   11  C7  UNL     1      31.692  -1.925  -9.669  1.00  0.00     0.042 C 
HETATM   12  C8  UNL     1      31.708  -1.706 -11.150  1.00  0.00     0.009 C 
ENDBRANCH   6  11
TORSDOF 2
ENDMDL
MODEL 2
REMARK VINA RESULT: -4.970473467      1.257      3.845
REMARK  2 active torsions:
REMARK  status: ('A' for Active; 'I' for Inactive)
REMARK    1  A    between atoms: C2_2  and  C3_3 
REMARK    2  A    between atoms: C6_8  and  C7_9 
ROOT
HETATM    1  C3  UNL     1      30.333  -3.698  -9.805  1.00  0.00     0.102 C 
HETATM    2  C4  UNL     1      30.036  -5.005 -10.392  1.00  0.00     0.014 C 
HETATM    3  C5  UNL     1      29.055  -5.724  -9.883  1.00  0.00     0.083 C 
HETATM    4  N1  UNL     1      28.343  -5.182  -8.788  1.00  0.00    -0.379 N 
ATOM      5  H1  UNL     1      27.916  -5.804  -8.101  1.00  0.00     0.161 HD
HETATM    6  C6  UNL     1      28.220  -3.769  -8.643  1.00  0.00     0.176 C 
HETATM    7  N2  UNL     1      29.255  -3.002  -9.224  1.00  0.00    -0.394 N 
ATOM      8  H2  UNL     1      29.223  -1.982  -9.222  1.00  0.00     0.155 HD
ENDROOT
BRANCH   1   9
HETATM    9  C2  UNL     1      31.083  -2.877 -10.857  1.00  0.00     0.024 C 
HETATM   10  C1  UNL     1      31.872  -1.791 -10.130  1.00  0.00     0.007 C 
ENDBRANCH   1   9
BRANCH   6  11
HETATM   11  C7  UNL     1      28.218  -3.469  -7.137  1.00  0.00     0.042 C 
HETATM   12  C8  UNL     1      26.911  -3.825  -6.498  1.00  0.00     0.009 C 
ENDBRANCH   6  11
TORSDOF 2
ENDMDL
MODEL 3
REMARK VINA RESULT: -4.882271654      0.910      1.184
REMARK  2 active torsions:
REMARK  status: ('A' for Active; 'I' for Inactive)
REMARK    1  A    between atoms: C2_2  and  C3_3 
REMARK    2  A    between atoms: C6_8  and  C7_9 
ROOT
HETATM    1  C3  UNL     1      29.257  -3.520  -8.710  1.00  0.00     0.102 C 
HETATM    2  C4  UNL     1      28.893  -4.857  -9.178  1.00  0.00     0.014 C 
HETATM    3  C5  UNL     1      29.493  -5.345 -10.246  1.00  0.00     0.083 C 
HETATM    4  N1  UNL     1      30.463  -4.536 -10.881  1.00  0.00    -0.379 N 
ATOM      5  H1  UNL     1      30.627  -4.630 -11.883  1.00  0.00     0.161 HD
HETATM    6  C6  UNL     1      31.211  -3.587 -10.124  1.00  0.00     0.176 C 
HETATM    7  N2  UNL     1      30.577  -3.097  -8.960  1.00  0.00    -0.394 N 
ATOM      8  H2  UNL     1      31.058  -2.460  -8.323  1.00  0.00     0.155 HD
ENDROOT
BRANCH   1   9
HETATM    9  C2  UNL     1      28.862  -3.420  -7.235  1.00  0.00     0.024 C 
HETATM   10  C1  UNL     1      27.415  -3.887  -7.104  1.00  0.00     0.007 C 
ENDBRANCH   1   9
BRANCH   6  11
HETATM   11  C7  UNL     1      31.475  -2.385 -11.041  1.00  0.00     0.042 C 
HETATM   12  C8  UNL     1      32.131  -1.256 -10.309  1.00  0.00     0.009 C 
ENDBRANCH   6  11
TORSDOF 2
ENDMDL
MODEL 4
REMARK VINA RESULT: -4.881253507      2.229      4.507
REMARK  2 active torsions:
REMARK  status: ('A' for Active; 'I' for Inactive)
REMARK    1  A    between atoms: C2_2  and  C3_3 
REMARK    2  A    between atoms: C6_8  and  C7_9 
ROOT
HETATM    1  C3  UNL     1      28.767  -4.324  -9.071  1.00  0.00     0.102 C 
HETATM    2  C4  UNL     1      30.035  -3.712  -8.675  1.00  0.00     0.014 C 
HETATM    3  C5  UNL     1      30.098  -3.055  -7.533  1.00  0.00     0.083 C 
HETATM    4  N1  UNL     1      28.922  -2.983  -6.753  1.00  0.00    -0.379 N 
ATOM      5  H1  UNL     1      28.767  -2.182  -6.140  1.00  0.00     0.161 HD
HETATM    6  C6  UNL     1      27.952  -4.026  -6.819  1.00  0.00     0.176 C 
HETATM    7  N2  UNL     1      27.916  -4.750  -8.033  1.00  0.00    -0.394 N 
ATOM      8  H2  UNL     1      27.296  -5.552  -8.151  1.00  0.00     0.155 HD
ENDROOT
BRANCH   1   9
HETATM    9  C2  UNL     1      29.080  -5.428 -10.084  1.00  0.00     0.024 C 
HETATM   10  C1  UNL     1      30.335  -5.021 -10.849  1.00  0.00     0.007 C 
ENDBRANCH   1   9
BRANCH   6  11
HETATM   11  C7  UNL     1      26.574  -3.374  -6.635  1.00  0.00     0.042 C 
HETATM   12  C8  UNL     1      25.881  -3.871  -5.405  1.00  0.00     0.009 C 
ENDBRANCH   6  11
TORSDOF 2
ENDMDL
MODEL 5
REMARK VINA RESULT: -4.835512831      1.091      1.353
REMARK  2 active torsions:
REMARK  status: ('A' for Active; 'I' for Inactive)
REMARK    1  A    between atoms: C2_2  and  C3_3 
REMARK    2  A    between atoms: C6_8  and  C7_9 
ROOT
HETATM    1  C3  UNL     1      29.780  -3.333  -9.635  1.00  0.00     0.102 C 
HETATM    2  C4  UNL     1      29.831  -4.624 -10.322  1.00  0.00     0.014 C 
HETATM    3  C5  UNL     1      30.743  -4.815 -11.256  1.00  0.00     0.083 C 
HETATM    4  N1  UNL     1      31.625  -3.748 -11.539  1.00  0.00    -0.379 N 
ATOM      5  H1  UNL     1      32.022  -3.651 -12.474  1.00  0.00     0.161 HD
HETATM    6  C6  UNL     1      31.963  -2.808 -10.521  1.00  0.00     0.176 C 
HETATM    7  N2  UNL     1      30.997  -2.636  -9.503  1.00  0.00    -0.394 N 
ATOM      8  H2  UNL     1      31.175  -2.029  -8.702  1.00  0.00     0.155 HD
ENDROOT
BRANCH   1   9
HETATM    9  C2  UNL     1      29.060  -3.544  -8.302  1.00  0.00     0.024 C 
HETATM   10  C1  UNL     1      28.031  -4.655  -8.494  1.00  0.00     0.007 C 
ENDBRANCH   1   9
BRANCH   6  11
HETATM   11  C7  UNL     1      32.150  -1.448 -11.208  1.00  0.00     0.042 C 
HETATM   12  C8  UNL     1      32.265  -0.332 -10.216  1.00  0.00     0.009 C 
ENDBRANCH   6  11
TORSDOF 2
ENDMDL
