MODEL 1
REMARK VINA RESULT: -5.272076298      0.000      0.000
REMARK  2 active torsions:
REMARK  status: ('A' for Active; 'I' for Inactive)
REMARK    1  A    between atoms: C3_3  and  C4_4 
REMARK    2  A    between atoms: C7_10  and  N2_11 
ROOT
HETATM    1  C1  UNL     1      30.265  -2.801  -7.135  1.00  0.00     0.055 C 
HETATM    2  C2  UNL     1      29.208  -3.531  -7.891  1.00  0.00     0.016 A 
HETATM    3  C3  UNL     1      29.508  -4.176  -9.095  1.00  0.00     0.046 A 
HETATM    4  N1  UNL     1      28.365  -4.836  -9.418  1.00  0.00    -0.262 N 
ATOM      5  H1  UNL     1      28.232  -5.417 -10.246  1.00  0.00     0.194 HD
HETATM    6  O1  UNL     1      27.471  -4.612  -8.508  1.00  0.00    -0.220 OA
HETATM    7  C7  UNL     1      27.938  -3.816  -7.551  1.00  0.00     0.172 A 
ENDROOT
BRANCH   3   8
HETATM    8  C4  UNL     1      30.757  -4.140  -9.852  1.00  0.00     0.030 C 
HETATM    9  C5  UNL     1      30.581  -5.107 -11.080  1.00  0.00     0.016 C 
HETATM   10  C6  UNL     1      30.898  -2.803 -10.655  1.00  0.00     0.016 C 
ENDBRANCH   3   8
BRANCH   7  11
HETATM   11  N2  UNL     1      27.280  -3.412  -6.491  1.00  0.00    -0.378 N 
ATOM     12  H22 UNL     1      27.578  -3.518  -5.521  1.00  0.00     0.158 HD
ATOM     13  H21 UNL     1      26.384  -2.925  -6.461  1.00  0.00     0.158 HD
ENDBRANCH   7  11
TORSDOF 2
ENDMDL
MODEL 2
REMARK VINA RESULT: -5.143911559      2.499      4.191
REMARK  2 active torsions:
REMARK  status: ('A' for Active; 'I' for Inactive)
REMARK    1  A    between atoms: C3_3  and  C4_4 
REMARK    2  A    between atoms: C7_10  and  N2_11 
ROOT
HETATM    1  C1  UNL     1      31.275  -1.959 -10.685  1.00  0.00     0.055 C 
HETATM    2  C2  UNL     1      30.996  -3.406 -10.907  1.00  0.00     0.016 A 
HETATM    3  C3  UNL     1      29.970  -4.052 -10.209  1.00  0.00     0.046 A 
HETATM    4  N1  UNL     1      29.919  -5.293 -10.758  1.00  0.00    -0.262 N 
ATOM      5  H1  UNL     1      29.274  -6.034 -10.484  1.00  0.00     0.194 HD
HETATM    6  O1  UNL     1      30.817  -5.388 -11.687  1.00  0.00    -0.220 OA
HETATM    7  C7  UNL     1      31.505  -4.257 -11.817  1.00  0.00     0.172 A 
ENDROOT
BRANCH   3   8
HETATM    8  C4  UNL     1      29.149  -3.526  -9.122  1.00  0.00     0.030 C 
HETATM    9  C5  UNL     1      28.200  -4.690  -8.656  1.00  0.00     0.016 C 
HETATM   10  C6  UNL     1      29.977  -3.387  -7.799  1.00  0.00     0.016 C 
ENDBRANCH   3   8
BRANCH   7  11
HETATM   11  N2  UNL     1      32.473  -4.035 -12.672  1.00  0.00    -0.378 N 
ATOM     12  H22 UNL     1      33.200  -3.324 -12.586  1.00  0.00     0.158 HD
ATOM     13  H21 UNL     1      32.663  -4.530 -13.543  1.00  0.00     0.158 HD
ENDBRANCH   7  11
TORSDOF 2
ENDMDL
MODEL 3
REMARK VINA RESULT: -4.961100753      1.991      2.662
REMARK  2 active torsions:
REMARK  status: ('A' for Active; 'I' for Inactive)
REMARK    1  A    between atoms: C3_3  and  C4_4 
REMARK    2  A    between atoms: C7_10  and  N2_11 
ROOT
HETATM    1  C1  UNL     1      28.789  -5.480  -9.510  1.00  0.00     0.055 C 
HETATM    2  C2  UNL     1      29.670  -4.305  -9.258  1.00  0.00     0.016 A 
HETATM    3  C3  UNL     1      30.616  -3.904 -10.207  1.00  0.00     0.046 A 
HETATM    4  N1  UNL     1      31.123  -2.746  -9.711  1.00  0.00    -0.262 N 
ATOM      5  H1  UNL     1      31.843  -2.177 -10.156  1.00  0.00     0.194 HD
HETATM    6  O1  UNL     1      30.546  -2.476  -8.582  1.00  0.00    -0.220 OA
HETATM    7  C7  UNL     1      29.648  -3.401  -8.260  1.00  0.00     0.172 A 
ENDROOT
BRANCH   3   8
HETATM    8  C4  UNL     1      30.995  -4.581 -11.444  1.00  0.00     0.030 C 
HETATM    9  C5  UNL     1      31.778  -3.537 -12.321  1.00  0.00     0.016 C 
HETATM   10  C6  UNL     1      32.175  -5.584 -11.207  1.00  0.00     0.016 C 
ENDBRANCH   3   8
BRANCH   7  11
HETATM   11  N2  UNL     1      28.896  -3.409  -7.187  1.00  0.00    -0.378 N 
ATOM     12  H22 UNL     1      27.954  -3.796  -7.114  1.00  0.00     0.158 HD
ATOM     13  H21 UNL     1      29.124  -3.045  -6.262  1.00  0.00     0.158 HD
ENDBRANCH   7  11
TORSDOF 2
ENDMDL
MODEL 4
REMARK VINA RESULT: -4.931974087      1.666      2.308
REMARK  2 active torsions:
REMARK  status: ('A' for Active; 'I' for Inactive)
REMARK    1  A    between atoms: C3_3  and  C4_4 
REMARK    2  A    between atoms: C7_10  and  N2_11 
ROOT
HETATM    1  C1  UNL     1      28.398  -5.256  -9.496  1.00  0.00     0.055 C 
HETATM    2  C2  UNL     1      28.890  -4.296  -8.468  1.00  0.00     0.016 A 
HETATM    3  C3  UNL     1      30.061  -3.560  -8.681  1.00  0.00     0.046 A 
HETATM    4  N1  UNL     1      30.121  -2.709  -7.624  1.00  0.00    -0.262 N 
ATOM      5  H1  UNL     1      30.855  -2.019  -7.462  1.00  0.00     0.194 HD
HETATM    6  O1  UNL     1      29.097  -2.910  -6.855  1.00  0.00    -0.220 OA
HETATM    7  C7  UNL     1      28.314  -3.873  -7.328  1.00  0.00     0.172 A 
ENDROOT
BRANCH   3   8
HETATM    8  C4  UNL     1      31.018  -3.684  -9.776  1.00  0.00     0.030 C 
HETATM    9  C5  UNL     1      31.417  -2.226 -10.210  1.00  0.00     0.016 C 
HETATM   10  C6  UNL     1      32.423  -4.141  -9.256  1.00  0.00     0.016 C 
ENDBRANCH   3   8
BRANCH   7  11
HETATM   11  N2  UNL     1      27.202  -4.304  -6.783  1.00  0.00    -0.378 N 
ATOM     12  H22 UNL     1      26.255  -4.046  -7.064  1.00  0.00     0.158 HD
ATOM     13  H21 UNL     1      27.098  -4.960  -6.009  1.00  0.00     0.158 HD
ENDBRANCH   7  11
TORSDOF 2
ENDMDL
MODEL 5
REMARK VINA RESULT: -4.734453348      1.460      1.736
REMARK  2 active torsions:
REMARK  status: ('A' for Active; 'I' for Inactive)
REMARK    1  A    between atoms: C3_3  and  C4_4 
REMARK    2  A    between atoms: C7_10  and  N2_11 
ROOT
HETATM    1  C1  UNL     1      30.181  -2.964  -7.644  1.00  0.00     0.055 C 
HETATM    2  C2  UNL     1      29.719  -3.859  -8.742  1.00  0.00     0.016 A 
HETATM    3  C3  UNL     1      30.517  -4.079  -9.870  1.00  0.00     0.046 A 
HETATM    4  N1  UNL     1      29.853  -5.034 -10.573  1.00  0.00    -0.262 N 
ATOM      5  H1  UNL     1      30.160  -5.435 -11.459  1.00  0.00     0.194 HD
HETATM    6  O1  UNL     1      28.770  -5.355  -9.939  1.00  0.00    -0.220 OA
HETATM    7  C7  UNL     1      28.641  -4.663  -8.812  1.00  0.00     0.172 A 
ENDROOT
BRANCH   3   8
HETATM    8  C4  UNL     1      31.771  -3.422 -10.229  1.00  0.00     0.030 C 
HETATM    9  C5  UNL     1      32.937  -4.385  -9.797  1.00  0.00     0.016 C 
HETATM   10  C6  UNL     1      32.018  -3.473 -11.775  1.00  0.00     0.016 C 
ENDBRANCH   3   8
BRANCH   7  11
HETATM   11  N2  UNL     1      27.659  -4.764  -7.949  1.00  0.00    -0.378 N 
ATOM     12  H22 UNL     1      27.097  -3.994  -7.583  1.00  0.00     0.158 HD
ATOM     13  H21 UNL     1      27.293  -5.612  -7.516  1.00  0.00     0.158 HD
ENDBRANCH   7  11
TORSDOF 2
ENDMDL
