MODEL 1
REMARK VINA RESULT: -5.247332812      0.000      0.000
REMARK  2 active torsions:
REMARK  status: ('A' for Active; 'I' for Inactive)
REMARK    1  A    between atoms: C4_4  and  C5_5 
REMARK    2  A    between atoms: C8_10  and  N2_11 
ROOT
HETATM    1  C1  UNL     1     -32.372  -0.812  11.244  1.00  0.00     0.068 C 
HETATM    2  C2  UNL     1     -31.610  -2.083  11.119  1.00  0.00     0.024 A 
HETATM    3  C3  UNL     1     -30.627  -2.275  10.170  1.00  0.00     0.051 A 
HETATM    4  C4  UNL     1     -29.915  -3.448  10.045  1.00  0.00     0.032 A 
HETATM    5  N1  UNL     1     -30.199  -4.441  10.889  1.00  0.00    -0.195 N 
ATOM      6  H1  UNL     1     -29.690  -5.322  10.823  1.00  0.00     0.184 HD
HETATM    7  C8  UNL     1     -31.159  -4.289  11.836  1.00  0.00     0.676 A 
HETATM    8  N3  UNL     1     -31.847  -3.133  11.945  1.00  0.00    -0.196 N 
ATOM      9  H3  UNL     1     -32.564  -3.047  12.666  1.00  0.00     0.184 HD
ENDROOT
BRANCH   4  10
HETATM   10  C5  UNL     1     -28.873  -3.580   8.999  1.00  0.00     0.028 C 
HETATM   11  C6  UNL     1     -28.412  -5.017   8.937  1.00  0.00     0.016 C 
HETATM   12  C7  UNL     1     -29.482  -3.236   7.654  1.00  0.00     0.016 C 
ENDBRANCH   4  10
BRANCH   7  13
HETATM   13  N2  UNL     1     -31.378  -5.300  12.621  1.00  0.00    -0.234 N 
ATOM     14  H22 UNL     1     -30.688  -6.038  12.760  1.00  0.00     0.174 HD
ATOM     15  H21 UNL     1     -32.278  -5.327  13.100  1.00  0.00     0.174 HD
ENDBRANCH   7  13
TORSDOF 2
ENDMDL
MODEL 2
REMARK VINA RESULT: -5.158225523      1.406      2.707
REMARK  2 active torsions:
REMARK  status: ('A' for Active; 'I' for Inactive)
REMARK    1  A    between atoms: C4_4  and  C5_5 
REMARK    2  A    between atoms: C8_10  and  N2_11 
ROOT
HETATM    1  C1  UNL     1     -31.932  -4.803  13.312  1.00  0.00     0.068 C 
HETATM    2  C2  UNL     1     -31.473  -3.922  12.206  1.00  0.00     0.024 A 
HETATM    3  C3  UNL     1     -30.678  -4.372  11.173  1.00  0.00     0.051 A 
HETATM    4  C4  UNL     1     -30.248  -3.564  10.143  1.00  0.00     0.032 A 
HETATM    5  N1  UNL     1     -30.625  -2.284  10.157  1.00  0.00    -0.195 N 
ATOM      6  H1  UNL     1     -30.323  -1.660   9.409  1.00  0.00     0.184 HD
HETATM    7  C8  UNL     1     -31.408  -1.806  11.157  1.00  0.00     0.676 A 
HETATM    8  N3  UNL     1     -31.820  -2.611  12.158  1.00  0.00    -0.196 N 
ATOM      9  H3  UNL     1     -32.407  -2.223  12.897  1.00  0.00     0.184 HD
ENDROOT
BRANCH   4  10
HETATM   10  C5  UNL     1     -29.394  -4.120   9.066  1.00  0.00     0.028 C 
HETATM   11  C6  UNL     1     -28.213  -3.204   8.847  1.00  0.00     0.016 C 
HETATM   12  C7  UNL     1     -28.855  -5.464   9.514  1.00  0.00     0.016 C 
ENDBRANCH   4  10
BRANCH   7  13
HETATM   13  N2  UNL     1     -31.733  -0.550  11.100  1.00  0.00    -0.234 N 
ATOM     14  H22 UNL     1     -31.153   0.140  10.624  1.00  0.00     0.174 HD
ATOM     15  H21 UNL     1     -32.604  -0.277  11.555  1.00  0.00     0.174 HD
ENDBRANCH   7  13
TORSDOF 2
ENDMDL
MODEL 3
REMARK VINA RESULT: -5.055917693      0.766      1.208
REMARK  2 active torsions:
REMARK  status: ('A' for Active; 'I' for Inactive)
REMARK    1  A    between atoms: C4_4  and  C5_5 
REMARK    2  A    between atoms: C8_10  and  N2_11 
ROOT
HETATM    1  C1  UNL     1     -31.811  -0.393  11.374  1.00  0.00     0.068 C 
HETATM    2  C2  UNL     1     -31.420  -1.827  11.332  1.00  0.00     0.024 A 
HETATM    3  C3  UNL     1     -30.663  -2.366  10.313  1.00  0.00     0.051 A 
HETATM    4  C4  UNL     1     -30.295  -3.693  10.264  1.00  0.00     0.032 A 
HETATM    5  N1  UNL     1     -30.697  -4.486  11.258  1.00  0.00    -0.195 N 
ATOM      6  H1  UNL     1     -30.442  -5.474  11.252  1.00  0.00     0.184 HD
HETATM    7  C8  UNL     1     -31.443  -3.992  12.278  1.00  0.00     0.676 A 
HETATM    8  N3  UNL     1     -31.795  -2.690  12.310  1.00  0.00    -0.196 N 
ATOM      9  H3  UNL     1     -32.357  -2.346  13.089  1.00  0.00     0.184 HD
ENDROOT
BRANCH   4  10
HETATM   10  C5  UNL     1     -29.478  -4.199   9.135  1.00  0.00     0.028 C 
HETATM   11  C6  UNL     1     -28.398  -3.193   8.814  1.00  0.00     0.016 C 
HETATM   12  C7  UNL     1     -28.795  -5.483   9.564  1.00  0.00     0.016 C 
ENDBRANCH   4  10
BRANCH   7  13
HETATM   13  N2  UNL     1     -31.796  -4.827  13.208  1.00  0.00    -0.234 N 
ATOM     14  H22 UNL     1     -31.447  -5.784  13.239  1.00  0.00     0.174 HD
ATOM     15  H21 UNL     1     -32.444  -4.482  13.917  1.00  0.00     0.174 HD
ENDBRANCH   7  13
TORSDOF 2
ENDMDL
MODEL 4
REMARK VINA RESULT: -5.039075791      1.385      2.495
REMARK  2 active torsions:
REMARK  status: ('A' for Active; 'I' for Inactive)
REMARK    1  A    between atoms: C4_4  and  C5_5 
REMARK    2  A    between atoms: C8_10  and  N2_11 
ROOT
HETATM    1  C1  UNL     1     -31.882  -4.627  13.015  1.00  0.00     0.068 C 
HETATM    2  C2  UNL     1     -31.533  -3.800  11.830  1.00  0.00     0.024 A 
HETATM    3  C3  UNL     1     -30.444  -4.068  11.025  1.00  0.00     0.051 A 
HETATM    4  C4  UNL     1     -30.111  -3.309   9.925  1.00  0.00     0.032 A 
HETATM    5  N1  UNL     1     -30.888  -2.264   9.632  1.00  0.00    -0.195 N 
ATOM      6  H1  UNL     1     -30.669  -1.682   8.824  1.00  0.00     0.184 HD
HETATM    7  C8  UNL     1     -31.968  -1.970  10.400  1.00  0.00     0.676 A 
HETATM    8  N3  UNL     1     -32.279  -2.724  11.474  1.00  0.00    -0.196 N 
ATOM      9  H3  UNL     1     -33.096  -2.478  12.033  1.00  0.00     0.184 HD
ENDROOT
BRANCH   4  10
HETATM   10  C5  UNL     1     -28.925  -3.659   9.107  1.00  0.00     0.028 C 
HETATM   11  C6  UNL     1     -28.697  -5.151   9.181  1.00  0.00     0.016 C 
HETATM   12  C7  UNL     1     -29.209  -3.311   7.660  1.00  0.00     0.016 C 
ENDBRANCH   4  10
BRANCH   7  13
HETATM   13  N2  UNL     1     -32.675  -0.938  10.050  1.00  0.00    -0.234 N 
ATOM     14  H22 UNL     1     -32.561  -0.483   9.145  1.00  0.00     0.174 HD
ATOM     15  H21 UNL     1     -33.358  -0.596  10.726  1.00  0.00     0.174 HD
ENDBRANCH   7  13
TORSDOF 2
ENDMDL
MODEL 5
REMARK VINA RESULT: -5.035943523      1.087      3.648
REMARK  2 active torsions:
REMARK  status: ('A' for Active; 'I' for Inactive)
REMARK    1  A    between atoms: C4_4  and  C5_5 
REMARK    2  A    between atoms: C8_10  and  N2_11 
ROOT
HETATM    1  C1  UNL     1     -28.822  -5.019   9.270  1.00  0.00     0.068 C 
HETATM    2  C2  UNL     1     -29.801  -4.473  10.247  1.00  0.00     0.024 A 
HETATM    3  C3  UNL     1     -30.196  -3.151  10.250  1.00  0.00     0.051 A 
HETATM    4  C4  UNL     1     -31.103  -2.634  11.150  1.00  0.00     0.032 A 
HETATM    5  N1  UNL     1     -31.618  -3.464  12.059  1.00  0.00    -0.195 N 
ATOM      6  H1  UNL     1     -32.291  -3.113  12.740  1.00  0.00     0.184 HD
HETATM    7  C8  UNL     1     -31.253  -4.771  12.087  1.00  0.00     0.676 A 
HETATM    8  N3  UNL     1     -30.364  -5.260  11.199  1.00  0.00    -0.196 N 
ATOM      9  H3  UNL     1     -30.108  -6.246  11.243  1.00  0.00     0.184 HD
ENDROOT
BRANCH   4  10
HETATM   10  C5  UNL     1     -31.479  -1.202  11.091  1.00  0.00     0.028 C 
HETATM   11  C6  UNL     1     -32.469  -0.995   9.968  1.00  0.00     0.016 C 
HETATM   12  C7  UNL     1     -32.171  -0.824  12.386  1.00  0.00     0.016 C 
ENDBRANCH   4  10
BRANCH   7  13
HETATM   13  N2  UNL     1     -31.797  -5.514  13.002  1.00  0.00    -0.234 N 
ATOM     14  H22 UNL     1     -31.399  -5.605  13.936  1.00  0.00     0.174 HD
ATOM     15  H21 UNL     1     -32.652  -6.010  12.747  1.00  0.00     0.174 HD
ENDBRANCH   7  13
TORSDOF 2
ENDMDL
