MODEL 1
REMARK VINA RESULT: -6.452950778      0.000      0.000
REMARK  2 active torsions:
REMARK  status: ('A' for Active; 'I' for Inactive)
REMARK    1  A    between atoms: N1_1  and  C1_5 
REMARK    2  A    between atoms: C1_5  and  C2_6 
ROOT
HETATM    1  C2  UNL     1     -28.667  -3.866   8.730  1.00  0.00    -0.031 A 
HETATM    2  C3  UNL     1     -28.569  -5.198   9.082  1.00  0.00     0.011 A 
HETATM    3  C4  UNL     1     -29.322  -5.668  10.123  1.00  0.00     0.032 A 
HETATM    4  C5  UNL     1     -30.181  -4.838  10.832  1.00  0.00     0.060 A 
HETATM    5  N2  UNL     1     -31.015  -5.036  11.875  1.00  0.00    -0.351 N 
ATOM      6  H2  UNL     1     -31.168  -5.920  12.361  1.00  0.00     0.166 HD
HETATM    7  C6  UNL     1     -31.610  -3.862  12.158  1.00  0.00     0.181 A 
HETATM    8  N3  UNL     1     -31.179  -2.904  11.320  1.00  0.00    -0.350 N 
ATOM      9  H3  UNL     1     -31.464  -1.925  11.309  1.00  0.00     0.166 HD
HETATM   10  C7  UNL     1     -30.290  -3.504  10.493  1.00  0.00     0.060 A 
HETATM   11  C8  UNL     1     -29.519  -3.039   9.433  1.00  0.00     0.040 A 
ENDROOT
BRANCH   1  12
HETATM   12  C1  UNL     1     -27.873  -3.282   7.601  1.00  0.00     0.268 C 
BRANCH  12  13
HETATM   13  N1  UNL     1     -27.196  -4.340   6.866  1.00  0.00    -0.075 N 
ATOM     14  H13 UNL     1     -26.362  -4.669   7.352  1.00  0.00     0.274 HD
ATOM     15  H12 UNL     1     -27.728  -5.210   6.874  1.00  0.00     0.274 HD
ATOM     16  H11 UNL     1     -26.986  -4.029   5.918  1.00  0.00     0.274 HD
ENDBRANCH  12  13
ENDBRANCH   1  12
TORSDOF 2
ENDMDL
MODEL 2
REMARK VINA RESULT: -6.126022262      0.967      1.022
REMARK  2 active torsions:
REMARK  status: ('A' for Active; 'I' for Inactive)
REMARK    1  A    between atoms: N1_1  and  C1_5 
REMARK    2  A    between atoms: C1_5  and  C2_6 
ROOT
HETATM    1  C2  UNL     1     -28.713  -4.234   8.886  1.00  0.00    -0.031 A 
HETATM    2  C3  UNL     1     -29.013  -5.363   9.625  1.00  0.00     0.011 A 
HETATM    3  C4  UNL     1     -29.920  -5.269  10.643  1.00  0.00     0.032 A 
HETATM    4  C5  UNL     1     -30.546  -4.068  10.951  1.00  0.00     0.060 A 
HETATM    5  N2  UNL     1     -31.456  -3.706  11.880  1.00  0.00    -0.351 N 
ATOM      6  H2  UNL     1     -31.877  -4.318  12.579  1.00  0.00     0.166 HD
HETATM    7  C6  UNL     1     -31.710  -2.393  11.721  1.00  0.00     0.181 A 
HETATM    8  N3  UNL     1     -30.984  -1.895  10.707  1.00  0.00    -0.350 N 
ATOM      9  H3  UNL     1     -30.981  -0.932  10.369  1.00  0.00     0.166 HD
HETATM   10  C7  UNL     1     -30.258  -2.931  10.224  1.00  0.00     0.060 A 
HETATM   11  C8  UNL     1     -29.333  -3.039   9.191  1.00  0.00     0.040 A 
ENDROOT
BRANCH   1  12
HETATM   12  C1  UNL     1     -27.729  -4.261   7.756  1.00  0.00     0.268 C 
BRANCH  12  13
HETATM   13  N1  UNL     1     -27.967  -3.141   6.858  1.00  0.00    -0.075 N 
ATOM     14  H13 UNL     1     -28.884  -3.195   6.415  1.00  0.00     0.274 HD
ATOM     15  H12 UNL     1     -28.097  -2.266   7.365  1.00  0.00     0.274 HD
ATOM     16  H11 UNL     1     -27.215  -3.076   6.172  1.00  0.00     0.274 HD
ENDBRANCH  12  13
ENDBRANCH   1  12
TORSDOF 2
ENDMDL
MODEL 3
REMARK VINA RESULT: -5.904471545      1.426      4.520
REMARK  2 active torsions:
REMARK  status: ('A' for Active; 'I' for Inactive)
REMARK    1  A    between atoms: N1_1  and  C1_5 
REMARK    2  A    between atoms: C1_5  and  C2_6 
ROOT
HETATM    1  C2  UNL     1     -30.655  -4.354  10.623  1.00  0.00    -0.031 A 
HETATM    2  C3  UNL     1     -31.215  -3.301   9.926  1.00  0.00     0.011 A 
HETATM    3  C4  UNL     1     -30.597  -2.850   8.793  1.00  0.00     0.032 A 
HETATM    4  C5  UNL     1     -29.420  -3.425   8.328  1.00  0.00     0.060 A 
HETATM    5  N2  UNL     1     -28.623  -3.181   7.267  1.00  0.00    -0.351 N 
ATOM      6  H2  UNL     1     -28.769  -2.461   6.560  1.00  0.00     0.166 HD
HETATM    7  C6  UNL     1     -27.600  -4.056   7.308  1.00  0.00     0.181 A 
HETATM    8  N3  UNL     1     -27.718  -4.864   8.375  1.00  0.00    -0.350 N 
ATOM      9  H3  UNL     1     -27.085  -5.616   8.648  1.00  0.00     0.166 HD
HETATM   10  C7  UNL     1     -28.848  -4.477   9.014  1.00  0.00     0.060 A 
HETATM   11  C8  UNL     1     -29.486  -4.926  10.164  1.00  0.00     0.040 A 
ENDROOT
BRANCH   1  12
HETATM   12  C1  UNL     1     -31.277  -4.900  11.872  1.00  0.00     0.268 C 
BRANCH  12  13
HETATM   13  N1  UNL     1     -32.138  -6.030  11.550  1.00  0.00    -0.075 N 
ATOM     14  H13 UNL     1     -33.120  -5.823  11.730  1.00  0.00     0.274 HD
ATOM     15  H12 UNL     1     -32.199  -6.188  10.545  1.00  0.00     0.274 HD
ATOM     16  H11 UNL     1     -31.825  -6.862  12.049  1.00  0.00     0.274 HD
ENDBRANCH  12  13
ENDBRANCH   1  12
TORSDOF 2
ENDMDL
MODEL 4
REMARK VINA RESULT: -5.867994704      0.981      2.017
REMARK  2 active torsions:
REMARK  status: ('A' for Active; 'I' for Inactive)
REMARK    1  A    between atoms: N1_1  and  C1_5 
REMARK    2  A    between atoms: C1_5  and  C2_6 
ROOT
HETATM    1  C2  UNL     1     -29.120  -4.234   9.412  1.00  0.00    -0.031 A 
HETATM    2  C3  UNL     1     -29.548  -2.921   9.444  1.00  0.00     0.011 A 
HETATM    3  C4  UNL     1     -30.477  -2.548  10.375  1.00  0.00     0.032 A 
HETATM    4  C5  UNL     1     -31.000  -3.456  11.286  1.00  0.00     0.060 A 
HETATM    5  N2  UNL     1     -31.906  -3.357  12.283  1.00  0.00    -0.351 N 
ATOM      6  H2  UNL     1     -32.404  -2.511  12.558  1.00  0.00     0.166 HD
HETATM    7  C6  UNL     1     -32.033  -4.572  12.848  1.00  0.00     0.181 A 
HETATM    8  N3  UNL     1     -31.229  -5.460  12.239  1.00  0.00    -0.350 N 
ATOM      9  H3  UNL     1     -31.126  -6.449  12.463  1.00  0.00     0.166 HD
HETATM   10  C7  UNL     1     -30.584  -4.772  11.267  1.00  0.00     0.060 A 
HETATM   11  C8  UNL     1     -29.638  -5.139  10.315  1.00  0.00     0.040 A 
ENDROOT
BRANCH   1  12
HETATM   12  C1  UNL     1     -28.105  -4.715   8.420  1.00  0.00     0.268 C 
BRANCH  12  13
HETATM   13  N1  UNL     1     -28.069  -3.824   7.269  1.00  0.00    -0.075 N 
ATOM     14  H13 UNL     1     -28.162  -2.846   7.540  1.00  0.00     0.274 HD
ATOM     15  H12 UNL     1     -27.140  -3.777   6.852  1.00  0.00     0.274 HD
ATOM     16  H11 UNL     1     -28.778  -4.101   6.590  1.00  0.00     0.274 HD
ENDBRANCH  12  13
ENDBRANCH   1  12
TORSDOF 2
ENDMDL
MODEL 5
REMARK VINA RESULT: -5.853091203      1.027      1.027
REMARK  2 active torsions:
REMARK  status: ('A' for Active; 'I' for Inactive)
REMARK    1  A    between atoms: N1_1  and  C1_5 
REMARK    2  A    between atoms: C1_5  and  C2_6 
ROOT
HETATM    1  C2  UNL     1     -28.570  -3.886   8.338  1.00  0.00    -0.031 A 
HETATM    2  C3  UNL     1     -28.313  -5.023   9.081  1.00  0.00     0.011 A 
HETATM    3  C4  UNL     1     -29.264  -5.477   9.951  1.00  0.00     0.032 A 
HETATM    4  C5  UNL     1     -30.481  -4.824  10.106  1.00  0.00     0.060 A 
HETATM    5  N2  UNL     1     -31.567  -5.052  10.874  1.00  0.00    -0.351 N 
ATOM      6  H2  UNL     1     -31.684  -5.820  11.535  1.00  0.00     0.166 HD
HETATM    7  C6  UNL     1     -32.467  -4.085  10.615  1.00  0.00     0.181 A 
HETATM    8  N3  UNL     1     -31.988  -3.234   9.693  1.00  0.00    -0.350 N 
ATOM      9  H3  UNL     1     -32.459  -2.413   9.313  1.00  0.00     0.166 HD
HETATM   10  C7  UNL     1     -30.753  -3.688   9.372  1.00  0.00     0.060 A 
HETATM   11  C8  UNL     1     -29.777  -3.235   8.490  1.00  0.00     0.040 A 
ENDROOT
BRANCH   1  12
HETATM   12  C1  UNL     1     -27.575  -3.330   7.366  1.00  0.00     0.268 C 
BRANCH  12  13
HETATM   13  N1  UNL     1     -26.960  -4.410   6.607  1.00  0.00    -0.075 N 
ATOM     14  H13 UNL     1     -25.953  -4.282   6.510  1.00  0.00     0.274 HD
ATOM     15  H12 UNL     1     -26.950  -5.286   7.129  1.00  0.00     0.274 HD
ATOM     16  H11 UNL     1     -27.421  -4.510   5.702  1.00  0.00     0.274 HD
ENDBRANCH  12  13
ENDBRANCH   1  12
TORSDOF 2
ENDMDL
