MODEL 1
REMARK VINA RESULT: -5.423589394      0.000      0.000
REMARK  1 active torsions:
REMARK  status: ('A' for Active; 'I' for Inactive)
REMARK    1  A    between atoms: C3_5  and  C4_6 
ROOT
HETATM    1  C1  UNL     1     -30.122  -3.857   9.446  1.00  0.00     0.104 A 
HETATM    2  C2  UNL     1     -30.209  -3.126   8.280  1.00  0.00     0.105 A 
HETATM    3  N1  UNL     1     -29.210  -3.184   7.354  1.00  0.00    -0.362 N 
ATOM      4  H1  UNL     1     -29.285  -2.639   6.495  1.00  0.00     0.165 HD
HETATM    5  C3  UNL     1     -28.128  -3.951   7.562  1.00  0.00     0.077 A 
HETATM    6  C6  UNL     1     -28.056  -4.672   8.726  1.00  0.00     0.119 A 
HETATM    7  N4  UNL     1     -29.052  -4.620   9.656  1.00  0.00    -0.372 N 
ATOM      8  H4  UNL     1     -28.977  -5.166  10.514  1.00  0.00     0.164 HD
ENDROOT
BRANCH   5   9
HETATM    9  C4  UNL     1     -27.051  -4.025   6.586  1.00  0.00     0.092 A 
HETATM   10  C5  UNL     1     -26.120  -3.194   6.005  1.00  0.00     0.140 A 
HETATM   11  N2  UNL     1     -25.618  -4.199   5.264  1.00  0.00    -0.309 N 
HETATM   12  N3  UNL     1     -26.510  -5.000   5.819  1.00  0.00    -0.297 N 
ATOM     13  H2  UNL     1     -24.874  -4.299   4.574  1.00  0.00     0.186 HD
ATOM     14  H3  UNL     1     -26.716  -5.993   5.709  1.00  0.00     0.187 HD
ENDBRANCH   5   9
TORSDOF 1
ENDMDL
MODEL 2
REMARK VINA RESULT: -5.403993739      0.922      1.487
REMARK  1 active torsions:
REMARK  status: ('A' for Active; 'I' for Inactive)
REMARK    1  A    between atoms: C3_5  and  C4_6 
ROOT
HETATM    1  C1  UNL     1     -30.042  -4.183   9.645  1.00  0.00     0.104 A 
HETATM    2  C2  UNL     1     -29.032  -5.122   9.630  1.00  0.00     0.105 A 
HETATM    3  N1  UNL     1     -28.067  -5.081   8.668  1.00  0.00    -0.362 N 
ATOM      4  H1  UNL     1     -27.325  -5.781   8.666  1.00  0.00     0.165 HD
HETATM    5  C3  UNL     1     -28.084  -4.128   7.722  1.00  0.00     0.077 A 
HETATM    6  C6  UNL     1     -29.093  -3.201   7.750  1.00  0.00     0.119 A 
HETATM    7  N4  UNL     1     -30.062  -3.236   8.709  1.00  0.00    -0.372 N 
ATOM      8  H4  UNL     1     -30.803  -2.535   8.711  1.00  0.00     0.164 HD
ENDROOT
BRANCH   5   9
HETATM    9  C4  UNL     1     -27.062  -4.068   6.687  1.00  0.00     0.092 A 
HETATM   10  C5  UNL     1     -26.192  -3.150   6.141  1.00  0.00     0.140 A 
HETATM   11  N2  UNL     1     -25.702  -4.060   5.280  1.00  0.00    -0.309 N 
HETATM   12  N3  UNL     1     -26.534  -4.944   5.801  1.00  0.00    -0.297 N 
ATOM     13  H2  UNL     1     -24.995  -4.065   4.544  1.00  0.00     0.186 HD
ATOM     14  H3  UNL     1     -26.714  -5.929   5.606  1.00  0.00     0.187 HD
ENDBRANCH   5   9
TORSDOF 1
ENDMDL
MODEL 3
REMARK VINA RESULT: -5.064740104      1.860      2.673
REMARK  1 active torsions:
REMARK  status: ('A' for Active; 'I' for Inactive)
REMARK    1  A    between atoms: C3_5  and  C4_6 
ROOT
HETATM    1  C1  UNL     1     -31.293  -4.098  11.872  1.00  0.00     0.104 A 
HETATM    2  C2  UNL     1     -31.098  -2.952  11.130  1.00  0.00     0.105 A 
HETATM    3  N1  UNL     1     -30.239  -2.955  10.072  1.00  0.00    -0.362 N 
ATOM      4  H1  UNL     1     -30.103  -2.101   9.530  1.00  0.00     0.165 HD
HETATM    5  C3  UNL     1     -29.571  -4.070   9.735  1.00  0.00     0.077 A 
HETATM    6  C6  UNL     1     -29.775  -5.201  10.481  1.00  0.00     0.119 A 
HETATM    7  N4  UNL     1     -30.633  -5.206  11.542  1.00  0.00    -0.372 N 
ATOM      8  H4  UNL     1     -30.770  -6.060  12.082  1.00  0.00     0.164 HD
ENDROOT
BRANCH   5   9
HETATM    9  C4  UNL     1     -28.651  -4.091   8.607  1.00  0.00     0.092 A 
HETATM   10  C5  UNL     1     -28.288  -3.288   7.549  1.00  0.00     0.140 A 
HETATM   11  N2  UNL     1     -27.389  -4.189   7.114  1.00  0.00    -0.309 N 
HETATM   12  N3  UNL     1     -27.733  -4.963   8.128  1.00  0.00    -0.297 N 
ATOM     13  H2  UNL     1     -26.729  -4.249   6.339  1.00  0.00     0.186 HD
ATOM     14  H3  UNL     1     -27.421  -5.883   8.437  1.00  0.00     0.187 HD
ENDBRANCH   5   9
TORSDOF 1
ENDMDL
MODEL 4
REMARK VINA RESULT: -5.011330609      1.952      3.005
REMARK  1 active torsions:
REMARK  status: ('A' for Active; 'I' for Inactive)
REMARK    1  A    between atoms: C3_5  and  C4_6 
ROOT
HETATM    1  C1  UNL     1     -31.300  -4.291  12.047  1.00  0.00     0.104 A 
HETATM    2  C2  UNL     1     -31.331  -3.042  11.463  1.00  0.00     0.105 A 
HETATM    3  N1  UNL     1     -30.618  -2.795  10.328  1.00  0.00    -0.362 N 
ATOM      4  H1  UNL     1     -30.649  -1.867   9.905  1.00  0.00     0.165 HD
HETATM    5  C3  UNL     1     -29.876  -3.759   9.762  1.00  0.00     0.077 A 
HETATM    6  C6  UNL     1     -29.855  -4.996  10.354  1.00  0.00     0.119 A 
HETATM    7  N4  UNL     1     -30.566  -5.251  11.489  1.00  0.00    -0.372 N 
ATOM      8  H4  UNL     1     -30.536  -6.179  11.911  1.00  0.00     0.164 HD
ENDROOT
BRANCH   5   9
HETATM    9  C4  UNL     1     -29.108  -3.514   8.550  1.00  0.00     0.092 A 
HETATM   10  C5  UNL     1     -27.792  -3.487   8.145  1.00  0.00     0.140 A 
HETATM   11  N2  UNL     1     -28.140  -3.171   6.884  1.00  0.00    -0.309 N 
HETATM   12  N3  UNL     1     -29.404  -3.195   7.269  1.00  0.00    -0.297 N 
ATOM     13  H2  UNL     1     -27.644  -2.990   6.011  1.00  0.00     0.186 HD
ATOM     14  H3  UNL     1     -30.283  -3.033   6.778  1.00  0.00     0.187 HD
ENDBRANCH   5   9
TORSDOF 1
ENDMDL
MODEL 5
REMARK VINA RESULT: -4.934544457      1.823      2.893
REMARK  1 active torsions:
REMARK  status: ('A' for Active; 'I' for Inactive)
REMARK    1  A    between atoms: C3_5  and  C4_6 
ROOT
HETATM    1  C1  UNL     1     -31.304  -3.652  11.725  1.00  0.00     0.104 A 
HETATM    2  C2  UNL     1     -30.723  -4.869  11.437  1.00  0.00     0.105 A 
HETATM    3  N1  UNL     1     -29.843  -4.984  10.402  1.00  0.00    -0.362 N 
ATOM      4  H1  UNL     1     -29.419  -5.890  10.199  1.00  0.00     0.165 HD
HETATM    5  C3  UNL     1     -29.528  -3.919   9.649  1.00  0.00     0.077 A 
HETATM    6  C6  UNL     1     -30.114  -2.716   9.947  1.00  0.00     0.119 A 
HETATM    7  N4  UNL     1     -30.995  -2.592  10.980  1.00  0.00    -0.372 N 
ATOM      8  H4  UNL     1     -31.418  -1.687  11.184  1.00  0.00     0.164 HD
ENDROOT
BRANCH   5   9
HETATM    9  C4  UNL     1     -28.591  -4.023   8.540  1.00  0.00     0.092 A 
HETATM   10  C5  UNL     1     -28.167  -3.271   7.467  1.00  0.00     0.140 A 
HETATM   11  N2  UNL     1     -27.312  -4.232   7.074  1.00  0.00    -0.309 N 
HETATM   12  N3  UNL     1     -27.716  -4.958   8.102  1.00  0.00    -0.297 N 
ATOM     13  H2  UNL     1     -26.643  -4.350   6.312  1.00  0.00     0.186 HD
ATOM     14  H3  UNL     1     -27.461  -5.885   8.441  1.00  0.00     0.187 HD
ENDBRANCH   5   9
TORSDOF 1
ENDMDL
