MODEL 1
REMARK VINA RESULT: -6.705012742      0.000      0.000
REMARK  2 active torsions:
REMARK  status: ('A' for Active; 'I' for Inactive)
REMARK    1  A    between atoms: N1_1  and  C1_5 
REMARK    2  A    between atoms: C1_5  and  C2_6 
ROOT
HETATM    1  C2  UNL     1     -28.565  -3.842   8.625  1.00  0.00    -0.032 A 
HETATM    2  C3  UNL     1     -28.463  -5.168   9.001  1.00  0.00     0.011 A 
HETATM    3  C4  UNL     1     -29.219  -5.660  10.042  1.00  0.00     0.032 A 
HETATM    4  C5  UNL     1     -30.093  -4.861  10.740  1.00  0.00     0.059 A 
HETATM    5  N2  UNL     1     -30.941  -5.024  11.765  1.00  0.00    -0.300 N 
ATOM      6  H2  UNL     1     -31.093  -5.901  12.263  1.00  0.00     0.187 HD
HETATM    7  N3  UNL     1     -31.563  -3.871  12.045  1.00  0.00    -0.311 N 
ATOM      8  H3  UNL     1     -32.255  -3.736  12.782  1.00  0.00     0.186 HD
HETATM    9  C6  UNL     1     -31.131  -2.920  11.200  1.00  0.00     0.120 A 
HETATM   10  C7  UNL     1     -30.210  -3.536  10.381  1.00  0.00     0.009 A 
HETATM   11  C8  UNL     1     -29.447  -3.058   9.338  1.00  0.00     0.024 A 
ENDROOT
BRANCH   1  12
HETATM   12  C1  UNL     1     -27.765  -3.265   7.502  1.00  0.00     0.268 C 
BRANCH  12  13
HETATM   13  N1  UNL     1     -27.140  -4.374   6.809  1.00  0.00    -0.075 N 
ATOM     14  H13 UNL     1     -26.301  -4.716   7.276  1.00  0.00     0.274 HD
ATOM     15  H12 UNL     1     -27.682  -5.237   6.864  1.00  0.00     0.274 HD
ATOM     16  H11 UNL     1     -26.968  -4.071   5.850  1.00  0.00     0.274 HD
ENDBRANCH  12  13
ENDBRANCH   1  12
TORSDOF 2
ENDMDL
MODEL 2
REMARK VINA RESULT: -6.311251916      0.889      1.024
REMARK  2 active torsions:
REMARK  status: ('A' for Active; 'I' for Inactive)
REMARK    1  A    between atoms: N1_1  and  C1_5 
REMARK    2  A    between atoms: C1_5  and  C2_6 
ROOT
HETATM    1  C2  UNL     1     -28.703  -4.241   8.848  1.00  0.00    -0.032 A 
HETATM    2  C3  UNL     1     -28.984  -5.366   9.601  1.00  0.00     0.011 A 
HETATM    3  C4  UNL     1     -29.886  -5.304  10.640  1.00  0.00     0.032 A 
HETATM    4  C5  UNL     1     -30.533  -4.136  10.967  1.00  0.00     0.059 A 
HETATM    5  N2  UNL     1     -31.432  -3.753  11.884  1.00  0.00    -0.300 N 
ATOM      6  H2  UNL     1     -31.838  -4.366  12.592  1.00  0.00     0.187 HD
HETATM    7  N3  UNL     1     -31.723  -2.454  11.741  1.00  0.00    -0.311 N 
ATOM      8  H3  UNL     1     -32.379  -1.928  12.319  1.00  0.00     0.186 HD
HETATM    9  C6  UNL     1     -31.014  -1.953  10.717  1.00  0.00     0.120 A 
HETATM   10  C7  UNL     1     -30.266  -3.003  10.228  1.00  0.00     0.009 A 
HETATM   11  C8  UNL     1     -29.362  -3.080   9.192  1.00  0.00     0.024 A 
ENDROOT
BRANCH   1  12
HETATM   12  C1  UNL     1     -27.732  -4.261   7.712  1.00  0.00     0.268 C 
BRANCH  12  13
HETATM   13  N1  UNL     1     -28.045  -3.129   6.862  1.00  0.00    -0.075 N 
ATOM     14  H13 UNL     1     -29.004  -3.144   6.513  1.00  0.00     0.274 HD
ATOM     15  H12 UNL     1     -28.105  -2.249   7.374  1.00  0.00     0.274 HD
ATOM     16  H11 UNL     1     -27.349  -3.111   6.117  1.00  0.00     0.274 HD
ENDBRANCH  12  13
ENDBRANCH   1  12
TORSDOF 2
ENDMDL
MODEL 3
REMARK VINA RESULT: -6.142996911      0.786      4.205
REMARK  2 active torsions:
REMARK  status: ('A' for Active; 'I' for Inactive)
REMARK    1  A    between atoms: N1_1  and  C1_5 
REMARK    2  A    between atoms: C1_5  and  C2_6 
ROOT
HETATM    1  C2  UNL     1     -30.633  -3.617  10.605  1.00  0.00    -0.032 A 
HETATM    2  C3  UNL     1     -30.163  -4.893  10.857  1.00  0.00     0.011 A 
HETATM    3  C4  UNL     1     -29.196  -5.453  10.050  1.00  0.00     0.032 A 
HETATM    4  C5  UNL     1     -28.668  -4.774   8.978  1.00  0.00     0.059 A 
HETATM    5  N2  UNL     1     -27.751  -5.024   8.033  1.00  0.00    -0.300 N 
ATOM      6  H2  UNL     1     -27.221  -5.892   7.951  1.00  0.00     0.187 HD
HETATM    7  N3  UNL     1     -27.627  -3.974   7.211  1.00  0.00    -0.311 N 
ATOM      8  H3  UNL     1     -26.995  -3.920   6.413  1.00  0.00     0.186 HD
HETATM    9  C6  UNL     1     -28.469  -3.004   7.604  1.00  0.00     0.120 A 
HETATM   10  C7  UNL     1     -29.124  -3.500   8.711  1.00  0.00     0.009 A 
HETATM   11  C8  UNL     1     -30.091  -2.954   9.525  1.00  0.00     0.024 A 
ENDROOT
BRANCH   1  12
HETATM   12  C1  UNL     1     -31.681  -2.970  11.453  1.00  0.00     0.268 C 
BRANCH  12  13
HETATM   13  N1  UNL     1     -31.670  -3.645  12.735  1.00  0.00    -0.075 N 
ATOM     14  H13 UNL     1     -32.032  -4.598  12.689  1.00  0.00     0.274 HD
ATOM     15  H12 UNL     1     -30.730  -3.877  13.057  1.00  0.00     0.274 HD
ATOM     16  H11 UNL     1     -32.183  -3.055  13.390  1.00  0.00     0.274 HD
ENDBRANCH  12  13
ENDBRANCH   1  12
TORSDOF 2
ENDMDL
MODEL 4
REMARK VINA RESULT: -6.060123012      1.272      2.153
REMARK  2 active torsions:
REMARK  status: ('A' for Active; 'I' for Inactive)
REMARK    1  A    between atoms: N1_1  and  C1_5 
REMARK    2  A    between atoms: C1_5  and  C2_6 
ROOT
HETATM    1  C2  UNL     1     -28.145  -3.627   7.650  1.00  0.00    -0.032 A 
HETATM    2  C3  UNL     1     -29.312  -2.922   7.421  1.00  0.00     0.011 A 
HETATM    3  C4  UNL     1     -30.424  -3.138   8.206  1.00  0.00     0.032 A 
HETATM    4  C5  UNL     1     -30.417  -4.052   9.233  1.00  0.00     0.059 A 
HETATM    5  N2  UNL     1     -31.297  -4.484  10.148  1.00  0.00    -0.300 N 
ATOM      6  H2  UNL     1     -32.256  -4.150  10.236  1.00  0.00     0.187 HD
HETATM    7  N3  UNL     1     -30.738  -5.417  10.929  1.00  0.00    -0.311 N 
ATOM      8  H3  UNL     1     -31.203  -5.899  11.698  1.00  0.00     0.186 HD
HETATM    9  C6  UNL     1     -29.468  -5.617  10.540  1.00  0.00     0.120 A 
HETATM   10  C7  UNL     1     -29.262  -4.765   9.477  1.00  0.00     0.009 A 
HETATM   11  C8  UNL     1     -28.159  -4.538   8.685  1.00  0.00     0.024 A 
ENDROOT
BRANCH   1  12
HETATM   12  C1  UNL     1     -26.915  -3.425   6.825  1.00  0.00     0.268 C 
BRANCH  12  13
HETATM   13  N1  UNL     1     -26.641  -4.679   6.152  1.00  0.00    -0.075 N 
ATOM     14  H13 UNL     1     -25.943  -5.247   6.633  1.00  0.00     0.274 HD
ATOM     15  H12 UNL     1     -27.414  -5.343   6.212  1.00  0.00     0.274 HD
ATOM     16  H11 UNL     1     -26.381  -4.454   5.192  1.00  0.00     0.274 HD
ENDBRANCH  12  13
ENDBRANCH   1  12
TORSDOF 2
ENDMDL
MODEL 5
REMARK VINA RESULT: -5.977273758      1.272      4.516
REMARK  2 active torsions:
REMARK  status: ('A' for Active; 'I' for Inactive)
REMARK    1  A    between atoms: N1_1  and  C1_5 
REMARK    2  A    between atoms: C1_5  and  C2_6 
ROOT
HETATM    1  C2  UNL     1     -30.572  -4.412  10.646  1.00  0.00    -0.032 A 
HETATM    2  C3  UNL     1     -31.238  -3.381  10.009  1.00  0.00     0.011 A 
HETATM    3  C4  UNL     1     -30.750  -2.855   8.833  1.00  0.00     0.032 A 
HETATM    4  C5  UNL     1     -29.596  -3.328   8.255  1.00  0.00     0.059 A 
HETATM    5  N2  UNL     1     -28.880  -3.046   7.157  1.00  0.00    -0.300 N 
ATOM      6  H2  UNL     1     -29.117  -2.324   6.477  1.00  0.00     0.187 HD
HETATM    7  N3  UNL     1     -27.808  -3.845   7.080  1.00  0.00    -0.311 N 
ATOM      8  H3  UNL     1     -27.108  -3.826   6.338  1.00  0.00     0.186 HD
HETATM    9  C6  UNL     1     -27.799  -4.676   8.135  1.00  0.00     0.120 A 
HETATM   10  C7  UNL     1     -28.918  -4.356   8.874  1.00  0.00     0.009 A 
HETATM   11  C8  UNL     1     -29.418  -4.872  10.049  1.00  0.00     0.024 A 
ENDROOT
BRANCH   1  12
HETATM   12  C1  UNL     1     -31.065  -5.014  11.923  1.00  0.00     0.268 C 
BRANCH  12  13
HETATM   13  N1  UNL     1     -32.106  -5.961  11.575  1.00  0.00    -0.075 N 
ATOM     14  H13 UNL     1     -32.485  -5.814  10.639  1.00  0.00     0.274 HD
ATOM     15  H12 UNL     1     -31.753  -6.907  11.427  1.00  0.00     0.274 HD
ATOM     16  H11 UNL     1     -32.816  -5.909  12.306  1.00  0.00     0.274 HD
ENDBRANCH  12  13
ENDBRANCH   1  12
TORSDOF 2
ENDMDL
