MODEL 1
REMARK VINA RESULT: -4.383111286      0.000      0.000
REMARK  2 active torsions:
REMARK  status: ('A' for Active; 'I' for Inactive)
REMARK    1  A    between atoms: N1_1  and  C1_5 
REMARK    2  A    between atoms: C3_7  and  N2_8 
ROOT
HETATM    1  C1  UNL     1      -5.503  -5.668  13.535  1.00  0.00     0.196 C 
HETATM    2  C2  UNL     1      -4.118  -5.322  14.107  1.00  0.00     0.067 C 
HETATM    3  C3  UNL     1      -4.846  -5.228  15.458  1.00  0.00     0.196 C 
HETATM    4  C4  UNL     1      -6.047  -4.833  14.645  1.00  0.00     0.016 C 
HETATM    5  C5  UNL     1      -7.379  -5.169  15.194  1.00  0.00     0.013 C 
HETATM    6  C6  UNL     1      -7.572  -4.048  16.229  1.00  0.00     0.001 C 
HETATM    7  C7  UNL     1      -6.906  -2.866  15.596  1.00  0.00     0.001 C 
HETATM    8  C8  UNL     1      -6.092  -3.356  14.436  1.00  0.00     0.013 C 
ENDROOT
BRANCH   1   9
HETATM    9  N1  UNL     1      -5.723  -5.204  12.196  1.00  0.00    -0.074 N 
ATOM     10  H13 UNL     1      -6.209  -4.307  12.206  1.00  0.00     0.274 HD
ATOM     11  H12 UNL     1      -4.841  -4.922  11.768  1.00  0.00     0.274 HD
ATOM     12  H11 UNL     1      -6.214  -5.868  11.597  1.00  0.00     0.274 HD
ENDBRANCH   1   9
BRANCH   3  13
HETATM   13  N2  UNL     1      -4.262  -4.216  16.272  1.00  0.00    -0.074 N 
ATOM     14  H23 UNL     1      -4.938  -3.497  16.525  1.00  0.00     0.274 HD
ATOM     15  H22 UNL     1      -4.048  -4.560  17.208  1.00  0.00     0.274 HD
ATOM     16  H21 UNL     1      -3.439  -3.820  15.817  1.00  0.00     0.274 HD
ENDBRANCH   3  13
TORSDOF 2
ENDMDL
MODEL 2
REMARK VINA RESULT: -4.145297628      1.349      2.768
REMARK  2 active torsions:
REMARK  status: ('A' for Active; 'I' for Inactive)
REMARK    1  A    between atoms: N1_1  and  C1_5 
REMARK    2  A    between atoms: C3_7  and  N2_8 
ROOT
HETATM    1  C1  UNL     1      -3.776  -3.792  15.840  1.00  0.00     0.196 C 
HETATM    2  C2  UNL     1      -3.575  -3.619  14.325  1.00  0.00     0.067 C 
HETATM    3  C3  UNL     1      -5.006  -3.056  14.335  1.00  0.00     0.196 C 
HETATM    4  C4  UNL     1      -5.223  -3.957  15.518  1.00  0.00     0.016 C 
HETATM    5  C5  UNL     1      -6.223  -3.532  16.521  1.00  0.00     0.013 C 
HETATM    6  C6  UNL     1      -7.536  -3.936  15.832  1.00  0.00     0.001 C 
HETATM    7  C7  UNL     1      -7.175  -5.191  15.097  1.00  0.00     0.001 C 
HETATM    8  C8  UNL     1      -5.681  -5.311  15.087  1.00  0.00     0.013 C 
ENDROOT
BRANCH   1   9
HETATM    9  N1  UNL     1      -3.095  -4.922  16.403  1.00  0.00    -0.074 N 
ATOM     10  H13 UNL     1      -3.353  -5.041  17.383  1.00  0.00     0.274 HD
ATOM     11  H12 UNL     1      -3.468  -5.790  16.017  1.00  0.00     0.274 HD
ATOM     12  H11 UNL     1      -2.080  -4.894  16.303  1.00  0.00     0.274 HD
ENDBRANCH   1   9
BRANCH   3  13
HETATM   13  N2  UNL     1      -5.688  -3.401  13.133  1.00  0.00    -0.074 N 
ATOM     14  H23 UNL     1      -5.382  -2.828  12.347  1.00  0.00     0.274 HD
ATOM     15  H22 UNL     1      -5.397  -4.312  12.780  1.00  0.00     0.274 HD
ATOM     16  H21 UNL     1      -6.698  -3.351  13.267  1.00  0.00     0.274 HD
ENDBRANCH   3  13
TORSDOF 2
ENDMDL
MODEL 3
REMARK VINA RESULT: -4.136157455      1.651      2.116
REMARK  2 active torsions:
REMARK  status: ('A' for Active; 'I' for Inactive)
REMARK    1  A    between atoms: N1_1  and  C1_5 
REMARK    2  A    between atoms: C3_7  and  N2_8 
ROOT
HETATM    1  C1  UNL     1      -4.660  -2.807  13.853  1.00  0.00     0.196 C 
HETATM    2  C2  UNL     1      -3.790  -2.771  15.120  1.00  0.00     0.067 C 
HETATM    3  C3  UNL     1      -4.375  -4.165  15.401  1.00  0.00     0.196 C 
HETATM    4  C4  UNL     1      -5.578  -3.680  14.642  1.00  0.00     0.016 C 
HETATM    5  C5  UNL     1      -6.382  -4.692  13.924  1.00  0.00     0.013 C 
HETATM    6  C6  UNL     1      -7.210  -5.292  15.072  1.00  0.00     0.001 C 
HETATM    7  C7  UNL     1      -7.459  -4.123  15.975  1.00  0.00     0.001 C 
HETATM    8  C8  UNL     1      -6.552  -3.007  15.552  1.00  0.00     0.013 C 
ENDROOT
BRANCH   1   9
HETATM    9  N1  UNL     1      -5.161  -1.528  13.442  1.00  0.00    -0.074 N 
ATOM     10  H13 UNL     1      -5.161  -0.877  14.228  1.00  0.00     0.274 HD
ATOM     11  H12 UNL     1      -4.491  -1.064  12.829  1.00  0.00     0.274 HD
ATOM     12  H11 UNL     1      -6.082  -1.558  13.005  1.00  0.00     0.274 HD
ENDBRANCH   1   9
BRANCH   3  13
HETATM   13  N2  UNL     1      -4.538  -4.366  16.801  1.00  0.00    -0.074 N 
ATOM     14  H23 UNL     1      -3.988  -3.703  17.346  1.00  0.00     0.274 HD
ATOM     15  H22 UNL     1      -5.467  -4.090  17.118  1.00  0.00     0.274 HD
ATOM     16  H21 UNL     1      -4.324  -5.332  17.052  1.00  0.00     0.274 HD
ENDBRANCH   3  13
TORSDOF 2
ENDMDL
MODEL 4
REMARK VINA RESULT: -4.068210172      1.554      2.222
REMARK  2 active torsions:
REMARK  status: ('A' for Active; 'I' for Inactive)
REMARK    1  A    between atoms: N1_1  and  C1_5 
REMARK    2  A    between atoms: C3_7  and  N2_8 
ROOT
HETATM    1  C1  UNL     1      -4.345  -5.996  14.605  1.00  0.00     0.196 C 
HETATM    2  C2  UNL     1      -4.579  -5.520  13.162  1.00  0.00     0.067 C 
HETATM    3  C3  UNL     1      -4.770  -4.131  13.793  1.00  0.00     0.196 C 
HETATM    4  C4  UNL     1      -5.251  -4.880  15.003  1.00  0.00     0.016 C 
HETATM    5  C5  UNL     1      -5.049  -4.242  16.322  1.00  0.00     0.013 C 
HETATM    6  C6  UNL     1      -6.207  -3.231  16.350  1.00  0.00     0.001 C 
HETATM    7  C7  UNL     1      -7.310  -3.938  15.625  1.00  0.00     0.001 C 
HETATM    8  C8  UNL     1      -6.721  -5.130  14.932  1.00  0.00     0.013 C 
ENDROOT
BRANCH   1   9
HETATM    9  N1  UNL     1      -4.794  -7.332  14.868  1.00  0.00    -0.074 N 
ATOM     10  H13 UNL     1      -5.743  -7.464  14.518  1.00  0.00     0.274 HD
ATOM     11  H12 UNL     1      -4.296  -7.998  14.276  1.00  0.00     0.274 HD
ATOM     12  H11 UNL     1      -4.733  -7.612  15.847  1.00  0.00     0.274 HD
ENDBRANCH   1   9
BRANCH   3  13
HETATM   13  N2  UNL     1      -5.745  -3.383  13.072  1.00  0.00    -0.074 N 
ATOM     14  H23 UNL     1      -6.456  -2.993  13.689  1.00  0.00     0.274 HD
ATOM     15  H22 UNL     1      -5.362  -2.510  12.710  1.00  0.00     0.274 HD
ATOM     16  H21 UNL     1      -6.156  -3.952  12.331  1.00  0.00     0.274 HD
ENDBRANCH   3  13
TORSDOF 2
ENDMDL
MODEL 5
REMARK VINA RESULT: -4.047147159      1.694      2.701
REMARK  2 active torsions:
REMARK  status: ('A' for Active; 'I' for Inactive)
REMARK    1  A    between atoms: N1_1  and  C1_5 
REMARK    2  A    between atoms: C3_7  and  N2_8 
ROOT
HETATM    1  C1  UNL     1      -6.358  -5.056  14.145  1.00  0.00     0.196 C 
HETATM    2  C2  UNL     1      -7.108  -5.129  15.485  1.00  0.00     0.067 C 
HETATM    3  C3  UNL     1      -7.160  -3.595  15.387  1.00  0.00     0.196 C 
HETATM    4  C4  UNL     1      -5.878  -3.723  14.611  1.00  0.00     0.016 C 
HETATM    5  C5  UNL     1      -5.590  -2.683  13.601  1.00  0.00     0.013 C 
HETATM    6  C6  UNL     1      -5.071  -1.537  14.485  1.00  0.00     0.001 C 
HETATM    7  C7  UNL     1      -4.335  -2.243  15.581  1.00  0.00     0.001 C 
HETATM    8  C8  UNL     1      -4.695  -3.698  15.520  1.00  0.00     0.013 C 
ENDROOT
BRANCH   1   9
HETATM    9  N1  UNL     1      -5.372  -6.081  13.962  1.00  0.00    -0.074 N 
ATOM     10  H13 UNL     1      -4.932  -6.315  14.852  1.00  0.00     0.274 HD
ATOM     11  H12 UNL     1      -5.821  -6.973  13.749  1.00  0.00     0.274 HD
ATOM     12  H11 UNL     1      -4.663  -5.863  13.262  1.00  0.00     0.274 HD
ENDBRANCH   1   9
BRANCH   3  13
HETATM   13  N2  UNL     1      -7.070  -3.007  16.681  1.00  0.00    -0.074 N 
ATOM     14  H23 UNL     1      -7.953  -3.069  17.187  1.00  0.00     0.274 HD
ATOM     15  H22 UNL     1      -6.494  -3.565  17.312  1.00  0.00     0.274 HD
ATOM     16  H21 UNL     1      -6.737  -2.045  16.615  1.00  0.00     0.274 HD
ENDBRANCH   3  13
TORSDOF 2
ENDMDL
