MODEL 1
REMARK VINA RESULT: -4.909288053      0.000      0.000
REMARK  3 active torsions:
REMARK  status: ('A' for Active; 'I' for Inactive)
REMARK    1  A    between atoms: C2_2  and  C3_3 
REMARK    2  A    between atoms: C3_3  and  N1_4 
REMARK    3  A    between atoms: C8_12  and  N2_13 
ROOT
HETATM    1  C3  UNL     1      -5.766  -3.545  14.912  1.00  0.00     0.151 C 
HETATM    2  C4  UNL     1      -6.803  -2.631  15.537  1.00  0.00     0.041 C 
HETATM    3  C5  UNL     1      -7.389  -3.275  16.757  1.00  0.00     0.002 C 
HETATM    4  C6  UNL     1      -8.168  -4.480  16.331  1.00  0.00     0.002 C 
HETATM    5  C7  UNL     1      -7.561  -5.300  15.264  1.00  0.00     0.035 C 
HETATM    6  C8  UNL     1      -6.198  -4.956  14.805  1.00  0.00     0.219 C 
ENDROOT
BRANCH   1   7
HETATM    7  C2  UNL     1      -4.514  -3.420  15.762  1.00  0.00     0.036 C 
HETATM    8  C1  UNL     1      -3.994  -4.718  16.262  1.00  0.00     0.007 C 
ENDBRANCH   1   7
BRANCH   1   9
HETATM    9  N1  UNL     1      -5.443  -2.939  13.623  1.00  0.00    -0.068 N 
ATOM     10  H13 UNL     1      -4.945  -2.053  13.704  1.00  0.00     0.275 HD
ATOM     11  H12 UNL     1      -4.720  -3.441  13.107  1.00  0.00     0.275 HD
ATOM     12  H11 UNL     1      -6.325  -2.864  13.116  1.00  0.00     0.275 HD
ENDBRANCH   1   9
BRANCH   6  13
HETATM   13  N2  UNL     1      -6.069  -5.438  13.413  1.00  0.00    -0.073 N 
ATOM     14  H23 UNL     1      -5.810  -4.686  12.776  1.00  0.00     0.274 HD
ATOM     15  H22 UNL     1      -5.248  -6.032  13.293  1.00  0.00     0.274 HD
ATOM     16  H21 UNL     1      -6.924  -5.909  13.115  1.00  0.00     0.274 HD
ENDBRANCH   6  13
TORSDOF 3
ENDMDL
MODEL 2
REMARK VINA RESULT: -4.416205345      1.507      2.825
REMARK  3 active torsions:
REMARK  status: ('A' for Active; 'I' for Inactive)
REMARK    1  A    between atoms: C2_2  and  C3_3 
REMARK    2  A    between atoms: C3_3  and  N1_4 
REMARK    3  A    between atoms: C8_12  and  N2_13 
ROOT
HETATM    1  C3  UNL     1      -5.483  -3.716  14.670  1.00  0.00     0.151 C 
HETATM    2  C4  UNL     1      -5.839  -5.115  15.135  1.00  0.00     0.041 C 
HETATM    3  C5  UNL     1      -7.326  -5.304  15.107  1.00  0.00     0.002 C 
HETATM    4  C6  UNL     1      -7.940  -4.405  16.135  1.00  0.00     0.002 C 
HETATM    5  C7  UNL     1      -7.353  -3.055  16.247  1.00  0.00     0.035 C 
HETATM    6  C8  UNL     1      -6.323  -2.654  15.265  1.00  0.00     0.219 C 
ENDROOT
BRANCH   1   7
HETATM    7  C2  UNL     1      -5.603  -3.722  13.156  1.00  0.00     0.036 C 
HETATM    8  C1  UNL     1      -5.168  -2.457  12.513  1.00  0.00     0.007 C 
ENDBRANCH   1   7
BRANCH   1   9
HETATM    9  N1  UNL     1      -4.061  -3.562  14.963  1.00  0.00    -0.068 N 
ATOM     10  H13 UNL     1      -3.530  -4.429  14.872  1.00  0.00     0.275 HD
ATOM     11  H12 UNL     1      -3.554  -3.031  14.254  1.00  0.00     0.275 HD
ATOM     12  H11 UNL     1      -4.006  -3.149  15.894  1.00  0.00     0.275 HD
ENDBRANCH   1   9
BRANCH   6  13
HETATM   13  N2  UNL     1      -5.483  -1.622  15.909  1.00  0.00    -0.073 N 
ATOM     14  H23 UNL     1      -4.748  -1.289  15.285  1.00  0.00     0.274 HD
ATOM     15  H22 UNL     1      -5.989  -0.745  16.032  1.00  0.00     0.274 HD
ATOM     16  H21 UNL     1      -5.102  -1.966  16.791  1.00  0.00     0.274 HD
ENDBRANCH   6  13
TORSDOF 3
ENDMDL
MODEL 3
REMARK VINA RESULT: -4.058950186      2.462      3.283
REMARK  3 active torsions:
REMARK  status: ('A' for Active; 'I' for Inactive)
REMARK    1  A    between atoms: C2_2  and  C3_3 
REMARK    2  A    between atoms: C3_3  and  N1_4 
REMARK    3  A    between atoms: C8_12  and  N2_13 
ROOT
HETATM    1  C3  UNL     1      -7.041  -3.306  16.665  1.00  0.00     0.151 C 
HETATM    2  C4  UNL     1      -6.281  -4.494  16.107  1.00  0.00     0.041 C 
HETATM    3  C5  UNL     1      -7.081  -5.156  15.027  1.00  0.00     0.002 C 
HETATM    4  C6  UNL     1      -8.307  -5.756  15.642  1.00  0.00     0.002 C 
HETATM    5  C7  UNL     1      -8.970  -4.948  16.684  1.00  0.00     0.035 C 
HETATM    6  C8  UNL     1      -8.468  -3.580  16.937  1.00  0.00     0.219 C 
ENDROOT
BRANCH   1   7
HETATM    7  C2  UNL     1      -6.884  -2.183  15.655  1.00  0.00     0.036 C 
HETATM    8  C1  UNL     1      -5.502  -1.649  15.558  1.00  0.00     0.007 C 
ENDBRANCH   1   7
BRANCH   1   9
HETATM    9  N1  UNL     1      -6.295  -2.892  17.850  1.00  0.00    -0.068 N 
ATOM     10  H13 UNL     1      -5.297  -3.099  17.796  1.00  0.00     0.275 HD
ATOM     11  H12 UNL     1      -6.206  -1.880  17.943  1.00  0.00     0.275 HD
ATOM     12  H11 UNL     1      -6.758  -3.333  18.645  1.00  0.00     0.275 HD
ENDBRANCH   1   9
BRANCH   6  13
HETATM   13  N2  UNL     1      -8.810  -3.240  18.334  1.00  0.00    -0.073 N 
ATOM     14  H23 UNL     1      -8.041  -3.447  18.971  1.00  0.00     0.274 HD
ATOM     15  H22 UNL     1      -8.859  -2.231  18.476  1.00  0.00     0.274 HD
ATOM     16  H21 UNL     1      -9.672  -3.705  18.618  1.00  0.00     0.274 HD
ENDBRANCH   6  13
TORSDOF 3
ENDMDL
MODEL 4
REMARK VINA RESULT: -3.956134198      1.727      2.904
REMARK  3 active torsions:
REMARK  status: ('A' for Active; 'I' for Inactive)
REMARK    1  A    between atoms: C2_2  and  C3_3 
REMARK    2  A    between atoms: C3_3  and  N1_4 
REMARK    3  A    between atoms: C8_12  and  N2_13 
ROOT
HETATM    1  C3  UNL     1      -5.324  -4.046  15.598  1.00  0.00     0.151 C 
HETATM    2  C4  UNL     1      -4.614  -2.827  15.040  1.00  0.00     0.041 C 
HETATM    3  C5  UNL     1      -5.414  -2.232  13.921  1.00  0.00     0.002 C 
HETATM    4  C6  UNL     1      -5.433  -3.203  12.781  1.00  0.00     0.002 C 
HETATM    5  C7  UNL     1      -5.586  -4.625  13.145  1.00  0.00     0.035 C 
HETATM    6  C8  UNL     1      -5.844  -4.964  14.561  1.00  0.00     0.219 C 
ENDROOT
BRANCH   1   7
HETATM    7  C2  UNL     1      -6.446  -3.525  16.478  1.00  0.00     0.036 C 
HETATM    8  C1  UNL     1      -7.774  -4.115  16.173  1.00  0.00     0.007 C 
ENDBRANCH   1   7
BRANCH   1   9
HETATM    9  N1  UNL     1      -4.361  -4.675  16.498  1.00  0.00    -0.068 N 
ATOM     10  H13 UNL     1      -4.231  -4.168  17.374  1.00  0.00     0.275 HD
ATOM     11  H12 UNL     1      -4.698  -5.546  16.909  1.00  0.00     0.275 HD
ATOM     12  H11 UNL     1      -3.501  -4.785  15.961  1.00  0.00     0.275 HD
ENDBRANCH   1   9
BRANCH   6  13
HETATM   13  N2  UNL     1      -5.345  -6.338  14.780  1.00  0.00    -0.073 N 
ATOM     14  H23 UNL     1      -5.307  -6.572  15.772  1.00  0.00     0.274 HD
ATOM     15  H22 UNL     1      -6.024  -7.039  14.483  1.00  0.00     0.274 HD
ATOM     16  H21 UNL     1      -4.441  -6.470  14.327  1.00  0.00     0.274 HD
ENDBRANCH   6  13
TORSDOF 3
ENDMDL
MODEL 5
REMARK VINA RESULT: -3.955807922      2.139      3.413
REMARK  3 active torsions:
REMARK  status: ('A' for Active; 'I' for Inactive)
REMARK    1  A    between atoms: C2_2  and  C3_3 
REMARK    2  A    between atoms: C3_3  and  N1_4 
REMARK    3  A    between atoms: C8_12  and  N2_13 
ROOT
HETATM    1  C3  UNL     1      -5.468  -2.685  15.071  1.00  0.00     0.151 C 
HETATM    2  C4  UNL     1      -5.035  -1.313  15.550  1.00  0.00     0.041 C 
HETATM    3  C5  UNL     1      -5.700  -0.248  14.732  1.00  0.00     0.002 C 
HETATM    4  C6  UNL     1      -5.179  -0.331  13.330  1.00  0.00     0.002 C 
HETATM    5  C7  UNL     1      -4.992  -1.691  12.789  1.00  0.00     0.035 C 
HETATM    6  C8  UNL     1      -5.452  -2.839  13.600  1.00  0.00     0.219 C 
ENDROOT
BRANCH   1   7
HETATM    7  C2  UNL     1      -6.861  -2.917  15.629  1.00  0.00     0.036 C 
HETATM    8  C1  UNL     1      -7.302  -4.333  15.577  1.00  0.00     0.007 C 
ENDBRANCH   1   7
BRANCH   1   9
HETATM    9  N1  UNL     1      -4.593  -3.629  15.761  1.00  0.00    -0.068 N 
ATOM     10  H13 UNL     1      -4.619  -3.540  16.777  1.00  0.00     0.275 HD
ATOM     11  H12 UNL     1      -4.918  -4.595  15.713  1.00  0.00     0.275 HD
ATOM     12  H11 UNL     1      -3.662  -3.494  15.366  1.00  0.00     0.275 HD
ENDBRANCH   1   9
BRANCH   6  13
HETATM   13  N2  UNL     1      -4.639  -4.008  13.205  1.00  0.00    -0.073 N 
ATOM     14  H23 UNL     1      -5.207  -4.851  13.120  1.00  0.00     0.274 HD
ATOM     15  H22 UNL     1      -4.323  -3.939  12.237  1.00  0.00     0.274 HD
ATOM     16  H21 UNL     1      -3.860  -4.141  13.850  1.00  0.00     0.274 HD
ENDBRANCH   6  13
TORSDOF 3
ENDMDL
