MODEL 1
REMARK VINA RESULT: -5.865834856      0.000      0.000
REMARK  2 active torsions:
REMARK  status: ('A' for Active; 'I' for Inactive)
REMARK    1  A    between atoms: N1_1  and  C1_5 
REMARK    2  A    between atoms: C4_8  and  C5_9 
ROOT
HETATM    1  C1  UNL     1      -6.069  -4.635  14.648  1.00  0.00     0.184 C 
HETATM    2  C2  UNL     1      -6.115  -3.106  14.536  1.00  0.00     0.033 C 
HETATM    3  C3  UNL     1      -6.422  -2.752  15.998  1.00  0.00     0.009 C 
HETATM    4  C4  UNL     1      -7.259  -3.878  16.515  1.00  0.00     0.018 C 
HETATM    5  C8  UNL     1      -7.395  -4.877  15.374  1.00  0.00     0.039 C 
ENDROOT
BRANCH   4   6
HETATM    6  C5  UNL     1      -8.583  -3.444  17.063  1.00  0.00     0.191 C 
HETATM    7  C6  UNL     1      -9.594  -4.520  17.311  1.00  0.00     0.061 C 
HETATM    8  C7  UNL     1      -9.911  -3.705  18.552  1.00  0.00     0.235 C 
HETATM    9  N2  UNL     1      -8.549  -3.216  18.509  1.00  0.00    -0.070 N 
ATOM     10  H22 UNL     1      -7.821  -3.631  19.091  1.00  0.00     0.277 HD
ATOM     11  H21 UNL     1      -8.303  -2.304  18.894  1.00  0.00     0.277 HD
ENDBRANCH   4   6
BRANCH   1  12
HETATM   12  N1  UNL     1      -6.027  -5.278  13.381  1.00  0.00    -0.075 N 
ATOM     13  H13 UNL     1      -6.673  -4.839  12.726  1.00  0.00     0.274 HD
ATOM     14  H12 UNL     1      -5.148  -5.084  12.901  1.00  0.00     0.274 HD
ATOM     15  H11 UNL     1      -6.195  -6.282  13.442  1.00  0.00     0.274 HD
ENDBRANCH   1  12
TORSDOF 2
ENDMDL
MODEL 2
REMARK VINA RESULT: -5.213751442      1.381      4.292
REMARK  2 active torsions:
REMARK  status: ('A' for Active; 'I' for Inactive)
REMARK    1  A    between atoms: N1_1  and  C1_5 
REMARK    2  A    between atoms: C4_8  and  C5_9 
ROOT
HETATM    1  C1  UNL     1      -9.154  -3.893  17.265  1.00  0.00     0.184 C 
HETATM    2  C2  UNL     1      -7.829  -3.323  17.785  1.00  0.00     0.033 C 
HETATM    3  C3  UNL     1      -7.076  -3.172  16.456  1.00  0.00     0.009 C 
HETATM    4  C4  UNL     1      -7.570  -4.285  15.588  1.00  0.00     0.018 C 
HETATM    5  C8  UNL     1      -8.617  -5.036  16.399  1.00  0.00     0.039 C 
ENDROOT
BRANCH   4   6
HETATM    6  C5  UNL     1      -6.484  -5.180  15.078  1.00  0.00     0.191 C 
HETATM    7  C6  UNL     1      -5.951  -4.881  13.711  1.00  0.00     0.061 C 
HETATM    8  C7  UNL     1      -4.614  -5.238  14.336  1.00  0.00     0.235 C 
HETATM    9  N2  UNL     1      -5.166  -4.829  15.610  1.00  0.00    -0.070 N 
ATOM     10  H22 UNL     1      -4.981  -3.901  15.991  1.00  0.00     0.277 HD
ATOM     11  H21 UNL     1      -4.826  -5.229  16.485  1.00  0.00     0.277 HD
ENDBRANCH   4   6
BRANCH   1  12
HETATM   12  N1  UNL     1      -9.998  -4.363  18.308  1.00  0.00    -0.075 N 
ATOM     13  H13 UNL     1     -10.622  -3.625  18.633  1.00  0.00     0.274 HD
ATOM     14  H12 UNL     1     -10.691  -5.020  17.950  1.00  0.00     0.274 HD
ATOM     15  H11 UNL     1      -9.477  -4.769  19.085  1.00  0.00     0.274 HD
ENDBRANCH   1  12
TORSDOF 2
ENDMDL
MODEL 3
REMARK VINA RESULT: -5.199975110      1.410      4.190
REMARK  2 active torsions:
REMARK  status: ('A' for Active; 'I' for Inactive)
REMARK    1  A    between atoms: N1_1  and  C1_5 
REMARK    2  A    between atoms: C4_8  and  C5_9 
ROOT
HETATM    1  C1  UNL     1      -8.726  -3.902  16.833  1.00  0.00     0.184 C 
HETATM    2  C2  UNL     1      -7.555  -3.331  17.643  1.00  0.00     0.033 C 
HETATM    3  C3  UNL     1      -6.647  -2.875  16.493  1.00  0.00     0.009 C 
HETATM    4  C4  UNL     1      -6.892  -3.843  15.380  1.00  0.00     0.018 C 
HETATM    5  C8  UNL     1      -7.953  -4.816  15.877  1.00  0.00     0.039 C 
ENDROOT
BRANCH   4   6
HETATM    6  C5  UNL     1      -5.655  -4.536  14.898  1.00  0.00     0.191 C 
HETATM    7  C6  UNL     1      -4.559  -4.729  15.900  1.00  0.00     0.061 C 
HETATM    8  C7  UNL     1      -4.404  -6.079  15.221  1.00  0.00     0.235 C 
HETATM    9  N2  UNL     1      -5.803  -5.992  14.858  1.00  0.00    -0.070 N 
ATOM     10  H22 UNL     1      -6.520  -6.465  15.407  1.00  0.00     0.277 HD
ATOM     11  H21 UNL     1      -6.162  -6.463  14.027  1.00  0.00     0.277 HD
ENDBRANCH   4   6
BRANCH   1  12
HETATM   12  N1  UNL     1      -9.650  -4.626  17.636  1.00  0.00    -0.075 N 
ATOM     13  H13 UNL     1      -9.473  -5.628  17.582  1.00  0.00     0.274 HD
ATOM     14  H12 UNL     1      -9.466  -4.477  18.628  1.00  0.00     0.274 HD
ATOM     15  H11 UNL     1     -10.621  -4.413  17.408  1.00  0.00     0.274 HD
ENDBRANCH   1  12
TORSDOF 2
ENDMDL
MODEL 4
REMARK VINA RESULT: -4.825139666      2.021      3.155
REMARK  2 active torsions:
REMARK  status: ('A' for Active; 'I' for Inactive)
REMARK    1  A    between atoms: N1_1  and  C1_5 
REMARK    2  A    between atoms: C4_8  and  C5_9 
ROOT
HETATM    1  C1  UNL     1      -7.715  -3.589  16.531  1.00  0.00     0.184 C 
HETATM    2  C2  UNL     1      -8.420  -4.951  16.558  1.00  0.00     0.033 C 
HETATM    3  C3  UNL     1      -9.789  -4.519  17.104  1.00  0.00     0.009 C 
HETATM    4  C4  UNL     1      -9.511  -3.366  18.015  1.00  0.00     0.018 C 
HETATM    5  C8  UNL     1      -8.008  -3.121  17.959  1.00  0.00     0.039 C 
ENDROOT
BRANCH   4   6
HETATM    6  C5  UNL     1     -10.011  -3.566  19.412  1.00  0.00     0.191 C 
HETATM    7  C6  UNL     1     -11.239  -2.804  19.802  1.00  0.00     0.061 C 
HETATM    8  C7  UNL     1     -11.602  -4.087  20.529  1.00  0.00     0.235 C 
HETATM    9  N2  UNL     1     -10.791  -4.796  19.561  1.00  0.00    -0.070 N 
ATOM     10  H22 UNL     1     -11.214  -5.254  18.754  1.00  0.00     0.277 HD
ATOM     11  H21 UNL     1     -10.341  -5.681  19.797  1.00  0.00     0.277 HD
ENDBRANCH   4   6
BRANCH   1  12
HETATM   12  N1  UNL     1      -6.320  -3.696  16.279  1.00  0.00    -0.075 N 
ATOM     13  H13 UNL     1      -5.954  -4.585  16.621  1.00  0.00     0.274 HD
ATOM     14  H12 UNL     1      -6.137  -3.815  15.283  1.00  0.00     0.274 HD
ATOM     15  H11 UNL     1      -5.789  -2.912  16.657  1.00  0.00     0.274 HD
ENDBRANCH   1  12
TORSDOF 2
ENDMDL
MODEL 5
REMARK VINA RESULT: -4.738537215      1.503      1.928
REMARK  2 active torsions:
REMARK  status: ('A' for Active; 'I' for Inactive)
REMARK    1  A    between atoms: N1_1  and  C1_5 
REMARK    2  A    between atoms: C4_8  and  C5_9 
ROOT
HETATM    1  C1  UNL     1      -4.957  -4.339  15.757  1.00  0.00     0.184 C 
HETATM    2  C2  UNL     1      -5.844  -5.518  15.337  1.00  0.00     0.033 C 
HETATM    3  C3  UNL     1      -7.095  -4.750  14.890  1.00  0.00     0.009 C 
HETATM    4  C4  UNL     1      -7.156  -3.538  15.765  1.00  0.00     0.018 C 
HETATM    5  C8  UNL     1      -5.934  -3.598  16.673  1.00  0.00     0.039 C 
ENDROOT
BRANCH   4   6
HETATM    6  C5  UNL     1      -8.437  -3.409  16.529  1.00  0.00     0.191 C 
HETATM    7  C6  UNL     1      -9.142  -4.681  16.881  1.00  0.00     0.061 C 
HETATM    8  C7  UNL     1      -9.423  -3.967  18.192  1.00  0.00     0.235 C 
HETATM    9  N2  UNL     1      -8.220  -3.194  17.961  1.00  0.00    -0.070 N 
ATOM     10  H22 UNL     1      -7.338  -3.447  18.405  1.00  0.00     0.277 HD
ATOM     11  H21 UNL     1      -8.116  -2.254  18.344  1.00  0.00     0.277 HD
ENDBRANCH   4   6
BRANCH   1  12
HETATM   12  N1  UNL     1      -3.784  -4.751  16.447  1.00  0.00    -0.075 N 
ATOM     13  H13 UNL     1      -4.013  -5.113  17.373  1.00  0.00     0.274 HD
ATOM     14  H12 UNL     1      -3.393  -5.596  16.031  1.00  0.00     0.274 HD
ATOM     15  H11 UNL     1      -3.081  -4.015  16.506  1.00  0.00     0.274 HD
ENDBRANCH   1  12
TORSDOF 2
ENDMDL
