MODEL 1
REMARK VINA RESULT: -4.595632544      0.000      0.000
REMARK  2 active torsions:
REMARK  status: ('A' for Active; 'I' for Inactive)
REMARK    1  A    between atoms: C6_9  and  C7_10 
REMARK    2  A    between atoms: C7_10  and  N2_11 
ROOT
HETATM    1  C1  UNL     1      -6.632  -3.264  17.769  1.00  0.00     0.040 C 
HETATM    2  C2  UNL     1      -7.676  -2.950  16.732  1.00  0.00     0.187 C 
HETATM    3  N1  UNL     1      -7.263  -3.321  15.397  1.00  0.00    -0.071 N 
ATOM      4  H11 UNL     1      -6.446  -2.789  15.098  1.00  0.00     0.277 HD
ATOM      5  H12 UNL     1      -7.928  -2.996  14.696  1.00  0.00     0.277 HD
HETATM    6  C3  UNL     1      -7.039  -4.728  15.296  1.00  0.00     0.232 C 
HETATM    7  C4  UNL     1      -8.147  -5.591  15.759  1.00  0.00     0.028 C 
HETATM    8  C5  UNL     1      -9.109  -5.014  16.712  1.00  0.00     0.010 C 
HETATM    9  C6  UNL     1      -8.997  -3.572  17.010  1.00  0.00     0.041 C 
ENDROOT
BRANCH   9  10
HETATM   10  C7  UNL     1      -9.346  -3.303  18.476  1.00  0.00     0.236 C 
BRANCH  10  11
HETATM   11  N2  UNL     1     -10.219  -4.358  18.894  1.00  0.00    -0.079 N 
ATOM     12  H23 UNL     1     -11.086  -4.021  19.312  1.00  0.00     0.274 HD
ATOM     13  H22 UNL     1     -10.639  -4.864  18.115  1.00  0.00     0.274 HD
ATOM     14  H21 UNL     1      -9.679  -4.958  19.517  1.00  0.00     0.274 HD
ENDBRANCH  10  11
ENDBRANCH   9  10
TORSDOF 2
ENDMDL
MODEL 2
REMARK VINA RESULT: -4.282946445      1.915      3.833
REMARK  2 active torsions:
REMARK  status: ('A' for Active; 'I' for Inactive)
REMARK    1  A    between atoms: C6_9  and  C7_10 
REMARK    2  A    between atoms: C7_10  and  N2_11 
ROOT
HETATM    1  C1  UNL     1      -6.368  -2.321  14.987  1.00  0.00     0.040 C 
HETATM    2  C2  UNL     1      -5.956  -3.462  15.878  1.00  0.00     0.187 C 
HETATM    3  N1  UNL     1      -6.530  -3.368  17.201  1.00  0.00    -0.071 N 
ATOM      4  H11 UNL     1      -6.203  -2.537  17.693  1.00  0.00     0.277 HD
ATOM      5  H12 UNL     1      -6.151  -4.080  17.825  1.00  0.00     0.277 HD
HETATM    6  C3  UNL     1      -7.957  -3.421  17.153  1.00  0.00     0.232 C 
HETATM    7  C4  UNL     1      -8.535  -4.562  16.412  1.00  0.00     0.028 C 
HETATM    8  C5  UNL     1      -7.689  -5.219  15.402  1.00  0.00     0.010 C 
HETATM    9  C6  UNL     1      -6.275  -4.801  15.315  1.00  0.00     0.041 C 
ENDROOT
BRANCH   9  10
HETATM   10  C7  UNL     1      -5.801  -4.827  13.860  1.00  0.00     0.236 C 
BRANCH  10  11
HETATM   11  N2  UNL     1      -5.090  -6.056  13.679  1.00  0.00    -0.079 N 
ATOM     12  H23 UNL     1      -5.309  -6.756  14.389  1.00  0.00     0.274 HD
ATOM     13  H22 UNL     1      -5.410  -6.589  12.870  1.00  0.00     0.274 HD
ATOM     14  H21 UNL     1      -4.099  -5.821  13.639  1.00  0.00     0.274 HD
ENDBRANCH  10  11
ENDBRANCH   9  10
TORSDOF 2
ENDMDL
MODEL 3
REMARK VINA RESULT: -4.255778382      1.272      1.470
REMARK  2 active torsions:
REMARK  status: ('A' for Active; 'I' for Inactive)
REMARK    1  A    between atoms: C6_9  and  C7_10 
REMARK    2  A    between atoms: C7_10  and  N2_11 
ROOT
HETATM    1  C1  UNL     1      -5.161  -3.848  16.766  1.00  0.00     0.040 C 
HETATM    2  C2  UNL     1      -6.240  -3.174  15.961  1.00  0.00     0.187 C 
HETATM    3  N1  UNL     1      -6.287  -3.642  14.594  1.00  0.00    -0.071 N 
ATOM      4  H11 UNL     1      -5.427  -3.420  14.093  1.00  0.00     0.277 HD
ATOM      5  H12 UNL     1      -6.941  -3.096  14.034  1.00  0.00     0.277 HD
HETATM    6  C3  UNL     1      -6.584  -5.038  14.533  1.00  0.00     0.232 C 
HETATM    7  C4  UNL     1      -7.786  -5.474  15.276  1.00  0.00     0.028 C 
HETATM    8  C5  UNL     1      -8.256  -4.616  16.377  1.00  0.00     0.010 C 
HETATM    9  C6  UNL     1      -7.596  -3.308  16.555  1.00  0.00     0.041 C 
ENDROOT
BRANCH   9  10
HETATM   10  C7  UNL     1      -7.496  -2.960  18.043  1.00  0.00     0.236 C 
BRANCH  10  11
HETATM   11  N2  UNL     1      -8.742  -3.335  18.640  1.00  0.00    -0.079 N 
ATOM     12  H23 UNL     1      -9.113  -4.214  18.278  1.00  0.00     0.274 HD
ATOM     13  H22 UNL     1      -8.649  -3.625  19.614  1.00  0.00     0.274 HD
ATOM     14  H21 UNL     1      -9.377  -2.548  18.514  1.00  0.00     0.274 HD
ENDBRANCH  10  11
ENDBRANCH   9  10
TORSDOF 2
ENDMDL
MODEL 4
REMARK VINA RESULT: -4.057949682      2.641      3.890
REMARK  2 active torsions:
REMARK  status: ('A' for Active; 'I' for Inactive)
REMARK    1  A    between atoms: C6_9  and  C7_10 
REMARK    2  A    between atoms: C7_10  and  N2_11 
ROOT
HETATM    1  C1  UNL     1      -4.551  -5.078  15.558  1.00  0.00     0.040 C 
HETATM    2  C2  UNL     1      -5.415  -4.416  14.518  1.00  0.00     0.187 C 
HETATM    3  N1  UNL     1      -6.574  -5.208  14.173  1.00  0.00    -0.071 N 
ATOM      4  H11 UNL     1      -6.307  -6.096  13.748  1.00  0.00     0.277 HD
ATOM      5  H12 UNL     1      -7.083  -4.804  13.387  1.00  0.00     0.277 HD
HETATM    6  C3  UNL     1      -7.425  -5.402  15.304  1.00  0.00     0.232 C 
HETATM    7  C4  UNL     1      -7.826  -4.177  16.026  1.00  0.00     0.028 C 
HETATM    8  C5  UNL     1      -6.969  -2.988  15.881  1.00  0.00     0.010 C 
HETATM    9  C6  UNL     1      -5.868  -3.053  14.900  1.00  0.00     0.041 C 
ENDROOT
BRANCH   9  10
HETATM   10  C7  UNL     1      -4.651  -2.278  15.413  1.00  0.00     0.236 C 
BRANCH  10  11
HETATM   11  N2  UNL     1      -5.123  -0.987  15.815  1.00  0.00    -0.079 N 
ATOM     12  H23 UNL     1      -4.372  -0.308  15.947  1.00  0.00     0.274 HD
ATOM     13  H22 UNL     1      -5.617  -0.491  15.073  1.00  0.00     0.274 HD
ATOM     14  H21 UNL     1      -5.689  -1.127  16.651  1.00  0.00     0.274 HD
ENDBRANCH  10  11
ENDBRANCH   9  10
TORSDOF 2
ENDMDL
MODEL 5
REMARK VINA RESULT: -3.903446172      1.741      2.191
REMARK  2 active torsions:
REMARK  status: ('A' for Active; 'I' for Inactive)
REMARK    1  A    between atoms: C6_9  and  C7_10 
REMARK    2  A    between atoms: C7_10  and  N2_11 
ROOT
HETATM    1  C1  UNL     1      -5.076  -2.786  16.191  1.00  0.00     0.040 C 
HETATM    2  C2  UNL     1      -6.255  -2.655  15.264  1.00  0.00     0.187 C 
HETATM    3  N1  UNL     1      -5.911  -2.930  13.887  1.00  0.00    -0.071 N 
ATOM      4  H11 UNL     1      -5.236  -2.257  13.528  1.00  0.00     0.277 HD
ATOM      5  H12 UNL     1      -6.688  -2.724  13.259  1.00  0.00     0.277 HD
HETATM    6  C3  UNL     1      -5.450  -4.273  13.726  1.00  0.00     0.232 C 
HETATM    7  C4  UNL     1      -6.335  -5.327  14.265  1.00  0.00     0.028 C 
HETATM    8  C5  UNL     1      -7.289  -4.944  15.319  1.00  0.00     0.010 C 
HETATM    9  C6  UNL     1      -7.410  -3.510  15.646  1.00  0.00     0.041 C 
ENDROOT
BRANCH   9  10
HETATM   10  C7  UNL     1      -7.659  -3.324  17.145  1.00  0.00     0.236 C 
BRANCH  10  11
HETATM   11  N2  UNL     1      -9.069  -3.463  17.350  1.00  0.00    -0.079 N 
ATOM     12  H23 UNL     1      -9.309  -3.782  18.289  1.00  0.00     0.274 HD
ATOM     13  H22 UNL     1      -9.560  -2.570  17.387  1.00  0.00     0.274 HD
ATOM     14  H21 UNL     1      -9.414  -4.081  16.615  1.00  0.00     0.274 HD
ENDBRANCH  10  11
ENDBRANCH   9  10
TORSDOF 2
ENDMDL
