MODEL 1
REMARK VINA RESULT: -5.227118932      0.000      0.000
REMARK  2 active torsions:
REMARK  status: ('A' for Active; 'I' for Inactive)
REMARK    1  A    between atoms: N1_1  and  C1_5 
REMARK    2  A    between atoms: C4_11  and  C5_12 
ROOT
HETATM    1  C1  UNL     1      -5.803  -4.588  14.328  1.00  0.00     0.187 C 
HETATM    2  C2  UNL     1      -5.691  -3.141  13.963  1.00  0.00     0.060 C 
HETATM    3  C3  UNL     1      -5.500  -2.303  15.205  1.00  0.00     0.235 C 
HETATM    4  N2  UNL     1      -6.244  -2.823  16.330  1.00  0.00    -0.070 N 
ATOM      5  H21 UNL     1      -6.473  -2.086  16.996  1.00  0.00     0.277 HD
ATOM      6  H22 UNL     1      -5.655  -3.402  16.928  1.00  0.00     0.277 HD
HETATM    7  C4  UNL     1      -7.435  -3.542  15.905  1.00  0.00     0.192 C 
HETATM    8  C8  UNL     1      -7.086  -4.790  15.130  1.00  0.00     0.066 C 
ENDROOT
BRANCH   1   9
HETATM    9  N1  UNL     1      -5.883  -5.414  13.148  1.00  0.00    -0.075 N 
ATOM     10  H13 UNL     1      -6.850  -5.587  12.875  1.00  0.00     0.274 HD
ATOM     11  H12 UNL     1      -5.574  -4.912  12.316  1.00  0.00     0.274 HD
ATOM     12  H11 UNL     1      -5.367  -6.285  13.276  1.00  0.00     0.274 HD
ENDBRANCH   1   9
BRANCH   7  13
HETATM   13  C5  UNL     1      -8.241  -3.827  17.138  1.00  0.00     0.016 A 
HETATM   14  C6  UNL     1      -9.398  -4.759  17.102  1.00  0.00     0.007 A 
HETATM   15  C7  UNL     1      -9.555  -3.234  17.392  1.00  0.00     0.007 A 
ENDBRANCH   7  13
TORSDOF 2
ENDMDL
MODEL 2
REMARK VINA RESULT: -4.854381242      1.360      2.314
REMARK  2 active torsions:
REMARK  status: ('A' for Active; 'I' for Inactive)
REMARK    1  A    between atoms: N1_1  and  C1_5 
REMARK    2  A    between atoms: C4_11  and  C5_12 
ROOT
HETATM    1  C1  UNL     1      -5.356  -2.895  15.093  1.00  0.00     0.187 C 
HETATM    2  C2  UNL     1      -4.932  -4.320  15.267  1.00  0.00     0.060 C 
HETATM    3  C3  UNL     1      -6.058  -5.250  14.882  1.00  0.00     0.235 C 
HETATM    4  N2  UNL     1      -7.351  -4.715  15.244  1.00  0.00    -0.070 N 
ATOM      5  H21 UNL     1      -8.032  -5.460  15.393  1.00  0.00     0.277 HD
ATOM      6  H22 UNL     1      -7.795  -4.250  14.452  1.00  0.00     0.277 HD
HETATM    7  C4  UNL     1      -7.269  -3.834  16.398  1.00  0.00     0.192 C 
HETATM    8  C8  UNL     1      -6.467  -2.591  16.094  1.00  0.00     0.066 C 
ENDROOT
BRANCH   1   9
HETATM    9  N1  UNL     1      -4.262  -1.993  15.358  1.00  0.00    -0.075 N 
ATOM     10  H13 UNL     1      -4.412  -1.461  16.214  1.00  0.00     0.274 HD
ATOM     11  H12 UNL     1      -3.418  -2.496  15.634  1.00  0.00     0.274 HD
ATOM     12  H11 UNL     1      -4.091  -1.381  14.560  1.00  0.00     0.274 HD
ENDBRANCH   1   9
BRANCH   7  13
HETATM   13  C5  UNL     1      -8.676  -3.532  16.823  1.00  0.00     0.016 A 
HETATM   14  C6  UNL     1      -9.034  -3.401  18.259  1.00  0.00     0.007 A 
HETATM   15  C7  UNL     1      -9.589  -4.545  17.354  1.00  0.00     0.007 A 
ENDBRANCH   7  13
TORSDOF 2
ENDMDL
MODEL 3
REMARK VINA RESULT: -4.578302507      1.570      3.951
REMARK  2 active torsions:
REMARK  status: ('A' for Active; 'I' for Inactive)
REMARK    1  A    between atoms: N1_1  and  C1_5 
REMARK    2  A    between atoms: C4_11  and  C5_12 
ROOT
HETATM    1  C1  UNL     1      -7.511  -4.032  16.413  1.00  0.00     0.187 C 
HETATM    2  C2  UNL     1      -7.486  -5.039  15.307  1.00  0.00     0.060 C 
HETATM    3  C3  UNL     1      -6.068  -5.259  14.833  1.00  0.00     0.235 C 
HETATM    4  N2  UNL     1      -5.289  -4.041  14.872  1.00  0.00    -0.070 N 
ATOM      5  H21 UNL     1      -4.531  -4.064  14.189  1.00  0.00     0.277 HD
ATOM      6  H22 UNL     1      -4.734  -3.982  15.725  1.00  0.00     0.277 HD
HETATM    7  C4  UNL     1      -6.121  -2.861  14.698  1.00  0.00     0.192 C 
HETATM    8  C8  UNL     1      -7.078  -2.680  15.852  1.00  0.00     0.066 C 
ENDROOT
BRANCH   1   9
HETATM    9  N1  UNL     1      -8.843  -3.884  16.947  1.00  0.00    -0.075 N 
ATOM     10  H13 UNL     1      -9.038  -2.919  17.211  1.00  0.00     0.274 HD
ATOM     11  H12 UNL     1      -9.553  -3.993  16.222  1.00  0.00     0.274 HD
ATOM     12  H11 UNL     1      -8.998  -4.526  17.725  1.00  0.00     0.274 HD
ENDBRANCH   1   9
BRANCH   7  13
HETATM   13  C5  UNL     1      -5.197  -1.692  14.518  1.00  0.00     0.016 A 
HETATM   14  C6  UNL     1      -4.953  -0.728  15.621  1.00  0.00     0.007 A 
HETATM   15  C7  UNL     1      -5.668  -0.325  14.295  1.00  0.00     0.007 A 
ENDBRANCH   7  13
TORSDOF 2
ENDMDL
MODEL 4
REMARK VINA RESULT: -4.568439080      0.896      1.075
REMARK  2 active torsions:
REMARK  status: ('A' for Active; 'I' for Inactive)
REMARK    1  A    between atoms: N1_1  and  C1_5 
REMARK    2  A    between atoms: C4_11  and  C5_12 
ROOT
HETATM    1  C1  UNL     1      -5.388  -5.170  14.831  1.00  0.00     0.187 C 
HETATM    2  C2  UNL     1      -4.735  -3.874  14.463  1.00  0.00     0.060 C 
HETATM    3  C3  UNL     1      -4.772  -2.920  15.634  1.00  0.00     0.235 C 
HETATM    4  N2  UNL     1      -5.989  -3.051  16.403  1.00  0.00    -0.070 N 
ATOM      5  H21 UNL     1      -6.218  -2.182  16.885  1.00  0.00     0.277 HD
ATOM      6  H22 UNL     1      -5.852  -3.653  17.214  1.00  0.00     0.277 HD
HETATM    7  C4  UNL     1      -7.100  -3.511  15.583  1.00  0.00     0.192 C 
HETATM    8  C8  UNL     1      -6.873  -4.915  15.075  1.00  0.00     0.066 C 
ENDROOT
BRANCH   1   9
HETATM    9  N1  UNL     1      -5.273  -6.130  13.761  1.00  0.00    -0.075 N 
ATOM     10  H13 UNL     1      -4.411  -6.670  13.831  1.00  0.00     0.274 HD
ATOM     11  H12 UNL     1      -5.943  -6.892  13.865  1.00  0.00     0.274 HD
ATOM     12  H11 UNL     1      -5.358  -5.675  12.852  1.00  0.00     0.274 HD
ENDBRANCH   1   9
BRANCH   7  13
HETATM   13  C5  UNL     1      -8.342  -3.384  16.413  1.00  0.00     0.016 A 
HETATM   14  C6  UNL     1      -8.290  -3.475  17.896  1.00  0.00     0.007 A 
HETATM   15  C7  UNL     1      -9.027  -4.530  17.014  1.00  0.00     0.007 A 
ENDBRANCH   7  13
TORSDOF 2
ENDMDL
MODEL 5
REMARK VINA RESULT: -4.521359743      1.822      2.551
REMARK  2 active torsions:
REMARK  status: ('A' for Active; 'I' for Inactive)
REMARK    1  A    between atoms: N1_1  and  C1_5 
REMARK    2  A    between atoms: C4_11  and  C5_12 
ROOT
HETATM    1  C1  UNL     1      -4.656  -1.723  13.421  1.00  0.00     0.187 C 
HETATM    2  C2  UNL     1      -5.228  -0.419  13.882  1.00  0.00     0.060 C 
HETATM    3  C3  UNL     1      -5.203  -0.342  15.390  1.00  0.00     0.235 C 
HETATM    4  N2  UNL     1      -5.456  -1.627  16.003  1.00  0.00    -0.070 N 
ATOM      5  H21 UNL     1      -5.859  -1.521  16.934  1.00  0.00     0.277 HD
ATOM      6  H22 UNL     1      -4.586  -2.094  16.258  1.00  0.00     0.277 HD
HETATM    7  C4  UNL     1      -6.285  -2.474  15.161  1.00  0.00     0.192 C 
HETATM    8  C8  UNL     1      -5.578  -2.849  13.880  1.00  0.00     0.066 C 
ENDROOT
BRANCH   1   9
HETATM    9  N1  UNL     1      -4.577  -1.774  11.982  1.00  0.00    -0.075 N 
ATOM     10  H13 UNL     1      -4.647  -2.730  11.634  1.00  0.00     0.274 HD
ATOM     11  H12 UNL     1      -5.416  -1.389  11.545  1.00  0.00     0.274 HD
ATOM     12  H11 UNL     1      -3.732  -1.312  11.645  1.00  0.00     0.274 HD
ENDBRANCH   1   9
BRANCH   7  13
HETATM   13  C5  UNL     1      -6.676  -3.667  15.983  1.00  0.00     0.016 A 
HETATM   14  C6  UNL     1      -7.452  -4.787  15.392  1.00  0.00     0.007 A 
HETATM   15  C7  UNL     1      -8.024  -3.868  16.515  1.00  0.00     0.007 A 
ENDBRANCH   7  13
TORSDOF 2
ENDMDL
