MODEL 1
REMARK VINA RESULT: -5.262889932      0.000      0.000
REMARK  2 active torsions:
REMARK  status: ('A' for Active; 'I' for Inactive)
REMARK    1  A    between atoms: C2_2  and  N1_3 
REMARK    2  A    between atoms: C2_2  and  C3_7 
ROOT
HETATM    1  C3  UNL     1      -7.781  -3.477  16.218  1.00  0.00     0.215 C 
HETATM    2  C4  UNL     1      -7.738  -4.915  15.690  1.00  0.00     0.035 C 
HETATM    3  C5  UNL     1      -6.527  -5.090  14.836  1.00  0.00     0.002 C 
HETATM    4  C6  UNL     1      -6.121  -3.845  14.095  1.00  0.00     0.002 C 
HETATM    5  C7  UNL     1      -5.102  -3.049  14.865  1.00  0.00     0.027 C 
HETATM    6  C8  UNL     1      -5.621  -2.422  16.105  1.00  0.00     0.233 C 
HETATM    7  N2  UNL     1      -6.534  -3.227  16.860  1.00  0.00    -0.069 N 
ATOM      8  H21 UNL     1      -6.092  -4.106  17.129  1.00  0.00     0.277 HD
ATOM      9  H22 UNL     1      -6.687  -2.818  17.782  1.00  0.00     0.277 HD
ENDROOT
BRANCH   1  10
HETATM   10  C2  UNL     1      -8.881  -3.355  17.280  1.00  0.00     0.209 C 
HETATM   11  C1  UNL     1      -9.659  -4.646  17.409  1.00  0.00     0.042 C 
BRANCH  10  12
HETATM   12  N1  UNL     1      -8.193  -3.136  18.540  1.00  0.00    -0.073 N 
ATOM     13  H13 UNL     1      -8.756  -2.623  19.218  1.00  0.00     0.274 HD
ATOM     14  H12 UNL     1      -8.078  -3.991  19.085  1.00  0.00     0.274 HD
ATOM     15  H11 UNL     1      -7.308  -2.676  18.328  1.00  0.00     0.274 HD
ENDBRANCH  10  12
ENDBRANCH   1  10
TORSDOF 2
ENDMDL
MODEL 2
REMARK VINA RESULT: -4.595489730      1.118      2.070
REMARK  2 active torsions:
REMARK  status: ('A' for Active; 'I' for Inactive)
REMARK    1  A    between atoms: C2_2  and  N1_3 
REMARK    2  A    between atoms: C2_2  and  C3_7 
ROOT
HETATM    1  C3  UNL     1      -7.110  -3.749  16.563  1.00  0.00     0.215 C 
HETATM    2  C4  UNL     1      -6.355  -2.431  16.357  1.00  0.00     0.035 C 
HETATM    3  C5  UNL     1      -5.111  -2.693  15.576  1.00  0.00     0.002 C 
HETATM    4  C6  UNL     1      -4.507  -4.048  15.829  1.00  0.00     0.002 C 
HETATM    5  C7  UNL     1      -4.996  -5.068  14.836  1.00  0.00     0.027 C 
HETATM    6  C8  UNL     1      -6.429  -5.423  14.974  1.00  0.00     0.233 C 
HETATM    7  N2  UNL     1      -7.303  -4.329  15.276  1.00  0.00    -0.069 N 
ATOM      8  H21 UNL     1      -7.238  -3.613  14.552  1.00  0.00     0.277 HD
ATOM      9  H22 UNL     1      -8.276  -4.611  15.158  1.00  0.00     0.277 HD
ENDROOT
BRANCH   1  10
HETATM   10  C2  UNL     1      -8.496  -3.457  17.151  1.00  0.00     0.209 C 
HETATM   11  C1  UNL     1      -9.382  -4.681  17.091  1.00  0.00     0.042 C 
BRANCH  10  12
HETATM   12  N1  UNL     1      -8.277  -3.150  18.553  1.00  0.00    -0.073 N 
ATOM     13  H13 UNL     1      -9.109  -3.287  19.127  1.00  0.00     0.274 HD
ATOM     14  H12 UNL     1      -7.679  -3.831  19.022  1.00  0.00     0.274 HD
ATOM     15  H11 UNL     1      -7.911  -2.198  18.603  1.00  0.00     0.274 HD
ENDBRANCH  10  12
ENDBRANCH   1  10
TORSDOF 2
ENDMDL
MODEL 3
REMARK VINA RESULT: -4.538866552      1.694      4.086
REMARK  2 active torsions:
REMARK  status: ('A' for Active; 'I' for Inactive)
REMARK    1  A    between atoms: C2_2  and  N1_3 
REMARK    2  A    between atoms: C2_2  and  C3_7 
ROOT
HETATM    1  C3  UNL     1      -6.423  -3.333  15.091  1.00  0.00     0.215 C 
HETATM    2  C4  UNL     1      -6.162  -2.669  16.447  1.00  0.00     0.035 C 
HETATM    3  C5  UNL     1      -7.162  -3.163  17.439  1.00  0.00     0.002 C 
HETATM    4  C6  UNL     1      -8.502  -3.492  16.839  1.00  0.00     0.002 C 
HETATM    5  C7  UNL     1      -8.597  -4.945  16.458  1.00  0.00     0.027 C 
HETATM    6  C8  UNL     1      -7.731  -5.341  15.321  1.00  0.00     0.233 C 
HETATM    7  N2  UNL     1      -6.430  -4.742  15.308  1.00  0.00    -0.069 N 
ATOM      8  H21 UNL     1      -5.926  -4.970  16.165  1.00  0.00     0.277 HD
ATOM      9  H22 UNL     1      -5.834  -5.207  14.624  1.00  0.00     0.277 HD
ENDROOT
BRANCH   1  10
HETATM   10  C2  UNL     1      -5.265  -3.018  14.136  1.00  0.00     0.209 C 
HETATM   11  C1  UNL     1      -5.482  -3.663  12.786  1.00  0.00     0.042 C 
BRANCH  10  12
HETATM   12  N1  UNL     1      -5.293  -1.580  13.939  1.00  0.00    -0.073 N 
ATOM     13  H13 UNL     1      -4.555  -1.248  13.317  1.00  0.00     0.274 HD
ATOM     14  H12 UNL     1      -6.087  -1.269  13.379  1.00  0.00     0.274 HD
ATOM     15  H11 UNL     1      -5.261  -1.146  14.862  1.00  0.00     0.274 HD
ENDBRANCH  10  12
ENDBRANCH   1  10
TORSDOF 2
ENDMDL
MODEL 4
REMARK VINA RESULT: -4.532700882      1.760      4.202
REMARK  2 active torsions:
REMARK  status: ('A' for Active; 'I' for Inactive)
REMARK    1  A    between atoms: C2_2  and  N1_3 
REMARK    2  A    between atoms: C2_2  and  C3_7 
ROOT
HETATM    1  C3  UNL     1      -6.730  -3.877  14.987  1.00  0.00     0.215 C 
HETATM    2  C4  UNL     1      -6.204  -3.049  16.164  1.00  0.00     0.035 C 
HETATM    3  C5  UNL     1      -7.139  -3.183  17.319  1.00  0.00     0.002 C 
HETATM    4  C6  UNL     1      -8.578  -3.367  16.917  1.00  0.00     0.002 C 
HETATM    5  C7  UNL     1      -8.947  -4.824  16.826  1.00  0.00     0.027 C 
HETATM    6  C8  UNL     1      -8.299  -5.553  15.709  1.00  0.00     0.233 C 
HETATM    7  N2  UNL     1      -6.932  -5.205  15.463  1.00  0.00    -0.069 N 
ATOM      8  H21 UNL     1      -6.369  -5.370  16.298  1.00  0.00     0.277 HD
ATOM      9  H22 UNL     1      -6.504  -5.877  14.827  1.00  0.00     0.277 HD
ENDROOT
BRANCH   1  10
HETATM   10  C2  UNL     1      -5.663  -3.938  13.887  1.00  0.00     0.209 C 
HETATM   11  C1  UNL     1      -4.271  -3.929  14.478  1.00  0.00     0.042 C 
BRANCH  10  12
HETATM   12  N1  UNL     1      -5.844  -5.218  13.227  1.00  0.00    -0.073 N 
ATOM     13  H13 UNL     1      -5.000  -5.790  13.227  1.00  0.00     0.274 HD
ATOM     14  H12 UNL     1      -6.438  -5.858  13.756  1.00  0.00     0.274 HD
ATOM     15  H11 UNL     1      -6.198  -5.029  12.289  1.00  0.00     0.274 HD
ENDBRANCH  10  12
ENDBRANCH   1  10
TORSDOF 2
ENDMDL
MODEL 5
REMARK VINA RESULT: -4.526184760      1.955      4.082
REMARK  2 active torsions:
REMARK  status: ('A' for Active; 'I' for Inactive)
REMARK    1  A    between atoms: C2_2  and  N1_3 
REMARK    2  A    between atoms: C2_2  and  C3_7 
ROOT
HETATM    1  C3  UNL     1      -6.100  -2.610  14.834  1.00  0.00     0.215 C 
HETATM    2  C4  UNL     1      -6.121  -2.273  16.329  1.00  0.00     0.035 C 
HETATM    3  C5  UNL     1      -6.901  -3.315  17.058  1.00  0.00     0.002 C 
HETATM    4  C6  UNL     1      -8.024  -3.910  16.251  1.00  0.00     0.002 C 
HETATM    5  C7  UNL     1      -7.588  -5.157  15.530  1.00  0.00     0.027 C 
HETATM    6  C8  UNL     1      -6.613  -4.927  14.437  1.00  0.00     0.233 C 
HETATM    7  N2  UNL     1      -5.610  -3.942  14.711  1.00  0.00    -0.069 N 
ATOM      8  H21 UNL     1      -5.077  -4.202  15.541  1.00  0.00     0.277 HD
ATOM      9  H22 UNL     1      -4.872  -3.984  14.008  1.00  0.00     0.277 HD
ENDROOT
BRANCH   1  10
HETATM   10  C2  UNL     1      -5.108  -1.685  14.117  1.00  0.00     0.209 C 
HETATM   11  C1  UNL     1      -5.586  -0.251  14.140  1.00  0.00     0.042 C 
BRANCH  10  12
HETATM   12  N1  UNL     1      -3.879  -1.745  14.888  1.00  0.00    -0.073 N 
ATOM     13  H13 UNL     1      -3.745  -0.931  15.488  1.00  0.00     0.274 HD
ATOM     14  H12 UNL     1      -3.905  -2.450  15.625  1.00  0.00     0.274 HD
ATOM     15  H11 UNL     1      -3.113  -1.884  14.229  1.00  0.00     0.274 HD
ENDBRANCH  10  12
ENDBRANCH   1  10
TORSDOF 2
ENDMDL
