MODEL 1
REMARK VINA RESULT: -4.585340669      0.000      0.000
REMARK  2 active torsions:
REMARK  status: ('A' for Active; 'I' for Inactive)
REMARK    1  A    between atoms: C2_2  and  C3_3 
REMARK    2  A    between atoms: C6_9  and  N2_10 
ROOT
HETATM    1  C3  UNL     1      30.068  -3.988 -10.045  1.00  0.00     0.018 A 
HETATM    2  C4  UNL     1      29.140  -4.342  -9.074  1.00  0.00     0.082 A 
HETATM    3  C5  UNL     1      28.629  -3.415  -8.030  1.00  0.00     0.079 C 
HETATM    4  O1  UNL     1      28.852  -5.599  -9.296  1.00  0.00    -0.240 OA
HETATM    5  N1  UNL     1      29.526  -6.069 -10.330  1.00  0.00    -0.245 N 
ATOM      6  H1  UNL     1      29.467  -7.022 -10.690  1.00  0.00     0.196 HD
HETATM    7  C6  UNL     1      30.294  -5.105 -10.826  1.00  0.00     0.128 A 
ENDROOT
BRANCH   7   8
HETATM    8  N2  UNL     1      31.114  -5.151 -11.845  1.00  0.00    -0.384 N 
ATOM      9  H22 UNL     1      31.172  -4.527 -12.650  1.00  0.00     0.157 HD
ATOM     10  H21 UNL     1      31.842  -5.853 -11.975  1.00  0.00     0.157 HD
ENDBRANCH   7   8
BRANCH   1  11
HETATM   11  C2  UNL     1      30.715  -2.678 -10.228  1.00  0.00     0.040 C 
HETATM   12  C1  UNL     1      32.138  -2.817  -9.672  1.00  0.00     0.010 C 
ENDBRANCH   1  11
TORSDOF 2
ENDMDL
MODEL 2
REMARK VINA RESULT: -4.487154970      1.854      2.835
REMARK  2 active torsions:
REMARK  status: ('A' for Active; 'I' for Inactive)
REMARK    1  A    between atoms: C2_2  and  C3_3 
REMARK    2  A    between atoms: C6_9  and  N2_10 
ROOT
HETATM    1  C3  UNL     1      29.946  -3.916  -9.029  1.00  0.00     0.018 A 
HETATM    2  C4  UNL     1      29.756  -4.923  -9.967  1.00  0.00     0.082 A 
HETATM    3  C5  UNL     1      30.677  -5.189 -11.103  1.00  0.00     0.079 C 
HETATM    4  O1  UNL     1      28.649  -5.529  -9.622  1.00  0.00    -0.240 OA
HETATM    5  N1  UNL     1      28.123  -4.984  -8.540  1.00  0.00    -0.245 N 
ATOM      6  H1  UNL     1      27.261  -5.287  -8.086  1.00  0.00     0.196 HD
HETATM    7  C6  UNL     1      28.893  -3.979  -8.137  1.00  0.00     0.128 A 
ENDROOT
BRANCH   7   8
HETATM    8  N2  UNL     1      28.732  -3.181  -7.113  1.00  0.00    -0.384 N 
ATOM      9  H22 UNL     1      29.436  -2.656  -6.593  1.00  0.00     0.157 HD
ATOM     10  H21 UNL     1      27.836  -2.967  -6.676  1.00  0.00     0.157 HD
ENDBRANCH   7   8
BRANCH   1  11
HETATM   11  C2  UNL     1      31.049  -2.942  -8.975  1.00  0.00     0.040 C 
HETATM   12  C1  UNL     1      30.933  -2.086 -10.243  1.00  0.00     0.010 C 
ENDBRANCH   1  11
TORSDOF 2
ENDMDL
MODEL 3
REMARK VINA RESULT: -4.387777549      1.845      2.929
REMARK  2 active torsions:
REMARK  status: ('A' for Active; 'I' for Inactive)
REMARK    1  A    between atoms: C2_2  and  C3_3 
REMARK    2  A    between atoms: C6_9  and  N2_10 
ROOT
HETATM    1  C3  UNL     1      30.580  -4.147 -10.572  1.00  0.00     0.018 A 
HETATM    2  C4  UNL     1      30.848  -2.810 -10.304  1.00  0.00     0.082 A 
HETATM    3  C5  UNL     1      31.883  -2.009 -11.009  1.00  0.00     0.079 C 
HETATM    4  O1  UNL     1      30.023  -2.465  -9.349  1.00  0.00    -0.240 OA
HETATM    5  N1  UNL     1      29.255  -3.478  -8.990  1.00  0.00    -0.245 N 
ATOM      6  H1  UNL     1      28.537  -3.447  -8.266  1.00  0.00     0.196 HD
HETATM    7  C6  UNL     1      29.565  -4.542  -9.722  1.00  0.00     0.128 A 
ENDROOT
BRANCH   7   8
HETATM    8  N2  UNL     1      29.047  -5.744  -9.685  1.00  0.00    -0.384 N 
ATOM      9  H22 UNL     1      29.502  -6.631  -9.470  1.00  0.00     0.157 HD
ATOM     10  H21 UNL     1      28.070  -5.963  -9.878  1.00  0.00     0.157 HD
ENDBRANCH   7   8
BRANCH   1  11
HETATM   11  C2  UNL     1      31.243  -5.010 -11.564  1.00  0.00     0.040 C 
HETATM   12  C1  UNL     1      32.384  -5.721 -10.825  1.00  0.00     0.010 C 
ENDBRANCH   1  11
TORSDOF 2
ENDMDL
MODEL 4
REMARK VINA RESULT: -4.337810869      1.587      2.718
REMARK  2 active torsions:
REMARK  status: ('A' for Active; 'I' for Inactive)
REMARK    1  A    between atoms: C2_2  and  C3_3 
REMARK    2  A    between atoms: C6_9  and  N2_10 
ROOT
HETATM    1  C3  UNL     1      30.211  -3.821 -10.150  1.00  0.00     0.018 A 
HETATM    2  C4  UNL     1      31.217  -3.168 -10.852  1.00  0.00     0.082 A 
HETATM    3  C5  UNL     1      31.584  -1.742 -10.649  1.00  0.00     0.079 C 
HETATM    4  O1  UNL     1      31.718  -4.058 -11.670  1.00  0.00    -0.240 OA
HETATM    5  N1  UNL     1      31.107  -5.222 -11.543  1.00  0.00    -0.245 N 
ATOM      6  H1  UNL     1      31.325  -6.064 -12.076  1.00  0.00     0.196 HD
HETATM    7  C6  UNL     1      30.165  -5.122 -10.611  1.00  0.00     0.128 A 
ENDROOT
BRANCH   7   8
HETATM    8  N2  UNL     1      29.335  -6.038 -10.181  1.00  0.00    -0.384 N 
ATOM      9  H22 UNL     1      29.541  -6.962  -9.800  1.00  0.00     0.157 HD
ATOM     10  H21 UNL     1      28.319  -5.945 -10.169  1.00  0.00     0.157 HD
ENDBRANCH   7   8
BRANCH   1  11
HETATM   11  C2  UNL     1      29.335  -3.256  -9.110  1.00  0.00     0.040 C 
HETATM   12  C1  UNL     1      30.101  -3.379  -7.787  1.00  0.00     0.010 C 
ENDBRANCH   1  11
TORSDOF 2
ENDMDL
MODEL 5
REMARK VINA RESULT: -4.270323551      1.526      2.669
REMARK  2 active torsions:
REMARK  status: ('A' for Active; 'I' for Inactive)
REMARK    1  A    between atoms: C2_2  and  C3_3 
REMARK    2  A    between atoms: C6_9  and  N2_10 
ROOT
HETATM    1  C3  UNL     1      30.475  -3.737 -10.344  1.00  0.00     0.018 A 
HETATM    2  C4  UNL     1      30.693  -4.816 -11.191  1.00  0.00     0.082 A 
HETATM    3  C5  UNL     1      31.621  -4.792 -12.352  1.00  0.00     0.079 C 
HETATM    4  O1  UNL     1      29.933  -5.782 -10.743  1.00  0.00    -0.240 OA
HETATM    5  N1  UNL     1      29.250  -5.398  -9.679  1.00  0.00    -0.245 N 
ATOM      6  H1  UNL     1      28.593  -5.979  -9.157  1.00  0.00     0.196 HD
HETATM    7  C6  UNL     1      29.555  -4.136  -9.395  1.00  0.00     0.128 A 
ENDROOT
BRANCH   7   8
HETATM    8  N2  UNL     1      29.104  -3.380  -8.427  1.00  0.00    -0.384 N 
ATOM      9  H22 UNL     1      28.857  -2.390  -8.449  1.00  0.00     0.157 HD
ATOM     10  H21 UNL     1      28.931  -3.696  -7.473  1.00  0.00     0.157 HD
ENDBRANCH   7   8
BRANCH   1  11
HETATM   11  C2  UNL     1      31.090  -2.401 -10.423  1.00  0.00     0.040 C 
HETATM   12  C1  UNL     1      32.500  -2.539  -9.835  1.00  0.00     0.010 C 
ENDBRANCH   1  11
TORSDOF 2
ENDMDL
