MODEL 1
REMARK VINA RESULT: -4.884638145      0.000      0.000
REMARK  1 active torsions:
REMARK  status: ('A' for Active; 'I' for Inactive)
REMARK    1  A    between atoms: C2_2  and  C3_3 
ROOT
HETATM    1  C3  UNL     1      29.107  -4.506  -9.320  1.00  0.00     0.082 A 
HETATM    2  N1  UNL     1      29.767  -3.348  -9.468  1.00  0.00    -0.347 N 
ATOM      3  H1  UNL     1      29.579  -2.496  -8.939  1.00  0.00     0.167 HD
HETATM    4  C4  UNL     1      30.721  -3.478 -10.425  1.00  0.00     0.048 A 
HETATM    5  C5  UNL     1      31.631  -2.402 -10.844  1.00  0.00     0.072 C 
HETATM    6  C6  UNL     1      30.622  -4.754 -10.857  1.00  0.00     0.140 A 
HETATM    7  N2  UNL     1      31.422  -5.369 -11.869  1.00  0.00    -0.081 NA
HETATM    8  N3  UNL     1      29.641  -5.380 -10.187  1.00  0.00    -0.333 N 
ATOM      9  H3  UNL     1      29.352  -6.350 -10.315  1.00  0.00     0.168 HD
ENDROOT
BRANCH   1  10
HETATM   10  C2  UNL     1      27.999  -4.729  -8.362  1.00  0.00     0.072 C 
HETATM   11  C1  UNL     1      27.934  -3.502  -7.449  1.00  0.00     0.013 C 
ENDBRANCH   1  10
TORSDOF 1
ENDMDL
MODEL 2
REMARK VINA RESULT: -4.773874783      1.403      2.260
REMARK  1 active torsions:
REMARK  status: ('A' for Active; 'I' for Inactive)
REMARK    1  A    between atoms: C2_2  and  C3_3 
ROOT
HETATM    1  C3  UNL     1      29.836  -4.245  -9.863  1.00  0.00     0.082 A 
HETATM    2  N1  UNL     1      30.571  -4.448 -10.966  1.00  0.00    -0.347 N 
ATOM      3  H1  UNL     1      30.552  -5.294 -11.535  1.00  0.00     0.167 HD
HETATM    4  C4  UNL     1      31.345  -3.359 -11.212  1.00  0.00     0.048 A 
HETATM    5  C5  UNL     1      32.276  -3.240 -12.344  1.00  0.00     0.072 C 
HETATM    6  C6  UNL     1      31.058  -2.486 -10.222  1.00  0.00     0.140 A 
HETATM    7  N2  UNL     1      31.627  -1.186 -10.051  1.00  0.00    -0.081 NA
HETATM    8  N3  UNL     1      30.142  -3.022  -9.401  1.00  0.00    -0.333 N 
ATOM      9  H3  UNL     1      29.747  -2.579  -8.572  1.00  0.00     0.168 HD
ENDROOT
BRANCH   1  10
HETATM   10  C2  UNL     1      28.876  -5.223  -9.297  1.00  0.00     0.072 C 
HETATM   11  C1  UNL     1      27.990  -4.467  -8.305  1.00  0.00     0.013 C 
ENDBRANCH   1  10
TORSDOF 1
ENDMDL
MODEL 3
REMARK VINA RESULT: -4.605266107      2.399      3.370
REMARK  1 active torsions:
REMARK  status: ('A' for Active; 'I' for Inactive)
REMARK    1  A    between atoms: C2_2  and  C3_3 
ROOT
HETATM    1  C3  UNL     1      27.614  -3.695  -7.024  1.00  0.00     0.082 A 
HETATM    2  N1  UNL     1      27.588  -4.667  -7.947  1.00  0.00    -0.347 N 
ATOM      3  H1  UNL     1      26.824  -5.330  -8.078  1.00  0.00     0.167 HD
HETATM    4  C4  UNL     1      28.731  -4.639  -8.680  1.00  0.00     0.048 A 
HETATM    5  C5  UNL     1      29.036  -5.565  -9.780  1.00  0.00     0.072 C 
HETATM    6  C6  UNL     1      29.455  -3.617  -8.174  1.00  0.00     0.140 A 
HETATM    7  N2  UNL     1      30.744  -3.192  -8.621  1.00  0.00    -0.081 NA
HETATM    8  N3  UNL     1      28.778  -3.043  -7.167  1.00  0.00    -0.333 N 
ATOM      9  H3  UNL     1      29.094  -2.250  -6.608  1.00  0.00     0.168 HD
ENDROOT
BRANCH   1  10
HETATM   10  C2  UNL     1      26.531  -3.431  -6.047  1.00  0.00     0.072 C 
HETATM   11  C1  UNL     1      26.136  -4.775  -5.433  1.00  0.00     0.013 C 
ENDBRANCH   1  10
TORSDOF 1
ENDMDL
MODEL 4
REMARK VINA RESULT: -4.578487171      1.671      2.517
REMARK  1 active torsions:
REMARK  status: ('A' for Active; 'I' for Inactive)
REMARK    1  A    between atoms: C2_2  and  C3_3 
ROOT
HETATM    1  C3  UNL     1      30.267  -4.246  -9.800  1.00  0.00     0.082 A 
HETATM    2  N1  UNL     1      31.572  -4.533  -9.911  1.00  0.00    -0.347 N 
ATOM      3  H1  UNL     1      31.967  -5.473  -9.904  1.00  0.00     0.167 HD
HETATM    4  C4  UNL     1      32.289  -3.386 -10.032  1.00  0.00     0.048 A 
HETATM    5  C5  UNL     1      33.751  -3.330 -10.173  1.00  0.00     0.072 C 
HETATM    6  C6  UNL     1      31.377  -2.389  -9.991  1.00  0.00     0.140 A 
HETATM    7  N2  UNL     1      31.651  -0.989 -10.081  1.00  0.00    -0.081 NA
HETATM    8  N3  UNL     1      30.148  -2.910  -9.850  1.00  0.00    -0.333 N 
ATOM      9  H3  UNL     1      29.277  -2.383  -9.790  1.00  0.00     0.168 HD
ENDROOT
BRANCH   1  10
HETATM   10  C2  UNL     1      29.191  -5.255  -9.651  1.00  0.00     0.072 C 
HETATM   11  C1  UNL     1      28.198  -4.711  -8.622  1.00  0.00     0.013 C 
ENDBRANCH   1  10
TORSDOF 1
ENDMDL
MODEL 5
REMARK VINA RESULT: -4.530931793      0.964      1.116
REMARK  1 active torsions:
REMARK  status: ('A' for Active; 'I' for Inactive)
REMARK    1  A    between atoms: C2_2  and  C3_3 
ROOT
HETATM    1  C3  UNL     1      29.889  -3.704  -9.554  1.00  0.00     0.082 A 
HETATM    2  N1  UNL     1      30.643  -2.742 -10.106  1.00  0.00    -0.347 N 
ATOM      3  H1  UNL     1      30.700  -1.780  -9.773  1.00  0.00     0.167 HD
HETATM    4  C4  UNL     1      31.318  -3.240 -11.174  1.00  0.00     0.048 A 
HETATM    5  C5  UNL     1      32.239  -2.459 -12.013  1.00  0.00     0.072 C 
HETATM    6  C6  UNL     1      30.952  -4.538 -11.255  1.00  0.00     0.140 A 
HETATM    7  N2  UNL     1      31.402  -5.484 -12.227  1.00  0.00    -0.081 NA
HETATM    8  N3  UNL     1      30.083  -4.822 -10.272  1.00  0.00    -0.333 N 
ATOM      9  H3  UNL     1      29.646  -5.727 -10.101  1.00  0.00     0.168 HD
ENDROOT
BRANCH   1  10
HETATM   10  C2  UNL     1      29.019  -3.518  -8.369  1.00  0.00     0.072 C 
HETATM   11  C1  UNL     1      27.967  -4.629  -8.399  1.00  0.00     0.013 C 
ENDBRANCH   1  10
TORSDOF 1
ENDMDL
