MODEL 1
REMARK VINA RESULT: -7.080433474      0.000      0.000
REMARK  10 active torsions:
REMARK  status: ('A' for Active; 'I' for Inactive)
REMARK    1  A    between atoms: O1_2  and  C2_3 
REMARK    2  A    between atoms: C2_3  and  C3_4 
REMARK    3  A    between atoms: C2_3  and  C12_30 
REMARK       I    between atoms: C3_4  and  N1_6 
REMARK    4  A    between atoms: N1_6  and  C4_8 
REMARK    5  A    between atoms: C4_8  and  C6_10 
REMARK    6  A    between atoms: C8_14  and  N3_15 
REMARK    7  A    between atoms: C11_26  and  N7_27 
REMARK    8  A    between atoms: C12_30  and  O3_31 
REMARK    9  A    between atoms: C12_30  and  C13_33 
REMARK   10  A    between atoms: C14_37  and  N9_38 
ROOT
HETATM    1  C3  UNL     1      -6.529 -37.954  20.868  1.00  0.00     0.249 C 
HETATM    2  O2  UNL     1      -7.099 -37.412  21.865  1.00  0.00    -0.271 OA
HETATM    3  N1  UNL     1      -5.117 -38.017  20.784  1.00  0.00    -0.349 N 
ATOM      4  H1  UNL     1      -4.673 -38.457  19.977  1.00  0.00     0.163 HD
ENDROOT
BRANCH   3   5
HETATM    5  C4  UNL     1      -4.304 -37.460  21.837  1.00  0.00     0.134 C 
HETATM    6  C5  UNL     1      -3.342 -38.506  22.394  1.00  0.00     0.039 C 
BRANCH   5   7
HETATM    7  C6  UNL     1      -3.495 -36.301  21.407  1.00  0.00     0.076 A 
HETATM    8  N2  UNL     1      -2.272 -36.488  20.879  1.00  0.00    -0.349 N 
HETATM    9  C7  UNL     1      -1.503 -35.463  20.478  1.00  0.00     0.121 A 
ATOM     10  H2  UNL     1      -1.917 -37.439  20.781  1.00  0.00     0.166 HD
HETATM   11  C8  UNL     1      -0.259 -35.641  19.941  1.00  0.00     0.130 A 
HETATM   12  C10 UNL     1      -1.996 -34.184  20.618  1.00  0.00     0.138 A 
HETATM   13  N4  UNL     1       0.476 -34.593  19.553  1.00  0.00    -0.337 N 
HETATM   14  C9  UNL     1      -0.016 -33.347  19.696  1.00  0.00     0.183 A 
ATOM     15  H4  UNL     1       1.403 -34.735  19.154  1.00  0.00     0.168 HD
HETATM   16  N5  UNL     1      -1.245 -33.161  20.226  1.00  0.00    -0.337 N 
ATOM     17  H5  UNL     1      -1.604 -32.212  20.327  1.00  0.00     0.168 HD
HETATM   18  N6  UNL     1      -3.211 -33.951  21.141  1.00  0.00    -0.325 N 
HETATM   19  C11 UNL     1      -3.947 -35.002  21.528  1.00  0.00     0.125 A 
ATOM     20  H6  UNL     1      -3.563 -33.000  21.240  1.00  0.00     0.169 HD
BRANCH  11  21
HETATM   21  N3  UNL     1       0.244 -36.833  19.791  1.00  0.00    -0.383 N 
ATOM     22  H32 UNL     1      -0.167 -37.444  19.084  1.00  0.00     0.157 HD
ATOM     23  H31 UNL     1       1.027 -37.149  20.363  1.00  0.00     0.157 HD
ENDBRANCH  11  21
BRANCH  19  24
HETATM   24  N7  UNL     1      -5.118 -34.824  22.034  1.00  0.00    -0.384 N 
ATOM     25  H72 UNL     1      -5.237 -34.752  23.044  1.00  0.00     0.157 HD
ATOM     26  H71 UNL     1      -5.905 -34.760  21.388  1.00  0.00     0.157 HD
ENDBRANCH  19  24
ENDBRANCH   5   7
ENDBRANCH   3   5
BRANCH   1  27
HETATM   27  C2  UNL     1      -7.409 -38.524  19.788  1.00  0.00     0.243 C 
BRANCH  27  28
HETATM   28  O1  UNL     1      -8.652 -37.953  19.926  1.00  0.00    -0.379 OA
HETATM   29  C1  UNL     1      -9.605 -38.875  20.312  1.00  0.00     0.202 C 
ENDBRANCH  27  28
BRANCH  27  30
HETATM   30  C12 UNL     1      -7.433 -40.008  19.949  1.00  0.00     0.196 C 
BRANCH  30  31
HETATM   31  O3  UNL     1      -6.624 -40.396  21.014  1.00  0.00    -0.390 OA
ATOM     32  H3  UNL     1      -6.533 -41.342  21.037  1.00  0.00     0.210 HD
ENDBRANCH  30  31
BRANCH  30  33
HETATM   33  C13 UNL     1      -7.037 -40.715  18.673  1.00  0.00     0.312 C 
HETATM   34  N8  UNL     1      -7.561 -42.066  18.673  1.00  0.00    -0.013 N 
HETATM   35  C14 UNL     1      -6.626 -42.922  18.017  1.00  0.00     0.486 C 
ATOM     36  H82 UNL     1      -7.798 -42.393  19.610  1.00  0.00     0.282 HD
ATOM     37  H81 UNL     1      -8.494 -42.123  18.265  1.00  0.00     0.282 HD
HETATM   38  N10 UNL     1      -5.404 -42.138  17.830  1.00  0.00    -0.309 N 
HETATM   39  C15 UNL     1      -5.572 -40.956  18.603  1.00  0.00     0.254 C 
ATOM     40  H10 UNL     1      -4.595 -42.388  17.261  1.00  0.00     0.166 HD
HETATM   41  O4  UNL     1      -4.612 -40.308  19.090  1.00  0.00    -0.271 OA
BRANCH  35  42
HETATM   42  N9  UNL     1      -7.123 -43.390  16.736  1.00  0.00    -0.033 N 
ATOM     43  H93 UNL     1      -7.278 -44.398  16.746  1.00  0.00     0.278 HD
ATOM     44  H92 UNL     1      -8.081 -43.081  16.575  1.00  0.00     0.278 HD
ATOM     45  H91 UNL     1      -6.512 -43.118  15.966  1.00  0.00     0.278 HD
ENDBRANCH  35  42
ENDBRANCH  30  33
ENDBRANCH  27  30
ENDBRANCH   1  27
TORSDOF 10
ENDMDL
MODEL 2
REMARK VINA RESULT: -6.970524942      2.760      7.233
REMARK  10 active torsions:
REMARK  status: ('A' for Active; 'I' for Inactive)
REMARK    1  A    between atoms: O1_2  and  C2_3 
REMARK    2  A    between atoms: C2_3  and  C3_4 
REMARK    3  A    between atoms: C2_3  and  C12_30 
REMARK       I    between atoms: C3_4  and  N1_6 
REMARK    4  A    between atoms: N1_6  and  C4_8 
REMARK    5  A    between atoms: C4_8  and  C6_10 
REMARK    6  A    between atoms: C8_14  and  N3_15 
REMARK    7  A    between atoms: C11_26  and  N7_27 
REMARK    8  A    between atoms: C12_30  and  O3_31 
REMARK    9  A    between atoms: C12_30  and  C13_33 
REMARK   10  A    between atoms: C14_37  and  N9_38 
ROOT
HETATM    1  C3  UNL     1      -4.230 -35.085  22.066  1.00  0.00     0.249 C 
HETATM    2  O2  UNL     1      -4.097 -35.751  23.139  1.00  0.00    -0.271 OA
HETATM    3  N1  UNL     1      -5.514 -34.811  21.535  1.00  0.00    -0.349 N 
ATOM      4  H1  UNL     1      -5.605 -34.274  20.672  1.00  0.00     0.163 HD
ENDROOT
BRANCH   3   5
HETATM    5  C4  UNL     1      -6.694 -35.289  22.214  1.00  0.00     0.134 C 
HETATM    6  C5  UNL     1      -7.948 -34.616  21.664  1.00  0.00     0.039 C 
BRANCH   5   7
HETATM    7  C6  UNL     1      -6.890 -36.749  22.096  1.00  0.00     0.076 A 
HETATM    8  N2  UNL     1      -6.903 -37.335  20.886  1.00  0.00    -0.349 N 
HETATM    9  C7  UNL     1      -7.080 -38.658  20.734  1.00  0.00     0.121 A 
ATOM     10  H2  UNL     1      -6.774 -36.757  20.056  1.00  0.00     0.166 HD
HETATM   11  C8  UNL     1      -7.096 -39.264  19.510  1.00  0.00     0.130 A 
HETATM   12  C10 UNL     1      -7.254 -39.426  21.865  1.00  0.00     0.138 A 
HETATM   13  N4  UNL     1      -7.276 -40.585  19.402  1.00  0.00    -0.337 N 
HETATM   14  C9  UNL     1      -7.445 -41.325  20.514  1.00  0.00     0.183 A 
ATOM     15  H4  UNL     1      -7.286 -41.028  18.484  1.00  0.00     0.168 HD
HETATM   16  N5  UNL     1      -7.432 -40.736  21.729  1.00  0.00    -0.337 N 
ATOM     17  H5  UNL     1      -7.561 -41.309  22.562  1.00  0.00     0.168 HD
HETATM   18  N6  UNL     1      -7.249 -38.882  23.093  1.00  0.00    -0.325 N 
HETATM   19  C11 UNL     1      -7.068 -37.559  23.201  1.00  0.00     0.125 A 
ATOM     20  H6  UNL     1      -7.380 -39.462  23.922  1.00  0.00     0.169 HD
BRANCH  11  21
HETATM   21  N3  UNL     1      -6.936 -38.574  18.416  1.00  0.00    -0.383 N 
ATOM     22  H32 UNL     1      -6.976 -37.557  18.479  1.00  0.00     0.157 HD
ATOM     23  H31 UNL     1      -6.774 -39.037  17.522  1.00  0.00     0.157 HD
ENDBRANCH  11  21
BRANCH  19  24
HETATM   24  N7  UNL     1      -7.055 -36.997  24.359  1.00  0.00    -0.384 N 
ATOM     25  H72 UNL     1      -7.558 -36.123  24.513  1.00  0.00     0.157 HD
ATOM     26  H71 UNL     1      -6.528 -37.458  25.101  1.00  0.00     0.157 HD
ENDBRANCH  19  24
ENDBRANCH   5   7
ENDBRANCH   3   5
BRANCH   1  27
HETATM   27  C2  UNL     1      -2.976 -34.604  21.386  1.00  0.00     0.243 C 
BRANCH  27  28
HETATM   28  O1  UNL     1      -3.229 -33.343  20.902  1.00  0.00    -0.379 OA
HETATM   29  C1  UNL     1      -2.293 -32.950  19.965  1.00  0.00     0.202 C 
ENDBRANCH  27  28
BRANCH  27  30
HETATM   30  C12 UNL     1      -2.634 -35.580  20.309  1.00  0.00     0.196 C 
BRANCH  30  31
HETATM   31  O3  UNL     1      -3.774 -36.256  19.883  1.00  0.00    -0.390 OA
ATOM     32  H3  UNL     1      -3.700 -36.489  18.965  1.00  0.00     0.210 HD
ENDBRANCH  30  31
BRANCH  30  33
HETATM   33  C13 UNL     1      -1.557 -36.544  20.751  1.00  0.00     0.312 C 
HETATM   34  N8  UNL     1      -1.162 -36.254  22.115  1.00  0.00    -0.013 N 
HETATM   35  C14 UNL     1       0.235 -36.509  22.253  1.00  0.00     0.486 C 
ATOM     36  H82 UNL     1      -1.416 -35.308  22.401  1.00  0.00     0.282 HD
ATOM     37  H81 UNL     1      -1.720 -36.763  22.800  1.00  0.00     0.282 HD
HETATM   38  N10 UNL     1       0.756 -36.721  20.901  1.00  0.00    -0.309 N 
HETATM   39  C15 UNL     1      -0.284 -36.332  20.013  1.00  0.00     0.254 C 
ATOM     40  H10 UNL     1       1.677 -37.077  20.647  1.00  0.00     0.166 HD
HETATM   41  O4  UNL     1      -0.074 -35.904  18.850  1.00  0.00    -0.271 OA
BRANCH  35  42
HETATM   42  N9  UNL     1       0.497 -37.673  23.080  1.00  0.00    -0.033 N 
ATOM     43  H93 UNL     1      -0.196 -38.404  22.919  1.00  0.00     0.278 HD
ATOM     44  H92 UNL     1       1.331 -38.169  22.768  1.00  0.00     0.278 HD
ATOM     45  H91 UNL     1       0.558 -37.434  24.070  1.00  0.00     0.278 HD
ENDBRANCH  35  42
ENDBRANCH  30  33
ENDBRANCH  27  30
ENDBRANCH   1  27
TORSDOF 10
ENDMDL
MODEL 3
REMARK VINA RESULT: -6.927069692      2.007      2.733
REMARK  10 active torsions:
REMARK  status: ('A' for Active; 'I' for Inactive)
REMARK    1  A    between atoms: O1_2  and  C2_3 
REMARK    2  A    between atoms: C2_3  and  C3_4 
REMARK    3  A    between atoms: C2_3  and  C12_30 
REMARK       I    between atoms: C3_4  and  N1_6 
REMARK    4  A    between atoms: N1_6  and  C4_8 
REMARK    5  A    between atoms: C4_8  and  C6_10 
REMARK    6  A    between atoms: C8_14  and  N3_15 
REMARK    7  A    between atoms: C11_26  and  N7_27 
REMARK    8  A    between atoms: C12_30  and  O3_31 
REMARK    9  A    between atoms: C12_30  and  C13_33 
REMARK   10  A    between atoms: C14_37  and  N9_38 
ROOT
HETATM    1  C3  UNL     1      -5.127 -40.453  21.728  1.00  0.00     0.249 C 
HETATM    2  O2  UNL     1      -6.106 -39.731  22.093  1.00  0.00    -0.271 OA
HETATM    3  N1  UNL     1      -3.793 -40.025  21.928  1.00  0.00    -0.349 N 
ATOM      4  H1  UNL     1      -3.017 -40.617  21.630  1.00  0.00     0.163 HD
ENDROOT
BRANCH   3   5
HETATM    5  C4  UNL     1      -3.529 -38.751  22.552  1.00  0.00     0.134 C 
HETATM    6  C5  UNL     1      -2.418 -38.875  23.591  1.00  0.00     0.039 C 
BRANCH   5   7
HETATM    7  C6  UNL     1      -3.123 -37.699  21.597  1.00  0.00     0.076 A 
HETATM    8  N2  UNL     1      -1.826 -37.530  21.287  1.00  0.00    -0.349 N 
HETATM    9  C7  UNL     1      -1.414 -36.585  20.426  1.00  0.00     0.121 A 
ATOM     10  H2  UNL     1      -1.131 -38.138  21.720  1.00  0.00     0.166 HD
HETATM   11  C8  UNL     1      -0.098 -36.403  20.104  1.00  0.00     0.130 A 
HETATM   12  C10 UNL     1      -2.364 -35.771  19.849  1.00  0.00     0.138 A 
HETATM   13  N4  UNL     1       0.271 -35.450  19.242  1.00  0.00    -0.337 N 
HETATM   14  C9  UNL     1      -0.666 -34.660  18.684  1.00  0.00     0.183 A 
ATOM     15  H4  UNL     1       1.255 -35.322  19.008  1.00  0.00     0.168 HD
HETATM   16  N5  UNL     1      -1.969 -34.831  18.996  1.00  0.00    -0.337 N 
ATOM     17  H5  UNL     1      -2.668 -34.225  18.566  1.00  0.00     0.168 HD
HETATM   18  N6  UNL     1      -3.670 -35.904  20.130  1.00  0.00    -0.325 N 
HETATM   19  C11 UNL     1      -4.039 -36.860  20.994  1.00  0.00     0.125 A 
ATOM     20  H6  UNL     1      -4.363 -35.294  19.697  1.00  0.00     0.169 HD
BRANCH  11  21
HETATM   21  N3  UNL     1       0.831 -37.152  20.627  1.00  0.00    -0.383 N 
ATOM     22  H32 UNL     1       0.627 -37.629  21.506  1.00  0.00     0.157 HD
ATOM     23  H31 UNL     1       1.738 -37.259  20.173  1.00  0.00     0.157 HD
ENDBRANCH  11  21
BRANCH  19  24
HETATM   24  N7  UNL     1      -5.281 -37.023  21.291  1.00  0.00    -0.384 N 
ATOM     25  H72 UNL     1      -5.558 -37.718  21.984  1.00  0.00     0.157 HD
ATOM     26  H71 UNL     1      -5.962 -36.437  20.808  1.00  0.00     0.157 HD
ENDBRANCH  19  24
ENDBRANCH   5   7
ENDBRANCH   3   5
BRANCH   1  27
HETATM   27  C2  UNL     1      -5.443 -41.775  21.080  1.00  0.00     0.243 C 
BRANCH  27  28
HETATM   28  O1  UNL     1      -4.505 -42.681  21.515  1.00  0.00    -0.379 OA
HETATM   29  C1  UNL     1      -4.940 -43.386  22.621  1.00  0.00     0.202 C 
ENDBRANCH  27  28
BRANCH  27  30
HETATM   30  C12 UNL     1      -5.414 -41.579  19.600  1.00  0.00     0.196 C 
BRANCH  30  31
HETATM   31  O3  UNL     1      -5.168 -40.244  19.289  1.00  0.00    -0.390 OA
ATOM     32  H3  UNL     1      -5.676 -39.979  18.532  1.00  0.00     0.210 HD
ENDBRANCH  30  31
BRANCH  30  33
HETATM   33  C13 UNL     1      -6.687 -42.068  18.948  1.00  0.00     0.312 C 
HETATM   34  N8  UNL     1      -7.180 -43.242  19.641  1.00  0.00    -0.013 N 
HETATM   35  C14 UNL     1      -7.778 -44.121  18.689  1.00  0.00     0.486 C 
ATOM     36  H82 UNL     1      -6.455 -43.701  20.193  1.00  0.00     0.282 HD
ATOM     37  H81 UNL     1      -7.812 -43.007  20.405  1.00  0.00     0.282 HD
HETATM   38  N10 UNL     1      -7.432 -43.599  17.365  1.00  0.00    -0.309 N 
HETATM   39  C15 UNL     1      -6.443 -42.600  17.581  1.00  0.00     0.254 C 
ATOM     40  H10 UNL     1      -7.821 -43.892  16.469  1.00  0.00     0.166 HD
HETATM   41  O4  UNL     1      -5.574 -42.295  16.728  1.00  0.00    -0.271 OA
BRANCH  35  42
HETATM   42  N9  UNL     1      -9.220 -44.188  18.841  1.00  0.00    -0.033 N 
ATOM     43  H93 UNL     1      -9.623 -44.898  18.230  1.00  0.00     0.278 HD
ATOM     44  H92 UNL     1      -9.479 -44.585  19.744  1.00  0.00     0.278 HD
ATOM     45  H91 UNL     1      -9.663 -43.280  18.696  1.00  0.00     0.278 HD
ENDBRANCH  35  42
ENDBRANCH  30  33
ENDBRANCH  27  30
ENDBRANCH   1  27
TORSDOF 10
ENDMDL
MODEL 4
REMARK VINA RESULT: -6.893888455      1.387      1.724
REMARK  10 active torsions:
REMARK  status: ('A' for Active; 'I' for Inactive)
REMARK    1  A    between atoms: O1_2  and  C2_3 
REMARK    2  A    between atoms: C2_3  and  C3_4 
REMARK    3  A    between atoms: C2_3  and  C12_30 
REMARK       I    between atoms: C3_4  and  N1_6 
REMARK    4  A    between atoms: N1_6  and  C4_8 
REMARK    5  A    between atoms: C4_8  and  C6_10 
REMARK    6  A    between atoms: C8_14  and  N3_15 
REMARK    7  A    between atoms: C11_26  and  N7_27 
REMARK    8  A    between atoms: C12_30  and  O3_31 
REMARK    9  A    between atoms: C12_30  and  C13_33 
REMARK   10  A    between atoms: C14_37  and  N9_38 
ROOT
HETATM    1  C3  UNL     1      -5.685 -37.542  20.818  1.00  0.00     0.249 C 
HETATM    2  O2  UNL     1      -6.310 -36.559  20.312  1.00  0.00    -0.271 OA
HETATM    3  N1  UNL     1      -4.778 -37.353  21.888  1.00  0.00    -0.349 N 
ATOM      4  H1  UNL     1      -4.284 -38.153  22.285  1.00  0.00     0.163 HD
ENDROOT
BRANCH   3   5
HETATM    5  C4  UNL     1      -4.550 -36.031  22.419  1.00  0.00     0.134 C 
HETATM    6  C5  UNL     1      -4.014 -36.103  23.846  1.00  0.00     0.039 C 
BRANCH   5   7
HETATM    7  C6  UNL     1      -3.591 -35.235  21.627  1.00  0.00     0.076 A 
HETATM    8  N2  UNL     1      -2.514 -35.823  21.077  1.00  0.00    -0.349 N 
HETATM    9  C7  UNL     1      -1.616 -35.137  20.352  1.00  0.00     0.121 A 
ATOM     10  H2  UNL     1      -2.375 -36.824  21.215  1.00  0.00     0.166 HD
HETATM   11  C8  UNL     1      -0.518 -35.724  19.789  1.00  0.00     0.130 A 
HETATM   12  C10 UNL     1      -1.819 -33.785  20.175  1.00  0.00     0.138 A 
HETATM   13  N4  UNL     1       0.352 -35.004  19.074  1.00  0.00    -0.337 N 
HETATM   14  C9  UNL     1       0.145 -33.684  18.907  1.00  0.00     0.183 A 
ATOM     15  H4  UNL     1       1.168 -35.451  18.657  1.00  0.00     0.168 HD
HETATM   16  N5  UNL     1      -0.937 -33.094  19.460  1.00  0.00    -0.337 N 
ATOM     17  H5  UNL     1      -1.081 -32.093  19.325  1.00  0.00     0.168 HD
HETATM   18  N6  UNL     1      -2.879 -33.156  20.706  1.00  0.00    -0.325 N 
HETATM   19  C11 UNL     1      -3.752 -33.879  21.422  1.00  0.00     0.125 A 
ATOM     20  H6  UNL     1      -3.017 -32.155  20.568  1.00  0.00     0.169 HD
BRANCH  11  21
HETATM   21  N3  UNL     1      -0.290 -36.999  19.932  1.00  0.00    -0.383 N 
ATOM     22  H32 UNL     1       0.363 -37.292  20.659  1.00  0.00     0.157 HD
ATOM     23  H31 UNL     1      -0.750 -37.686  19.335  1.00  0.00     0.157 HD
ENDBRANCH  11  21
BRANCH  19  24
HETATM   24  N7  UNL     1      -4.783 -33.316  21.949  1.00  0.00    -0.384 N 
ATOM     25  H72 UNL     1      -5.606 -33.869  22.188  1.00  0.00     0.157 HD
ATOM     26  H71 UNL     1      -4.740 -32.310  22.112  1.00  0.00     0.157 HD
ENDBRANCH  19  24
ENDBRANCH   5   7
ENDBRANCH   3   5
BRANCH   1  27
HETATM   27  C2  UNL     1      -5.947 -38.906  20.237  1.00  0.00     0.243 C 
BRANCH  27  28
HETATM   28  O1  UNL     1      -6.731 -39.591  21.134  1.00  0.00    -0.379 OA
HETATM   29  C1  UNL     1      -8.077 -39.458  20.854  1.00  0.00     0.202 C 
ENDBRANCH  27  28
BRANCH  27  30
HETATM   30  C12 UNL     1      -4.629 -39.564  19.999  1.00  0.00     0.196 C 
BRANCH  30  31
HETATM   31  O3  UNL     1      -3.668 -38.620  19.646  1.00  0.00    -0.390 OA
ATOM     32  H3  UNL     1      -2.873 -39.048  19.350  1.00  0.00     0.210 HD
ENDBRANCH  30  31
BRANCH  30  33
HETATM   33  C13 UNL     1      -4.731 -40.658  18.960  1.00  0.00     0.312 C 
HETATM   34  N8  UNL     1      -5.982 -40.539  18.237  1.00  0.00    -0.013 N 
HETATM   35  C14 UNL     1      -6.453 -41.847  17.916  1.00  0.00     0.486 C 
ATOM     36  H82 UNL     1      -6.675 -39.989  18.745  1.00  0.00     0.282 HD
ATOM     37  H81 UNL     1      -5.903 -39.941  17.415  1.00  0.00     0.282 HD
HETATM   38  N10 UNL     1      -5.613 -42.787  18.661  1.00  0.00    -0.309 N 
HETATM   39  C15 UNL     1      -4.863 -42.003  19.579  1.00  0.00     0.254 C 
ATOM     40  H10 UNL     1      -5.575 -43.800  18.546  1.00  0.00     0.166 HD
HETATM   41  O4  UNL     1      -4.436 -42.444  20.675  1.00  0.00    -0.271 OA
BRANCH  35  42
HETATM   42  N9  UNL     1      -6.371 -42.121  16.493  1.00  0.00    -0.033 N 
ATOM     43  H93 UNL     1      -6.729 -41.339  15.945  1.00  0.00     0.278 HD
ATOM     44  H92 UNL     1      -5.404 -42.115  16.169  1.00  0.00     0.278 HD
ATOM     45  H91 UNL     1      -6.839 -42.992  16.243  1.00  0.00     0.278 HD
ENDBRANCH  35  42
ENDBRANCH  30  33
ENDBRANCH  27  30
ENDBRANCH   1  27
TORSDOF 10
ENDMDL
MODEL 5
REMARK VINA RESULT: -6.881874975      2.568      7.315
REMARK  10 active torsions:
REMARK  status: ('A' for Active; 'I' for Inactive)
REMARK    1  A    between atoms: O1_2  and  C2_3 
REMARK    2  A    between atoms: C2_3  and  C3_4 
REMARK    3  A    between atoms: C2_3  and  C12_30 
REMARK       I    between atoms: C3_4  and  N1_6 
REMARK    4  A    between atoms: N1_6  and  C4_8 
REMARK    5  A    between atoms: C4_8  and  C6_10 
REMARK    6  A    between atoms: C8_14  and  N3_15 
REMARK    7  A    between atoms: C11_26  and  N7_27 
REMARK    8  A    between atoms: C12_30  and  O3_31 
REMARK    9  A    between atoms: C12_30  and  C13_33 
REMARK   10  A    between atoms: C14_37  and  N9_38 
ROOT
HETATM    1  C3  UNL     1      -4.841 -35.876  22.003  1.00  0.00     0.249 C 
HETATM    2  O2  UNL     1      -4.791 -36.510  23.102  1.00  0.00    -0.271 OA
HETATM    3  N1  UNL     1      -6.080 -35.617  21.369  1.00  0.00    -0.349 N 
ATOM      4  H1  UNL     1      -6.105 -35.105  20.487  1.00  0.00     0.163 HD
ENDROOT
BRANCH   3   5
HETATM    5  C4  UNL     1      -7.309 -36.076  21.969  1.00  0.00     0.134 C 
HETATM    6  C5  UNL     1      -8.492 -35.233  21.501  1.00  0.00     0.039 C 
BRANCH   5   7
HETATM    7  C6  UNL     1      -7.625 -37.486  21.661  1.00  0.00     0.076 A 
HETATM    8  N2  UNL     1      -7.118 -38.069  20.560  1.00  0.00    -0.349 N 
HETATM    9  C7  UNL     1      -7.381 -39.346  20.242  1.00  0.00     0.121 A 
ATOM     10  H2  UNL     1      -6.514 -37.522  19.947  1.00  0.00     0.166 HD
HETATM   11  C8  UNL     1      -6.872 -39.948  19.125  1.00  0.00     0.130 A 
HETATM   12  C10 UNL     1      -8.200 -40.071  21.080  1.00  0.00     0.138 A 
HETATM   13  N4  UNL     1      -7.159 -41.224  18.844  1.00  0.00    -0.337 N 
HETATM   14  C9  UNL     1      -7.961 -41.923  19.670  1.00  0.00     0.183 A 
ATOM     15  H4  UNL     1      -6.775 -41.664  18.009  1.00  0.00     0.168 HD
HETATM   16  N5  UNL     1      -8.469 -41.337  20.776  1.00  0.00    -0.337 N 
ATOM     17  H5  UNL     1      -9.074 -41.878  21.392  1.00  0.00     0.168 HD
HETATM   18  N6  UNL     1      -8.728 -39.530  22.189  1.00  0.00    -0.325 N 
HETATM   19  C11 UNL     1      -8.440 -38.252  22.471  1.00  0.00     0.125 A 
ATOM     20  H6  UNL     1      -9.334 -40.077  22.801  1.00  0.00     0.169 HD
BRANCH  11  21
HETATM   21  N3  UNL     1      -6.095 -39.298  18.307  1.00  0.00    -0.383 N 
ATOM     22  H32 UNL     1      -5.202 -38.955  18.661  1.00  0.00     0.157 HD
ATOM     23  H31 UNL     1      -6.369 -39.135  17.338  1.00  0.00     0.157 HD
ENDBRANCH  11  21
BRANCH  19  24
HETATM   24  N7  UNL     1      -8.925 -37.694  23.526  1.00  0.00    -0.384 N 
ATOM     25  H72 UNL     1      -8.449 -36.899  23.952  1.00  0.00     0.157 HD
ATOM     26  H71 UNL     1      -9.790 -38.078  23.907  1.00  0.00     0.157 HD
ENDBRANCH  19  24
ENDBRANCH   5   7
ENDBRANCH   3   5
BRANCH   1  27
HETATM   27  C2  UNL     1      -3.538 -35.414  21.406  1.00  0.00     0.243 C 
BRANCH  27  28
HETATM   28  O1  UNL     1      -3.679 -34.084  21.092  1.00  0.00    -0.379 OA
HETATM   29  C1  UNL     1      -2.929 -33.273  21.923  1.00  0.00     0.202 C 
ENDBRANCH  27  28
BRANCH  27  30
HETATM   30  C12 UNL     1      -3.253 -36.264  20.213  1.00  0.00     0.196 C 
BRANCH  30  31
HETATM   31  O3  UNL     1      -4.074 -37.388  20.206  1.00  0.00    -0.390 OA
ATOM     32  H3  UNL     1      -4.534 -37.460  19.378  1.00  0.00     0.210 HD
ENDBRANCH  30  31
BRANCH  30  33
HETATM   33  C13 UNL     1      -1.793 -36.650  20.139  1.00  0.00     0.312 C 
HETATM   34  N8  UNL     1      -1.161 -36.448  21.428  1.00  0.00    -0.013 N 
HETATM   35  C14 UNL     1       0.183 -36.019  21.218  1.00  0.00     0.486 C 
ATOM     36  H82 UNL     1      -1.687 -35.808  22.023  1.00  0.00     0.282 HD
ATOM     37  H81 UNL     1      -1.218 -37.273  22.024  1.00  0.00     0.282 HD
HETATM   38  N10 UNL     1       0.306 -35.715  19.791  1.00  0.00    -0.309 N 
HETATM   39  C15 UNL     1      -1.017 -35.727  19.270  1.00  0.00     0.254 C 
ATOM     40  H10 UNL     1       1.167 -35.533  19.274  1.00  0.00     0.166 HD
HETATM   41  O4  UNL     1      -1.369 -35.057  18.268  1.00  0.00    -0.271 OA
BRANCH  35  42
HETATM   42  N9  UNL     1       1.145 -37.036  21.600  1.00  0.00    -0.033 N 
ATOM     43  H93 UNL     1       1.997 -36.968  21.043  1.00  0.00     0.278 HD
ATOM     44  H92 UNL     1       1.540 -36.846  22.521  1.00  0.00     0.278 HD
ATOM     45  H91 UNL     1       0.749 -37.975  21.554  1.00  0.00     0.278 HD
ENDBRANCH  35  42
ENDBRANCH  30  33
ENDBRANCH  27  30
ENDBRANCH   1  27
TORSDOF 10
ENDMDL
