MODEL 1
REMARK VINA RESULT: -6.919448866      0.000      0.000
REMARK  11 active torsions:
REMARK  status: ('A' for Active; 'I' for Inactive)
REMARK    1  A    between atoms: N1_4  and  C4_5 
REMARK    2  A    between atoms: C4_5  and  C5_6 
REMARK    3  A    between atoms: C5_6  and  N2_7 
REMARK    4  A    between atoms: C5_6  and  C6_11 
REMARK       I    between atoms: C6_11  and  N3_13 
REMARK    5  A    between atoms: N3_13  and  C7_15 
REMARK    6  A    between atoms: N4_18  and  C9_19 
REMARK    7  A    between atoms: C10_22  and  N6_23 
REMARK    8  A    between atoms: C11_28  and  N8_29 
REMARK    9  A    between atoms: C13_35  and  O3_36 
REMARK   10  A    between atoms: C13_35  and  C14_38 
REMARK   11  A    between atoms: C14_38  and  O4_39 
ROOT
HETATM    1  C7  UNL     1      -6.332 -35.830  23.142  1.00  0.00     0.216 C 
HETATM    2  C8  UNL     1      -7.431 -36.366  23.952  1.00  0.00     0.264 C 
HETATM    3  O2  UNL     1      -7.415 -37.193  24.927  1.00  0.00    -0.270 OA
HETATM    4  N4  UNL     1      -8.648 -35.775  23.452  1.00  0.00    -0.145 N 
HETATM    5  C12 UNL     1      -8.485 -35.654  22.009  1.00  0.00     0.193 C 
HETATM    6  C13 UNL     1      -7.004 -35.674  21.778  1.00  0.00     0.125 C 
ENDROOT
BRANCH   1   7
HETATM    7  N3  UNL     1      -5.145 -36.611  23.047  1.00  0.00    -0.343 N 
HETATM    8  C6  UNL     1      -3.904 -35.901  22.979  1.00  0.00     0.250 C 
HETATM    9  O1  UNL     1      -3.863 -34.623  23.010  1.00  0.00    -0.271 OA
ATOM     10  H3  UNL     1      -5.178 -37.630  23.028  1.00  0.00     0.163 HD
BRANCH   8  11
HETATM   11  C5  UNL     1      -2.614 -36.600  22.863  1.00  0.00     0.294 C 
BRANCH  11  12
HETATM   12  C4  UNL     1      -2.379 -37.229  21.531  1.00  0.00     0.192 C 
BRANCH  12  13
HETATM   13  N1  UNL     1      -2.052 -36.219  20.547  1.00  0.00    -0.285 N 
HETATM   14  C3  UNL     1      -0.840 -36.064  19.932  1.00  0.00     0.137 A 
HETATM   15  C2  UNL     1      -0.930 -35.002  19.059  1.00  0.00     0.040 A 
HETATM   16  C1  UNL     1       0.181 -34.503  18.183  1.00  0.00     0.071 C 
HETATM   17  N11 UNL     1      -2.182 -34.541  19.162  1.00  0.00    -0.289 N 
HETATM   18  N10 UNL     1      -2.826 -35.276  20.049  1.00  0.00    -0.241 N 
ATOM     19  H11 UNL     1      -2.572 -33.754  18.644  1.00  0.00     0.188 HD
ATOM     20  H10 UNL     1      -3.800 -35.133  20.314  1.00  0.00     0.208 HD
ENDBRANCH  12  13
ENDBRANCH  11  12
BRANCH  11  21
HETATM   21  N2  UNL     1      -1.548 -35.728  23.290  1.00  0.00    -0.065 N 
ATOM     22  H23 UNL     1      -0.647 -36.199  23.215  1.00  0.00     0.275 HD
ATOM     23  H22 UNL     1      -1.405 -34.976  22.615  1.00  0.00     0.275 HD
ATOM     24  H21 UNL     1      -1.678 -35.348  24.228  1.00  0.00     0.275 HD
ENDBRANCH  11  21
ENDBRANCH   8  11
ENDBRANCH   1   7
BRANCH   6  25
HETATM   25  O3  UNL     1      -6.500 -34.512  21.205  1.00  0.00    -0.383 OA
ATOM     26  H3  UNL     1      -6.607 -33.816  21.842  1.00  0.00     0.210 HD
ENDBRANCH   6  25
BRANCH   6  27
HETATM   27  C14 UNL     1      -6.572 -36.814  20.884  1.00  0.00     0.206 C 
BRANCH  27  28
HETATM   28  O4  UNL     1      -5.536 -36.438  20.035  1.00  0.00    -0.398 OA
ATOM     29  H4  UNL     1      -5.369 -37.097  19.372  1.00  0.00     0.209 HD
ENDBRANCH  27  28
ENDBRANCH   6  27
BRANCH   4  30
HETATM   30  C9  UNL     1      -9.793 -35.377  24.180  1.00  0.00     0.716 A 
HETATM   31  N5  UNL     1      -9.588 -34.767  25.382  1.00  0.00    -0.021 N 
HETATM   32  C10 UNL     1     -10.593 -34.338  26.167  1.00  0.00     0.705 A 
ATOM     33  H5  UNL     1      -8.629 -34.629  25.700  1.00  0.00     0.203 HD
HETATM   34  N7  UNL     1     -11.873 -34.514  25.756  1.00  0.00    -0.022 N 
HETATM   35  C11 UNL     1     -12.097 -35.117  24.566  1.00  0.00     0.705 A 
ATOM     36  H7  UNL     1     -12.652 -34.198  26.333  1.00  0.00     0.203 HD
HETATM   37  N9  UNL     1     -11.052 -35.531  23.813  1.00  0.00    -0.021 N 
ATOM     38  H9  UNL     1     -11.246 -35.984  22.919  1.00  0.00     0.203 HD
BRANCH  32  39
HETATM   39  N6  UNL     1     -10.388 -33.765  27.305  1.00  0.00    -0.234 N 
ATOM     40  H62 UNL     1     -10.664 -34.260  28.152  1.00  0.00     0.174 HD
ATOM     41  H61 UNL     1      -9.961 -32.842  27.386  1.00  0.00     0.174 HD
ENDBRANCH  32  39
BRANCH  35  42
HETATM   42  N8  UNL     1     -13.330 -35.287  24.170  1.00  0.00    -0.234 N 
ATOM     43  H82 UNL     1     -13.728 -34.728  23.415  1.00  0.00     0.174 HD
ATOM     44  H81 UNL     1     -13.900 -35.997  24.631  1.00  0.00     0.174 HD
ENDBRANCH  35  42
ENDBRANCH   4  30
TORSDOF 11
ENDMDL
MODEL 2
REMARK VINA RESULT: -6.827079169      0.152      1.477
REMARK  11 active torsions:
REMARK  status: ('A' for Active; 'I' for Inactive)
REMARK    1  A    between atoms: N1_4  and  C4_5 
REMARK    2  A    between atoms: C4_5  and  C5_6 
REMARK    3  A    between atoms: C5_6  and  N2_7 
REMARK    4  A    between atoms: C5_6  and  C6_11 
REMARK       I    between atoms: C6_11  and  N3_13 
REMARK    5  A    between atoms: N3_13  and  C7_15 
REMARK    6  A    between atoms: N4_18  and  C9_19 
REMARK    7  A    between atoms: C10_22  and  N6_23 
REMARK    8  A    between atoms: C11_28  and  N8_29 
REMARK    9  A    between atoms: C13_35  and  O3_36 
REMARK   10  A    between atoms: C13_35  and  C14_38 
REMARK   11  A    between atoms: C14_38  and  O4_39 
ROOT
HETATM    1  C7  UNL     1      -6.225 -35.839  23.168  1.00  0.00     0.216 C 
HETATM    2  C8  UNL     1      -7.301 -36.354  24.022  1.00  0.00     0.264 C 
HETATM    3  O2  UNL     1      -7.266 -37.203  24.977  1.00  0.00    -0.270 OA
HETATM    4  N4  UNL     1      -8.518 -35.710  23.596  1.00  0.00    -0.145 N 
HETATM    5  C12 UNL     1      -8.423 -35.562  22.149  1.00  0.00     0.193 C 
HETATM    6  C13 UNL     1      -6.958 -35.629  21.844  1.00  0.00     0.125 C 
ENDROOT
BRANCH   1   7
HETATM    7  N3  UNL     1      -5.073 -36.660  22.996  1.00  0.00    -0.343 N 
HETATM    8  C6  UNL     1      -3.805 -35.997  22.951  1.00  0.00     0.250 C 
HETATM    9  O1  UNL     1      -3.710 -34.727  23.068  1.00  0.00    -0.271 OA
ATOM     10  H3  UNL     1      -5.149 -37.673  22.910  1.00  0.00     0.163 HD
BRANCH   8  11
HETATM   11  C5  UNL     1      -2.547 -36.738  22.763  1.00  0.00     0.294 C 
BRANCH  11  12
HETATM   12  C4  UNL     1      -2.374 -37.308  21.395  1.00  0.00     0.192 C 
BRANCH  12  13
HETATM   13  N1  UNL     1      -2.041 -36.262  20.452  1.00  0.00    -0.285 N 
HETATM   14  C3  UNL     1      -0.828 -36.087  19.845  1.00  0.00     0.137 A 
HETATM   15  C2  UNL     1      -0.913 -34.992  19.014  1.00  0.00     0.040 A 
HETATM   16  C1  UNL     1       0.202 -34.463  18.159  1.00  0.00     0.071 C 
HETATM   17  N11 UNL     1      -2.163 -34.530  19.133  1.00  0.00    -0.289 N 
HETATM   18  N10 UNL     1      -2.812 -35.296  19.989  1.00  0.00    -0.241 N 
ATOM     19  H11 UNL     1      -2.548 -33.721  18.646  1.00  0.00     0.188 HD
ATOM     20  H10 UNL     1      -3.785 -35.160  20.259  1.00  0.00     0.208 HD
ENDBRANCH  12  13
ENDBRANCH  11  12
BRANCH  11  21
HETATM   21  N2  UNL     1      -1.436 -35.930  23.201  1.00  0.00    -0.065 N 
ATOM     22  H23 UNL     1      -1.527 -35.701  24.190  1.00  0.00     0.275 HD
ATOM     23  H22 UNL     1      -0.579 -36.483  23.232  1.00  0.00     0.275 HD
ATOM     24  H21 UNL     1      -1.298 -35.085  22.646  1.00  0.00     0.275 HD
ENDBRANCH  11  21
ENDBRANCH   8  11
ENDBRANCH   1   7
BRANCH   6  25
HETATM   25  O3  UNL     1      -6.441 -34.473  21.269  1.00  0.00    -0.383 OA
ATOM     26  H3  UNL     1      -7.169 -33.876  21.139  1.00  0.00     0.210 HD
ENDBRANCH   6  25
BRANCH   6  27
HETATM   27  C14 UNL     1      -6.613 -36.764  20.905  1.00  0.00     0.206 C 
BRANCH  27  28
HETATM   28  O4  UNL     1      -5.600 -36.409  20.020  1.00  0.00    -0.398 OA
ATOM     29  H4  UNL     1      -5.289 -37.158  19.525  1.00  0.00     0.209 HD
ENDBRANCH  27  28
ENDBRANCH   6  27
BRANCH   4  30
HETATM   30  C9  UNL     1      -9.611 -35.288  24.390  1.00  0.00     0.716 A 
HETATM   31  N5  UNL     1     -10.862 -35.490  23.887  1.00  0.00    -0.021 N 
HETATM   32  C10 UNL     1     -11.982 -35.139  24.544  1.00  0.00     0.705 A 
ATOM     33  H5  UNL     1     -10.953 -35.929  22.970  1.00  0.00     0.203 HD
HETATM   34  N7  UNL     1     -11.875 -34.555  25.764  1.00  0.00    -0.022 N 
HETATM   35  C11 UNL     1     -10.642 -34.347  26.280  1.00  0.00     0.705 A 
ATOM     36  H7  UNL     1     -12.709 -34.279  26.282  1.00  0.00     0.203 HD
HETATM   37  N9  UNL     1      -9.546 -34.719  25.579  1.00  0.00    -0.021 N 
ATOM     38  H9  UNL     1      -8.627 -34.551  25.989  1.00  0.00     0.203 HD
BRANCH  32  39
HETATM   39  N6  UNL     1     -13.161 -35.331  24.059  1.00  0.00    -0.234 N 
ATOM     40  H62 UNL     1     -13.351 -35.013  23.109  1.00  0.00     0.174 HD
ATOM     41  H61 UNL     1     -13.904 -35.789  24.586  1.00  0.00     0.174 HD
ENDBRANCH  32  39
BRANCH  35  42
HETATM   42  N8  UNL     1     -10.540 -33.785  27.455  1.00  0.00    -0.234 N 
ATOM     43  H82 UNL     1     -11.037 -32.921  27.676  1.00  0.00     0.174 HD
ATOM     44  H81 UNL     1      -9.949 -34.226  28.160  1.00  0.00     0.174 HD
ENDBRANCH  35  42
ENDBRANCH   4  30
TORSDOF 11
ENDMDL
MODEL 3
REMARK VINA RESULT: -6.725878641      3.790      8.368
REMARK  11 active torsions:
REMARK  status: ('A' for Active; 'I' for Inactive)
REMARK    1  A    between atoms: N1_4  and  C4_5 
REMARK    2  A    between atoms: C4_5  and  C5_6 
REMARK    3  A    between atoms: C5_6  and  N2_7 
REMARK    4  A    between atoms: C5_6  and  C6_11 
REMARK       I    between atoms: C6_11  and  N3_13 
REMARK    5  A    between atoms: N3_13  and  C7_15 
REMARK    6  A    between atoms: N4_18  and  C9_19 
REMARK    7  A    between atoms: C10_22  and  N6_23 
REMARK    8  A    between atoms: C11_28  and  N8_29 
REMARK    9  A    between atoms: C13_35  and  O3_36 
REMARK   10  A    between atoms: C13_35  and  C14_38 
REMARK   11  A    between atoms: C14_38  and  O4_39 
ROOT
HETATM    1  C7  UNL     1      -5.955 -36.755  20.780  1.00  0.00     0.216 C 
HETATM    2  C8  UNL     1      -4.572 -37.195  20.993  1.00  0.00     0.264 C 
HETATM    3  O2  UNL     1      -4.076 -38.372  21.033  1.00  0.00    -0.270 OA
HETATM    4  N4  UNL     1      -3.775 -36.007  21.165  1.00  0.00    -0.145 N 
HETATM    5  C12 UNL     1      -4.605 -35.055  21.892  1.00  0.00     0.193 C 
HETATM    6  C13 UNL     1      -6.015 -35.502  21.654  1.00  0.00     0.125 C 
ENDROOT
BRANCH   1   7
HETATM    7  N3  UNL     1      -6.995 -37.668  21.116  1.00  0.00    -0.343 N 
HETATM    8  C6  UNL     1      -7.604 -38.384  20.037  1.00  0.00     0.250 C 
HETATM    9  O1  UNL     1      -7.226 -38.215  18.826  1.00  0.00    -0.271 OA
ATOM     10  H3  UNL     1      -7.291 -37.807  22.082  1.00  0.00     0.163 HD
BRANCH   8  11
HETATM   11  C5  UNL     1      -8.698 -39.343  20.259  1.00  0.00     0.294 C 
BRANCH  11  12
HETATM   12  C4  UNL     1      -8.272 -40.615  20.912  1.00  0.00     0.192 C 
BRANCH  12  13
HETATM   13  N1  UNL     1      -8.014 -41.632  19.914  1.00  0.00    -0.285 N 
HETATM   14  C3  UNL     1      -7.021 -41.597  18.974  1.00  0.00     0.137 A 
HETATM   15  C2  UNL     1      -7.100 -42.747  18.220  1.00  0.00     0.040 A 
HETATM   16  C1  UNL     1      -6.186 -43.102  17.083  1.00  0.00     0.071 C 
HETATM   17  N11 UNL     1      -8.128 -43.447  18.713  1.00  0.00    -0.289 N 
HETATM   18  N10 UNL     1      -8.654 -42.767  19.714  1.00  0.00    -0.241 N 
ATOM     19  H11 UNL     1      -8.450 -44.352  18.372  1.00  0.00     0.188 HD
ATOM     20  H10 UNL     1      -9.453 -43.081  20.264  1.00  0.00     0.208 HD
ENDBRANCH  12  13
ENDBRANCH  11  12
BRANCH  11  21
HETATM   21  N2  UNL     1      -9.794 -38.685  20.927  1.00  0.00    -0.065 N 
ATOM     22  H23 UNL     1     -10.418 -38.249  20.250  1.00  0.00     0.275 HD
ATOM     23  H22 UNL     1     -10.432 -39.370  21.332  1.00  0.00     0.275 HD
ATOM     24  H21 UNL     1      -9.499 -38.009  21.632  1.00  0.00     0.275 HD
ENDBRANCH  11  21
ENDBRANCH   8  11
ENDBRANCH   1   7
BRANCH   6  25
HETATM   25  O3  UNL     1      -6.803 -34.573  20.984  1.00  0.00    -0.383 OA
ATOM     26  H3  UNL     1      -7.493 -35.057  20.544  1.00  0.00     0.210 HD
ENDBRANCH   6  25
BRANCH   6  27
HETATM   27  C14 UNL     1      -6.743 -35.832  22.938  1.00  0.00     0.206 C 
BRANCH  27  28
HETATM   28  O4  UNL     1      -8.063 -35.394  22.908  1.00  0.00    -0.398 OA
ATOM     29  H4  UNL     1      -8.663 -36.069  23.201  1.00  0.00     0.209 HD
ENDBRANCH  27  28
ENDBRANCH   6  27
BRANCH   4  30
HETATM   30  C9  UNL     1      -2.450 -35.769  20.731  1.00  0.00     0.716 A 
HETATM   31  N5  UNL     1      -2.176 -34.542  20.204  1.00  0.00    -0.021 N 
HETATM   32  C10 UNL     1      -0.956 -34.191  19.760  1.00  0.00     0.705 A 
ATOM     33  H5  UNL     1      -2.931 -33.859  20.144  1.00  0.00     0.203 HD
HETATM   34  N7  UNL     1       0.057 -35.089  19.834  1.00  0.00    -0.022 N 
HETATM   35  C11 UNL     1      -0.194 -36.312  20.354  1.00  0.00     0.705 A 
ATOM     36  H7  UNL     1       0.992 -34.847  19.503  1.00  0.00     0.203 HD
HETATM   37  N9  UNL     1      -1.439 -36.617  20.787  1.00  0.00    -0.021 N 
ATOM     38  H9  UNL     1      -1.605 -37.546  21.175  1.00  0.00     0.203 HD
BRANCH  32  39
HETATM   39  N6  UNL     1      -0.707 -33.028  19.259  1.00  0.00    -0.234 N 
ATOM     40  H62 UNL     1      -1.438 -32.318  19.298  1.00  0.00     0.174 HD
ATOM     41  H61 UNL     1       0.189 -32.794  18.831  1.00  0.00     0.174 HD
ENDBRANCH  32  39
BRANCH  35  42
HETATM   42  N8  UNL     1       0.782 -37.178  20.425  1.00  0.00    -0.234 N 
ATOM     43  H82 UNL     1       0.747 -38.061  19.917  1.00  0.00     0.174 HD
ATOM     44  H81 UNL     1       1.593 -36.956  21.003  1.00  0.00     0.174 HD
ENDBRANCH  35  42
ENDBRANCH   4  30
TORSDOF 11
ENDMDL
MODEL 4
REMARK VINA RESULT: -6.678555757      4.129      8.422
REMARK  11 active torsions:
REMARK  status: ('A' for Active; 'I' for Inactive)
REMARK    1  A    between atoms: N1_4  and  C4_5 
REMARK    2  A    between atoms: C4_5  and  C5_6 
REMARK    3  A    between atoms: C5_6  and  N2_7 
REMARK    4  A    between atoms: C5_6  and  C6_11 
REMARK       I    between atoms: C6_11  and  N3_13 
REMARK    5  A    between atoms: N3_13  and  C7_15 
REMARK    6  A    between atoms: N4_18  and  C9_19 
REMARK    7  A    between atoms: C10_22  and  N6_23 
REMARK    8  A    between atoms: C11_28  and  N8_29 
REMARK    9  A    between atoms: C13_35  and  O3_36 
REMARK   10  A    between atoms: C13_35  and  C14_38 
REMARK   11  A    between atoms: C14_38  and  O4_39 
ROOT
HETATM    1  C7  UNL     1      -5.816 -37.267  20.708  1.00  0.00     0.216 C 
HETATM    2  C8  UNL     1      -4.379 -37.513  20.864  1.00  0.00     0.264 C 
HETATM    3  O2  UNL     1      -3.716 -38.605  20.815  1.00  0.00    -0.270 OA
HETATM    4  N4  UNL     1      -3.757 -36.235  21.100  1.00  0.00    -0.145 N 
HETATM    5  C12 UNL     1      -4.695 -35.462  21.905  1.00  0.00     0.193 C 
HETATM    6  C13 UNL     1      -6.032 -36.095  21.664  1.00  0.00     0.125 C 
ENDROOT
BRANCH   1   7
HETATM    7  N3  UNL     1      -6.702 -38.342  21.001  1.00  0.00    -0.343 N 
HETATM    8  C6  UNL     1      -7.347 -38.974  19.890  1.00  0.00     0.250 C 
HETATM    9  O1  UNL     1      -7.130 -38.595  18.687  1.00  0.00    -0.271 OA
ATOM     10  H3  UNL     1      -6.870 -38.649  21.959  1.00  0.00     0.163 HD
BRANCH   8  11
HETATM   11  C5  UNL     1      -8.295 -40.086  20.070  1.00  0.00     0.294 C 
BRANCH  11  12
HETATM   12  C4  UNL     1      -7.653 -41.383  20.433  1.00  0.00     0.192 C 
BRANCH  12  13
HETATM   13  N1  UNL     1      -7.516 -42.222  19.262  1.00  0.00    -0.285 N 
HETATM   14  C3  UNL     1      -6.613 -42.044  18.250  1.00  0.00     0.137 A 
HETATM   15  C2  UNL     1      -6.792 -43.051  17.327  1.00  0.00     0.040 A 
HETATM   16  C1  UNL     1      -5.997 -43.223  16.066  1.00  0.00     0.071 C 
HETATM   17  N11 UNL     1      -7.790 -43.811  17.794  1.00  0.00    -0.289 N 
HETATM   18  N10 UNL     1      -8.202 -43.301  18.939  1.00  0.00    -0.241 N 
ATOM     19  H11 UNL     1      -8.167 -44.643  17.341  1.00  0.00     0.188 HD
ATOM     20  H10 UNL     1      -8.956 -43.692  19.503  1.00  0.00     0.208 HD
ENDBRANCH  12  13
ENDBRANCH  11  12
BRANCH  11  21
HETATM   21  N2  UNL     1      -9.348 -39.686  20.971  1.00  0.00    -0.065 N 
ATOM     22  H23 UNL     1     -10.099 -40.375  20.973  1.00  0.00     0.275 HD
ATOM     23  H22 UNL     1      -9.041 -39.763  21.940  1.00  0.00     0.275 HD
ATOM     24  H21 UNL     1      -9.717 -38.753  20.784  1.00  0.00     0.275 HD
ENDBRANCH  11  21
ENDBRANCH   8  11
ENDBRANCH   1   7
BRANCH   6  25
HETATM   25  O3  UNL     1      -6.965 -35.251  21.073  1.00  0.00    -0.383 OA
ATOM     26  H3  UNL     1      -7.826 -35.575  21.309  1.00  0.00     0.210 HD
ENDBRANCH   6  25
BRANCH   6  27
HETATM   27  C14 UNL     1      -6.667 -36.609  22.937  1.00  0.00     0.206 C 
BRANCH  27  28
HETATM   28  O4  UNL     1      -8.055 -36.515  22.893  1.00  0.00    -0.398 OA
ATOM     29  H4  UNL     1      -8.470 -37.237  23.350  1.00  0.00     0.209 HD
ENDBRANCH  27  28
ENDBRANCH   6  27
BRANCH   4  30
HETATM   30  C9  UNL     1      -2.493 -35.779  20.658  1.00  0.00     0.716 A 
HETATM   31  N5  UNL     1      -1.447 -36.648  20.755  1.00  0.00    -0.021 N 
HETATM   32  C10 UNL     1      -0.198 -36.338  20.366  1.00  0.00     0.705 A 
ATOM     33  H5  UNL     1      -1.620 -37.576  21.141  1.00  0.00     0.203 HD
HETATM   34  N7  UNL     1       0.046 -35.107  19.850  1.00  0.00    -0.022 N 
HETATM   35  C11 UNL     1      -0.978 -34.231  19.745  1.00  0.00     0.705 A 
ATOM     36  H7  UNL     1       0.986 -34.847  19.548  1.00  0.00     0.203 HD
HETATM   37  N9  UNL     1      -2.218 -34.591  20.151  1.00  0.00    -0.021 N 
ATOM     38  H9  UNL     1      -2.974 -33.913  20.063  1.00  0.00     0.203 HD
BRANCH  32  39
HETATM   39  N6  UNL     1       0.787 -37.166  20.465  1.00  0.00    -0.234 N 
ATOM     40  H62 UNL     1       1.440 -37.237  19.686  1.00  0.00     0.174 HD
ATOM     41  H61 UNL     1       0.935 -37.745  21.292  1.00  0.00     0.174 HD
ENDBRANCH  32  39
BRANCH  35  42
HETATM   42  N8  UNL     1      -0.743 -33.045  19.249  1.00  0.00    -0.234 N 
ATOM     43  H82 UNL     1      -0.016 -32.897  18.549  1.00  0.00     0.174 HD
ATOM     44  H81 UNL     1      -1.304 -32.257  19.574  1.00  0.00     0.174 HD
ENDBRANCH  35  42
ENDBRANCH   4  30
TORSDOF 11
ENDMDL
MODEL 5
REMARK VINA RESULT: -6.647499626      2.465      8.684
REMARK  11 active torsions:
REMARK  status: ('A' for Active; 'I' for Inactive)
REMARK    1  A    between atoms: N1_4  and  C4_5 
REMARK    2  A    between atoms: C4_5  and  C5_6 
REMARK    3  A    between atoms: C5_6  and  N2_7 
REMARK    4  A    between atoms: C5_6  and  C6_11 
REMARK       I    between atoms: C6_11  and  N3_13 
REMARK    5  A    between atoms: N3_13  and  C7_15 
REMARK    6  A    between atoms: N4_18  and  C9_19 
REMARK    7  A    between atoms: C10_22  and  N6_23 
REMARK    8  A    between atoms: C11_28  and  N8_29 
REMARK    9  A    between atoms: C13_35  and  O3_36 
REMARK   10  A    between atoms: C13_35  and  C14_38 
REMARK   11  A    between atoms: C14_38  and  O4_39 
ROOT
HETATM    1  C7  UNL     1      -5.850 -36.800  21.033  1.00  0.00     0.216 C 
HETATM    2  C8  UNL     1      -4.453 -37.169  21.284  1.00  0.00     0.264 C 
HETATM    3  O2  UNL     1      -3.922 -38.315  21.480  1.00  0.00    -0.270 OA
HETATM    4  N4  UNL     1      -3.689 -35.947  21.278  1.00  0.00    -0.145 N 
HETATM    5  C12 UNL     1      -4.538 -34.926  21.878  1.00  0.00     0.193 C 
HETATM    6  C13 UNL     1      -5.937 -35.440  21.725  1.00  0.00     0.125 C 
ENDROOT
BRANCH   1   7
HETATM    7  N3  UNL     1      -6.859 -37.686  21.508  1.00  0.00    -0.343 N 
HETATM    8  C6  UNL     1      -7.627 -38.384  20.522  1.00  0.00     0.250 C 
HETATM    9  O1  UNL     1      -7.411 -38.225  19.271  1.00  0.00    -0.271 OA
ATOM     10  H3  UNL     1      -7.027 -37.818  22.505  1.00  0.00     0.163 HD
BRANCH   8  11
HETATM   11  C5  UNL     1      -8.707 -39.314  20.891  1.00  0.00     0.294 C 
BRANCH  11  12
HETATM   12  C4  UNL     1     -10.056 -38.683  20.966  1.00  0.00     0.192 C 
BRANCH  12  13
HETATM   13  N1  UNL     1     -10.290 -38.148  22.291  1.00  0.00    -0.285 N 
HETATM   14  C3  UNL     1     -10.840 -38.828  23.343  1.00  0.00     0.137 A 
HETATM   15  C2  UNL     1     -10.886 -37.981  24.428  1.00  0.00     0.040 A 
HETATM   16  C1  UNL     1     -11.416 -38.340  25.786  1.00  0.00     0.071 C 
HETATM   17  N11 UNL     1     -10.369 -36.818  24.017  1.00  0.00    -0.289 N 
HETATM   18  N10 UNL     1     -10.023 -36.941  22.749  1.00  0.00    -0.241 N 
ATOM     19  H11 UNL     1     -10.260 -35.979  24.586  1.00  0.00     0.188 HD
ATOM     20  H10 UNL     1      -9.603 -36.196  22.193  1.00  0.00     0.208 HD
ENDBRANCH  12  13
ENDBRANCH  11  12
BRANCH  11  21
HETATM   21  N2  UNL     1      -8.656 -40.480  20.044  1.00  0.00    -0.065 N 
ATOM     22  H23 UNL     1      -8.948 -41.311  20.558  1.00  0.00     0.275 HD
ATOM     23  H22 UNL     1      -9.394 -40.446  19.341  1.00  0.00     0.275 HD
ATOM     24  H21 UNL     1      -7.748 -40.630  19.605  1.00  0.00     0.275 HD
ENDBRANCH  11  21
ENDBRANCH   8  11
ENDBRANCH   1   7
BRANCH   6  25
HETATM   25  O3  UNL     1      -6.759 -34.636  20.943  1.00  0.00    -0.383 OA
ATOM     26  H3  UNL     1      -6.198 -34.169  20.336  1.00  0.00     0.210 HD
ENDBRANCH   6  25
BRANCH   6  27
HETATM   27  C14 UNL     1      -6.642 -35.608  23.053  1.00  0.00     0.206 C 
BRANCH  27  28
HETATM   28  O4  UNL     1      -7.904 -35.023  23.043  1.00  0.00    -0.398 OA
ATOM     29  H4  UNL     1      -8.481 -35.445  22.419  1.00  0.00     0.209 HD
ENDBRANCH  27  28
ENDBRANCH   6  27
BRANCH   4  30
HETATM   30  C9  UNL     1      -2.376 -35.737  20.795  1.00  0.00     0.716 A 
HETATM   31  N5  UNL     1      -2.104 -34.524  20.235  1.00  0.00    -0.021 N 
HETATM   32  C10 UNL     1      -0.895 -34.198  19.743  1.00  0.00     0.705 A 
ATOM     33  H5  UNL     1      -2.852 -33.832  20.186  1.00  0.00     0.203 HD
HETATM   34  N7  UNL     1       0.109 -35.109  19.803  1.00  0.00    -0.022 N 
HETATM   35  C11 UNL     1      -0.141 -36.317  20.356  1.00  0.00     0.705 A 
ATOM     36  H7  UNL     1       1.035 -34.886  19.437  1.00  0.00     0.203 HD
HETATM   37  N9  UNL     1      -1.375 -36.597  20.836  1.00  0.00    -0.021 N 
ATOM     38  H9  UNL     1      -1.539 -37.515  21.249  1.00  0.00     0.203 HD
BRANCH  32  39
HETATM   39  N6  UNL     1      -0.648 -33.049  19.211  1.00  0.00    -0.234 N 
ATOM     40  H62 UNL     1      -0.760 -32.215  19.786  1.00  0.00     0.174 HD
ATOM     41  H61 UNL     1      -0.345 -32.947  18.242  1.00  0.00     0.174 HD
ENDBRANCH  32  39
BRANCH  35  42
HETATM   42  N8  UNL     1       0.826 -37.194  20.413  1.00  0.00    -0.234 N 
ATOM     43  H82 UNL     1       1.798 -36.924  20.259  1.00  0.00     0.174 HD
ATOM     44  H81 UNL     1       0.595 -38.166  20.618  1.00  0.00     0.174 HD
ENDBRANCH  35  42
ENDBRANCH   4  30
TORSDOF 11
ENDMDL
