MODEL 1
REMARK VINA RESULT: -7.780419269      0.000      0.000
REMARK  4 active torsions:
REMARK  status: ('A' for Active; 'I' for Inactive)
REMARK    1  A    between atoms: C4_11  and  N4_12 
REMARK    2  A    between atoms: N4_12  and  C5_14 
REMARK    3  A    between atoms: C5_14  and  C7_17 
REMARK    4  A    between atoms: C7_17  and  C8_18 
ROOT
HETATM    1  C5  UNL     1       9.820 -44.881  30.682  1.00  0.00     0.211 C 
HETATM    2  C6  UNL     1       8.494 -44.324  30.841  1.00  0.00     0.085 C 
HETATM    3  N5  UNL     1       7.418 -43.864  30.923  1.00  0.00    -0.195 NA
ENDROOT
BRANCH   1   4
HETATM    4  N4  UNL     1      10.766 -43.863  30.312  1.00  0.00    -0.208 N 
ATOM      5  H4  UNL     1      11.024 -43.164  31.009  1.00  0.00     0.179 HD
BRANCH   4   6
HETATM    6  C4  UNL     1      11.298 -43.793  29.155  1.00  0.00     0.689 A 
HETATM    7  N1  UNL     1      12.638 -44.048  29.072  1.00  0.00    -0.137 N 
HETATM    8  C1  UNL     1      13.343 -44.351  30.291  1.00  0.00     0.180 C 
HETATM    9  C2  UNL     1      13.275 -44.006  27.885  1.00  0.00     0.344 A 
HETATM   10  O1  UNL     1      14.521 -44.245  27.833  1.00  0.00    -0.246 OA
HETATM   11  N2  UNL     1      12.560 -43.704  26.771  1.00  0.00    -0.259 N 
HETATM   12  C3  UNL     1      11.247 -43.448  26.821  1.00  0.00     0.342 A 
ATOM     13  H2  UNL     1      13.037 -43.670  25.870  1.00  0.00     0.175 HD
HETATM   14  O2  UNL     1      10.579 -43.169  25.799  1.00  0.00    -0.246 OA
HETATM   15  N3  UNL     1      10.633 -43.498  28.025  1.00  0.00    -0.141 N 
ATOM     16  H3  UNL     1       9.634 -43.304  28.076  1.00  0.00     0.189 HD
ENDBRANCH   4   6
ENDBRANCH   1   4
BRANCH   1  17
HETATM   17  C7  UNL     1      10.276 -45.600  31.923  1.00  0.00     0.081 C 
BRANCH  17  18
HETATM   18  C8  UNL     1      10.128 -47.054  31.920  1.00  0.00    -0.031 A 
HETATM   19  C9  UNL     1       8.866 -47.560  31.548  1.00  0.00     0.011 A 
HETATM   20  C10 UNL     1       8.662 -48.919  31.612  1.00  0.00     0.023 A 
HETATM   21  C11 UNL     1       9.675 -49.755  32.033  1.00  0.00     0.046 A 
HETATM   22  C12 UNL     1       9.437 -51.188  32.092  1.00  0.00     0.099 C 
HETATM   23  C13 UNL     1      10.905 -49.255  32.395  1.00  0.00     0.049 A 
HETATM   24  N6  UNL     1       9.248 -52.324  32.162  1.00  0.00    -0.191 NA
HETATM   25  C14 UNL     1      11.140 -47.883  32.338  1.00  0.00     0.054 A 
HETATM   26  N7  UNL     1      12.463 -47.409  32.659  1.00  0.00    -0.102 NA
ENDBRANCH  17  18
ENDBRANCH   1  17
TORSDOF 4
ENDMDL
MODEL 2
REMARK VINA RESULT: -7.672871476      2.255      3.635
REMARK  4 active torsions:
REMARK  status: ('A' for Active; 'I' for Inactive)
REMARK    1  A    between atoms: C4_11  and  N4_12 
REMARK    2  A    between atoms: N4_12  and  C5_14 
REMARK    3  A    between atoms: C5_14  and  C7_17 
REMARK    4  A    between atoms: C7_17  and  C8_18 
ROOT
HETATM    1  C5  UNL     1      11.971 -44.099  30.758  1.00  0.00     0.211 C 
HETATM    2  C6  UNL     1      12.602 -43.322  31.803  1.00  0.00     0.085 C 
HETATM    3  N5  UNL     1      13.119 -42.656  32.619  1.00  0.00    -0.195 NA
ENDROOT
BRANCH   1   4
HETATM    4  N4  UNL     1      12.913 -44.433  29.724  1.00  0.00    -0.208 N 
ATOM      5  H4  UNL     1      13.719 -45.008  29.969  1.00  0.00     0.179 HD
BRANCH   4   6
HETATM    6  C4  UNL     1      12.789 -44.044  28.516  1.00  0.00     0.689 A 
HETATM    7  N1  UNL     1      13.934 -43.938  27.777  1.00  0.00    -0.137 N 
HETATM    8  C1  UNL     1      15.184 -44.250  28.423  1.00  0.00     0.180 C 
HETATM    9  C2  UNL     1      13.889 -43.544  26.488  1.00  0.00     0.344 A 
HETATM   10  O1  UNL     1      14.967 -43.452  25.823  1.00  0.00    -0.246 OA
HETATM   11  N2  UNL     1      12.683 -43.253  25.938  1.00  0.00    -0.259 N 
HETATM   12  C3  UNL     1      11.545 -43.346  26.635  1.00  0.00     0.342 A 
ATOM     13  H2  UNL     1      12.643 -42.955  24.963  1.00  0.00     0.175 HD
HETATM   14  O2  UNL     1      10.428 -43.079  26.135  1.00  0.00    -0.246 OA
HETATM   15  N3  UNL     1      11.619 -43.743  27.925  1.00  0.00    -0.141 N 
ATOM     16  H3  UNL     1      10.759 -43.817  28.468  1.00  0.00     0.189 HD
ENDBRANCH   4   6
ENDBRANCH   1   4
BRANCH   1  17
HETATM   17  C7  UNL     1      11.321 -45.343  31.302  1.00  0.00     0.081 C 
BRANCH  17  18
HETATM   18  C8  UNL     1       9.877 -45.453  31.113  1.00  0.00    -0.031 A 
HETATM   19  C9  UNL     1       9.192 -44.270  30.764  1.00  0.00     0.011 A 
HETATM   20  C10 UNL     1       7.822 -44.316  30.658  1.00  0.00     0.023 A 
HETATM   21  C11 UNL     1       7.145 -45.495  30.892  1.00  0.00     0.046 A 
HETATM   22  C12 UNL     1       5.695 -45.519  30.773  1.00  0.00     0.099 C 
HETATM   23  C13 UNL     1       7.818 -46.645  31.232  1.00  0.00     0.049 A 
HETATM   24  N6  UNL     1       4.544 -45.541  30.702  1.00  0.00    -0.191 NA
HETATM   25  C14 UNL     1       9.207 -46.629  31.344  1.00  0.00     0.054 A 
HETATM   26  N7  UNL     1       9.877 -47.872  31.634  1.00  0.00    -0.102 NA
ENDBRANCH  17  18
ENDBRANCH   1  17
TORSDOF 4
ENDMDL
MODEL 3
REMARK VINA RESULT: -7.619542731      2.499      3.754
REMARK  4 active torsions:
REMARK  status: ('A' for Active; 'I' for Inactive)
REMARK    1  A    between atoms: C4_11  and  N4_12 
REMARK    2  A    between atoms: N4_12  and  C5_14 
REMARK    3  A    between atoms: C5_14  and  C7_17 
REMARK    4  A    between atoms: C7_17  and  C8_18 
ROOT
HETATM    1  C5  UNL     1      11.304 -43.684  30.284  1.00  0.00     0.211 C 
HETATM    2  C6  UNL     1      12.372 -43.034  31.014  1.00  0.00     0.085 C 
HETATM    3  N5  UNL     1      13.227 -42.467  31.582  1.00  0.00    -0.195 NA
ENDROOT
BRANCH   1   4
HETATM    4  N4  UNL     1      11.622 -43.784  28.885  1.00  0.00    -0.208 N 
ATOM      5  H4  UNL     1      11.689 -44.711  28.467  1.00  0.00     0.179 HD
BRANCH   4   6
HETATM    6  C4  UNL     1      11.826 -42.767  28.142  1.00  0.00     0.689 A 
HETATM    7  N1  UNL     1      12.904 -42.817  27.304  1.00  0.00    -0.137 N 
HETATM    8  C1  UNL     1      13.733 -43.996  27.341  1.00  0.00     0.180 C 
HETATM    9  C2  UNL     1      13.184 -41.789  26.478  1.00  0.00     0.344 A 
HETATM   10  O1  UNL     1      14.192 -41.859  25.710  1.00  0.00    -0.246 OA
HETATM   11  N2  UNL     1      12.374 -40.700  26.496  1.00  0.00    -0.259 N 
HETATM   12  C3  UNL     1      11.312 -40.621  27.305  1.00  0.00     0.342 A 
ATOM     13  H2  UNL     1      12.581 -39.919  25.873  1.00  0.00     0.175 HD
HETATM   14  O2  UNL     1      10.558 -39.620  27.329  1.00  0.00    -0.246 OA
HETATM   15  N3  UNL     1      11.054 -41.666  28.123  1.00  0.00    -0.141 N 
ATOM     16  H3  UNL     1      10.249 -41.618  28.746  1.00  0.00     0.189 HD
ENDBRANCH   4   6
ENDBRANCH   1   4
BRANCH   1  17
HETATM   17  C7  UNL     1      10.985 -45.041  30.851  1.00  0.00     0.081 C 
BRANCH  17  18
HETATM   18  C8  UNL     1       9.568 -45.366  30.989  1.00  0.00    -0.031 A 
HETATM   19  C9  UNL     1       8.652 -44.322  30.749  1.00  0.00     0.011 A 
HETATM   20  C10 UNL     1       7.314 -44.568  30.949  1.00  0.00     0.023 A 
HETATM   21  C11 UNL     1       6.890 -45.809  31.377  1.00  0.00     0.046 A 
HETATM   22  C12 UNL     1       5.470 -46.046  31.582  1.00  0.00     0.099 C 
HETATM   23  C13 UNL     1       7.789 -46.824  31.612  1.00  0.00     0.049 A 
HETATM   24  N6  UNL     1       4.347 -46.234  31.767  1.00  0.00    -0.191 NA
HETATM   25  C14 UNL     1       9.150 -46.604  31.414  1.00  0.00     0.054 A 
HETATM   26  N7  UNL     1      10.050 -47.715  31.604  1.00  0.00    -0.102 NA
ENDBRANCH  17  18
ENDBRANCH   1  17
TORSDOF 4
ENDMDL
MODEL 4
REMARK VINA RESULT: -7.397115917      2.414      3.859
REMARK  4 active torsions:
REMARK  status: ('A' for Active; 'I' for Inactive)
REMARK    1  A    between atoms: C4_11  and  N4_12 
REMARK    2  A    between atoms: N4_12  and  C5_14 
REMARK    3  A    between atoms: C5_14  and  C7_17 
REMARK    4  A    between atoms: C7_17  and  C8_18 
ROOT
HETATM    1  C5  UNL     1      11.794 -44.111  31.047  1.00  0.00     0.211 C 
HETATM    2  C6  UNL     1      12.653 -43.878  32.189  1.00  0.00     0.085 C 
HETATM    3  N5  UNL     1      13.350 -43.642  33.102  1.00  0.00    -0.195 NA
ENDROOT
BRANCH   1   4
HETATM    4  N4  UNL     1      12.497 -43.873  29.816  1.00  0.00    -0.208 N 
ATOM      5  H4  UNL     1      13.423 -44.282  29.698  1.00  0.00     0.179 HD
BRANCH   4   6
HETATM    6  C4  UNL     1      12.017 -43.173  28.863  1.00  0.00     0.689 A 
HETATM    7  N1  UNL     1      12.182 -41.819  28.944  1.00  0.00    -0.137 N 
HETATM    8  C1  UNL     1      12.859 -41.290  30.101  1.00  0.00     0.180 C 
HETATM    9  C2  UNL     1      11.714 -41.007  27.974  1.00  0.00     0.344 A 
HETATM   10  O1  UNL     1      11.878 -39.753  28.073  1.00  0.00    -0.246 OA
HETATM   11  N2  UNL     1      11.073 -41.562  26.914  1.00  0.00    -0.259 N 
HETATM   12  C3  UNL     1      10.895 -42.884  26.807  1.00  0.00     0.342 A 
ATOM     13  H2  UNL     1      10.718 -40.954  26.176  1.00  0.00     0.175 HD
HETATM   14  O2  UNL     1      10.306 -43.405  25.832  1.00  0.00    -0.246 OA
HETATM   15  N3  UNL     1      11.375 -43.674  27.794  1.00  0.00    -0.141 N 
ATOM     16  H3  UNL     1      11.245 -44.683  27.725  1.00  0.00     0.189 HD
ENDBRANCH   4   6
ENDBRANCH   1   4
BRANCH   1  17
HETATM   17  C7  UNL     1      11.209 -45.497  31.062  1.00  0.00     0.081 C 
BRANCH  17  18
HETATM   18  C8  UNL     1       9.751 -45.585  31.032  1.00  0.00    -0.031 A 
HETATM   19  C9  UNL     1       9.055 -44.420  30.649  1.00  0.00     0.011 A 
HETATM   20  C10 UNL     1       7.680 -44.439  30.688  1.00  0.00     0.023 A 
HETATM   21  C11 UNL     1       7.011 -45.573  31.096  1.00  0.00     0.046 A 
HETATM   22  C12 UNL     1       5.557 -45.569  31.129  1.00  0.00     0.099 C 
HETATM   23  C13 UNL     1       7.696 -46.707  31.470  1.00  0.00     0.049 A 
HETATM   24  N6  UNL     1       4.404 -45.566  31.178  1.00  0.00    -0.191 NA
HETATM   25  C14 UNL     1       9.088 -46.718  31.437  1.00  0.00     0.054 A 
HETATM   26  N7  UNL     1       9.763 -47.947  31.770  1.00  0.00    -0.102 NA
ENDBRANCH  17  18
ENDBRANCH   1  17
TORSDOF 4
ENDMDL
MODEL 5
REMARK VINA RESULT: -7.251501983      3.430      5.424
REMARK  4 active torsions:
REMARK  status: ('A' for Active; 'I' for Inactive)
REMARK    1  A    between atoms: C4_11  and  N4_12 
REMARK    2  A    between atoms: N4_12  and  C5_14 
REMARK    3  A    between atoms: C5_14  and  C7_17 
REMARK    4  A    between atoms: C7_17  and  C8_18 
ROOT
HETATM    1  C5  UNL     1       9.745 -48.342  32.667  1.00  0.00     0.211 C 
HETATM    2  C6  UNL     1      10.659 -47.692  33.582  1.00  0.00     0.085 C 
HETATM    3  N5  UNL     1      11.364 -47.136  34.337  1.00  0.00    -0.195 NA
ENDROOT
BRANCH   1   4
HETATM    4  N4  UNL     1       9.358 -47.452  31.606  1.00  0.00    -0.208 N 
ATOM      5  H4  UNL     1       9.934 -47.419  30.766  1.00  0.00     0.179 HD
BRANCH   4   6
HETATM    6  C4  UNL     1       8.327 -46.703  31.667  1.00  0.00     0.689 A 
HETATM    7  N1  UNL     1       8.466 -45.420  31.216  1.00  0.00    -0.137 N 
HETATM    8  C1  UNL     1       9.760 -45.012  30.732  1.00  0.00     0.180 C 
HETATM    9  C2  UNL     1       7.423 -44.566  31.234  1.00  0.00     0.344 A 
HETATM   10  O1  UNL     1       7.577 -43.379  30.811  1.00  0.00    -0.246 OA
HETATM   11  N2  UNL     1       6.230 -45.005  31.712  1.00  0.00    -0.259 N 
HETATM   12  C3  UNL     1       6.063 -46.254  32.162  1.00  0.00     0.342 A 
ATOM     13  H2  UNL     1       5.437 -44.363  31.728  1.00  0.00     0.175 HD
HETATM   14  O2  UNL     1       4.967 -46.668  32.604  1.00  0.00    -0.246 OA
HETATM   15  N3  UNL     1       7.126 -47.089  32.131  1.00  0.00    -0.141 N 
ATOM     16  H3  UNL     1       7.013 -48.044  32.472  1.00  0.00     0.189 HD
ENDBRANCH   4   6
ENDBRANCH   1   4
BRANCH   1  17
HETATM   17  C7  UNL     1      10.326 -49.612  32.106  1.00  0.00     0.081 C 
BRANCH  17  18
HETATM   18  C8  UNL     1       9.529 -50.823  32.287  1.00  0.00    -0.031 A 
HETATM   19  C9  UNL     1       8.333 -50.909  31.545  1.00  0.00     0.011 A 
HETATM   20  C10 UNL     1       7.515 -51.996  31.750  1.00  0.00     0.023 A 
HETATM   21  C11 UNL     1       7.865 -52.969  32.663  1.00  0.00     0.046 A 
HETATM   22  C12 UNL     1       6.984 -54.109  32.863  1.00  0.00     0.099 C 
HETATM   23  C13 UNL     1       9.034 -52.878  33.385  1.00  0.00     0.049 A 
HETATM   24  N6  UNL     1       6.281 -55.005  33.042  1.00  0.00    -0.191 NA
HETATM   25  C14 UNL     1       9.883 -51.790  33.196  1.00  0.00     0.054 A 
HETATM   26  N7  UNL     1      11.128 -51.770  33.920  1.00  0.00    -0.102 NA
ENDBRANCH  17  18
ENDBRANCH   1  17
TORSDOF 4
ENDMDL
