MODEL 1
REMARK VINA RESULT: -7.116688664      0.000      0.000
REMARK  5 active torsions:
REMARK  status: ('A' for Active; 'I' for Inactive)
REMARK    1  A    between atoms: N1_1  and  S1_4 
REMARK    2  A    between atoms: S1_4  and  N2_5 
REMARK    3  A    between atoms: S1_4  and  C1_9 
REMARK    4  A    between atoms: N5_14  and  S2_15 
REMARK    5  A    between atoms: S2_15  and  C2_18 
ROOT
HETATM    1  C1  UNL     1      12.023 -42.467  26.860  1.00  0.00     0.214 A 
HETATM    2  N3  UNL     1      11.255 -41.609  27.569  1.00  0.00    -0.270 N 
ATOM      3  H3  UNL     1      10.852 -40.743  27.209  1.00  0.00     0.189 HD
HETATM    4  N4  UNL     1      11.106 -42.072  28.816  1.00  0.00    -0.222 N 
ATOM      5  H4  UNL     1      10.570 -41.611  29.552  1.00  0.00     0.210 HD
HETATM    6  N5  UNL     1      11.751 -43.208  28.951  1.00  0.00    -0.121 N 
HETATM    7  C8  UNL     1      12.326 -43.481  27.771  1.00  0.00     0.317 A 
HETATM    8  O4  UNL     1      13.024 -44.480  27.512  1.00  0.00    -0.262 OA
ENDROOT
BRANCH   6   9
HETATM    9  S2  UNL     1      11.838 -44.174  30.402  1.00  0.00     0.286 S 
HETATM   10  O2  UNL     1      12.984 -45.138  30.301  1.00  0.00    -0.198 OA
HETATM   11  O3  UNL     1      12.137 -43.269  31.576  1.00  0.00    -0.198 OA
BRANCH   9  12
HETATM   12  C2  UNL     1      10.348 -45.055  30.647  1.00  0.00     0.081 A 
HETATM   13  C3  UNL     1       9.122 -44.567  30.249  1.00  0.00     0.025 A 
HETATM   14  C4  UNL     1       7.944 -45.252  30.437  1.00  0.00     0.002 A 
HETATM   15  C5  UNL     1       7.944 -46.487  31.048  1.00  0.00     0.000 A 
HETATM   16  C6  UNL     1       9.159 -46.996  31.456  1.00  0.00     0.002 A 
HETATM   17  C7  UNL     1      10.328 -46.304  31.263  1.00  0.00     0.025 A 
ENDBRANCH   9  12
ENDBRANCH   6   9
BRANCH   1  18
HETATM   18  S1  UNL     1      12.536 -42.362  25.190  1.00  0.00     0.153 S 
HETATM   19  O1  UNL     1      12.899 -40.983  24.785  1.00  0.00    -0.222 OA
BRANCH  18  20
HETATM   20  N1  UNL     1      11.338 -42.819  24.281  1.00  0.00    -0.340 N 
ATOM     21  H12 UNL     1      10.954 -42.294  23.494  1.00  0.00     0.167 HD
ATOM     22  H11 UNL     1      11.027 -43.726  24.626  1.00  0.00     0.167 HD
ENDBRANCH  18  20
BRANCH  18  23
HETATM   23  N2  UNL     1      13.852 -43.427  24.869  1.00  0.00    -0.340 N 
ATOM     24  H22 UNL     1      14.627 -43.240  24.234  1.00  0.00     0.167 HD
ATOM     25  H21 UNL     1      13.704 -44.266  25.431  1.00  0.00     0.167 HD
ENDBRANCH  18  23
ENDBRANCH   1  18
TORSDOF 5
ENDMDL
MODEL 2
REMARK VINA RESULT: -7.099950536      0.026      1.079
REMARK  5 active torsions:
REMARK  status: ('A' for Active; 'I' for Inactive)
REMARK    1  A    between atoms: N1_1  and  S1_4 
REMARK    2  A    between atoms: S1_4  and  N2_5 
REMARK    3  A    between atoms: S1_4  and  C1_9 
REMARK    4  A    between atoms: N5_14  and  S2_15 
REMARK    5  A    between atoms: S2_15  and  C2_18 
ROOT
HETATM    1  C1  UNL     1      12.028 -42.461  26.846  1.00  0.00     0.214 A 
HETATM    2  N3  UNL     1      11.263 -41.598  27.555  1.00  0.00    -0.270 N 
ATOM      3  H3  UNL     1      10.860 -40.734  27.193  1.00  0.00     0.189 HD
HETATM    4  N4  UNL     1      11.118 -42.057  28.805  1.00  0.00    -0.222 N 
ATOM      5  H4  UNL     1      10.587 -41.593  29.541  1.00  0.00     0.210 HD
HETATM    6  N5  UNL     1      11.762 -43.193  28.941  1.00  0.00    -0.121 N 
HETATM    7  C8  UNL     1      12.332 -43.471  27.760  1.00  0.00     0.317 A 
HETATM    8  O4  UNL     1      13.028 -44.472  27.502  1.00  0.00    -0.262 OA
ENDROOT
BRANCH   6   9
HETATM    9  S2  UNL     1      11.854 -44.154  30.395  1.00  0.00     0.286 S 
HETATM   10  O2  UNL     1      13.007 -45.111  30.299  1.00  0.00    -0.198 OA
HETATM   11  O3  UNL     1      12.147 -43.243  31.567  1.00  0.00    -0.198 OA
BRANCH   9  12
HETATM   12  C2  UNL     1      10.370 -45.043  30.642  1.00  0.00     0.081 A 
HETATM   13  C3  UNL     1      10.338 -46.287  31.236  1.00  0.00     0.025 A 
HETATM   14  C4  UNL     1       9.174 -46.994  31.435  1.00  0.00     0.002 A 
HETATM   15  C5  UNL     1       7.963 -46.472  31.037  1.00  0.00     0.000 A 
HETATM   16  C6  UNL     1       7.969 -45.229  30.440  1.00  0.00     0.002 A 
HETATM   17  C7  UNL     1       9.135 -44.532  30.247  1.00  0.00     0.025 A 
ENDBRANCH   9  12
ENDBRANCH   6   9
BRANCH   1  18
HETATM   18  S1  UNL     1      12.533 -42.362  25.174  1.00  0.00     0.153 S 
HETATM   19  O1  UNL     1      12.879 -40.983  24.757  1.00  0.00    -0.222 OA
BRANCH  18  20
HETATM   20  N1  UNL     1      11.338 -42.840  24.272  1.00  0.00    -0.340 N 
ATOM     21  H12 UNL     1      11.352 -43.643  23.643  1.00  0.00     0.167 HD
ATOM     22  H11 UNL     1      10.561 -42.201  24.438  1.00  0.00     0.167 HD
ENDBRANCH  18  20
BRANCH  18  23
HETATM   23  N2  UNL     1      13.861 -43.415  24.857  1.00  0.00    -0.340 N 
ATOM     24  H22 UNL     1      14.618 -43.235  24.197  1.00  0.00     0.167 HD
ATOM     25  H21 UNL     1      13.741 -44.237  25.449  1.00  0.00     0.167 HD
ENDBRANCH  18  23
ENDBRANCH   1  18
TORSDOF 5
ENDMDL
MODEL 3
REMARK VINA RESULT: -7.051017305      0.854      1.059
REMARK  5 active torsions:
REMARK  status: ('A' for Active; 'I' for Inactive)
REMARK    1  A    between atoms: N1_1  and  S1_4 
REMARK    2  A    between atoms: S1_4  and  N2_5 
REMARK    3  A    between atoms: S1_4  and  C1_9 
REMARK    4  A    between atoms: N5_14  and  S2_15 
REMARK    5  A    between atoms: S2_15  and  C2_18 
ROOT
HETATM    1  C1  UNL     1      11.888 -42.419  26.686  1.00  0.00     0.214 A 
HETATM    2  N3  UNL     1      11.221 -41.507  27.432  1.00  0.00    -0.270 N 
ATOM      3  H3  UNL     1      10.840 -40.627  27.084  1.00  0.00     0.189 HD
HETATM    4  N4  UNL     1      11.141 -41.941  28.696  1.00  0.00    -0.222 N 
ATOM      5  H4  UNL     1      10.687 -41.439  29.459  1.00  0.00     0.210 HD
HETATM    6  N5  UNL     1      11.732 -43.108  28.807  1.00  0.00    -0.121 N 
HETATM    7  C8  UNL     1      12.202 -43.432  27.593  1.00  0.00     0.317 A 
HETATM    8  O4  UNL     1      12.825 -44.472  27.305  1.00  0.00    -0.262 OA
ENDROOT
BRANCH   6   9
HETATM    9  S2  UNL     1      11.875 -44.054  30.267  1.00  0.00     0.286 S 
HETATM   10  O2  UNL     1      13.016 -45.020  30.136  1.00  0.00    -0.198 OA
HETATM   11  O3  UNL     1      12.219 -43.132  31.415  1.00  0.00    -0.198 OA
BRANCH   9  12
HETATM   12  C2  UNL     1      10.395 -44.929  30.582  1.00  0.00     0.081 A 
HETATM   13  C3  UNL     1       9.154 -44.444  30.227  1.00  0.00     0.025 A 
HETATM   14  C4  UNL     1       7.984 -45.125  30.470  1.00  0.00     0.002 A 
HETATM   15  C5  UNL     1       8.007 -46.352  31.096  1.00  0.00     0.000 A 
HETATM   16  C6  UNL     1       9.237 -46.858  31.462  1.00  0.00     0.002 A 
HETATM   17  C7  UNL     1      10.398 -46.170  31.214  1.00  0.00     0.025 A 
ENDBRANCH   9  12
ENDBRANCH   6   9
BRANCH   1  18
HETATM   18  S1  UNL     1      12.280 -42.369  24.982  1.00  0.00     0.153 S 
HETATM   19  O1  UNL     1      11.183 -42.874  24.123  1.00  0.00    -0.222 OA
BRANCH  18  20
HETATM   20  N1  UNL     1      13.530 -43.292  24.740  1.00  0.00    -0.340 N 
ATOM     21  H12 UNL     1      14.134 -43.677  25.465  1.00  0.00     0.167 HD
ATOM     22  H11 UNL     1      13.613 -43.427  23.732  1.00  0.00     0.167 HD
ENDBRANCH  18  20
BRANCH  18  23
HETATM   23  N2  UNL     1      12.721 -40.778  24.486  1.00  0.00    -0.340 N 
ATOM     24  H22 UNL     1      13.188 -40.536  23.612  1.00  0.00     0.167 HD
ATOM     25  H21 UNL     1      12.426 -40.140  25.226  1.00  0.00     0.167 HD
ENDBRANCH  18  23
ENDBRANCH   1  18
TORSDOF 5
ENDMDL
MODEL 4
REMARK VINA RESULT: -6.546808421      1.271      1.515
REMARK  5 active torsions:
REMARK  status: ('A' for Active; 'I' for Inactive)
REMARK    1  A    between atoms: N1_1  and  S1_4 
REMARK    2  A    between atoms: S1_4  and  N2_5 
REMARK    3  A    between atoms: S1_4  and  C1_9 
REMARK    4  A    between atoms: N5_14  and  S2_15 
REMARK    5  A    between atoms: S2_15  and  C2_18 
ROOT
HETATM    1  C1  UNL     1      12.341 -42.992  26.644  1.00  0.00     0.214 A 
HETATM    2  N3  UNL     1      11.030 -43.324  26.584  1.00  0.00    -0.270 N 
ATOM      3  H3  UNL     1      10.437 -43.236  25.759  1.00  0.00     0.189 HD
HETATM    4  N4  UNL     1      10.634 -43.786  27.777  1.00  0.00    -0.222 N 
ATOM      5  H4  UNL     1       9.690 -44.103  27.998  1.00  0.00     0.210 HD
HETATM    6  N5  UNL     1      11.640 -43.769  28.620  1.00  0.00    -0.121 N 
HETATM    7  C8  UNL     1      12.704 -43.288  27.959  1.00  0.00     0.317 A 
HETATM    8  O4  UNL     1      13.845 -43.125  28.432  1.00  0.00    -0.262 OA
ENDROOT
BRANCH   6   9
HETATM    9  S2  UNL     1      11.594 -44.280  30.288  1.00  0.00     0.286 S 
HETATM   10  O2  UNL     1      12.692 -45.269  30.547  1.00  0.00    -0.198 OA
HETATM   11  O3  UNL     1      11.870 -43.085  31.174  1.00  0.00    -0.198 OA
BRANCH   9  12
HETATM   12  C2  UNL     1      10.048 -45.003  30.669  1.00  0.00     0.081 A 
HETATM   13  C3  UNL     1       8.856 -44.326  30.526  1.00  0.00     0.025 A 
HETATM   14  C4  UNL     1       7.634 -44.887  30.822  1.00  0.00     0.002 A 
HETATM   15  C5  UNL     1       7.555 -46.181  31.286  1.00  0.00     0.000 A 
HETATM   16  C6  UNL     1       8.735 -46.878  31.439  1.00  0.00     0.002 A 
HETATM   17  C7  UNL     1       9.947 -46.310  31.140  1.00  0.00     0.025 A 
ENDBRANCH   9  12
ENDBRANCH   6   9
BRANCH   1  18
HETATM   18  S1  UNL     1      13.368 -42.343  25.386  1.00  0.00     0.153 S 
HETATM   19  O1  UNL     1      14.125 -43.391  24.662  1.00  0.00    -0.222 OA
BRANCH  18  20
HETATM   20  N1  UNL     1      14.418 -41.383  26.057  1.00  0.00    -0.340 N 
ATOM     21  H12 UNL     1      14.200 -40.525  26.563  1.00  0.00     0.167 HD
ATOM     22  H11 UNL     1      15.341 -41.783  25.888  1.00  0.00     0.167 HD
ENDBRANCH  18  20
BRANCH  18  23
HETATM   23  N2  UNL     1      12.464 -41.399  24.262  1.00  0.00    -0.340 N 
ATOM     24  H22 UNL     1      12.075 -40.474  24.440  1.00  0.00     0.167 HD
ATOM     25  H21 UNL     1      12.397 -41.941  23.400  1.00  0.00     0.167 HD
ENDBRANCH  18  23
ENDBRANCH   1  18
TORSDOF 5
ENDMDL
MODEL 5
REMARK VINA RESULT: -6.285138275      5.249      7.002
REMARK  5 active torsions:
REMARK  status: ('A' for Active; 'I' for Inactive)
REMARK    1  A    between atoms: N1_1  and  S1_4 
REMARK    2  A    between atoms: S1_4  and  N2_5 
REMARK    3  A    between atoms: S1_4  and  C1_9 
REMARK    4  A    between atoms: N5_14  and  S2_15 
REMARK    5  A    between atoms: S2_15  and  C2_18 
ROOT
HETATM    1  C1  UNL     1      10.464 -47.038  33.404  1.00  0.00     0.214 A 
HETATM    2  N3  UNL     1       9.284 -47.701  33.432  1.00  0.00    -0.270 N 
ATOM      3  H3  UNL     1       9.092 -48.540  33.979  1.00  0.00     0.189 HD
HETATM    4  N4  UNL     1       8.409 -47.084  32.627  1.00  0.00    -0.222 N 
ATOM      5  H4  UNL     1       7.447 -47.383  32.470  1.00  0.00     0.210 HD
HETATM    6  N5  UNL     1       8.973 -46.036  32.072  1.00  0.00    -0.121 N 
HETATM    7  C8  UNL     1      10.234 -45.977  32.526  1.00  0.00     0.317 A 
HETATM    8  O4  UNL     1      11.081 -45.116  32.221  1.00  0.00    -0.262 OA
ENDROOT
BRANCH   6   9
HETATM    9  S2  UNL     1       8.215 -44.932  30.953  1.00  0.00     0.286 S 
HETATM   10  O2  UNL     1       8.255 -43.539  31.510  1.00  0.00    -0.198 OA
HETATM   11  O3  UNL     1       9.018 -44.907  29.671  1.00  0.00    -0.198 OA
BRANCH   9  12
HETATM   12  C2  UNL     1       6.559 -45.400  30.651  1.00  0.00     0.081 A 
HETATM   13  C3  UNL     1       6.149 -45.959  29.460  1.00  0.00     0.025 A 
HETATM   14  C4  UNL     1       4.848 -46.331  29.213  1.00  0.00     0.002 A 
HETATM   15  C5  UNL     1       3.877 -46.154  30.174  1.00  0.00     0.000 A 
HETATM   16  C6  UNL     1       4.262 -45.595  31.375  1.00  0.00     0.002 A 
HETATM   17  C7  UNL     1       5.563 -45.228  31.611  1.00  0.00     0.025 A 
ENDBRANCH   9  12
ENDBRANCH   6   9
BRANCH   1  18
HETATM   18  S1  UNL     1      11.947 -47.398  34.259  1.00  0.00     0.153 S 
HETATM   19  O1  UNL     1      12.414 -48.788  34.041  1.00  0.00    -0.222 OA
BRANCH  18  20
HETATM   20  N1  UNL     1      11.679 -47.229  35.799  1.00  0.00    -0.340 N 
ATOM     21  H12 UNL     1      11.368 -47.965  36.433  1.00  0.00     0.167 HD
ATOM     22  H11 UNL     1      11.874 -46.256  36.033  1.00  0.00     0.167 HD
ENDBRANCH  18  20
BRANCH  18  23
HETATM   23  N2  UNL     1      13.199 -46.291  33.837  1.00  0.00    -0.340 N 
ATOM     24  H22 UNL     1      13.350 -45.376  34.260  1.00  0.00     0.167 HD
ATOM     25  H21 UNL     1      13.748 -46.727  33.095  1.00  0.00     0.167 HD
ENDBRANCH  18  23
ENDBRANCH   1  18
TORSDOF 5
ENDMDL
