MODEL 1
REMARK VINA RESULT: -7.029358854      0.000      0.000
REMARK  4 active torsions:
REMARK  status: ('A' for Active; 'I' for Inactive)
REMARK    1  A    between atoms: S1_2  and  C2_5 
REMARK    2  A    between atoms: C5_8  and  C6_9 
REMARK    3  A    between atoms: N1_10  and  N2_12 
REMARK    4  A    between atoms: C7_13  and  N3_14 
ROOT
HETATM    1  N2  UNL     1      12.914 -44.361  30.631  1.00  0.00    -0.032 N 
HETATM    2  C7  UNL     1      13.669 -44.358  31.742  1.00  0.00     0.705 A 
HETATM    3  N4  UNL     1      15.026 -44.408  31.662  1.00  0.00    -0.139 N 
ATOM      4  H4  UNL     1      15.582 -44.406  32.517  1.00  0.00     0.189 HD
HETATM    5  C8  UNL     1      15.646 -44.462  30.462  1.00  0.00     0.342 A 
HETATM    6  O3  UNL     1      16.901 -44.509  30.394  1.00  0.00    -0.246 OA
HETATM    7  N5  UNL     1      14.892 -44.465  29.349  1.00  0.00    -0.258 N 
ATOM      8  H5  UNL     1      15.333 -44.505  28.430  1.00  0.00     0.175 HD
HETATM    9  C9  UNL     1      13.558 -44.415  29.456  1.00  0.00     0.364 A 
HETATM   10  O4  UNL     1      12.828 -44.417  28.418  1.00  0.00    -0.244 OA
ENDROOT
BRANCH   1  11
HETATM   11  N1  UNL     1      11.529 -44.308  30.772  1.00  0.00    -0.286 N 
HETATM   12  C6  UNL     1      10.896 -45.442  30.957  1.00  0.00     0.119 C 
ATOM     13  H1  UNL     1      11.027 -43.421  30.733  1.00  0.00     0.187 HD
BRANCH  12  14
HETATM   14  C5  UNL     1       9.460 -45.473  31.112  1.00  0.00    -0.019 A 
HETATM   15  C4  UNL     1       8.824 -46.654  31.368  1.00  0.00     0.014 A 
HETATM   16  C3  UNL     1       7.438 -46.732  31.527  1.00  0.00     0.024 A 
HETATM   17  C2  UNL     1       6.693 -45.562  31.418  1.00  0.00     0.058 A 
HETATM   18  C11 UNL     1       7.321 -44.367  31.160  1.00  0.00     0.024 A 
HETATM   19  C10 UNL     1       8.700 -44.327  31.009  1.00  0.00     0.014 A 
BRANCH  17  20
HETATM   20  S1  UNL     1       4.968 -45.692  31.620  1.00  0.00     0.171 S 
HETATM   21  C1  UNL     1       4.125 -45.629  30.054  1.00  0.00     0.167 C 
HETATM   22  O1  UNL     1       4.583 -46.959  32.324  1.00  0.00    -0.223 OA
HETATM   23  O2  UNL     1       4.470 -44.515  32.435  1.00  0.00    -0.223 OA
ENDBRANCH  17  20
ENDBRANCH  12  14
ENDBRANCH   1  11
BRANCH   2  24
HETATM   24  N3  UNL     1      13.172 -44.308  32.932  1.00  0.00    -0.233 N 
ATOM     25  H32 UNL     1      12.223 -43.940  33.006  1.00  0.00     0.174 HD
ATOM     26  H31 UNL     1      13.680 -44.613  33.762  1.00  0.00     0.174 HD
ENDBRANCH   2  24
TORSDOF 4
ENDMDL
MODEL 2
REMARK VINA RESULT: -7.025838348      0.265      1.070
REMARK  4 active torsions:
REMARK  status: ('A' for Active; 'I' for Inactive)
REMARK    1  A    between atoms: S1_2  and  C2_5 
REMARK    2  A    between atoms: C5_8  and  C6_9 
REMARK    3  A    between atoms: N1_10  and  N2_12 
REMARK    4  A    between atoms: C7_13  and  N3_14 
ROOT
HETATM    1  N2  UNL     1      12.866 -44.109  30.617  1.00  0.00    -0.032 N 
HETATM    2  C7  UNL     1      13.627 -43.977  31.715  1.00  0.00     0.705 A 
HETATM    3  N4  UNL     1      14.983 -43.928  31.621  1.00  0.00    -0.139 N 
ATOM      4  H4  UNL     1      15.545 -43.828  32.467  1.00  0.00     0.189 HD
HETATM    5  C8  UNL     1      15.595 -44.010  30.418  1.00  0.00     0.342 A 
HETATM    6  O3  UNL     1      16.850 -43.964  30.337  1.00  0.00    -0.246 OA
HETATM    7  N5  UNL     1      14.835 -44.142  29.318  1.00  0.00    -0.258 N 
ATOM      8  H5  UNL     1      15.270 -44.207  28.398  1.00  0.00     0.175 HD
HETATM    9  C9  UNL     1      13.502 -44.188  29.440  1.00  0.00     0.364 A 
HETATM   10  O4  UNL     1      12.765 -44.313  28.414  1.00  0.00    -0.244 OA
ENDROOT
BRANCH   1  11
HETATM   11  N1  UNL     1      11.482 -44.153  30.773  1.00  0.00    -0.286 N 
HETATM   12  C6  UNL     1      10.926 -45.335  30.909  1.00  0.00     0.119 C 
ATOM     13  H1  UNL     1      10.922 -43.301  30.781  1.00  0.00     0.187 HD
BRANCH  12  14
HETATM   14  C5  UNL     1       9.497 -45.467  31.076  1.00  0.00    -0.019 A 
HETATM   15  C4  UNL     1       8.689 -44.373  30.953  1.00  0.00     0.014 A 
HETATM   16  C3  UNL     1       7.303 -44.453  31.104  1.00  0.00     0.024 A 
HETATM   17  C2  UNL     1       6.739 -45.692  31.390  1.00  0.00     0.058 A 
HETATM   18  C11 UNL     1       7.541 -46.800  31.516  1.00  0.00     0.024 A 
HETATM   19  C10 UNL     1       8.915 -46.685  31.359  1.00  0.00     0.014 A 
BRANCH  17  20
HETATM   20  S1  UNL     1       5.008 -45.758  31.573  1.00  0.00     0.171 S 
HETATM   21  C1  UNL     1       4.189 -45.772  29.994  1.00  0.00     0.167 C 
HETATM   22  O1  UNL     1       4.576 -46.965  32.351  1.00  0.00    -0.223 OA
HETATM   23  O2  UNL     1       4.535 -44.517  32.304  1.00  0.00    -0.223 OA
ENDBRANCH  17  20
ENDBRANCH  12  14
ENDBRANCH   1  11
BRANCH   2  24
HETATM   24  N3  UNL     1      13.138 -43.890  32.906  1.00  0.00    -0.233 N 
ATOM     25  H32 UNL     1      12.457 -43.145  33.058  1.00  0.00     0.174 HD
ATOM     26  H31 UNL     1      13.404 -44.516  33.666  1.00  0.00     0.174 HD
ENDBRANCH   2  24
TORSDOF 4
ENDMDL
MODEL 3
REMARK VINA RESULT: -6.978528197      1.671      2.450
REMARK  4 active torsions:
REMARK  status: ('A' for Active; 'I' for Inactive)
REMARK    1  A    between atoms: S1_2  and  C2_5 
REMARK    2  A    between atoms: C5_8  and  C6_9 
REMARK    3  A    between atoms: N1_10  and  N2_12 
REMARK    4  A    between atoms: C7_13  and  N3_14 
ROOT
HETATM    1  N2  UNL     1      12.385 -43.504  29.299  1.00  0.00    -0.032 N 
HETATM    2  C7  UNL     1      12.801 -43.697  28.037  1.00  0.00     0.705 A 
HETATM    3  N4  UNL     1      14.106 -43.509  27.697  1.00  0.00    -0.139 N 
ATOM      4  H4  UNL     1      14.402 -43.659  26.732  1.00  0.00     0.189 HD
HETATM    5  C8  UNL     1      15.012 -43.124  28.623  1.00  0.00     0.342 A 
HETATM    6  O3  UNL     1      16.216 -42.952  28.303  1.00  0.00    -0.246 OA
HETATM    7  N5  UNL     1      14.598 -42.932  29.887  1.00  0.00    -0.258 N 
ATOM      8  H5  UNL     1      15.260 -42.642  30.606  1.00  0.00     0.175 HD
HETATM    9  C9  UNL     1      13.308 -43.123  30.194  1.00  0.00     0.364 A 
HETATM   10  O4  UNL     1      12.895 -42.947  31.381  1.00  0.00    -0.244 OA
ENDROOT
BRANCH   1  11
HETATM   11  N1  UNL     1      11.039 -43.712  29.590  1.00  0.00    -0.286 N 
HETATM   12  C6  UNL     1      10.734 -44.752  30.332  1.00  0.00     0.119 C 
ATOM     13  H1  UNL     1      10.318 -43.081  29.241  1.00  0.00     0.187 HD
BRANCH  12  14
HETATM   14  C5  UNL     1       9.361 -45.037  30.679  1.00  0.00    -0.019 A 
HETATM   15  C4  UNL     1       8.432 -44.037  30.677  1.00  0.00     0.014 A 
HETATM   16  C3  UNL     1       7.093 -44.266  31.004  1.00  0.00     0.024 A 
HETATM   17  C2  UNL     1       6.707 -45.559  31.342  1.00  0.00     0.058 A 
HETATM   18  C11 UNL     1       7.632 -46.575  31.347  1.00  0.00     0.024 A 
HETATM   19  C10 UNL     1       8.954 -46.311  31.016  1.00  0.00     0.014 A 
BRANCH  17  20
HETATM   20  S1  UNL     1       5.032 -45.812  31.745  1.00  0.00     0.171 S 
HETATM   21  C1  UNL     1       4.017 -45.891  30.285  1.00  0.00     0.167 C 
HETATM   22  O1  UNL     1       4.833 -47.069  32.539  1.00  0.00    -0.223 OA
HETATM   23  O2  UNL     1       4.532 -44.638  32.564  1.00  0.00    -0.223 OA
ENDBRANCH  17  20
ENDBRANCH  12  14
ENDBRANCH   1  11
BRANCH   2  24
HETATM   24  N3  UNL     1      12.014 -44.064  27.083  1.00  0.00    -0.233 N 
ATOM     25  H32 UNL     1      11.442 -44.889  27.266  1.00  0.00     0.174 HD
ATOM     26  H31 UNL     1      11.952 -43.574  26.190  1.00  0.00     0.174 HD
ENDBRANCH   2  24
TORSDOF 4
ENDMDL
MODEL 4
REMARK VINA RESULT: -6.743954937      1.159      1.777
REMARK  4 active torsions:
REMARK  status: ('A' for Active; 'I' for Inactive)
REMARK    1  A    between atoms: S1_2  and  C2_5 
REMARK    2  A    between atoms: C5_8  and  C6_9 
REMARK    3  A    between atoms: N1_10  and  N2_12 
REMARK    4  A    between atoms: C7_13  and  N3_14 
ROOT
HETATM    1  N2  UNL     1      12.826 -44.030  30.352  1.00  0.00    -0.032 N 
HETATM    2  C7  UNL     1      13.264 -43.906  29.088  1.00  0.00     0.705 A 
HETATM    3  N4  UNL     1      14.596 -43.893  28.812  1.00  0.00    -0.139 N 
ATOM      4  H4  UNL     1      14.910 -43.797  27.845  1.00  0.00     0.189 HD
HETATM    5  C8  UNL     1      15.509 -44.005  29.802  1.00  0.00     0.342 A 
HETATM    6  O3  UNL     1      16.739 -43.992  29.540  1.00  0.00    -0.246 OA
HETATM    7  N5  UNL     1      15.072 -44.130  31.067  1.00  0.00    -0.258 N 
ATOM      8  H5  UNL     1      15.738 -44.216  31.834  1.00  0.00     0.175 HD
HETATM    9  C9  UNL     1      13.755 -44.139  31.312  1.00  0.00     0.364 A 
HETATM   10  O4  UNL     1      13.321 -44.256  32.499  1.00  0.00    -0.244 OA
ENDROOT
BRANCH   1  11
HETATM   11  N1  UNL     1      11.451 -44.037  30.577  1.00  0.00    -0.286 N 
HETATM   12  C6  UNL     1      10.863 -45.206  30.685  1.00  0.00     0.119 C 
ATOM     13  H1  UNL     1      10.922 -43.169  30.654  1.00  0.00     0.187 HD
BRANCH  12  14
HETATM   14  C5  UNL     1       9.440 -45.300  30.919  1.00  0.00    -0.019 A 
HETATM   15  C4  UNL     1       8.869 -46.511  31.188  1.00  0.00     0.014 A 
HETATM   16  C3  UNL     1       7.498 -46.651  31.421  1.00  0.00     0.024 A 
HETATM   17  C2  UNL     1       6.700 -45.512  31.375  1.00  0.00     0.058 A 
HETATM   18  C11 UNL     1       7.263 -44.288  31.105  1.00  0.00     0.024 A 
HETATM   19  C10 UNL     1       8.628 -44.186  30.879  1.00  0.00     0.014 A 
BRANCH  17  20
HETATM   20  S1  UNL     1       4.997 -45.719  31.669  1.00  0.00     0.171 S 
HETATM   21  C1  UNL     1       4.076 -45.765  30.147  1.00  0.00     0.167 C 
HETATM   22  O1  UNL     1       4.712 -46.973  32.442  1.00  0.00    -0.223 OA
HETATM   23  O2  UNL     1       4.478 -44.534  32.461  1.00  0.00    -0.223 OA
ENDBRANCH  17  20
ENDBRANCH  12  14
ENDBRANCH   1  11
BRANCH   2  24
HETATM   24  N3  UNL     1      12.473 -43.793  28.075  1.00  0.00    -0.233 N 
ATOM     25  H32 UNL     1      11.498 -43.582  28.289  1.00  0.00     0.174 HD
ATOM     26  H31 UNL     1      12.783 -43.905  27.110  1.00  0.00     0.174 HD
ENDBRANCH   2  24
TORSDOF 4
ENDMDL
MODEL 5
REMARK VINA RESULT: -6.731386850      1.364      1.744
REMARK  4 active torsions:
REMARK  status: ('A' for Active; 'I' for Inactive)
REMARK    1  A    between atoms: S1_2  and  C2_5 
REMARK    2  A    between atoms: C5_8  and  C6_9 
REMARK    3  A    between atoms: N1_10  and  N2_12 
REMARK    4  A    between atoms: C7_13  and  N3_14 
ROOT
HETATM    1  N2  UNL     1      12.903 -45.531  31.876  1.00  0.00    -0.032 N 
HETATM    2  C7  UNL     1      13.499 -46.036  32.968  1.00  0.00     0.705 A 
HETATM    3  N4  UNL     1      14.843 -46.249  32.992  1.00  0.00    -0.139 N 
ATOM      4  H4  UNL     1      15.277 -46.634  33.831  1.00  0.00     0.189 HD
HETATM    5  C8  UNL     1      15.608 -45.957  31.917  1.00  0.00     0.342 A 
HETATM    6  O3  UNL     1      16.850 -46.157  31.945  1.00  0.00    -0.246 OA
HETATM    7  N5  UNL     1      15.013 -45.451  30.823  1.00  0.00    -0.258 N 
ATOM      8  H5  UNL     1      15.566 -45.222  29.997  1.00  0.00     0.175 HD
HETATM    9  C9  UNL     1      13.689 -45.252  30.826  1.00  0.00     0.364 A 
HETATM   10  O4  UNL     1      13.106 -44.775  29.804  1.00  0.00    -0.244 OA
ENDROOT
BRANCH   1  11
HETATM   11  N1  UNL     1      11.524 -45.332  31.907  1.00  0.00    -0.286 N 
HETATM   12  C6  UNL     1      10.765 -46.289  31.427  1.00  0.00     0.119 C 
ATOM     13  H1  UNL     1      11.121 -44.477  32.288  1.00  0.00     0.187 HD
BRANCH  12  14
HETATM   14  C5  UNL     1       9.326 -46.161  31.423  1.00  0.00    -0.019 A 
HETATM   15  C4  UNL     1       8.745 -44.967  31.107  1.00  0.00     0.014 A 
HETATM   16  C3  UNL     1       7.359 -44.796  31.088  1.00  0.00     0.024 A 
HETATM   17  C2  UNL     1       6.554 -45.886  31.405  1.00  0.00     0.058 A 
HETATM   18  C11 UNL     1       7.126 -47.093  31.725  1.00  0.00     0.024 A 
HETATM   19  C10 UNL     1       8.507 -47.227  31.733  1.00  0.00     0.014 A 
BRANCH  17  20
HETATM   20  S1  UNL     1       4.830 -45.641  31.374  1.00  0.00     0.171 S 
HETATM   21  C1  UNL     1       4.272 -45.164  29.752  1.00  0.00     0.167 C 
HETATM   22  O1  UNL     1       4.084 -46.870  31.799  1.00  0.00    -0.223 OA
HETATM   23  O2  UNL     1       4.470 -44.507  32.314  1.00  0.00    -0.223 OA
ENDBRANCH  17  20
ENDBRANCH  12  14
ENDBRANCH   1  11
BRANCH   2  24
HETATM   24  N3  UNL     1      12.856 -46.346  34.043  1.00  0.00    -0.233 N 
ATOM     25  H32 UNL     1      12.217 -47.137  33.970  1.00  0.00     0.174 HD
ATOM     26  H31 UNL     1      12.966 -45.843  34.923  1.00  0.00     0.174 HD
ENDBRANCH   2  24
TORSDOF 4
ENDMDL
