MODEL 1
REMARK VINA RESULT: -6.915351883      0.000      0.000
REMARK  4 active torsions:
REMARK  status: ('A' for Active; 'I' for Inactive)
REMARK    1  A    between atoms: N1_2  and  C2_4 
REMARK    2  A    between atoms: N3_9  and  C4_10 
REMARK    3  A    between atoms: C4_10  and  C5_11 
REMARK    4  A    between atoms: C9_15  and  N4_16 
ROOT
HETATM    1  C2  UNL     1     -22.673 -12.035  16.569  1.00  0.00     0.174 C 
HETATM    2  N2  UNL     1     -22.210 -10.902  15.975  1.00  0.00    -0.290 N 
ATOM      3  H2  UNL     1     -22.466 -10.025  16.429  1.00  0.00     0.172 HD
HETATM    4  C3  UNL     1     -21.456 -10.790  14.860  1.00  0.00     0.332 C 
HETATM    5  O1  UNL     1     -21.430  -9.650  14.335  1.00  0.00    -0.246 OA
HETATM    6  N3  UNL     1     -20.724 -11.722  14.225  1.00  0.00    -0.247 N 
HETATM    7  C11 UNL     1     -20.910 -13.068  14.230  1.00  0.00     0.333 C 
HETATM    8  O4  UNL     1     -20.485 -13.701  13.217  1.00  0.00    -0.246 OA
HETATM    9  N5  UNL     1     -21.502 -13.757  15.223  1.00  0.00    -0.272 N 
ATOM     10  H5  UNL     1     -21.425 -14.773  15.155  1.00  0.00     0.174 HD
HETATM   11  C12 UNL     1     -22.188 -13.299  16.303  1.00  0.00     0.293 C 
HETATM   12  O5  UNL     1     -22.427 -14.156  17.218  1.00  0.00    -0.264 OA
ENDROOT
BRANCH   6  13
HETATM   13  C4  UNL     1     -19.602 -11.264  13.433  1.00  0.00     0.177 C 
BRANCH  13  14
HETATM   14  C5  UNL     1     -18.326 -11.244  14.164  1.00  0.00    -0.037 A 
HETATM   15  C6  UNL     1     -17.459 -12.298  14.142  1.00  0.00     0.009 A 
HETATM   16  C7  UNL     1     -16.245 -12.318  14.819  1.00  0.00     0.003 A 
HETATM   17  C8  UNL     1     -15.913 -11.198  15.550  1.00  0.00     0.036 A 
HETATM   18  C9  UNL     1     -16.746 -10.098  15.613  1.00  0.00     0.103 A 
HETATM   19  C10 UNL     1     -17.936 -10.138  14.921  1.00  0.00     0.045 A 
BRANCH  18  20
HETATM   20  N4  UNL     1     -16.377  -8.956  16.375  1.00  0.00    -0.116 N 
HETATM   21  O2  UNL     1     -15.168  -8.685  16.524  1.00  0.00    -0.532 OA
HETATM   22  O3  UNL     1     -17.361  -8.184  16.927  1.00  0.00    -0.532 OA
ENDBRANCH  18  20
ENDBRANCH  13  14
ENDBRANCH   6  13
BRANCH   1  23
HETATM   23  N1  UNL     1     -23.627 -11.926  17.436  1.00  0.00    -0.376 N 
HETATM   24  C1  UNL     1     -24.053 -10.626  17.907  1.00  0.00     0.148 C 
ATOM     25  H1  UNL     1     -24.084 -12.765  17.793  1.00  0.00     0.160 HD
ENDBRANCH   1  23
TORSDOF 4
ENDMDL
MODEL 2
REMARK VINA RESULT: -6.871194579      2.367      3.403
REMARK  4 active torsions:
REMARK  status: ('A' for Active; 'I' for Inactive)
REMARK    1  A    between atoms: N1_2  and  C2_4 
REMARK    2  A    between atoms: N3_9  and  C4_10 
REMARK    3  A    between atoms: C4_10  and  C5_11 
REMARK    4  A    between atoms: C9_15  and  N4_16 
ROOT
HETATM    1  C2  UNL     1     -22.832  -8.756  13.359  1.00  0.00     0.174 C 
HETATM    2  N2  UNL     1     -22.331  -9.562  12.384  1.00  0.00    -0.290 N 
ATOM      3  H2  UNL     1     -22.239  -9.139  11.461  1.00  0.00     0.172 HD
HETATM    4  C3  UNL     1     -21.940 -10.851  12.484  1.00  0.00     0.332 C 
HETATM    5  O1  UNL     1     -21.823 -11.467  11.396  1.00  0.00    -0.246 OA
HETATM    6  N3  UNL     1     -21.657 -11.577  13.579  1.00  0.00    -0.247 N 
HETATM    7  C11 UNL     1     -22.124 -11.392  14.842  1.00  0.00     0.333 C 
HETATM    8  O4  UNL     1     -22.172 -12.419  15.583  1.00  0.00    -0.246 OA
HETATM    9  N5  UNL     1     -22.528 -10.210  15.344  1.00  0.00    -0.272 N 
ATOM     10  H5  UNL     1     -22.700 -10.201  16.350  1.00  0.00     0.174 HD
HETATM   11  C12 UNL     1     -22.740  -9.027  14.708  1.00  0.00     0.293 C 
HETATM   12  O5  UNL     1     -22.876  -8.006  15.461  1.00  0.00    -0.264 OA
ENDROOT
BRANCH   6  13
HETATM   13  C4  UNL     1     -20.752 -12.697  13.422  1.00  0.00     0.177 C 
BRANCH  13  14
HETATM   14  C5  UNL     1     -19.365 -12.401  13.813  1.00  0.00    -0.037 A 
HETATM   15  C6  UNL     1     -18.412 -13.374  13.906  1.00  0.00     0.009 A 
HETATM   16  C7  UNL     1     -17.093 -13.134  14.273  1.00  0.00     0.003 A 
HETATM   17  C8  UNL     1     -16.744 -11.831  14.554  1.00  0.00     0.036 A 
HETATM   18  C9  UNL     1     -17.660 -10.801  14.479  1.00  0.00     0.103 A 
HETATM   19  C10 UNL     1     -18.953 -11.101  14.110  1.00  0.00     0.045 A 
BRANCH  18  20
HETATM   20  N4  UNL     1     -17.272  -9.466  14.775  1.00  0.00    -0.116 N 
HETATM   21  O2  UNL     1     -16.722  -8.779  13.890  1.00  0.00    -0.532 OA
HETATM   22  O3  UNL     1     -17.511  -8.970  16.026  1.00  0.00    -0.532 OA
ENDBRANCH  18  20
ENDBRANCH  13  14
ENDBRANCH   6  13
BRANCH   1  23
HETATM   23  N1  UNL     1     -23.434  -7.666  13.003  1.00  0.00    -0.376 N 
HETATM   24  C1  UNL     1     -24.726  -7.713  12.356  1.00  0.00     0.148 C 
ATOM     25  H1  UNL     1     -22.991  -6.765  13.182  1.00  0.00     0.160 HD
ENDBRANCH   1  23
TORSDOF 4
ENDMDL
MODEL 3
REMARK VINA RESULT: -6.860322095      0.777      1.033
REMARK  4 active torsions:
REMARK  status: ('A' for Active; 'I' for Inactive)
REMARK    1  A    between atoms: N1_2  and  C2_4 
REMARK    2  A    between atoms: N3_9  and  C4_10 
REMARK    3  A    between atoms: C4_10  and  C5_11 
REMARK    4  A    between atoms: C9_15  and  N4_16 
ROOT
HETATM    1  C2  UNL     1     -22.483 -11.432  16.449  1.00  0.00     0.174 C 
HETATM    2  N2  UNL     1     -22.102 -10.573  15.466  1.00  0.00    -0.290 N 
ATOM      3  H2  UNL     1     -22.533  -9.648  15.491  1.00  0.00     0.172 HD
HETATM    4  C3  UNL     1     -21.226 -10.787  14.460  1.00  0.00     0.332 C 
HETATM    5  O1  UNL     1     -21.285  -9.972  13.507  1.00  0.00    -0.246 OA
HETATM    6  N3  UNL     1     -20.296 -11.749  14.326  1.00  0.00    -0.247 N 
HETATM    7  C11 UNL     1     -20.297 -12.988  14.885  1.00  0.00     0.333 C 
HETATM    8  O4  UNL     1     -19.657 -13.888  14.262  1.00  0.00    -0.246 OA
HETATM    9  N5  UNL     1     -20.919 -13.311  16.034  1.00  0.00    -0.272 N 
ATOM     10  H5  UNL     1     -20.697 -14.235  16.404  1.00  0.00     0.174 HD
HETATM   11  C12 UNL     1     -21.800 -12.586  16.773  1.00  0.00     0.293 C 
HETATM   12  O5  UNL     1     -22.042 -13.028  17.945  1.00  0.00    -0.264 OA
ENDROOT
BRANCH   6  13
HETATM   13  C4  UNL     1     -19.150 -11.457  13.491  1.00  0.00     0.177 C 
BRANCH  13  14
HETATM   14  C5  UNL     1     -17.910 -11.216  14.245  1.00  0.00    -0.037 A 
HETATM   15  C6  UNL     1     -16.860 -12.087  14.214  1.00  0.00     0.009 A 
HETATM   16  C7  UNL     1     -15.673 -11.894  14.913  1.00  0.00     0.003 A 
HETATM   17  C8  UNL     1     -15.568 -10.751  15.674  1.00  0.00     0.036 A 
HETATM   18  C9  UNL     1     -16.595  -9.830  15.747  1.00  0.00     0.103 A 
HETATM   19  C10 UNL     1     -17.746 -10.076  15.034  1.00  0.00     0.045 A 
BRANCH  18  20
HETATM   20  N4  UNL     1     -16.459  -8.658  16.542  1.00  0.00    -0.116 N 
HETATM   21  O2  UNL     1     -17.483  -8.081  16.958  1.00  0.00    -0.532 OA
HETATM   22  O3  UNL     1     -15.205  -8.195  16.828  1.00  0.00    -0.532 OA
ENDBRANCH  18  20
ENDBRANCH  13  14
ENDBRANCH   6  13
BRANCH   1  23
HETATM   23  N1  UNL     1     -23.552 -11.154  17.125  1.00  0.00    -0.376 N 
HETATM   24  C1  UNL     1     -24.278  -9.926  16.887  1.00  0.00     0.148 C 
ATOM     25  H1  UNL     1     -23.885 -11.808  17.832  1.00  0.00     0.160 HD
ENDBRANCH   1  23
TORSDOF 4
ENDMDL
MODEL 4
REMARK VINA RESULT: -6.662014357      1.466      2.410
REMARK  4 active torsions:
REMARK  status: ('A' for Active; 'I' for Inactive)
REMARK    1  A    between atoms: N1_2  and  C2_4 
REMARK    2  A    between atoms: N3_9  and  C4_10 
REMARK    3  A    between atoms: C4_10  and  C5_11 
REMARK    4  A    between atoms: C9_15  and  N4_16 
ROOT
HETATM    1  C2  UNL     1     -22.949 -11.084  15.793  1.00  0.00     0.174 C 
HETATM    2  N2  UNL     1     -21.902 -11.935  15.969  1.00  0.00    -0.290 N 
ATOM      3  H2  UNL     1     -22.076 -12.735  16.577  1.00  0.00     0.172 HD
HETATM    4  C3  UNL     1     -20.661 -11.854  15.441  1.00  0.00     0.332 C 
HETATM    5  O1  UNL     1     -19.788 -12.563  15.999  1.00  0.00    -0.246 OA
HETATM    6  N3  UNL     1     -20.219 -11.123  14.403  1.00  0.00    -0.247 N 
HETATM    7  C11 UNL     1     -20.736  -9.961  13.925  1.00  0.00     0.333 C 
HETATM    8  O4  UNL     1     -19.930  -9.188  13.326  1.00  0.00    -0.246 OA
HETATM    9  N5  UNL     1     -22.024  -9.588  14.046  1.00  0.00    -0.272 N 
ATOM     10  H5  UNL     1     -22.293  -8.768  13.501  1.00  0.00     0.174 HD
HETATM   11  C12 UNL     1     -23.019 -10.144  14.787  1.00  0.00     0.293 C 
HETATM   12  O5  UNL     1     -24.202  -9.744  14.522  1.00  0.00    -0.264 OA
ENDROOT
BRANCH   6  13
HETATM   13  C4  UNL     1     -19.053 -11.609  13.694  1.00  0.00     0.177 C 
BRANCH  13  14
HETATM   14  C5  UNL     1     -17.778 -11.286  14.352  1.00  0.00    -0.037 A 
HETATM   15  C6  UNL     1     -16.685 -12.098  14.259  1.00  0.00     0.009 A 
HETATM   16  C7  UNL     1     -15.464 -11.827  14.867  1.00  0.00     0.003 A 
HETATM   17  C8  UNL     1     -15.369 -10.665  15.600  1.00  0.00     0.036 A 
HETATM   18  C9  UNL     1     -16.438  -9.800  15.733  1.00  0.00     0.103 A 
HETATM   19  C10 UNL     1     -17.622 -10.123  15.109  1.00  0.00     0.045 A 
BRANCH  18  20
HETATM   20  N4  UNL     1     -16.312  -8.608  16.497  1.00  0.00    -0.116 N 
HETATM   21  O2  UNL     1     -17.329  -8.105  17.017  1.00  0.00    -0.532 OA
HETATM   22  O3  UNL     1     -15.075  -8.042  16.641  1.00  0.00    -0.532 OA
ENDBRANCH  18  20
ENDBRANCH  13  14
ENDBRANCH   6  13
BRANCH   1  23
HETATM   23  N1  UNL     1     -23.943 -11.158  16.619  1.00  0.00    -0.376 N 
HETATM   24  C1  UNL     1     -23.718 -11.401  18.027  1.00  0.00     0.148 C 
ATOM     25  H1  UNL     1     -24.895 -11.045  16.274  1.00  0.00     0.160 HD
ENDBRANCH   1  23
TORSDOF 4
ENDMDL
MODEL 5
REMARK VINA RESULT: -6.622113227      1.279      1.322
REMARK  4 active torsions:
REMARK  status: ('A' for Active; 'I' for Inactive)
REMARK    1  A    between atoms: N1_2  and  C2_4 
REMARK    2  A    between atoms: N3_9  and  C4_10 
REMARK    3  A    between atoms: C4_10  and  C5_11 
REMARK    4  A    between atoms: C9_15  and  N4_16 
ROOT
HETATM    1  C2  UNL     1     -23.070 -10.641  16.142  1.00  0.00     0.174 C 
HETATM    2  N2  UNL     1     -22.540 -10.118  15.003  1.00  0.00    -0.290 N 
ATOM      3  H2  UNL     1     -22.749  -9.136  14.825  1.00  0.00     0.172 HD
HETATM    4  C3  UNL     1     -21.771 -10.734  14.079  1.00  0.00     0.332 C 
HETATM    5  O1  UNL     1     -21.677 -10.147  12.974  1.00  0.00    -0.246 OA
HETATM    6  N3  UNL     1     -21.088 -11.889  14.166  1.00  0.00    -0.247 N 
HETATM    7  C11 UNL     1     -21.349 -12.949  14.976  1.00  0.00     0.333 C 
HETATM    8  O4  UNL     1     -20.952 -14.082  14.569  1.00  0.00    -0.246 OA
HETATM    9  N5  UNL     1     -21.987 -12.871  16.159  1.00  0.00    -0.272 N 
ATOM     10  H5  UNL     1     -21.967 -13.723  16.721  1.00  0.00     0.174 HD
HETATM   11  C12 UNL     1     -22.655 -11.825  16.714  1.00  0.00     0.293 C 
HETATM   12  O5  UNL     1     -22.949 -11.944  17.950  1.00  0.00    -0.264 OA
ENDROOT
BRANCH   6  13
HETATM   13  C4  UNL     1     -19.936 -12.049  13.304  1.00  0.00     0.177 C 
BRANCH  13  14
HETATM   14  C5  UNL     1     -18.654 -11.756  13.964  1.00  0.00    -0.037 A 
HETATM   15  C6  UNL     1     -17.682 -12.703  14.117  1.00  0.00     0.009 A 
HETATM   16  C7  UNL     1     -16.459 -12.465  14.735  1.00  0.00     0.003 A 
HETATM   17  C8  UNL     1     -16.231 -11.193  15.212  1.00  0.00     0.036 A 
HETATM   18  C9  UNL     1     -17.173 -10.191  15.088  1.00  0.00     0.103 A 
HETATM   19  C10 UNL     1     -18.366 -10.487  14.468  1.00  0.00     0.045 A 
BRANCH  18  20
HETATM   20  N4  UNL     1     -16.910  -8.887  15.591  1.00  0.00    -0.116 N 
HETATM   21  O2  UNL     1     -16.142  -8.132  14.961  1.00  0.00    -0.532 OA
HETATM   22  O3  UNL     1     -17.508  -8.495  16.757  1.00  0.00    -0.532 OA
ENDBRANCH  18  20
ENDBRANCH  13  14
ENDBRANCH   6  13
BRANCH   1  23
HETATM   23  N1  UNL     1     -24.024  -9.990  16.728  1.00  0.00    -0.376 N 
HETATM   24  C1  UNL     1     -24.384  -8.658  16.295  1.00  0.00     0.148 C 
ATOM     25  H1  UNL     1     -24.527 -10.422  17.502  1.00  0.00     0.160 HD
ENDBRANCH   1  23
TORSDOF 4
ENDMDL
