MODEL 1
REMARK VINA RESULT: -7.060510565      0.000      0.000
REMARK  5 active torsions:
REMARK  status: ('A' for Active; 'I' for Inactive)
REMARK    1  A    between atoms: N1_1  and  N2_4 
REMARK    2  A    between atoms: C2_6  and  N3_7 
REMARK    3  A    between atoms: C4_11  and  S1_12 
REMARK    4  A    between atoms: S1_12  and  N4_15 
REMARK    5  A    between atoms: N4_15  and  C5_17 
ROOT
HETATM    1  S1  UNL     1     -16.818 -12.559  14.552  1.00  0.00     0.294 S 
HETATM    2  O3  UNL     1     -16.827 -12.873  16.038  1.00  0.00    -0.198 OA
HETATM    3  O4  UNL     1     -16.598 -13.823  13.775  1.00  0.00    -0.198 OA
ENDROOT
BRANCH   1   4
HETATM    4  C4  UNL     1     -18.392 -11.941  14.102  1.00  0.00     0.173 A 
HETATM    5  N2  UNL     1     -19.409 -12.702  13.712  1.00  0.00    -0.259 N 
HETATM    6  C1  UNL     1     -20.433 -11.902  13.454  1.00  0.00     0.153 A 
HETATM    7  C2  UNL     1     -20.078 -10.587  13.680  1.00  0.00     0.123 A 
HETATM    8  C3  UNL     1     -18.782 -10.620  14.091  1.00  0.00     0.083 A 
BRANCH   5   9
HETATM    9  N1  UNL     1     -19.411 -14.089  13.593  1.00  0.00    -0.338 N 
ATOM     10  H12 UNL     1     -18.724 -14.659  13.099  1.00  0.00     0.177 HD
ATOM     11  H11 UNL     1     -20.107 -14.719  13.990  1.00  0.00     0.177 HD
ENDBRANCH   5   9
BRANCH   7  12
HETATM   12  N3  UNL     1     -20.928  -9.439  13.507  1.00  0.00    -0.114 N 
HETATM   13  O1  UNL     1     -21.340  -9.152  12.369  1.00  0.00    -0.532 OA
HETATM   14  O2  UNL     1     -21.260  -8.692  14.606  1.00  0.00    -0.532 OA
ENDBRANCH   7  12
ENDBRANCH   1   4
BRANCH   1  15
HETATM   15  N4  UNL     1     -15.622 -11.386  14.250  1.00  0.00    -0.111 N 
ATOM     16  H4  UNL     1     -14.856 -11.611  13.615  1.00  0.00     0.197 HD
BRANCH  15  17
HETATM   17  C5  UNL     1     -15.656 -10.221  14.799  1.00  0.00     0.694 A 
HETATM   18  N5  UNL     1     -15.644  -9.124  14.000  1.00  0.00    -0.201 N 
HETATM   19  C6  UNL     1     -15.678  -7.890  14.525  1.00  0.00     0.111 A 
ATOM     20  H5  UNL     1     -15.610  -9.239  12.988  1.00  0.00     0.183 HD
HETATM   21  C7  UNL     1     -15.726  -7.680  15.890  1.00  0.00     0.092 A 
HETATM   22  C8  UNL     1     -15.735  -8.822  16.665  1.00  0.00     0.260 A 
HETATM   23  O5  UNL     1     -15.778  -8.698  17.921  1.00  0.00    -0.268 OA
HETATM   24  N6  UNL     1     -15.701 -10.064  16.130  1.00  0.00    -0.155 N 
ATOM     25  H6  UNL     1     -15.710 -10.881  16.741  1.00  0.00     0.187 HD
ENDBRANCH  15  17
ENDBRANCH   1  15
TORSDOF 5
ENDMDL
MODEL 2
REMARK VINA RESULT: -6.810820368      2.544      3.532
REMARK  5 active torsions:
REMARK  status: ('A' for Active; 'I' for Inactive)
REMARK    1  A    between atoms: N1_1  and  N2_4 
REMARK    2  A    between atoms: C2_6  and  N3_7 
REMARK    3  A    between atoms: C4_11  and  S1_12 
REMARK    4  A    between atoms: S1_12  and  N4_15 
REMARK    5  A    between atoms: N4_15  and  C5_17 
ROOT
HETATM    1  S1  UNL     1     -19.932 -11.237  14.244  1.00  0.00     0.294 S 
HETATM    2  O3  UNL     1     -20.447 -11.567  15.634  1.00  0.00    -0.198 OA
HETATM    3  O4  UNL     1     -19.371 -12.477  13.612  1.00  0.00    -0.198 OA
ENDROOT
BRANCH   1   4
HETATM    4  C4  UNL     1     -21.280 -10.717  13.257  1.00  0.00     0.173 A 
HETATM    5  N2  UNL     1     -22.106  -9.728  13.584  1.00  0.00    -0.259 N 
HETATM    6  C1  UNL     1     -22.998  -9.613  12.611  1.00  0.00     0.153 A 
HETATM    7  C2  UNL     1     -22.750 -10.547  11.626  1.00  0.00     0.123 A 
HETATM    8  C3  UNL     1     -21.658 -11.244  12.043  1.00  0.00     0.083 A 
BRANCH   5   9
HETATM    9  N1  UNL     1     -22.053  -8.948  14.736  1.00  0.00    -0.338 N 
ATOM     10  H12 UNL     1     -21.449  -8.143  14.899  1.00  0.00     0.177 HD
ATOM     11  H11 UNL     1     -22.620  -9.084  15.573  1.00  0.00     0.177 HD
ENDBRANCH   5   9
BRANCH   7  12
HETATM   12  N3  UNL     1     -23.509 -10.724  10.416  1.00  0.00    -0.114 N 
HETATM   13  O1  UNL     1     -23.336 -11.749   9.733  1.00  0.00    -0.532 OA
HETATM   14  O2  UNL     1     -24.406  -9.755  10.052  1.00  0.00    -0.532 OA
ENDBRANCH   7  12
ENDBRANCH   1   4
BRANCH   1  15
HETATM   15  N4  UNL     1     -18.784  -9.986  14.370  1.00  0.00    -0.111 N 
ATOM     16  H4  UNL     1     -19.037  -9.048  14.059  1.00  0.00     0.197 HD
BRANCH  15  17
HETATM   17  C5  UNL     1     -17.605 -10.189  14.847  1.00  0.00     0.694 A 
HETATM   18  N5  UNL     1     -16.863 -11.206  14.341  1.00  0.00    -0.201 N 
HETATM   19  C6  UNL     1     -15.630 -11.456  14.805  1.00  0.00     0.111 A 
ATOM     20  H5  UNL     1     -17.249 -11.788  13.597  1.00  0.00     0.183 HD
HETATM   21  C7  UNL     1     -15.062 -10.697  15.810  1.00  0.00     0.092 A 
HETATM   22  C8  UNL     1     -15.850  -9.674  16.297  1.00  0.00     0.260 A 
HETATM   23  O5  UNL     1     -15.388  -8.944  17.218  1.00  0.00    -0.268 OA
HETATM   24  N6  UNL     1     -17.093  -9.426  15.825  1.00  0.00    -0.155 N 
ATOM     25  H6  UNL     1     -17.641  -8.659  16.214  1.00  0.00     0.187 HD
ENDBRANCH  15  17
ENDBRANCH   1  15
TORSDOF 5
ENDMDL
MODEL 3
REMARK VINA RESULT: -6.779608726      2.161      2.618
REMARK  5 active torsions:
REMARK  status: ('A' for Active; 'I' for Inactive)
REMARK    1  A    between atoms: N1_1  and  N2_4 
REMARK    2  A    between atoms: C2_6  and  N3_7 
REMARK    3  A    between atoms: C4_11  and  S1_12 
REMARK    4  A    between atoms: S1_12  and  N4_15 
REMARK    5  A    between atoms: N4_15  and  C5_17 
ROOT
HETATM    1  S1  UNL     1     -19.508 -12.169  14.316  1.00  0.00     0.294 S 
HETATM    2  O3  UNL     1     -19.338 -12.666  15.740  1.00  0.00    -0.198 OA
HETATM    3  O4  UNL     1     -19.862 -13.321  13.423  1.00  0.00    -0.198 OA
ENDROOT
BRANCH   1   4
HETATM    4  C4  UNL     1     -20.850 -11.047  14.271  1.00  0.00     0.173 A 
HETATM    5  N2  UNL     1     -22.085 -11.346  14.660  1.00  0.00    -0.259 N 
HETATM    6  C1  UNL     1     -22.833 -10.266  14.489  1.00  0.00     0.153 A 
HETATM    7  C2  UNL     1     -22.069  -9.236  13.976  1.00  0.00     0.123 A 
HETATM    8  C3  UNL     1     -20.812  -9.740  13.841  1.00  0.00     0.083 A 
BRANCH   5   9
HETATM    9  N1  UNL     1     -22.526 -12.569  15.159  1.00  0.00    -0.338 N 
ATOM     10  H12 UNL     1     -23.364 -12.732  15.717  1.00  0.00     0.177 HD
ATOM     11  H11 UNL     1     -22.062 -13.467  15.028  1.00  0.00     0.177 HD
ENDBRANCH   5   9
BRANCH   7  12
HETATM   12  N3  UNL     1     -22.535  -7.912  13.659  1.00  0.00    -0.114 N 
HETATM   13  O1  UNL     1     -22.013  -6.932  14.218  1.00  0.00    -0.532 OA
HETATM   14  O2  UNL     1     -23.545  -7.770  12.744  1.00  0.00    -0.532 OA
ENDBRANCH   7  12
ENDBRANCH   1   4
BRANCH   1  15
HETATM   15  N4  UNL     1     -18.075 -11.383  13.838  1.00  0.00    -0.111 N 
ATOM     16  H4  UNL     1     -17.820 -11.376  12.851  1.00  0.00     0.197 HD
BRANCH  15  17
HETATM   17  C5  UNL     1     -17.304 -10.797  14.687  1.00  0.00     0.694 A 
HETATM   18  N5  UNL     1     -16.023 -11.228  14.809  1.00  0.00    -0.201 N 
HETATM   19  C6  UNL     1     -15.182 -10.650  15.679  1.00  0.00     0.111 A 
ATOM     20  H5  UNL     1     -15.695 -12.002  14.232  1.00  0.00     0.183 HD
HETATM   21  C7  UNL     1     -15.576  -9.597  16.484  1.00  0.00     0.092 A 
HETATM   22  C8  UNL     1     -16.886  -9.191  16.328  1.00  0.00     0.260 A 
HETATM   23  O5  UNL     1     -17.309  -8.234  17.035  1.00  0.00    -0.268 OA
HETATM   24  N6  UNL     1     -17.730  -9.778  15.449  1.00  0.00    -0.155 N 
ATOM     25  H6  UNL     1     -18.690  -9.446  15.367  1.00  0.00     0.187 HD
ENDBRANCH  15  17
ENDBRANCH   1  15
TORSDOF 5
ENDMDL
MODEL 4
REMARK VINA RESULT: -6.756784935      2.743      3.734
REMARK  5 active torsions:
REMARK  status: ('A' for Active; 'I' for Inactive)
REMARK    1  A    between atoms: N1_1  and  N2_4 
REMARK    2  A    between atoms: C2_6  and  N3_7 
REMARK    3  A    between atoms: C4_11  and  S1_12 
REMARK    4  A    between atoms: S1_12  and  N4_15 
REMARK    5  A    between atoms: N4_15  and  C5_17 
ROOT
HETATM    1  S1  UNL     1     -20.479 -10.695  14.133  1.00  0.00     0.294 S 
HETATM    2  O3  UNL     1     -20.492  -9.183  13.994  1.00  0.00    -0.198 OA
HETATM    3  O4  UNL     1     -21.048 -11.078  15.467  1.00  0.00    -0.198 OA
ENDROOT
BRANCH   1   4
HETATM    4  C4  UNL     1     -21.524 -11.379  12.907  1.00  0.00     0.173 A 
HETATM    5  N2  UNL     1     -21.997 -12.620  12.939  1.00  0.00    -0.259 N 
HETATM    6  C1  UNL     1     -22.747 -12.791  11.859  1.00  0.00     0.153 A 
HETATM    7  C2  UNL     1     -22.764 -11.635  11.105  1.00  0.00     0.123 A 
HETATM    8  C3  UNL     1     -21.986 -10.743  11.776  1.00  0.00     0.083 A 
BRANCH   5   9
HETATM    9  N1  UNL     1     -21.757 -13.577  13.921  1.00  0.00    -0.338 N 
ATOM     10  H12 UNL     1     -22.267 -13.692  14.797  1.00  0.00     0.177 HD
ATOM     11  H11 UNL     1     -21.032 -14.293  13.889  1.00  0.00     0.177 HD
ENDBRANCH   5   9
BRANCH   7  12
HETATM   12  N3  UNL     1     -23.469 -11.443   9.866  1.00  0.00    -0.114 N 
HETATM   13  O1  UNL     1     -23.915 -10.316   9.586  1.00  0.00    -0.532 OA
HETATM   14  O2  UNL     1     -23.629 -12.512   9.025  1.00  0.00    -0.532 OA
ENDBRANCH   7  12
ENDBRANCH   1   4
BRANCH   1  15
HETATM   15  N4  UNL     1     -18.884 -11.249  13.915  1.00  0.00    -0.111 N 
ATOM     16  H4  UNL     1     -18.706 -11.997  13.245  1.00  0.00     0.197 HD
BRANCH  15  17
HETATM   17  C5  UNL     1     -17.894 -10.752  14.573  1.00  0.00     0.694 A 
HETATM   18  N5  UNL     1     -16.650 -11.244  14.348  1.00  0.00    -0.201 N 
HETATM   19  C6  UNL     1     -15.588 -10.760  15.008  1.00  0.00     0.111 A 
ATOM     20  H5  UNL     1     -16.521 -11.993  13.668  1.00  0.00     0.183 HD
HETATM   21  C7  UNL     1     -15.709  -9.745  15.939  1.00  0.00     0.092 A 
HETATM   22  C8  UNL     1     -16.992  -9.274  16.137  1.00  0.00     0.260 A 
HETATM   23  O5  UNL     1     -17.170  -8.347  16.976  1.00  0.00    -0.268 OA
HETATM   24  N6  UNL     1     -18.059  -9.767  15.469  1.00  0.00    -0.155 N 
ATOM     25  H6  UNL     1     -18.989  -9.389  15.647  1.00  0.00     0.187 HD
ENDBRANCH  15  17
ENDBRANCH   1  15
TORSDOF 5
ENDMDL
MODEL 5
REMARK VINA RESULT: -6.637580583      2.110      3.991
REMARK  5 active torsions:
REMARK  status: ('A' for Active; 'I' for Inactive)
REMARK    1  A    between atoms: N1_1  and  N2_4 
REMARK    2  A    between atoms: C2_6  and  N3_7 
REMARK    3  A    between atoms: C4_11  and  S1_12 
REMARK    4  A    between atoms: S1_12  and  N4_15 
REMARK    5  A    between atoms: N4_15  and  C5_17 
ROOT
HETATM    1  S1  UNL     1     -18.768 -11.208  14.353  1.00  0.00     0.294 S 
HETATM    2  O3  UNL     1     -19.519 -10.384  13.322  1.00  0.00    -0.198 OA
HETATM    3  O4  UNL     1     -19.363 -10.974  15.710  1.00  0.00    -0.198 OA
ENDROOT
BRANCH   1   4
HETATM    4  C4  UNL     1     -18.984 -12.904  13.978  1.00  0.00     0.173 A 
HETATM    5  N2  UNL     1     -20.159 -13.464  13.709  1.00  0.00    -0.259 N 
HETATM    6  C1  UNL     1     -19.945 -14.751  13.474  1.00  0.00     0.153 A 
HETATM    7  C2  UNL     1     -18.600 -15.039  13.592  1.00  0.00     0.123 A 
HETATM    8  C3  UNL     1     -17.997 -13.862  13.912  1.00  0.00     0.083 A 
BRANCH   5   9
HETATM    9  N1  UNL     1     -21.396 -12.827  13.676  1.00  0.00    -0.338 N 
ATOM     10  H12 UNL     1     -22.146 -12.986  13.004  1.00  0.00     0.177 HD
ATOM     11  H11 UNL     1     -21.713 -12.111  14.329  1.00  0.00     0.177 HD
ENDBRANCH   5   9
BRANCH   7  12
HETATM   12  N3  UNL     1     -17.991 -16.329  13.409  1.00  0.00    -0.114 N 
HETATM   13  O1  UNL     1     -18.667 -17.355  13.601  1.00  0.00    -0.532 OA
HETATM   14  O2  UNL     1     -16.677 -16.390  13.025  1.00  0.00    -0.532 OA
ENDBRANCH   7  12
ENDBRANCH   1   4
BRANCH   1  15
HETATM   15  N4  UNL     1     -17.117 -10.801  14.279  1.00  0.00    -0.111 N 
ATOM     16  H4  UNL     1     -16.468 -11.443  13.823  1.00  0.00     0.197 HD
BRANCH  15  17
HETATM   17  C5  UNL     1     -16.661  -9.706  14.783  1.00  0.00     0.694 A 
HETATM   18  N5  UNL     1     -15.935  -8.878  13.992  1.00  0.00    -0.201 N 
HETATM   19  C6  UNL     1     -15.440  -7.728  14.471  1.00  0.00     0.111 A 
ATOM     20  H5  UNL     1     -15.763  -9.134  13.020  1.00  0.00     0.183 HD
HETATM   21  C7  UNL     1     -15.645  -7.335  15.780  1.00  0.00     0.092 A 
HETATM   22  C8  UNL     1     -16.388  -8.206  16.550  1.00  0.00     0.260 A 
HETATM   23  O5  UNL     1     -16.611  -7.906  17.756  1.00  0.00    -0.268 OA
HETATM   24  N6  UNL     1     -16.885  -9.365  16.061  1.00  0.00    -0.155 N 
ATOM     25  H6  UNL     1     -17.430  -9.981  16.666  1.00  0.00     0.187 HD
ENDBRANCH  15  17
ENDBRANCH   1  15
TORSDOF 5
ENDMDL
