MODEL 1
REMARK VINA RESULT: -7.835316185      0.000      0.000
REMARK  3 active torsions:
REMARK  status: ('A' for Active; 'I' for Inactive)
REMARK    1  A    between atoms: C2_5  and  C3_6 
REMARK    2  A    between atoms: C3_6  and  N3_7 
REMARK    3  A    between atoms: C6_10  and  C7_11 
ROOT
HETATM    1  N3  UNL     1     -16.105 -14.232  14.272  1.00  0.00    -0.361 N 
HETATM    2  C4  UNL     1     -16.246 -15.552  14.007  1.00  0.00     0.091 A 
HETATM    3  C5  UNL     1     -15.306 -16.228  13.269  1.00  0.00     0.029 A 
HETATM    4  C6  UNL     1     -14.202 -15.559  12.792  1.00  0.00    -0.029 A 
HETATM    5  C10 UNL     1     -14.093 -14.208  13.085  1.00  0.00     0.029 A 
HETATM    6  C11 UNL     1     -15.043 -13.544  13.825  1.00  0.00     0.091 A 
ENDROOT
BRANCH   1   7
HETATM    7  C3  UNL     1     -17.116 -13.570  15.047  1.00  0.00     0.184 C 
BRANCH   7   8
HETATM    8  C2  UNL     1     -17.022 -12.112  15.066  1.00  0.00     0.035 A 
HETATM    9  N2  UNL     1     -16.121 -11.438  15.756  1.00  0.00    -0.332 N 
HETATM   10  C1  UNL     1     -16.044 -10.089  15.763  1.00  0.00     0.195 A 
ATOM     11  H2  UNL     1     -15.448 -11.964  16.314  1.00  0.00     0.168 HD
HETATM   12  N1  UNL     1     -15.058  -9.384  16.523  1.00  0.00    -0.063 NA
HETATM   13  N6  UNL     1     -16.927  -9.366  15.032  1.00  0.00    -0.297 N 
HETATM   14  C13 UNL     1     -17.878  -9.986  14.300  1.00  0.00     0.249 A 
ATOM     15  H6  UNL     1     -16.874  -8.347  15.034  1.00  0.00     0.171 HD
HETATM   16  C12 UNL     1     -17.937 -11.375  14.308  1.00  0.00     0.101 A 
HETATM   17  O3  UNL     1     -18.686  -9.302  13.631  1.00  0.00    -0.268 OA
ENDBRANCH   7   8
ENDBRANCH   1   7
BRANCH   4  18
HETATM   18  C7  UNL     1     -13.205 -16.291  12.022  1.00  0.00     0.069 C 
HETATM   19  C8  UNL     1     -13.375 -16.393  10.699  1.00  0.00     0.168 A 
HETATM   20  N4  UNL     1     -12.476 -17.082   9.801  1.00  0.00    -0.275 N 
HETATM   21  O2  UNL     1     -14.385 -15.901   9.916  1.00  0.00    -0.241 OA
HETATM   22  N5  UNL     1     -12.980 -16.981   8.484  1.00  0.00    -0.243 N 
ATOM     23  H4  UNL     1     -11.618 -17.561  10.073  1.00  0.00     0.189 HD
HETATM   24  C9  UNL     1     -14.180 -16.234   8.589  1.00  0.00     0.386 A 
ATOM     25  H5  UNL     1     -12.567 -17.366   7.636  1.00  0.00     0.192 HD
HETATM   26  O1  UNL     1     -14.906 -15.948   7.592  1.00  0.00    -0.236 OA
ENDBRANCH   4  18
TORSDOF 3
ENDMDL
MODEL 2
REMARK VINA RESULT: -7.760067302      5.729      8.671
REMARK  3 active torsions:
REMARK  status: ('A' for Active; 'I' for Inactive)
REMARK    1  A    between atoms: C2_5  and  C3_6 
REMARK    2  A    between atoms: C3_6  and  N3_7 
REMARK    3  A    between atoms: C6_10  and  C7_11 
ROOT
HETATM    1  N3  UNL     1     -21.595 -11.156  13.284  1.00  0.00    -0.361 N 
HETATM    2  C4  UNL     1     -20.976 -12.315  13.609  1.00  0.00     0.091 A 
HETATM    3  C5  UNL     1     -19.635 -12.339  13.903  1.00  0.00     0.029 A 
HETATM    4  C6  UNL     1     -18.907 -11.171  13.869  1.00  0.00    -0.029 A 
HETATM    5  C10 UNL     1     -19.577 -10.006  13.531  1.00  0.00     0.029 A 
HETATM    6  C11 UNL     1     -20.921  -9.996  13.239  1.00  0.00     0.091 A 
ENDROOT
BRANCH   1   7
HETATM    7  C3  UNL     1     -22.999 -11.183  12.984  1.00  0.00     0.184 C 
BRANCH   7   8
HETATM    8  C2  UNL     1     -23.331 -11.626  11.631  1.00  0.00     0.035 A 
HETATM    9  N2  UNL     1     -23.513 -12.888  11.290  1.00  0.00    -0.332 N 
HETATM   10  C1  UNL     1     -23.822 -13.284  10.036  1.00  0.00     0.195 A 
ATOM     11  H2  UNL     1     -23.415 -13.602  12.012  1.00  0.00     0.168 HD
HETATM   12  N1  UNL     1     -24.012 -14.660   9.693  1.00  0.00    -0.063 NA
HETATM   13  N6  UNL     1     -23.957 -12.355   9.056  1.00  0.00    -0.297 N 
HETATM   14  C13 UNL     1     -23.785 -11.044   9.331  1.00  0.00     0.249 A 
ATOM     15  H6  UNL     1     -24.189 -12.648   8.108  1.00  0.00     0.171 HD
HETATM   16  C12 UNL     1     -23.469 -10.660  10.629  1.00  0.00     0.101 A 
HETATM   17  O3  UNL     1     -23.914 -10.200   8.414  1.00  0.00    -0.268 OA
ENDBRANCH   7   8
ENDBRANCH   1   7
BRANCH   4  18
HETATM   18  C7  UNL     1     -17.487 -11.209  14.195  1.00  0.00     0.069 C 
HETATM   19  C8  UNL     1     -17.011 -10.308  15.062  1.00  0.00     0.168 A 
HETATM   20  N4  UNL     1     -15.633 -10.218  15.487  1.00  0.00    -0.275 N 
HETATM   21  O2  UNL     1     -17.674  -9.307  15.721  1.00  0.00    -0.241 OA
HETATM   22  N5  UNL     1     -15.506  -9.149  16.403  1.00  0.00    -0.243 N 
ATOM     23  H4  UNL     1     -14.875 -10.827  15.176  1.00  0.00     0.189 HD
HETATM   24  C9  UNL     1     -16.805  -8.597  16.530  1.00  0.00     0.386 A 
ATOM     25  H5  UNL     1     -14.656  -8.840  16.874  1.00  0.00     0.192 HD
HETATM   26  O1  UNL     1     -17.066  -7.610  17.279  1.00  0.00    -0.236 OA
ENDBRANCH   4  18
TORSDOF 3
ENDMDL
MODEL 3
REMARK VINA RESULT: -7.706707191      5.890      8.869
REMARK  3 active torsions:
REMARK  status: ('A' for Active; 'I' for Inactive)
REMARK    1  A    between atoms: C2_5  and  C3_6 
REMARK    2  A    between atoms: C3_6  and  N3_7 
REMARK    3  A    between atoms: C6_10  and  C7_11 
ROOT
HETATM    1  N3  UNL     1     -22.118 -10.722  13.806  1.00  0.00    -0.361 N 
HETATM    2  C4  UNL     1     -21.518 -11.833  14.294  1.00  0.00     0.091 A 
HETATM    3  C5  UNL     1     -20.150 -11.921  14.370  1.00  0.00     0.029 A 
HETATM    4  C6  UNL     1     -19.373 -10.867  13.946  1.00  0.00    -0.029 A 
HETATM    5  C10 UNL     1     -20.025  -9.747  13.452  1.00  0.00     0.029 A 
HETATM    6  C11 UNL     1     -21.397  -9.673  13.382  1.00  0.00     0.091 A 
ENDROOT
BRANCH   1   7
HETATM    7  C3  UNL     1     -23.552 -10.680  13.747  1.00  0.00     0.184 C 
BRANCH   7   8
HETATM    8  C2  UNL     1     -24.100  -9.918  12.626  1.00  0.00     0.035 A 
HETATM    9  N2  UNL     1     -24.062 -10.321  11.370  1.00  0.00    -0.332 N 
HETATM   10  C1  UNL     1     -24.574  -9.608  10.343  1.00  0.00     0.195 A 
ATOM     11  H2  UNL     1     -23.623 -11.218  11.163  1.00  0.00     0.168 HD
HETATM   12  N1  UNL     1     -24.518 -10.068   8.990  1.00  0.00    -0.063 NA
HETATM   13  N6  UNL     1     -25.163  -8.411  10.589  1.00  0.00    -0.297 N 
HETATM   14  C13 UNL     1     -25.238  -7.934  11.851  1.00  0.00     0.249 A 
ATOM     15  H6  UNL     1     -25.550  -7.868   9.818  1.00  0.00     0.171 HD
HETATM   16  C12 UNL     1     -24.705  -8.685  12.891  1.00  0.00     0.101 A 
HETATM   17  O3  UNL     1     -25.785  -6.826  12.059  1.00  0.00    -0.268 OA
ENDBRANCH   7   8
ENDBRANCH   1   7
BRANCH   4  18
HETATM   18  C7  UNL     1     -17.923 -10.967  14.043  1.00  0.00     0.069 C 
HETATM   19  C8  UNL     1     -17.286 -10.161  14.900  1.00  0.00     0.168 A 
HETATM   20  N4  UNL     1     -15.857 -10.143  15.111  1.00  0.00    -0.275 N 
HETATM   21  O2  UNL     1     -17.803  -9.209  15.737  1.00  0.00    -0.241 OA
HETATM   22  N5  UNL     1     -15.552  -9.165  16.085  1.00  0.00    -0.243 N 
ATOM     23  H4  UNL     1     -15.180 -10.739  14.635  1.00  0.00     0.189 HD
HETATM   24  C9  UNL     1     -16.795  -8.596  16.459  1.00  0.00     0.386 A 
ATOM     25  H5  UNL     1     -14.629  -8.921  16.444  1.00  0.00     0.192 HD
HETATM   26  O1  UNL     1     -16.901  -7.675  17.322  1.00  0.00    -0.236 OA
ENDBRANCH   4  18
TORSDOF 3
ENDMDL
MODEL 4
REMARK VINA RESULT: -7.625932831      5.660      8.702
REMARK  3 active torsions:
REMARK  status: ('A' for Active; 'I' for Inactive)
REMARK    1  A    between atoms: C2_5  and  C3_6 
REMARK    2  A    between atoms: C3_6  and  N3_7 
REMARK    3  A    between atoms: C6_10  and  C7_11 
ROOT
HETATM    1  N3  UNL     1     -21.574 -11.129  13.353  1.00  0.00    -0.361 N 
HETATM    2  C4  UNL     1     -20.949 -12.278  13.701  1.00  0.00     0.091 A 
HETATM    3  C5  UNL     1     -19.606 -12.293  13.983  1.00  0.00     0.029 A 
HETATM    4  C6  UNL     1     -18.880 -11.126  13.914  1.00  0.00    -0.029 A 
HETATM    5  C10 UNL     1     -19.555  -9.970  13.553  1.00  0.00     0.029 A 
HETATM    6  C11 UNL     1     -20.902  -9.970  13.273  1.00  0.00     0.091 A 
ENDROOT
BRANCH   1   7
HETATM    7  C3  UNL     1     -22.980 -11.165  13.067  1.00  0.00     0.184 C 
BRANCH   7   8
HETATM    8  C2  UNL     1     -23.321 -11.574  11.705  1.00  0.00     0.035 A 
HETATM    9  N2  UNL     1     -23.460 -10.736  10.695  1.00  0.00    -0.332 N 
HETATM   10  C1  UNL     1     -23.774 -11.127   9.440  1.00  0.00     0.195 A 
ATOM     11  H2  UNL     1     -23.324  -9.741  10.871  1.00  0.00     0.168 HD
HETATM   12  N1  UNL     1     -23.921 -10.197   8.363  1.00  0.00    -0.063 NA
HETATM   13  N6  UNL     1     -23.963 -12.445   9.179  1.00  0.00    -0.297 N 
HETATM   14  C13 UNL     1     -23.838 -13.361  10.164  1.00  0.00     0.249 A 
ATOM     15  H6  UNL     1     -24.201 -12.745   8.234  1.00  0.00     0.171 HD
HETATM   16  C12 UNL     1     -23.513 -12.935  11.446  1.00  0.00     0.101 A 
HETATM   17  O3  UNL     1     -24.016 -14.574   9.904  1.00  0.00    -0.268 OA
ENDBRANCH   7   8
ENDBRANCH   1   7
BRANCH   4  18
HETATM   18  C7  UNL     1     -17.457 -11.154  14.227  1.00  0.00     0.069 C 
HETATM   19  C8  UNL     1     -16.980 -10.249  15.090  1.00  0.00     0.168 A 
HETATM   20  N4  UNL     1     -15.599 -10.149  15.502  1.00  0.00    -0.275 N 
HETATM   21  O2  UNL     1     -17.644  -9.252  15.753  1.00  0.00    -0.241 OA
HETATM   22  N5  UNL     1     -15.471  -9.079  16.416  1.00  0.00    -0.243 N 
ATOM     23  H4  UNL     1     -14.840 -10.753  15.186  1.00  0.00     0.189 HD
HETATM   24  C9  UNL     1     -16.773  -8.535  16.554  1.00  0.00     0.386 A 
ATOM     25  H5  UNL     1     -14.620  -8.763  16.880  1.00  0.00     0.192 HD
HETATM   26  O1  UNL     1     -17.035  -7.549  17.304  1.00  0.00    -0.236 OA
ENDBRANCH   4  18
TORSDOF 3
ENDMDL
MODEL 5
REMARK VINA RESULT: -7.603417317      5.947      8.929
REMARK  3 active torsions:
REMARK  status: ('A' for Active; 'I' for Inactive)
REMARK    1  A    between atoms: C2_5  and  C3_6 
REMARK    2  A    between atoms: C3_6  and  N3_7 
REMARK    3  A    between atoms: C6_10  and  C7_11 
ROOT
HETATM    1  N3  UNL     1     -22.241 -10.569  13.901  1.00  0.00    -0.361 N 
HETATM    2  C4  UNL     1     -21.642 -11.692  14.363  1.00  0.00     0.091 A 
HETATM    3  C5  UNL     1     -20.274 -11.800  14.391  1.00  0.00     0.029 A 
HETATM    4  C6  UNL     1     -19.496 -10.755  13.946  1.00  0.00    -0.029 A 
HETATM    5  C10 UNL     1     -20.147  -9.623  13.481  1.00  0.00     0.029 A 
HETATM    6  C11 UNL     1     -21.519  -9.528  13.458  1.00  0.00     0.091 A 
ENDROOT
BRANCH   1   7
HETATM    7  C3  UNL     1     -23.675 -10.505  13.891  1.00  0.00     0.184 C 
BRANCH   7   8
HETATM    8  C2  UNL     1     -24.250  -9.721  12.799  1.00  0.00     0.035 A 
HETATM    9  N2  UNL     1     -24.901  -8.585  12.967  1.00  0.00    -0.332 N 
HETATM   10  C1  UNL     1     -25.425  -7.869  11.949  1.00  0.00     0.195 A 
ATOM     11  H2  UNL     1     -25.014  -8.229  13.917  1.00  0.00     0.168 HD
HETATM   12  N1  UNL     1     -26.128  -6.641  12.160  1.00  0.00    -0.063 NA
HETATM   13  N6  UNL     1     -25.290  -8.319  10.677  1.00  0.00    -0.297 N 
HETATM   14  C13 UNL     1     -24.637  -9.475  10.427  1.00  0.00     0.249 A 
ATOM     15  H6  UNL     1     -25.685  -7.783   9.904  1.00  0.00     0.171 HD
HETATM   16  C12 UNL     1     -24.105 -10.194  11.491  1.00  0.00     0.101 A 
HETATM   17  O3  UNL     1     -24.522  -9.876   9.246  1.00  0.00    -0.268 OA
ENDBRANCH   7   8
ENDBRANCH   1   7
BRANCH   4  18
HETATM   18  C7  UNL     1     -18.045 -10.878  13.993  1.00  0.00     0.069 C 
HETATM   19  C8  UNL     1     -17.370 -10.110  14.857  1.00  0.00     0.168 A 
HETATM   20  N4  UNL     1     -15.936 -10.118  15.022  1.00  0.00    -0.275 N 
HETATM   21  O2  UNL     1     -17.847  -9.181  15.743  1.00  0.00    -0.241 OA
HETATM   22  N5  UNL     1     -15.586  -9.179  16.019  1.00  0.00    -0.243 N 
ATOM     23  H4  UNL     1     -15.282 -10.706  14.505  1.00  0.00     0.189 HD
HETATM   24  C9  UNL     1     -16.808  -8.607  16.453  1.00  0.00     0.386 A 
ATOM     25  H5  UNL     1     -14.649  -8.959  16.356  1.00  0.00     0.192 HD
HETATM   26  O1  UNL     1     -16.874  -7.715  17.349  1.00  0.00    -0.236 OA
ENDBRANCH   4  18
TORSDOF 3
ENDMDL
