MODEL 1
REMARK VINA RESULT: -7.109011722      0.000      0.000
REMARK  16 active torsions:
REMARK  status: ('A' for Active; 'I' for Inactive)
REMARK    1  A    between atoms: C4_13  and  N6_14 
REMARK    2  A    between atoms: N7_17  and  N8_18 
REMARK    3  A    between atoms: N8_18  and  C5_20 
REMARK    4  A    between atoms: C6_22  and  N9_23 
REMARK    5  A    between atoms: C7_27  and  N10_28 
REMARK    6  A    between atoms: C8_32  and  C9_33 
REMARK    7  A    between atoms: C9_33  and  N11_34 
REMARK    8  A    between atoms: C10_39  and  N13_40 
REMARK    9  A    between atoms: N13_40  and  C11_41 
REMARK   10  A    between atoms: C11_41  and  C12_42 
REMARK   11  A    between atoms: C12_42  and  C13_43 
REMARK   12  A    between atoms: C13_43  and  C14_44 
REMARK   13  A    between atoms: C14_44  and  N14_45 
REMARK   14  A    between atoms: C14_44  and  C15_49 
REMARK   15  A    between atoms: C15_49  and  O1_50 
REMARK   16  A    between atoms: C15_49  and  O2_52 
ROOT
HETATM    1  C1  UNL     1      -4.112 -35.142  21.883  1.00  0.00     0.179 C 
HETATM    2  N1  UNL     1      -5.535 -35.006  21.714  1.00  0.00    -0.274 N 
HETATM    3  N2  UNL     1      -6.182 -33.824  21.606  1.00  0.00    -0.239 N 
ATOM      4  H2  UNL     1      -5.733 -32.908  21.637  1.00  0.00     0.208 HD
HETATM    5  N3  UNL     1      -7.454 -34.021  21.457  1.00  0.00    -0.268 N 
ATOM      6  H3  UNL     1      -8.160 -33.293  21.353  1.00  0.00     0.190 HD
HETATM    7  C2  UNL     1      -7.691 -35.368  21.462  1.00  0.00     0.170 A 
HETATM    8  N4  UNL     1      -8.798 -36.083  21.344  1.00  0.00    -0.170 N 
ATOM      9  H4  UNL     1      -9.692 -35.604  21.225  1.00  0.00     0.186 HD
HETATM   10  C3  UNL     1      -8.770 -37.446  21.377  1.00  0.00     0.724 A 
HETATM   11  N5  UNL     1      -9.787 -38.299  21.293  1.00  0.00    -0.017 N 
ATOM     12  H5  UNL     1     -10.771 -38.058  21.176  1.00  0.00     0.203 HD
HETATM   13  C4  UNL     1      -9.261 -39.563  21.395  1.00  0.00     0.728 A 
HETATM   14  N7  UNL     1      -7.922 -39.403  21.538  1.00  0.00     0.005 N 
HETATM   15  N12 UNL     1      -7.617 -38.078  21.531  1.00  0.00    -0.017 N 
HETATM   16  C10 UNL     1      -6.422 -37.390  21.665  1.00  0.00     0.251 A 
HETATM   17  C16 UNL     1      -6.475 -35.960  21.625  1.00  0.00     0.158 A 
ENDROOT
BRANCH  14  18
HETATM   18  N8  UNL     1      -7.001 -40.402  21.731  1.00  0.00    -0.261 N 
ATOM     19  H8  UNL     1      -6.615 -40.388  22.675  1.00  0.00     0.190 HD
BRANCH  18  20
HETATM   20  C5  UNL     1      -6.463 -41.425  20.968  1.00  0.00     0.074 C 
HETATM   21  S1  UNL     1      -7.197 -43.074  21.075  1.00  0.00    -0.080 SA
HETATM   22  C6  UNL     1      -6.706 -43.658  19.404  1.00  0.00     0.281 C 
HETATM   23  C7  UNL     1      -5.693 -42.649  19.032  1.00  0.00     0.236 C 
HETATM   24  C8  UNL     1      -6.014 -41.298  19.589  1.00  0.00     0.103 C 
BRANCH  22  25
HETATM   25  N9  UNL     1      -7.811 -43.816  18.520  1.00  0.00    -0.064 N 
ATOM     26  H93 UNL     1      -8.157 -42.910  18.205  1.00  0.00     0.275 HD
ATOM     27  H92 UNL     1      -7.508 -44.200  17.624  1.00  0.00     0.275 HD
ATOM     28  H91 UNL     1      -8.566 -44.375  18.918  1.00  0.00     0.275 HD
ENDBRANCH  22  25
BRANCH  23  29
HETATM   29  N10 UNL     1      -4.406 -43.083  19.600  1.00  0.00    -0.071 N 
ATOM     30 3H10 UNL     1      -4.510 -43.794  20.325  1.00  0.00     0.274 HD
ATOM     31 2H10 UNL     1      -3.851 -43.637  18.949  1.00  0.00     0.274 HD
ATOM     32 1H10 UNL     1      -3.919 -42.249  19.928  1.00  0.00     0.274 HD
ENDBRANCH  23  29
BRANCH  24  33
HETATM   33  C9  UNL     1      -6.785 -40.532  18.587  1.00  0.00     0.243 C 
BRANCH  33  34
HETATM   34  N11 UNL     1      -6.050 -40.467  17.314  1.00  0.00    -0.079 N 
ATOM     35 3H11 UNL     1      -5.166 -39.969  17.411  1.00  0.00     0.274 HD
ATOM     36 2H11 UNL     1      -5.681 -41.378  17.042  1.00  0.00     0.274 HD
ATOM     37 1H11 UNL     1      -6.637 -40.061  16.585  1.00  0.00     0.274 HD
ENDBRANCH  33  34
ENDBRANCH  24  33
ENDBRANCH  18  20
ENDBRANCH  14  18
BRANCH  13  38
HETATM   38  N6  UNL     1     -10.013 -40.575  21.327  1.00  0.00    -0.231 N 
ATOM     39  H62 UNL     1      -9.972 -41.446  20.798  1.00  0.00     0.174 HD
ATOM     40  H61 UNL     1     -10.875 -40.615  21.870  1.00  0.00     0.174 HD
ENDBRANCH  13  38
BRANCH  16  41
HETATM   41  N13 UNL     1      -5.371 -37.880  21.882  1.00  0.00    -0.399 NA
BRANCH  41  42
HETATM   42  C11 UNL     1      -4.176 -38.442  22.128  1.00  0.00     0.158 C 
BRANCH  42  43
HETATM   43  C12 UNL     1      -3.286 -38.754  20.946  1.00  0.00     0.062 C 
BRANCH  43  44
HETATM   44  C13 UNL     1      -2.089 -37.919  20.805  1.00  0.00     0.044 C 
BRANCH  44  45
HETATM   45  C14 UNL     1      -1.723 -37.306  19.520  1.00  0.00     0.238 C 
BRANCH  45  46
HETATM   46  N14 UNL     1      -2.452 -36.210  19.021  1.00  0.00    -0.070 N 
ATOM     47 3H14 UNL     1      -3.298 -36.564  18.573  1.00  0.00     0.274 HD
ATOM     48 2H14 UNL     1      -2.838 -35.696  19.812  1.00  0.00     0.274 HD
ATOM     49 1H14 UNL     1      -2.011 -35.542  18.389  1.00  0.00     0.274 HD
ENDBRANCH  45  46
BRANCH  45  50
HETATM   50  C15 UNL     1      -0.254 -36.831  19.640  1.00  0.00     0.284 C 
BRANCH  50  51
HETATM   51  O1  UNL     1       0.126 -36.394  18.384  1.00  0.00    -0.369 OA
ATOM     52  H1  UNL     1       1.058 -36.218  18.427  1.00  0.00     0.212 HD
ENDBRANCH  50  51
BRANCH  50  53
HETATM   53  O2  UNL     1       0.552 -37.838  20.124  1.00  0.00    -0.369 OA
ATOM     54  H2  UNL     1       0.888 -37.620  20.985  1.00  0.00     0.212 HD
ENDBRANCH  50  53
ENDBRANCH  45  50
ENDBRANCH  44  45
ENDBRANCH  43  44
ENDBRANCH  42  43
ENDBRANCH  41  42
ENDBRANCH  16  41
TORSDOF 16
ENDMDL
MODEL 2
REMARK VINA RESULT: -7.055301042      0.978      1.074
REMARK  16 active torsions:
REMARK  status: ('A' for Active; 'I' for Inactive)
REMARK    1  A    between atoms: C4_13  and  N6_14 
REMARK    2  A    between atoms: N7_17  and  N8_18 
REMARK    3  A    between atoms: N8_18  and  C5_20 
REMARK    4  A    between atoms: C6_22  and  N9_23 
REMARK    5  A    between atoms: C7_27  and  N10_28 
REMARK    6  A    between atoms: C8_32  and  C9_33 
REMARK    7  A    between atoms: C9_33  and  N11_34 
REMARK    8  A    between atoms: C10_39  and  N13_40 
REMARK    9  A    between atoms: N13_40  and  C11_41 
REMARK   10  A    between atoms: C11_41  and  C12_42 
REMARK   11  A    between atoms: C12_42  and  C13_43 
REMARK   12  A    between atoms: C13_43  and  C14_44 
REMARK   13  A    between atoms: C14_44  and  N14_45 
REMARK   14  A    between atoms: C14_44  and  C15_49 
REMARK   15  A    between atoms: C15_49  and  O1_50 
REMARK   16  A    between atoms: C15_49  and  O2_52 
ROOT
HETATM    1  C1  UNL     1      -3.672 -34.728  21.466  1.00  0.00     0.179 C 
HETATM    2  N1  UNL     1      -5.103 -34.636  21.599  1.00  0.00    -0.274 N 
HETATM    3  N2  UNL     1      -5.795 -33.476  21.616  1.00  0.00    -0.239 N 
ATOM      4  H2  UNL     1      -5.379 -32.547  21.542  1.00  0.00     0.208 HD
HETATM    5  N3  UNL     1      -7.063 -33.713  21.741  1.00  0.00    -0.268 N 
ATOM      6  H3  UNL     1      -7.799 -33.007  21.780  1.00  0.00     0.190 HD
HETATM    7  C2  UNL     1      -7.250 -35.065  21.811  1.00  0.00     0.170 A 
HETATM    8  N4  UNL     1      -8.334 -35.814  21.937  1.00  0.00    -0.170 N 
ATOM      9  H4  UNL     1      -9.247 -35.364  22.003  1.00  0.00     0.186 HD
HETATM   10  C3  UNL     1      -8.256 -37.175  21.979  1.00  0.00     0.724 A 
HETATM   11  N5  UNL     1      -9.240 -38.058  22.120  1.00  0.00    -0.017 N 
ATOM     12  H5  UNL     1     -10.234 -37.849  22.210  1.00  0.00     0.203 HD
HETATM   13  C4  UNL     1      -8.664 -39.305  22.123  1.00  0.00     0.728 A 
HETATM   14  N7  UNL     1      -7.331 -39.104  21.979  1.00  0.00     0.005 N 
HETATM   15  N12 UNL     1      -7.077 -37.771  21.893  1.00  0.00    -0.017 N 
HETATM   16  C10 UNL     1      -5.903 -37.046  21.764  1.00  0.00     0.251 A 
HETATM   17  C16 UNL     1      -6.009 -35.619  21.721  1.00  0.00     0.158 A 
ENDROOT
BRANCH  14  18
HETATM   18  N8  UNL     1      -6.358 -40.072  21.985  1.00  0.00    -0.261 N 
ATOM     19  H8  UNL     1      -5.719 -39.965  22.773  1.00  0.00     0.190 HD
BRANCH  18  20
HETATM   20  C5  UNL     1      -6.025 -41.157  21.192  1.00  0.00     0.074 C 
HETATM   21  S1  UNL     1      -6.855 -42.737  21.480  1.00  0.00    -0.080 SA
HETATM   22  C6  UNL     1      -6.678 -43.408  19.780  1.00  0.00     0.281 C 
HETATM   23  C7  UNL     1      -5.663 -42.497  19.214  1.00  0.00     0.236 C 
HETATM   24  C8  UNL     1      -5.790 -41.108  19.757  1.00  0.00     0.103 C 
BRANCH  22  25
HETATM   25  N9  UNL     1      -7.917 -43.503  19.084  1.00  0.00    -0.064 N 
ATOM     26  H93 UNL     1      -7.899 -42.942  18.233  1.00  0.00     0.275 HD
ATOM     27  H92 UNL     1      -8.032 -44.429  18.671  1.00  0.00     0.275 HD
ATOM     28  H91 UNL     1      -8.721 -43.261  19.663  1.00  0.00     0.275 HD
ENDBRANCH  22  25
BRANCH  23  29
HETATM   29  N10 UNL     1      -4.339 -43.016  19.595  1.00  0.00    -0.071 N 
ATOM     30 3H10 UNL     1      -4.278 -43.264  20.582  1.00  0.00     0.274 HD
ATOM     31 2H10 UNL     1      -4.151 -43.942  19.212  1.00  0.00     0.274 HD
ATOM     32 1H10 UNL     1      -3.645 -42.322  19.315  1.00  0.00     0.274 HD
ENDBRANCH  23  29
BRANCH  24  33
HETATM   33  C9  UNL     1      -6.649 -40.312  18.854  1.00  0.00     0.243 C 
BRANCH  33  34
HETATM   34  N11 UNL     1      -6.085 -40.292  17.495  1.00  0.00    -0.079 N 
ATOM     35 3H11 UNL     1      -5.964 -41.233  17.120  1.00  0.00     0.274 HD
ATOM     36 2H11 UNL     1      -6.756 -39.942  16.811  1.00  0.00     0.274 HD
ATOM     37 1H11 UNL     1      -5.213 -39.761  17.480  1.00  0.00     0.274 HD
ENDBRANCH  33  34
ENDBRANCH  24  33
ENDBRANCH  18  20
ENDBRANCH  14  18
BRANCH  13  38
HETATM   38  N6  UNL     1      -9.380 -40.339  22.227  1.00  0.00    -0.231 N 
ATOM     39  H62 UNL     1     -10.381 -40.513  22.130  1.00  0.00     0.174 HD
ATOM     40  H61 UNL     1      -8.960 -41.235  22.472  1.00  0.00     0.174 HD
ENDBRANCH  13  38
BRANCH  16  41
HETATM   41  N13 UNL     1      -4.814 -37.501  21.761  1.00  0.00    -0.399 NA
BRANCH  41  42
HETATM   42  C11 UNL     1      -3.573 -38.013  21.757  1.00  0.00     0.158 C 
BRANCH  42  43
HETATM   43  C12 UNL     1      -3.003 -38.471  20.433  1.00  0.00     0.062 C 
BRANCH  43  44
HETATM   44  C13 UNL     1      -2.381 -37.431  19.607  1.00  0.00     0.044 C 
BRANCH  44  45
HETATM   45  C14 UNL     1      -1.041 -36.905  19.908  1.00  0.00     0.238 C 
BRANCH  45  46
HETATM   46  N14 UNL     1       0.078 -37.758  19.891  1.00  0.00    -0.070 N 
ATOM     47 3H14 UNL     1       0.085 -38.296  20.758  1.00  0.00     0.274 HD
ATOM     48 2H14 UNL     1      -0.085 -38.488  19.198  1.00  0.00     0.274 HD
ATOM     49 1H14 UNL     1       1.014 -37.380  19.742  1.00  0.00     0.274 HD
ENDBRANCH  45  46
BRANCH  45  50
HETATM   50  C15 UNL     1      -0.747 -35.783  18.881  1.00  0.00     0.284 C 
BRANCH  50  51
HETATM   51  O1  UNL     1      -1.889 -35.639  18.114  1.00  0.00    -0.369 OA
ATOM     52  H1  UNL     1      -1.939 -34.722  17.870  1.00  0.00     0.212 HD
ENDBRANCH  50  51
BRANCH  50  53
HETATM   53  O2  UNL     1       0.368 -36.082  18.130  1.00  0.00    -0.369 OA
ATOM     54  H2  UNL     1       1.155 -35.745  18.542  1.00  0.00     0.212 HD
ENDBRANCH  50  53
ENDBRANCH  45  50
ENDBRANCH  44  45
ENDBRANCH  43  44
ENDBRANCH  42  43
ENDBRANCH  41  42
ENDBRANCH  16  41
TORSDOF 16
ENDMDL
MODEL 3
REMARK VINA RESULT: -6.935009355      1.290      1.835
REMARK  16 active torsions:
REMARK  status: ('A' for Active; 'I' for Inactive)
REMARK    1  A    between atoms: C4_13  and  N6_14 
REMARK    2  A    between atoms: N7_17  and  N8_18 
REMARK    3  A    between atoms: N8_18  and  C5_20 
REMARK    4  A    between atoms: C6_22  and  N9_23 
REMARK    5  A    between atoms: C7_27  and  N10_28 
REMARK    6  A    between atoms: C8_32  and  C9_33 
REMARK    7  A    between atoms: C9_33  and  N11_34 
REMARK    8  A    between atoms: C10_39  and  N13_40 
REMARK    9  A    between atoms: N13_40  and  C11_41 
REMARK   10  A    between atoms: C11_41  and  C12_42 
REMARK   11  A    between atoms: C12_42  and  C13_43 
REMARK   12  A    between atoms: C13_43  and  C14_44 
REMARK   13  A    between atoms: C14_44  and  N14_45 
REMARK   14  A    between atoms: C14_44  and  C15_49 
REMARK   15  A    between atoms: C15_49  and  O1_50 
REMARK   16  A    between atoms: C15_49  and  O2_52 
ROOT
HETATM    1  C1  UNL     1      -3.722 -35.030  21.744  1.00  0.00     0.179 C 
HETATM    2  N1  UNL     1      -5.137 -34.776  21.663  1.00  0.00    -0.274 N 
HETATM    3  N2  UNL     1      -5.706 -33.562  21.834  1.00  0.00    -0.239 N 
ATOM      4  H2  UNL     1      -5.196 -32.703  22.042  1.00  0.00     0.208 HD
HETATM    5  N3  UNL     1      -6.991 -33.647  21.697  1.00  0.00    -0.268 N 
ATOM      6  H3  UNL     1      -7.651 -32.872  21.778  1.00  0.00     0.190 HD
HETATM    7  C2  UNL     1      -7.318 -34.946  21.424  1.00  0.00     0.170 A 
HETATM    8  N4  UNL     1      -8.473 -35.552  21.199  1.00  0.00    -0.170 N 
ATOM      9  H4  UNL     1      -9.335 -35.006  21.219  1.00  0.00     0.186 HD
HETATM   10  C3  UNL     1      -8.534 -36.889  20.940  1.00  0.00     0.724 A 
HETATM   11  N5  UNL     1      -9.608 -37.642  20.716  1.00  0.00    -0.017 N 
ATOM     12  H5  UNL     1     -10.576 -37.324  20.690  1.00  0.00     0.203 HD
HETATM   13  C4  UNL     1      -9.165 -38.928  20.525  1.00  0.00     0.728 A 
HETATM   14  N7  UNL     1      -7.815 -38.882  20.647  1.00  0.00     0.005 N 
HETATM   15  N12 UNL     1      -7.423 -37.607  20.910  1.00  0.00    -0.017 N 
HETATM   16  C10 UNL     1      -6.182 -37.037  21.141  1.00  0.00     0.251 A 
HETATM   17  C16 UNL     1      -6.140 -35.631  21.409  1.00  0.00     0.158 A 
ENDROOT
BRANCH  14  18
HETATM   18  N8  UNL     1      -6.958 -39.952  20.587  1.00  0.00    -0.261 N 
ATOM     19  H8  UNL     1      -6.477 -40.106  21.473  1.00  0.00     0.190 HD
BRANCH  18  20
HETATM   20  C5  UNL     1      -6.581 -40.876  19.626  1.00  0.00     0.074 C 
HETATM   21  S1  UNL     1      -4.890 -41.518  19.649  1.00  0.00    -0.080 SA
HETATM   22  C6  UNL     1      -5.240 -43.127  18.834  1.00  0.00     0.281 C 
HETATM   23  C7  UNL     1      -6.587 -42.883  18.281  1.00  0.00     0.236 C 
HETATM   24  C8  UNL     1      -7.400 -41.983  19.157  1.00  0.00     0.103 C 
BRANCH  22  25
HETATM   25  N9  UNL     1      -5.096 -44.241  19.711  1.00  0.00    -0.064 N 
ATOM     26  H93 UNL     1      -4.126 -44.351  20.002  1.00  0.00     0.275 HD
ATOM     27  H92 UNL     1      -5.522 -44.047  20.617  1.00  0.00     0.275 HD
ATOM     28  H91 UNL     1      -5.459 -45.110  19.317  1.00  0.00     0.275 HD
ENDBRANCH  22  25
BRANCH  23  29
HETATM   29  N10 UNL     1      -6.417 -42.220  16.978  1.00  0.00    -0.071 N 
ATOM     30 3H10 UNL     1      -7.251 -41.713  16.678  1.00  0.00     0.274 HD
ATOM     31 2H10 UNL     1      -5.784 -41.422  17.017  1.00  0.00     0.274 HD
ATOM     32 1H10 UNL     1      -6.121 -42.930  16.308  1.00  0.00     0.274 HD
ENDBRANCH  23  29
BRANCH  24  33
HETATM   33  C9  UNL     1      -8.202 -42.807  20.086  1.00  0.00     0.243 C 
BRANCH  33  34
HETATM   34  N11 UNL     1      -8.842 -43.919  19.365  1.00  0.00    -0.079 N 
ATOM     35 3H11 UNL     1      -8.186 -44.400  18.750  1.00  0.00     0.274 HD
ATOM     36 2H11 UNL     1      -9.064 -44.696  19.986  1.00  0.00     0.274 HD
ATOM     37 1H11 UNL     1      -9.664 -43.588  18.859  1.00  0.00     0.274 HD
ENDBRANCH  33  34
ENDBRANCH  24  33
ENDBRANCH  18  20
ENDBRANCH  14  18
BRANCH  13  38
HETATM   38  N6  UNL     1      -9.984 -39.854  20.273  1.00  0.00    -0.231 N 
ATOM     39  H62 UNL     1      -9.937 -40.871  20.342  1.00  0.00     0.174 HD
ATOM     40  H61 UNL     1     -10.909 -39.639  19.902  1.00  0.00     0.174 HD
ENDBRANCH  13  38
BRANCH  16  41
HETATM   41  N13 UNL     1      -5.160 -37.623  21.209  1.00  0.00    -0.399 NA
BRANCH  41  42
HETATM   42  C11 UNL     1      -3.997 -38.290  21.291  1.00  0.00     0.158 C 
BRANCH  42  43
HETATM   43  C12 UNL     1      -3.148 -38.385  20.044  1.00  0.00     0.062 C 
BRANCH  43  44
HETATM   44  C13 UNL     1      -2.518 -37.138  19.598  1.00  0.00     0.044 C 
BRANCH  44  45
HETATM   45  C14 UNL     1      -1.125 -36.812  19.942  1.00  0.00     0.238 C 
BRANCH  45  46
HETATM   46  N14 UNL     1      -0.121 -37.794  19.850  1.00  0.00    -0.070 N 
ATOM     47 3H14 UNL     1      -0.117 -38.160  18.897  1.00  0.00     0.274 HD
ATOM     48 2H14 UNL     1       0.785 -37.330  19.896  1.00  0.00     0.274 HD
ATOM     49 1H14 UNL     1      -0.111 -38.583  20.496  1.00  0.00     0.274 HD
ENDBRANCH  45  46
BRANCH  45  50
HETATM   50  C15 UNL     1      -0.684 -35.652  19.015  1.00  0.00     0.284 C 
BRANCH  50  51
HETATM   51  O1  UNL     1      -1.830 -35.173  18.406  1.00  0.00    -0.369 OA
ATOM     52  H1  UNL     1      -2.327 -34.723  19.079  1.00  0.00     0.212 HD
ENDBRANCH  50  51
BRANCH  50  53
HETATM   53  O2  UNL     1       0.266 -36.077  18.112  1.00  0.00    -0.369 OA
ATOM     54  H2  UNL     1       0.574 -35.354  17.577  1.00  0.00     0.212 HD
ENDBRANCH  50  53
ENDBRANCH  45  50
ENDBRANCH  44  45
ENDBRANCH  43  44
ENDBRANCH  42  43
ENDBRANCH  41  42
ENDBRANCH  16  41
TORSDOF 16
ENDMDL
MODEL 4
REMARK VINA RESULT: -6.904543118      1.752      2.148
REMARK  16 active torsions:
REMARK  status: ('A' for Active; 'I' for Inactive)
REMARK    1  A    between atoms: C4_13  and  N6_14 
REMARK    2  A    between atoms: N7_17  and  N8_18 
REMARK    3  A    between atoms: N8_18  and  C5_20 
REMARK    4  A    between atoms: C6_22  and  N9_23 
REMARK    5  A    between atoms: C7_27  and  N10_28 
REMARK    6  A    between atoms: C8_32  and  C9_33 
REMARK    7  A    between atoms: C9_33  and  N11_34 
REMARK    8  A    between atoms: C10_39  and  N13_40 
REMARK    9  A    between atoms: N13_40  and  C11_41 
REMARK   10  A    between atoms: C11_41  and  C12_42 
REMARK   11  A    between atoms: C12_42  and  C13_43 
REMARK   12  A    between atoms: C13_43  and  C14_44 
REMARK   13  A    between atoms: C14_44  and  N14_45 
REMARK   14  A    between atoms: C14_44  and  C15_49 
REMARK   15  A    between atoms: C15_49  and  O1_50 
REMARK   16  A    between atoms: C15_49  and  O2_52 
ROOT
HETATM    1  C1  UNL     1      -5.013 -35.263  21.781  1.00  0.00     0.179 C 
HETATM    2  N1  UNL     1      -6.378 -35.649  21.537  1.00  0.00    -0.274 N 
HETATM    3  N2  UNL     1      -7.435 -34.811  21.622  1.00  0.00    -0.239 N 
ATOM      4  H2  UNL     1      -7.378 -33.823  21.870  1.00  0.00     0.208 HD
HETATM    5  N3  UNL     1      -8.531 -35.443  21.342  1.00  0.00    -0.268 N 
ATOM      6  H3  UNL     1      -9.467 -35.037  21.335  1.00  0.00     0.190 HD
HETATM    7  C2  UNL     1      -8.224 -36.745  21.057  1.00  0.00     0.170 A 
HETATM    8  N4  UNL     1      -8.967 -37.786  20.715  1.00  0.00    -0.170 N 
ATOM      9  H4  UNL     1      -9.977 -37.672  20.629  1.00  0.00     0.186 HD
HETATM   10  C3  UNL     1      -8.409 -39.007  20.475  1.00  0.00     0.724 A 
HETATM   11  N5  UNL     1      -9.014 -40.144  20.144  1.00  0.00    -0.017 N 
ATOM     12  H5  UNL     1     -10.015 -40.280  20.005  1.00  0.00     0.203 HD
HETATM   13  C4  UNL     1      -8.036 -41.101  20.027  1.00  0.00     0.728 A 
HETATM   14  N7  UNL     1      -6.864 -40.476  20.299  1.00  0.00     0.005 N 
HETATM   15  N12 UNL     1      -7.099 -39.167  20.583  1.00  0.00    -0.017 N 
HETATM   16  C10 UNL     1      -6.266 -38.120  20.941  1.00  0.00     0.251 A 
HETATM   17  C16 UNL     1      -6.872 -36.847  21.187  1.00  0.00     0.158 A 
ENDROOT
BRANCH  14  18
HETATM   18  N8  UNL     1      -5.624 -41.062  20.355  1.00  0.00    -0.261 N 
ATOM     19  H8  UNL     1      -4.898 -40.455  19.975  1.00  0.00     0.190 HD
BRANCH  18  20
HETATM   20  C5  UNL     1      -5.110 -42.270  20.797  1.00  0.00     0.074 C 
HETATM   21  S1  UNL     1      -5.699 -42.947  22.367  1.00  0.00    -0.080 SA
HETATM   22  C6  UNL     1      -5.379 -44.717  21.993  1.00  0.00     0.281 C 
HETATM   23  C7  UNL     1      -4.499 -44.608  20.812  1.00  0.00     0.236 C 
HETATM   24  C8  UNL     1      -4.849 -43.429  19.958  1.00  0.00     0.103 C 
BRANCH  22  25
HETATM   25  N9  UNL     1      -6.571 -45.481  21.839  1.00  0.00    -0.064 N 
ATOM     26  H93 UNL     1      -6.868 -45.498  20.864  1.00  0.00     0.275 HD
ATOM     27  H92 UNL     1      -6.386 -46.475  21.975  1.00  0.00     0.275 HD
ATOM     28  H91 UNL     1      -7.330 -45.166  22.445  1.00  0.00     0.275 HD
ENDBRANCH  22  25
BRANCH  23  29
HETATM   29  N10 UNL     1      -3.122 -44.425  21.299  1.00  0.00    -0.071 N 
ATOM     30 3H10 UNL     1      -2.499 -44.031  20.594  1.00  0.00     0.274 HD
ATOM     31 2H10 UNL     1      -3.040 -43.674  21.984  1.00  0.00     0.274 HD
ATOM     32 1H10 UNL     1      -2.801 -45.325  21.656  1.00  0.00     0.274 HD
ENDBRANCH  23  29
BRANCH  24  33
HETATM   33  C9  UNL     1      -5.795 -43.858  18.905  1.00  0.00     0.243 C 
BRANCH  33  34
HETATM   34  N11 UNL     1      -5.433 -43.251  17.614  1.00  0.00    -0.079 N 
ATOM     35 3H11 UNL     1      -5.002 -42.335  17.732  1.00  0.00     0.274 HD
ATOM     36 2H11 UNL     1      -4.648 -43.732  17.175  1.00  0.00     0.274 HD
ATOM     37 1H11 UNL     1      -6.247 -43.213  16.999  1.00  0.00     0.274 HD
ENDBRANCH  33  34
ENDBRANCH  24  33
ENDBRANCH  18  20
ENDBRANCH  14  18
BRANCH  13  38
HETATM   38  N6  UNL     1      -8.334 -42.283  19.701  1.00  0.00    -0.231 N 
ATOM     39  H62 UNL     1      -8.988 -42.682  19.027  1.00  0.00     0.174 HD
ATOM     40  H61 UNL     1      -7.891 -43.075  20.167  1.00  0.00     0.174 HD
ENDBRANCH  13  38
BRANCH  16  41
HETATM   41  N13 UNL     1      -5.105 -38.204  21.133  1.00  0.00    -0.399 NA
BRANCH  41  42
HETATM   42  C11 UNL     1      -3.783 -38.296  21.357  1.00  0.00     0.158 C 
BRANCH  42  43
HETATM   43  C12 UNL     1      -2.857 -38.176  20.168  1.00  0.00     0.062 C 
BRANCH  43  44
HETATM   44  C13 UNL     1      -2.312 -36.840  19.909  1.00  0.00     0.044 C 
BRANCH  44  45
HETATM   45  C14 UNL     1      -0.865 -36.578  19.938  1.00  0.00     0.238 C 
BRANCH  45  46
HETATM   46  N14 UNL     1       0.052 -37.623  19.716  1.00  0.00    -0.070 N 
ATOM     47 3H14 UNL     1      -0.085 -38.329  20.440  1.00  0.00     0.274 HD
ATOM     48 2H14 UNL     1      -0.235 -38.129  18.879  1.00  0.00     0.274 HD
ATOM     49 1H14 UNL     1       1.050 -37.427  19.646  1.00  0.00     0.274 HD
ENDBRANCH  45  46
BRANCH  45  50
HETATM   50  C15 UNL     1      -0.572 -35.507  18.858  1.00  0.00     0.284 C 
BRANCH  50  51
HETATM   51  O1  UNL     1      -1.791 -35.151  18.311  1.00  0.00    -0.369 OA
ATOM     52  H1  UNL     1      -1.682 -34.281  17.946  1.00  0.00     0.212 HD
ENDBRANCH  50  51
BRANCH  50  53
HETATM   53  O2  UNL     1       0.318 -35.984  17.920  1.00  0.00    -0.369 OA
ATOM     54  H2  UNL     1      -0.016 -36.768  17.502  1.00  0.00     0.212 HD
ENDBRANCH  50  53
ENDBRANCH  45  50
ENDBRANCH  44  45
ENDBRANCH  43  44
ENDBRANCH  42  43
ENDBRANCH  41  42
ENDBRANCH  16  41
TORSDOF 16
ENDMDL
MODEL 5
REMARK VINA RESULT: -6.763654139      1.750      2.417
REMARK  16 active torsions:
REMARK  status: ('A' for Active; 'I' for Inactive)
REMARK    1  A    between atoms: C4_13  and  N6_14 
REMARK    2  A    between atoms: N7_17  and  N8_18 
REMARK    3  A    between atoms: N8_18  and  C5_20 
REMARK    4  A    between atoms: C6_22  and  N9_23 
REMARK    5  A    between atoms: C7_27  and  N10_28 
REMARK    6  A    between atoms: C8_32  and  C9_33 
REMARK    7  A    between atoms: C9_33  and  N11_34 
REMARK    8  A    between atoms: C10_39  and  N13_40 
REMARK    9  A    between atoms: N13_40  and  C11_41 
REMARK   10  A    between atoms: C11_41  and  C12_42 
REMARK   11  A    between atoms: C12_42  and  C13_43 
REMARK   12  A    between atoms: C13_43  and  C14_44 
REMARK   13  A    between atoms: C14_44  and  N14_45 
REMARK   14  A    between atoms: C14_44  and  C15_49 
REMARK   15  A    between atoms: C15_49  and  O1_50 
REMARK   16  A    between atoms: C15_49  and  O2_52 
ROOT
HETATM    1  C1  UNL     1      -3.982 -35.035  21.788  1.00  0.00     0.179 C 
HETATM    2  N1  UNL     1      -5.415 -35.071  21.654  1.00  0.00    -0.274 N 
HETATM    3  N2  UNL     1      -6.219 -33.990  21.755  1.00  0.00    -0.239 N 
ATOM      4  H2  UNL     1      -5.898 -33.039  21.940  1.00  0.00     0.208 HD
HETATM    5  N3  UNL     1      -7.456 -34.334  21.583  1.00  0.00    -0.268 N 
ATOM      6  H3  UNL     1      -8.258 -33.704  21.611  1.00  0.00     0.190 HD
HETATM    7  C2  UNL     1      -7.508 -35.681  21.359  1.00  0.00     0.170 A 
HETATM    8  N4  UNL     1      -8.511 -36.513  21.127  1.00  0.00    -0.170 N 
ATOM      9  H4  UNL     1      -9.464 -36.150  21.098  1.00  0.00     0.186 HD
HETATM   10  C3  UNL     1      -8.297 -37.845  20.926  1.00  0.00     0.724 A 
HETATM   11  N5  UNL     1      -9.191 -38.804  20.703  1.00  0.00    -0.017 N 
ATOM     12  H5  UNL     1     -10.201 -38.687  20.636  1.00  0.00     0.203 HD
HETATM   13  C4  UNL     1      -8.496 -39.982  20.582  1.00  0.00     0.728 A 
HETATM   14  N7  UNL     1      -7.187 -39.664  20.742  1.00  0.00     0.005 N 
HETATM   15  N12 UNL     1      -7.065 -38.328  20.960  1.00  0.00    -0.017 N 
HETATM   16  C10 UNL     1      -5.971 -37.513  21.202  1.00  0.00     0.251 A 
HETATM   17  C16 UNL     1      -6.218 -36.118  21.409  1.00  0.00     0.158 A 
ENDROOT
BRANCH  14  18
HETATM   18  N8  UNL     1      -6.133 -40.543  20.754  1.00  0.00    -0.261 N 
ATOM     19  H8  UNL     1      -5.256 -40.092  20.493  1.00  0.00     0.190 HD
BRANCH  18  20
HETATM   20  C5  UNL     1      -5.959 -41.889  21.031  1.00  0.00     0.074 C 
HETATM   21  S1  UNL     1      -5.415 -42.990  19.703  1.00  0.00    -0.080 SA
HETATM   22  C6  UNL     1      -4.611 -44.256  20.764  1.00  0.00     0.281 C 
HETATM   23  C7  UNL     1      -5.148 -43.902  22.093  1.00  0.00     0.236 C 
HETATM   24  C8  UNL     1      -5.357 -42.428  22.241  1.00  0.00     0.103 C 
BRANCH  22  25
HETATM   25  N9  UNL     1      -3.193 -44.280  20.628  1.00  0.00    -0.064 N 
ATOM     26  H93 UNL     1      -2.787 -45.026  21.192  1.00  0.00     0.275 HD
ATOM     27  H92 UNL     1      -2.922 -44.606  19.700  1.00  0.00     0.275 HD
ATOM     28  H91 UNL     1      -2.755 -43.384  20.841  1.00  0.00     0.275 HD
ENDBRANCH  22  25
BRANCH  23  29
HETATM   29  N10 UNL     1      -6.455 -44.564  22.234  1.00  0.00    -0.071 N 
ATOM     30 3H10 UNL     1      -6.917 -44.348  23.117  1.00  0.00     0.274 HD
ATOM     31 2H10 UNL     1      -7.166 -44.176  21.614  1.00  0.00     0.274 HD
ATOM     32 1H10 UNL     1      -6.310 -45.564  22.095  1.00  0.00     0.274 HD
ENDBRANCH  23  29
BRANCH  24  33
HETATM   33  C9  UNL     1      -4.148 -41.825  22.843  1.00  0.00     0.243 C 
BRANCH  33  34
HETATM   34  N11 UNL     1      -3.640 -42.675  23.932  1.00  0.00    -0.079 N 
ATOM     35 3H11 UNL     1      -3.827 -42.269  24.849  1.00  0.00     0.274 HD
ATOM     36 2H11 UNL     1      -4.186 -43.531  24.032  1.00  0.00     0.274 HD
ATOM     37 1H11 UNL     1      -2.648 -42.869  23.797  1.00  0.00     0.274 HD
ENDBRANCH  33  34
ENDBRANCH  24  33
ENDBRANCH  18  20
ENDBRANCH  14  18
BRANCH  13  38
HETATM   38  N6  UNL     1      -9.104 -41.062  20.347  1.00  0.00    -0.231 N 
ATOM     39  H62 UNL     1      -9.449 -41.818  20.940  1.00  0.00     0.174 HD
ATOM     40  H61 UNL     1      -9.330 -41.330  19.389  1.00  0.00     0.174 HD
ENDBRANCH  13  38
BRANCH  16  41
HETATM   41  N13 UNL     1      -4.857 -37.881  21.325  1.00  0.00    -0.399 NA
BRANCH  41  42
HETATM   42  C11 UNL     1      -3.590 -38.306  21.464  1.00  0.00     0.158 C 
BRANCH  42  43
HETATM   43  C12 UNL     1      -2.781 -38.537  20.207  1.00  0.00     0.062 C 
BRANCH  43  44
HETATM   44  C13 UNL     1      -2.235 -37.337  19.564  1.00  0.00     0.044 C 
BRANCH  44  45
HETATM   45  C14 UNL     1      -0.908 -36.811  19.915  1.00  0.00     0.238 C 
BRANCH  45  46
HETATM   46  N14 UNL     1       0.223 -37.647  19.875  1.00  0.00    -0.070 N 
ATOM     47 3H14 UNL     1      -0.015 -38.484  19.341  1.00  0.00     0.274 HD
ATOM     48 2H14 UNL     1       0.923 -37.212  19.275  1.00  0.00     0.274 HD
ATOM     49 1H14 UNL     1       0.679 -37.939  20.740  1.00  0.00     0.274 HD
ENDBRANCH  45  46
BRANCH  45  50
HETATM   50  C15 UNL     1      -0.612 -35.635  18.950  1.00  0.00     0.284 C 
BRANCH  50  51
HETATM   51  O1  UNL     1      -1.827 -35.246  18.415  1.00  0.00    -0.369 OA
ATOM     52  H1  UNL     1      -2.123 -35.961  17.865  1.00  0.00     0.212 HD
ENDBRANCH  50  51
BRANCH  50  53
HETATM   53  O2  UNL     1       0.304 -36.004  17.990  1.00  0.00    -0.369 OA
ATOM     54  H2  UNL     1       0.165 -35.520  17.184  1.00  0.00     0.212 HD
ENDBRANCH  50  53
ENDBRANCH  45  50
ENDBRANCH  44  45
ENDBRANCH  43  44
ENDBRANCH  42  43
ENDBRANCH  41  42
ENDBRANCH  16  41
TORSDOF 16
ENDMDL
