MODEL 1
REMARK VINA RESULT: -7.936102264      0.000      0.000
REMARK  13 active torsions:
REMARK  status: ('A' for Active; 'I' for Inactive)
REMARK    1  A    between atoms: N1_2  and  C2_5 
REMARK    2  A    between atoms: C2_5  and  N2_6 
REMARK    3  A    between atoms: C2_5  and  C4_10 
REMARK    4  A    between atoms: N2_6  and  C3_8 
REMARK    5  A    between atoms: C4_10  and  O2_11 
REMARK    6  A    between atoms: C4_10  and  C5_13 
REMARK       I    between atoms: C5_13  and  N3_15 
REMARK    7  A    between atoms: N3_15  and  C6_17 
REMARK    8  A    between atoms: C7_18  and  N4_19 
REMARK    9  A    between atoms: C9_24  and  N5_25 
REMARK   10  A    between atoms: N5_25  and  C10_27 
REMARK   11  A    between atoms: C12_30  and  N7_31 
REMARK   12  A    between atoms: C13_36  and  N9_37 
REMARK   13  A    between atoms: C19_48  and  O5_49 
ROOT
HETATM    1  C6  UNL     1      -5.333 -38.826  20.514  1.00  0.00     0.170 C 
HETATM    2  C7  UNL     1      -5.403 -40.334  20.287  1.00  0.00     0.215 C 
HETATM    3  C8  UNL     1      -6.826 -40.733  20.725  1.00  0.00     0.088 C 
HETATM    4  C9  UNL     1      -7.798 -40.211  19.705  1.00  0.00     0.227 C 
HETATM    5  O4  UNL     1      -7.308 -39.004  19.140  1.00  0.00    -0.335 OA
HETATM    6  C19 UNL     1      -6.630 -38.247  20.085  1.00  0.00     0.284 C 
ENDROOT
BRANCH   4   7
HETATM    7  N5  UNL     1      -9.140 -40.041  20.175  1.00  0.00    -0.347 N 
ATOM      8  H5  UNL     1      -9.801 -39.745  19.457  1.00  0.00     0.163 HD
BRANCH   7   9
HETATM    9  C10 UNL     1      -9.705 -40.208  21.441  1.00  0.00     0.149 A 
HETATM   10  C11 UNL     1      -9.995 -41.399  22.065  1.00  0.00     0.134 A 
HETATM   11  N6  UNL     1      -9.827 -42.632  21.425  1.00  0.00    -0.094 NA
HETATM   12  C12 UNL     1     -10.518 -41.421  23.362  1.00  0.00     0.143 A 
HETATM   13  N8  UNL     1     -10.738 -40.271  24.003  1.00  0.00    -0.175 N 
HETATM   14  C13 UNL     1     -10.460 -39.074  23.406  1.00  0.00     0.685 A 
ATOM     15  H8  UNL     1     -11.118 -40.286  24.950  1.00  0.00     0.186 HD
HETATM   16  N11 UNL     1      -9.963 -39.072  22.171  1.00  0.00    -0.171 N 
HETATM   17  C18 UNL     1      -9.668 -37.771  21.559  1.00  0.00     0.177 C 
BRANCH  12  18
HETATM   18  N7  UNL     1     -10.766 -42.570  23.880  1.00  0.00    -0.383 N 
ATOM     19  H72 UNL     1     -10.767 -43.435  23.340  1.00  0.00     0.157 HD
ATOM     20  H71 UNL     1     -10.968 -42.600  24.878  1.00  0.00     0.157 HD
ENDBRANCH  12  18
BRANCH  14  21
HETATM   21  N9  UNL     1     -10.742 -37.913  24.186  1.00  0.00    -0.214 N 
HETATM   22  C14 UNL     1     -12.091 -37.398  24.123  1.00  0.00     0.168 C 
HETATM   23  C15 UNL     1     -12.079 -35.914  24.060  1.00  0.00     0.252 C 
HETATM   24  N10 UNL     1     -11.299 -35.302  25.113  1.00  0.00    -0.072 N 
HETATM   25  C16 UNL     1      -9.961 -35.789  25.177  1.00  0.00     0.252 C 
ATOM     26 2H10 UNL     1     -11.312 -34.286  25.030  1.00  0.00     0.277 HD
ATOM     27 1H10 UNL     1     -11.765 -35.403  26.015  1.00  0.00     0.277 HD
HETATM   28  C17 UNL     1      -9.780 -37.253  25.028  1.00  0.00     0.168 C 
ENDBRANCH  14  21
ENDBRANCH   7   9
ENDBRANCH   4   7
BRANCH   2  29
HETATM   29  N4  UNL     1      -4.491 -40.982  21.178  1.00  0.00    -0.073 N 
ATOM     30  H43 UNL     1      -4.430 -41.986  21.007  1.00  0.00     0.274 HD
ATOM     31  H42 UNL     1      -3.519 -40.744  20.980  1.00  0.00     0.274 HD
ATOM     32  H41 UNL     1      -4.755 -40.767  22.139  1.00  0.00     0.274 HD
ENDBRANCH   2  29
BRANCH   6  33
HETATM   33  O5  UNL     1      -6.409 -36.990  19.482  1.00  0.00    -0.369 OA
ATOM     34  H5  UNL     1      -5.731 -37.070  18.822  1.00  0.00     0.212 HD
ENDBRANCH   6  33
BRANCH   1  35
HETATM   35  N3  UNL     1      -4.162 -38.261  19.876  1.00  0.00    -0.347 N 
HETATM   36  C5  UNL     1      -2.956 -37.983  20.563  1.00  0.00     0.250 C 
HETATM   37  O3  UNL     1      -2.811 -38.209  21.801  1.00  0.00    -0.271 OA
ATOM     38  H3  UNL     1      -4.209 -38.053  18.879  1.00  0.00     0.163 HD
BRANCH  36  39
HETATM   39  C4  UNL     1      -1.780 -37.407  19.866  1.00  0.00     0.260 C 
BRANCH  39  40
HETATM   40  C2  UNL     1      -1.546 -35.955  20.184  1.00  0.00     0.323 C 
BRANCH  40  41
HETATM   41  N1  UNL     1      -2.506 -35.119  19.469  1.00  0.00    -0.055 N 
HETATM   42  C1  UNL     1      -3.201 -34.201  20.324  1.00  0.00     0.269 C 
ATOM     43  H12 UNL     1      -3.163 -35.693  18.941  1.00  0.00     0.279 HD
ATOM     44  H11 UNL     1      -2.055 -34.627  18.698  1.00  0.00     0.279 HD
ENDBRANCH  40  41
BRANCH  40  45
HETATM   45  N2  UNL     1      -0.225 -35.547  19.678  1.00  0.00    -0.338 N 
ATOM     46  H2  UNL     1       0.577 -35.525  20.309  1.00  0.00     0.164 HD
BRANCH  45  47
HETATM   47  C3  UNL     1      -0.079 -35.217  18.440  1.00  0.00     0.350 C 
HETATM   48  O1  UNL     1      -0.107 -35.200  17.190  1.00  0.00    -0.284 OA
ENDBRANCH  45  47
ENDBRANCH  40  45
ENDBRANCH  39  40
BRANCH  39  49
HETATM   49  O2  UNL     1      -1.976 -37.545  18.505  1.00  0.00    -0.382 OA
ATOM     50  H2  UNL     1      -2.813 -37.162  18.272  1.00  0.00     0.210 HD
ENDBRANCH  39  49
ENDBRANCH  36  39
ENDBRANCH   1  35
TORSDOF 13
ENDMDL
MODEL 2
REMARK VINA RESULT: -7.926347921      1.058      1.320
REMARK  13 active torsions:
REMARK  status: ('A' for Active; 'I' for Inactive)
REMARK    1  A    between atoms: N1_2  and  C2_5 
REMARK    2  A    between atoms: C2_5  and  N2_6 
REMARK    3  A    between atoms: C2_5  and  C4_10 
REMARK    4  A    between atoms: N2_6  and  C3_8 
REMARK    5  A    between atoms: C4_10  and  O2_11 
REMARK    6  A    between atoms: C4_10  and  C5_13 
REMARK       I    between atoms: C5_13  and  N3_15 
REMARK    7  A    between atoms: N3_15  and  C6_17 
REMARK    8  A    between atoms: C7_18  and  N4_19 
REMARK    9  A    between atoms: C9_24  and  N5_25 
REMARK   10  A    between atoms: N5_25  and  C10_27 
REMARK   11  A    between atoms: C12_30  and  N7_31 
REMARK   12  A    between atoms: C13_36  and  N9_37 
REMARK   13  A    between atoms: C19_48  and  O5_49 
ROOT
HETATM    1  C6  UNL     1      -5.300 -38.865  20.492  1.00  0.00     0.170 C 
HETATM    2  C7  UNL     1      -5.381 -40.371  20.256  1.00  0.00     0.215 C 
HETATM    3  C8  UNL     1      -6.807 -40.763  20.690  1.00  0.00     0.088 C 
HETATM    4  C9  UNL     1      -7.775 -40.227  19.673  1.00  0.00     0.227 C 
HETATM    5  O4  UNL     1      -7.275 -39.020  19.116  1.00  0.00    -0.335 OA
HETATM    6  C19 UNL     1      -6.592 -38.274  20.066  1.00  0.00     0.284 C 
ENDROOT
BRANCH   4   7
HETATM    7  N5  UNL     1      -9.116 -40.050  20.144  1.00  0.00    -0.347 N 
ATOM      8  H5  UNL     1      -9.774 -39.742  19.428  1.00  0.00     0.163 HD
BRANCH   7   9
HETATM    9  C10 UNL     1      -9.683 -40.224  21.408  1.00  0.00     0.149 A 
HETATM   10  C11 UNL     1      -9.970 -41.418  22.027  1.00  0.00     0.134 A 
HETATM   11  N6  UNL     1      -9.795 -42.648  21.383  1.00  0.00    -0.094 NA
HETATM   12  C12 UNL     1     -10.496 -41.447  23.322  1.00  0.00     0.143 A 
HETATM   13  N8  UNL     1     -10.722 -40.300  23.967  1.00  0.00    -0.175 N 
HETATM   14  C13 UNL     1     -10.448 -39.100  23.375  1.00  0.00     0.685 A 
ATOM     15  H8  UNL     1     -11.104 -40.320  24.913  1.00  0.00     0.186 HD
HETATM   16  N11 UNL     1      -9.947 -39.091  22.141  1.00  0.00    -0.171 N 
HETATM   17  C18 UNL     1      -9.656 -37.787  21.535  1.00  0.00     0.177 C 
BRANCH  12  18
HETATM   18  N7  UNL     1     -10.740 -42.598  23.835  1.00  0.00    -0.383 N 
ATOM     19  H72 UNL     1     -10.956 -43.423  23.275  1.00  0.00     0.157 HD
ATOM     20  H71 UNL     1     -10.713 -42.675  24.851  1.00  0.00     0.157 HD
ENDBRANCH  12  18
BRANCH  14  21
HETATM   21  N9  UNL     1     -10.736 -37.943  24.159  1.00  0.00    -0.214 N 
HETATM   22  C14 UNL     1     -12.088 -37.435  24.097  1.00  0.00     0.168 C 
HETATM   23  C15 UNL     1     -12.085 -35.952  24.039  1.00  0.00     0.252 C 
HETATM   24  N10 UNL     1     -11.309 -35.338  25.094  1.00  0.00    -0.072 N 
HETATM   25  C16 UNL     1      -9.967 -35.817  25.156  1.00  0.00     0.252 C 
ATOM     26 2H10 UNL     1     -11.327 -34.322  25.014  1.00  0.00     0.277 HD
ATOM     27 1H10 UNL     1     -11.774 -35.444  25.995  1.00  0.00     0.277 HD
HETATM   28  C17 UNL     1      -9.778 -37.280  25.002  1.00  0.00     0.168 C 
ENDBRANCH  14  21
ENDBRANCH   7   9
ENDBRANCH   4   7
BRANCH   2  29
HETATM   29  N4  UNL     1      -4.474 -41.032  21.142  1.00  0.00    -0.073 N 
ATOM     30  H43 UNL     1      -3.883 -40.376  21.653  1.00  0.00     0.274 HD
ATOM     31  H42 UNL     1      -4.949 -41.450  21.943  1.00  0.00     0.274 HD
ATOM     32  H41 UNL     1      -3.931 -41.715  20.614  1.00  0.00     0.274 HD
ENDBRANCH   2  29
BRANCH   6  33
HETATM   33  O5  UNL     1      -6.361 -37.015  19.471  1.00  0.00    -0.369 OA
ATOM     34  H5  UNL     1      -7.003 -36.865  18.787  1.00  0.00     0.212 HD
ENDBRANCH   6  33
BRANCH   1  35
HETATM   35  N3  UNL     1      -4.125 -38.306  19.858  1.00  0.00    -0.347 N 
HETATM   36  C5  UNL     1      -2.925 -38.018  20.552  1.00  0.00     0.250 C 
HETATM   37  O3  UNL     1      -2.790 -38.230  21.794  1.00  0.00    -0.271 OA
ATOM     38  H3  UNL     1      -4.163 -38.108  18.858  1.00  0.00     0.163 HD
BRANCH  36  39
HETATM   39  C4  UNL     1      -1.744 -37.447  19.859  1.00  0.00     0.260 C 
BRANCH  39  40
HETATM   40  C2  UNL     1      -1.138 -36.271  20.575  1.00  0.00     0.323 C 
BRANCH  40  41
HETATM   41  N1  UNL     1      -0.182 -35.589  19.709  1.00  0.00    -0.055 N 
HETATM   42  C1  UNL     1      -0.292 -34.159  19.760  1.00  0.00     0.269 C 
ATOM     43  H12 UNL     1      -0.258 -35.925  18.749  1.00  0.00     0.279 HD
ATOM     44  H11 UNL     1       0.772 -35.887  19.915  1.00  0.00     0.279 HD
ENDBRANCH  40  41
BRANCH  40  45
HETATM   45  N2  UNL     1      -0.350 -36.746  21.724  1.00  0.00    -0.338 N 
ATOM     46  H2  UNL     1      -0.690 -36.591  22.673  1.00  0.00     0.164 HD
BRANCH  45  47
HETATM   47  C3  UNL     1       0.770 -37.357  21.533  1.00  0.00     0.350 C 
HETATM   48  O1  UNL     1       1.808 -37.831  21.021  1.00  0.00    -0.284 OA
ENDBRANCH  45  47
ENDBRANCH  40  45
ENDBRANCH  39  40
BRANCH  39  49
HETATM   49  O2  UNL     1      -2.136 -37.052  18.594  1.00  0.00    -0.382 OA
ATOM     50  H2  UNL     1      -2.999 -37.407  18.412  1.00  0.00     0.210 HD
ENDBRANCH  39  49
ENDBRANCH  36  39
ENDBRANCH   1  35
TORSDOF 13
ENDMDL
MODEL 3
REMARK VINA RESULT: -7.860947543      0.926      1.370
REMARK  13 active torsions:
REMARK  status: ('A' for Active; 'I' for Inactive)
REMARK    1  A    between atoms: N1_2  and  C2_5 
REMARK    2  A    between atoms: C2_5  and  N2_6 
REMARK    3  A    between atoms: C2_5  and  C4_10 
REMARK    4  A    between atoms: N2_6  and  C3_8 
REMARK    5  A    between atoms: C4_10  and  O2_11 
REMARK    6  A    between atoms: C4_10  and  C5_13 
REMARK       I    between atoms: C5_13  and  N3_15 
REMARK    7  A    between atoms: N3_15  and  C6_17 
REMARK    8  A    between atoms: C7_18  and  N4_19 
REMARK    9  A    between atoms: C9_24  and  N5_25 
REMARK   10  A    between atoms: N5_25  and  C10_27 
REMARK   11  A    between atoms: C12_30  and  N7_31 
REMARK   12  A    between atoms: C13_36  and  N9_37 
REMARK   13  A    between atoms: C19_48  and  O5_49 
ROOT
HETATM    1  C6  UNL     1      -5.305 -38.809  20.512  1.00  0.00     0.170 C 
HETATM    2  C7  UNL     1      -5.372 -40.320  20.301  1.00  0.00     0.215 C 
HETATM    3  C8  UNL     1      -6.797 -40.717  20.735  1.00  0.00     0.088 C 
HETATM    4  C9  UNL     1      -7.765 -40.206  19.705  1.00  0.00     0.227 C 
HETATM    5  O4  UNL     1      -7.273 -39.005  19.130  1.00  0.00    -0.335 OA
HETATM    6  C19 UNL     1      -6.600 -38.237  20.071  1.00  0.00     0.284 C 
ENDROOT
BRANCH   4   7
HETATM    7  N5  UNL     1      -9.110 -40.033  20.167  1.00  0.00    -0.347 N 
ATOM      8  H5  UNL     1      -9.764 -39.730  19.446  1.00  0.00     0.163 HD
BRANCH   7   9
HETATM    9  C10 UNL     1      -9.684 -40.204  21.428  1.00  0.00     0.149 A 
HETATM   10  C11 UNL     1      -9.974 -41.397  22.048  1.00  0.00     0.134 A 
HETATM   11  N6  UNL     1      -9.795 -42.629  21.408  1.00  0.00    -0.094 NA
HETATM   12  C12 UNL     1     -10.506 -41.423  23.341  1.00  0.00     0.143 A 
HETATM   13  N8  UNL     1     -10.737 -40.275  23.982  1.00  0.00    -0.175 N 
HETATM   14  C13 UNL     1     -10.459 -39.076  23.389  1.00  0.00     0.685 A 
ATOM     15  H8  UNL     1     -11.124 -40.293  24.925  1.00  0.00     0.186 HD
HETATM   16  N11 UNL     1      -9.952 -39.070  22.157  1.00  0.00    -0.171 N 
HETATM   17  C18 UNL     1      -9.658 -37.766  21.549  1.00  0.00     0.177 C 
BRANCH  12  18
HETATM   18  N7  UNL     1     -10.754 -42.573  23.855  1.00  0.00    -0.383 N 
ATOM     19  H72 UNL     1     -10.533 -42.809  24.823  1.00  0.00     0.157 HD
ATOM     20  H71 UNL     1     -11.192 -43.271  23.255  1.00  0.00     0.157 HD
ENDBRANCH  12  18
BRANCH  14  21
HETATM   21  N9  UNL     1     -10.752 -37.917  24.168  1.00  0.00    -0.214 N 
HETATM   22  C14 UNL     1     -12.103 -37.408  24.095  1.00  0.00     0.168 C 
HETATM   23  C15 UNL     1     -12.098 -35.925  24.034  1.00  0.00     0.252 C 
HETATM   24  N10 UNL     1     -11.329 -35.310  25.094  1.00  0.00    -0.072 N 
HETATM   25  C16 UNL     1      -9.989 -35.790  25.167  1.00  0.00     0.252 C 
ATOM     26 2H10 UNL     1     -11.346 -34.294  25.012  1.00  0.00     0.277 HD
ATOM     27 1H10 UNL     1     -11.801 -35.414  25.992  1.00  0.00     0.277 HD
HETATM   28  C17 UNL     1      -9.799 -37.254  25.017  1.00  0.00     0.168 C 
ENDBRANCH  14  21
ENDBRANCH   7   9
ENDBRANCH   4   7
BRANCH   2  29
HETATM   29  N4  UNL     1      -4.464 -40.958  21.202  1.00  0.00    -0.073 N 
ATOM     30  H43 UNL     1      -4.213 -41.899  20.899  1.00  0.00     0.274 HD
ATOM     31  H42 UNL     1      -3.531 -40.545  21.172  1.00  0.00     0.274 HD
ATOM     32  H41 UNL     1      -4.863 -40.946  22.141  1.00  0.00     0.274 HD
ENDBRANCH   2  29
BRANCH   6  33
HETATM   33  O5  UNL     1      -6.378 -36.986  19.456  1.00  0.00    -0.369 OA
ATOM     34  H5  UNL     1      -7.076 -36.387  19.692  1.00  0.00     0.212 HD
ENDBRANCH   6  33
BRANCH   1  35
HETATM   35  N3  UNL     1      -4.132 -38.251  19.874  1.00  0.00    -0.347 N 
HETATM   36  C5  UNL     1      -2.930 -37.964  20.564  1.00  0.00     0.250 C 
HETATM   37  O3  UNL     1      -2.790 -38.176  21.805  1.00  0.00    -0.271 OA
ATOM     38  H3  UNL     1      -4.174 -38.053  18.874  1.00  0.00     0.163 HD
BRANCH  36  39
HETATM   39  C4  UNL     1      -1.751 -37.393  19.867  1.00  0.00     0.260 C 
BRANCH  39  40
HETATM   40  C2  UNL     1      -1.292 -36.080  20.439  1.00  0.00     0.323 C 
BRANCH  40  41
HETATM   41  N1  UNL     1      -0.659 -36.288  21.738  1.00  0.00    -0.055 N 
HETATM   42  C1  UNL     1       0.566 -37.030  21.657  1.00  0.00     0.269 C 
ATOM     43  H12 UNL     1      -1.308 -36.727  22.391  1.00  0.00     0.279 HD
ATOM     44  H11 UNL     1      -0.515 -35.399  22.218  1.00  0.00     0.279 HD
ENDBRANCH  40  41
BRANCH  40  45
HETATM   45  N2  UNL     1      -2.460 -35.226  20.710  1.00  0.00    -0.338 N 
ATOM     46  H2  UNL     1      -3.187 -35.546  21.350  1.00  0.00     0.164 HD
BRANCH  45  47
HETATM   47  C3  UNL     1      -2.566 -34.074  20.140  1.00  0.00     0.350 C 
HETATM   48  O1  UNL     1      -2.342 -33.032  19.484  1.00  0.00    -0.284 OA
ENDBRANCH  45  47
ENDBRANCH  40  45
ENDBRANCH  39  40
BRANCH  39  49
HETATM   49  O2  UNL     1      -2.082 -37.215  18.537  1.00  0.00    -0.382 OA
ATOM     50  H2  UNL     1      -1.320 -37.402  18.000  1.00  0.00     0.210 HD
ENDBRANCH  39  49
ENDBRANCH  36  39
ENDBRANCH   1  35
TORSDOF 13
ENDMDL
MODEL 4
REMARK VINA RESULT: -7.593197860      1.410      2.044
REMARK  13 active torsions:
REMARK  status: ('A' for Active; 'I' for Inactive)
REMARK    1  A    between atoms: N1_2  and  C2_5 
REMARK    2  A    between atoms: C2_5  and  N2_6 
REMARK    3  A    between atoms: C2_5  and  C4_10 
REMARK    4  A    between atoms: N2_6  and  C3_8 
REMARK    5  A    between atoms: C4_10  and  O2_11 
REMARK    6  A    between atoms: C4_10  and  C5_13 
REMARK       I    between atoms: C5_13  and  N3_15 
REMARK    7  A    between atoms: N3_15  and  C6_17 
REMARK    8  A    between atoms: C7_18  and  N4_19 
REMARK    9  A    between atoms: C9_24  and  N5_25 
REMARK   10  A    between atoms: N5_25  and  C10_27 
REMARK   11  A    between atoms: C12_30  and  N7_31 
REMARK   12  A    between atoms: C13_36  and  N9_37 
REMARK   13  A    between atoms: C19_48  and  O5_49 
ROOT
HETATM    1  C6  UNL     1      -4.998 -38.268  20.804  1.00  0.00     0.170 C 
HETATM    2  C7  UNL     1      -5.246 -39.504  19.943  1.00  0.00     0.215 C 
HETATM    3  C8  UNL     1      -6.744 -39.820  20.129  1.00  0.00     0.088 C 
HETATM    4  C9  UNL     1      -7.542 -38.767  19.415  1.00  0.00     0.227 C 
HETATM    5  O4  UNL     1      -6.847 -37.529  19.443  1.00  0.00    -0.335 OA
HETATM    6  C19 UNL     1      -6.162 -37.364  20.639  1.00  0.00     0.284 C 
ENDROOT
BRANCH   4   7
HETATM    7  N5  UNL     1      -8.887 -38.603  19.881  1.00  0.00    -0.347 N 
ATOM      8  H5  UNL     1      -9.546 -38.306  19.161  1.00  0.00     0.163 HD
BRANCH   7   9
HETATM    9  C10 UNL     1      -9.456 -38.777  21.143  1.00  0.00     0.149 A 
HETATM   10  C11 UNL     1      -9.708 -39.972  21.778  1.00  0.00     0.134 A 
HETATM   11  N6  UNL     1      -9.489 -41.205  21.152  1.00  0.00    -0.094 NA
HETATM   12  C12 UNL     1     -10.241 -40.000  23.070  1.00  0.00     0.143 A 
HETATM   13  N8  UNL     1     -10.509 -38.852  23.697  1.00  0.00    -0.175 N 
HETATM   14  C13 UNL     1     -10.269 -37.652  23.090  1.00  0.00     0.685 A 
ATOM     15  H8  UNL     1     -10.896 -38.871  24.641  1.00  0.00     0.186 HD
HETATM   16  N11 UNL     1      -9.761 -37.644  21.859  1.00  0.00    -0.171 N 
HETATM   17  C18 UNL     1      -9.509 -36.339  21.236  1.00  0.00     0.177 C 
BRANCH  12  18
HETATM   18  N7  UNL     1     -10.451 -41.151  23.598  1.00  0.00    -0.383 N 
ATOM     19  H72 UNL     1     -10.608 -41.995  23.047  1.00  0.00     0.157 HD
ATOM     20  H71 UNL     1     -10.457 -41.207  24.616  1.00  0.00     0.157 HD
ENDBRANCH  12  18
BRANCH  14  21
HETATM   21  N9  UNL     1     -10.600 -36.494  23.855  1.00  0.00    -0.214 N 
HETATM   22  C14 UNL     1      -9.553 -35.941  24.684  1.00  0.00     0.168 C 
HETATM   23  C15 UNL     1     -10.098 -35.523  26.001  1.00  0.00     0.252 C 
HETATM   24  N10 UNL     1     -11.245 -34.648  25.896  1.00  0.00    -0.072 N 
HETATM   25  C16 UNL     1     -12.292 -35.188  25.094  1.00  0.00     0.252 C 
ATOM     26 2H10 UNL     1     -11.591 -34.391  26.819  1.00  0.00     0.277 HD
ATOM     27 1H10 UNL     1     -10.967 -33.726  25.558  1.00  0.00     0.277 HD
HETATM   28  C17 UNL     1     -11.886 -35.851  23.830  1.00  0.00     0.168 C 
ENDBRANCH  14  21
ENDBRANCH   7   9
ENDBRANCH   4   7
BRANCH   2  29
HETATM   29  N4  UNL     1      -4.512 -40.605  20.485  1.00  0.00    -0.073 N 
ATOM     30  H43 UNL     1      -4.334 -40.499  21.484  1.00  0.00     0.274 HD
ATOM     31  H42 UNL     1      -5.068 -41.459  20.528  1.00  0.00     0.274 HD
ATOM     32  H41 UNL     1      -3.653 -40.728  19.948  1.00  0.00     0.274 HD
ENDBRANCH   2  29
BRANCH   6  33
HETATM   33  O5  UNL     1      -5.723 -36.023  20.647  1.00  0.00    -0.369 OA
ATOM     34  H5  UNL     1      -6.153 -35.553  21.351  1.00  0.00     0.212 HD
ENDBRANCH   6  33
BRANCH   1  35
HETATM   35  N3  UNL     1      -3.710 -37.679  20.503  1.00  0.00    -0.347 N 
HETATM   36  C5  UNL     1      -2.747 -37.360  21.490  1.00  0.00     0.250 C 
HETATM   37  O3  UNL     1      -2.944 -37.566  22.724  1.00  0.00    -0.271 OA
ATOM     38  H3  UNL     1      -3.484 -37.484  19.527  1.00  0.00     0.163 HD
BRANCH  36  39
HETATM   39  C4  UNL     1      -1.438 -36.759  21.133  1.00  0.00     0.260 C 
BRANCH  39  40
HETATM   40  C2  UNL     1      -1.492 -35.885  19.909  1.00  0.00     0.323 C 
BRANCH  40  41
HETATM   41  N1  UNL     1      -0.210 -35.911  19.212  1.00  0.00    -0.055 N 
HETATM   42  C1  UNL     1      -0.187 -35.083  18.040  1.00  0.00     0.269 C 
ATOM     43  H12 UNL     1       0.061 -36.868  18.986  1.00  0.00     0.279 HD
ATOM     44  H11 UNL     1       0.552 -35.666  19.845  1.00  0.00     0.279 HD
ENDBRANCH  40  41
BRANCH  40  45
HETATM   45  N2  UNL     1      -1.685 -34.483  20.314  1.00  0.00    -0.338 N 
ATOM     46  H2  UNL     1      -0.893 -33.939  20.656  1.00  0.00     0.164 HD
BRANCH  45  47
HETATM   47  C3  UNL     1      -2.853 -33.941  20.237  1.00  0.00     0.350 C 
HETATM   48  O1  UNL     1      -4.075 -33.700  20.348  1.00  0.00    -0.284 OA
ENDBRANCH  45  47
ENDBRANCH  40  45
ENDBRANCH  39  40
BRANCH  39  49
HETATM   49  O2  UNL     1      -0.539 -37.786  20.915  1.00  0.00    -0.382 OA
ATOM     50  H2  UNL     1      -0.393 -38.249  21.732  1.00  0.00     0.210 HD
ENDBRANCH  39  49
ENDBRANCH  36  39
ENDBRANCH   1  35
TORSDOF 13
ENDMDL
MODEL 5
REMARK VINA RESULT: -7.582455050      1.803      2.488
REMARK  13 active torsions:
REMARK  status: ('A' for Active; 'I' for Inactive)
REMARK    1  A    between atoms: N1_2  and  C2_5 
REMARK    2  A    between atoms: C2_5  and  N2_6 
REMARK    3  A    between atoms: C2_5  and  C4_10 
REMARK    4  A    between atoms: N2_6  and  C3_8 
REMARK    5  A    between atoms: C4_10  and  O2_11 
REMARK    6  A    between atoms: C4_10  and  C5_13 
REMARK       I    between atoms: C5_13  and  N3_15 
REMARK    7  A    between atoms: N3_15  and  C6_17 
REMARK    8  A    between atoms: C7_18  and  N4_19 
REMARK    9  A    between atoms: C9_24  and  N5_25 
REMARK   10  A    between atoms: N5_25  and  C10_27 
REMARK   11  A    between atoms: C12_30  and  N7_31 
REMARK   12  A    between atoms: C13_36  and  N9_37 
REMARK   13  A    between atoms: C19_48  and  O5_49 
ROOT
HETATM    1  C6  UNL     1      -4.365 -37.994  20.789  1.00  0.00     0.170 C 
HETATM    2  C7  UNL     1      -4.990 -39.182  20.062  1.00  0.00     0.215 C 
HETATM    3  C8  UNL     1      -6.459 -39.204  20.532  1.00  0.00     0.088 C 
HETATM    4  C9  UNL     1      -7.172 -38.037  19.910  1.00  0.00     0.227 C 
HETATM    5  O4  UNL     1      -6.271 -36.953  19.739  1.00  0.00    -0.335 OA
HETATM    6  C19 UNL     1      -5.357 -36.890  20.781  1.00  0.00     0.284 C 
ENDROOT
BRANCH   4   7
HETATM    7  N5  UNL     1      -8.353 -37.609  20.599  1.00  0.00    -0.347 N 
ATOM      8  H5  UNL     1      -8.857 -36.852  20.136  1.00  0.00     0.163 HD
BRANCH   7   9
HETATM    9  C10 UNL     1      -8.938 -38.044  21.790  1.00  0.00     0.149 A 
HETATM   10  C11 UNL     1      -9.560 -39.251  22.012  1.00  0.00     0.134 A 
HETATM   11  N6  UNL     1      -9.759 -40.183  20.987  1.00  0.00    -0.094 NA
HETATM   12  C12 UNL     1     -10.062 -39.577  23.276  1.00  0.00     0.143 A 
HETATM   13  N8  UNL     1      -9.937 -38.706  24.280  1.00  0.00    -0.175 N 
HETATM   14  C13 UNL     1      -9.325 -37.500  24.086  1.00  0.00     0.685 A 
ATOM     15  H8  UNL     1     -10.302 -38.944  25.202  1.00  0.00     0.186 HD
HETATM   16  N11 UNL     1      -8.853 -37.206  22.876  1.00  0.00    -0.171 N 
HETATM   17  C18 UNL     1      -8.194 -35.905  22.701  1.00  0.00     0.177 C 
BRANCH  12  18
HETATM   18  N7  UNL     1     -10.632 -40.720  23.408  1.00  0.00    -0.383 N 
ATOM     19  H72 UNL     1     -11.025 -41.240  22.623  1.00  0.00     0.157 HD
ATOM     20  H71 UNL     1     -10.684 -41.112  24.347  1.00  0.00     0.157 HD
ENDBRANCH  12  18
BRANCH  14  21
HETATM   21  N9  UNL     1      -9.255 -36.650  25.230  1.00  0.00    -0.214 N 
HETATM   22  C14 UNL     1      -8.198 -36.920  26.178  1.00  0.00     0.168 C 
HETATM   23  C15 UNL     1      -8.699 -36.786  27.569  1.00  0.00     0.252 C 
HETATM   24  N10 UNL     1      -9.361 -35.525  27.820  1.00  0.00    -0.072 N 
HETATM   25  C16 UNL     1     -10.418 -35.252  26.903  1.00  0.00     0.252 C 
ATOM     26 2H10 UNL     1      -9.695 -35.476  28.782  1.00  0.00     0.277 HD
ATOM     27 1H10 UNL     1      -8.689 -34.758  27.837  1.00  0.00     0.277 HD
HETATM   28  C17 UNL     1     -10.150 -35.551  25.475  1.00  0.00     0.168 C 
ENDBRANCH  14  21
ENDBRANCH   7   9
ENDBRANCH   4   7
BRANCH   2  29
HETATM   29  N4  UNL     1      -4.380 -40.388  20.528  1.00  0.00    -0.073 N 
ATOM     30  H43 UNL     1      -4.691 -41.207  20.005  1.00  0.00     0.274 HD
ATOM     31  H42 UNL     1      -3.388 -40.437  20.295  1.00  0.00     0.274 HD
ATOM     32  H41 UNL     1      -4.548 -40.480  21.530  1.00  0.00     0.274 HD
ENDBRANCH   2  29
BRANCH   6  33
HETATM   33  O5  UNL     1      -4.688 -35.657  20.631  1.00  0.00    -0.369 OA
ATOM     34  H5  UNL     1      -5.250 -34.952  20.930  1.00  0.00     0.212 HD
ENDBRANCH   6  33
BRANCH   1  35
HETATM   35  N3  UNL     1      -3.072 -37.667  20.227  1.00  0.00    -0.347 N 
HETATM   36  C5  UNL     1      -1.945 -37.322  21.011  1.00  0.00     0.250 C 
HETATM   37  O3  UNL     1      -1.985 -37.270  22.276  1.00  0.00    -0.271 OA
ATOM     38  H3  UNL     1      -2.966 -37.688  19.213  1.00  0.00     0.163 HD
BRANCH  36  39
HETATM   39  C4  UNL     1      -0.637 -36.997  20.390  1.00  0.00     0.260 C 
BRANCH  39  40
HETATM   40  C2  UNL     1      -0.493 -35.547  20.014  1.00  0.00     0.323 C 
BRANCH  40  41
HETATM   41  N1  UNL     1       0.683 -34.972  20.660  1.00  0.00    -0.055 N 
HETATM   42  C1  UNL     1       0.974 -35.564  21.934  1.00  0.00     0.269 C 
ATOM     43  H12 UNL     1       0.591 -33.959  20.742  1.00  0.00     0.279 HD
ATOM     44  H11 UNL     1       1.494 -35.018  20.043  1.00  0.00     0.279 HD
ENDBRANCH  40  41
BRANCH  40  45
HETATM   45  N2  UNL     1      -1.637 -34.786  20.543  1.00  0.00    -0.338 N 
ATOM     46  H2  UNL     1      -2.169 -35.151  21.333  1.00  0.00     0.164 HD
BRANCH  45  47
HETATM   47  C3  UNL     1      -1.967 -33.660  20.009  1.00  0.00     0.350 C 
HETATM   48  O1  UNL     1      -2.521 -32.770  19.326  1.00  0.00    -0.284 OA
ENDBRANCH  45  47
ENDBRANCH  40  45
ENDBRANCH  39  40
BRANCH  39  49
HETATM   49  O2  UNL     1      -0.494 -37.774  19.256  1.00  0.00    -0.382 OA
ATOM     50  H2  UNL     1      -0.364 -38.679  19.514  1.00  0.00     0.210 HD
ENDBRANCH  39  49
ENDBRANCH  36  39
ENDBRANCH   1  35
TORSDOF 13
ENDMDL
