MODEL 1
REMARK VINA RESULT: -8.474287667      0.000      0.000
REMARK  13 active torsions:
REMARK  status: ('A' for Active; 'I' for Inactive)
REMARK    1  A    between atoms: N1_1  and  C1_4 
REMARK    2  A    between atoms: C2_7  and  N3_8 
REMARK    3  A    between atoms: N3_8  and  N4_9 
REMARK    4  A    between atoms: N3_8  and  C3_12 
REMARK    5  A    between atoms: C4_13  and  C5_14 
REMARK    6  A    between atoms: C5_14  and  O1_15 
REMARK    7  A    between atoms: C7_19  and  C8_20 
REMARK    8  A    between atoms: C8_20  and  S2_21 
REMARK    9  A    between atoms: S2_21  and  C9_22 
REMARK   10  A    between atoms: N8_31  and  N9_32 
REMARK   11  A    between atoms: C11_36  and  O3_37 
REMARK   12  A    between atoms: C11_36  and  C12_39 
REMARK   13  A    between atoms: C13_42  and  N10_43 
ROOT
HETATM    1  C3  UNL     1      -5.108 -37.264  20.781  1.00  0.00     0.167 C 
HETATM    2  C4  UNL     1      -4.823 -36.746  22.113  1.00  0.00     0.057 C 
HETATM    3  C6  UNL     1      -5.982 -36.074  22.826  1.00  0.00     0.132 C 
HETATM    4  S1  UNL     1      -7.304 -37.370  22.961  1.00  0.00    -0.117 SA
HETATM    5  C7  UNL     1      -7.539 -37.169  21.123  1.00  0.00     0.152 C 
HETATM    6  O2  UNL     1      -7.184 -35.897  20.829  1.00  0.00    -0.320 OA
HETATM    7  C11 UNL     1      -6.784 -35.191  21.917  1.00  0.00     0.268 C 
HETATM    8  C13 UNL     1      -6.405 -38.058  20.621  1.00  0.00     0.255 C 
ENDROOT
BRANCH   5   9
HETATM    9  C8  UNL     1      -8.879 -37.639  20.723  1.00  0.00     0.134 C 
BRANCH   9  10
HETATM   10  S2  UNL     1      -9.638 -38.579  22.035  1.00  0.00    -0.086 SA
BRANCH  10  11
HETATM   11  C9  UNL     1     -10.678 -37.601  23.084  1.00  0.00     0.198 A 
HETATM   12  N5  UNL     1     -10.839 -36.280  23.027  1.00  0.00    -0.263 N 
HETATM   13  N6  UNL     1     -11.683 -35.914  23.973  1.00  0.00    -0.129 N 
ATOM     14  H5  UNL     1     -10.385 -35.654  22.362  1.00  0.00     0.189 HD
HETATM   15  C10 UNL     1     -12.095 -37.012  24.678  1.00  0.00     0.713 A 
ATOM     16  H6  UNL     1     -11.983 -34.956  24.153  1.00  0.00     0.205 HD
HETATM   17  N7  UNL     1     -12.916 -37.048  25.670  1.00  0.00    -0.231 N 
HETATM   18  N8  UNL     1     -11.448 -38.048  24.096  1.00  0.00    -0.068 N 
ATOM     19  H72 UNL     1     -13.404 -36.268  26.109  1.00  0.00     0.174 HD
ATOM     20  H71 UNL     1     -13.223 -37.867  26.195  1.00  0.00     0.174 HD
BRANCH  18  21
HETATM   21  N9  UNL     1     -11.530 -39.386  24.450  1.00  0.00    -0.322 N 
ATOM     22  H92 UNL     1     -10.753 -40.027  24.605  1.00  0.00     0.178 HD
ATOM     23  H91 UNL     1     -12.416 -39.870  24.594  1.00  0.00     0.178 HD
ENDBRANCH  18  21
ENDBRANCH  10  11
ENDBRANCH   9  10
ENDBRANCH   5   9
BRANCH   8  24
HETATM   24  N10 UNL     1      -6.620 -38.321  19.232  1.00  0.00    -0.069 N 
ATOM     25 3H10 UNL     1      -6.766 -37.468  18.693  1.00  0.00     0.275 HD
ATOM     26 2H10 UNL     1      -5.774 -38.643  18.761  1.00  0.00     0.275 HD
ATOM     27 1H10 UNL     1      -7.393 -38.979  19.136  1.00  0.00     0.275 HD
ENDBRANCH   8  24
BRANCH   7  28
HETATM   28  O3  UNL     1      -7.990 -34.921  22.647  1.00  0.00    -0.356 OA
ATOM     29  H3  UNL     1      -8.336 -34.128  22.254  1.00  0.00     0.213 HD
ENDBRANCH   7  28
BRANCH   7  30
HETATM   30  C12 UNL     1      -6.142 -33.924  21.654  1.00  0.00     0.240 C 
HETATM   31  O4  UNL     1      -6.642 -32.842  22.089  1.00  0.00    -0.644 OA
HETATM   32  O5  UNL     1      -4.975 -33.793  20.936  1.00  0.00    -0.644 OA
ENDBRANCH   7  30
BRANCH   1  33
HETATM   33  N3  UNL     1      -4.007 -37.983  20.183  1.00  0.00    -0.121 N 
BRANCH  33  34
HETATM   34  C2  UNL     1      -2.725 -37.500  19.882  1.00  0.00     0.722 A 
HETATM   35  N2  UNL     1      -1.570 -37.923  20.445  1.00  0.00    -0.150 N 
HETATM   36  C1  UNL     1      -0.562 -37.252  19.898  1.00  0.00     0.256 A 
ATOM     37  H2  UNL     1      -1.487 -38.636  21.169  1.00  0.00     0.188 HD
HETATM   38  O6  UNL     1      -1.092 -36.443  19.026  1.00  0.00    -0.186 OA
HETATM   39  N11 UNL     1      -2.385 -36.575  19.000  1.00  0.00    -0.086 N 
ATOM     40  H11 UNL     1      -3.027 -36.054  18.402  1.00  0.00     0.214 HD
BRANCH  36  41
HETATM   41  N1  UNL     1       0.684 -37.426  20.231  1.00  0.00    -0.363 N 
ATOM     42  H12 UNL     1       1.448 -37.863  19.715  1.00  0.00     0.159 HD
ATOM     43  H11 UNL     1       1.079 -37.119  21.119  1.00  0.00     0.159 HD
ENDBRANCH  36  41
ENDBRANCH  33  34
BRANCH  33  44
HETATM   44  N4  UNL     1      -4.223 -39.359  19.861  1.00  0.00    -0.328 N 
ATOM     45  H42 UNL     1      -4.254 -40.021  20.637  1.00  0.00     0.177 HD
ATOM     46  H41 UNL     1      -4.320 -39.558  18.865  1.00  0.00     0.177 HD
ENDBRANCH  33  44
ENDBRANCH   1  33
BRANCH   2  47
HETATM   47  C5  UNL     1      -4.171 -37.658  23.123  1.00  0.00     0.172 C 
BRANCH  47  48
HETATM   48  O1  UNL     1      -2.845 -37.411  23.350  1.00  0.00    -0.400 OA
ATOM     49  H1  UNL     1      -2.656 -36.559  23.725  1.00  0.00     0.209 HD
ENDBRANCH  47  48
ENDBRANCH   2  47
TORSDOF 13
ENDMDL
MODEL 2
REMARK VINA RESULT: -8.452542092      2.168      2.862
REMARK  13 active torsions:
REMARK  status: ('A' for Active; 'I' for Inactive)
REMARK    1  A    between atoms: N1_1  and  C1_4 
REMARK    2  A    between atoms: C2_7  and  N3_8 
REMARK    3  A    between atoms: N3_8  and  N4_9 
REMARK    4  A    between atoms: N3_8  and  C3_12 
REMARK    5  A    between atoms: C4_13  and  C5_14 
REMARK    6  A    between atoms: C5_14  and  O1_15 
REMARK    7  A    between atoms: C7_19  and  C8_20 
REMARK    8  A    between atoms: C8_20  and  S2_21 
REMARK    9  A    between atoms: S2_21  and  C9_22 
REMARK   10  A    between atoms: N8_31  and  N9_32 
REMARK   11  A    between atoms: C11_36  and  O3_37 
REMARK   12  A    between atoms: C11_36  and  C12_39 
REMARK   13  A    between atoms: C13_42  and  N10_43 
ROOT
HETATM    1  C3  UNL     1      -5.127 -37.368  20.988  1.00  0.00     0.167 C 
HETATM    2  C4  UNL     1      -5.038 -36.823  22.337  1.00  0.00     0.057 C 
HETATM    3  C6  UNL     1      -6.275 -36.108  22.847  1.00  0.00     0.132 C 
HETATM    4  S1  UNL     1      -7.635 -37.371  22.803  1.00  0.00    -0.117 SA
HETATM    5  C7  UNL     1      -7.578 -37.211  20.948  1.00  0.00     0.152 C 
HETATM    6  O2  UNL     1      -7.150 -35.955  20.685  1.00  0.00    -0.320 OA
HETATM    7  C11 UNL     1      -6.905 -35.231  21.806  1.00  0.00     0.268 C 
HETATM    8  C13 UNL     1      -6.403 -38.137  20.647  1.00  0.00     0.255 C 
ENDROOT
BRANCH   5   9
HETATM    9  C8  UNL     1      -8.852 -37.661  20.356  1.00  0.00     0.134 C 
BRANCH   9  10
HETATM   10  S2  UNL     1      -9.725 -38.741  21.475  1.00  0.00    -0.086 SA
BRANCH  10  11
HETATM   11  C9  UNL     1      -9.401 -40.458  21.184  1.00  0.00     0.198 A 
HETATM   12  N5  UNL     1      -8.748 -40.974  20.143  1.00  0.00    -0.263 N 
HETATM   13  N6  UNL     1      -8.715 -42.287  20.271  1.00  0.00    -0.129 N 
ATOM     14  H5  UNL     1      -8.341 -40.442  19.374  1.00  0.00     0.189 HD
HETATM   15  C10 UNL     1      -9.360 -42.658  21.420  1.00  0.00     0.713 A 
ATOM     16  H6  UNL     1      -8.276 -42.930  19.612  1.00  0.00     0.205 HD
HETATM   17  N7  UNL     1      -9.528 -43.850  21.878  1.00  0.00    -0.231 N 
HETATM   18  N8  UNL     1      -9.775 -41.491  21.965  1.00  0.00    -0.068 N 
ATOM     19  H72 UNL     1      -9.215 -44.730  21.468  1.00  0.00     0.174 HD
ATOM     20  H71 UNL     1     -10.008 -44.126  22.734  1.00  0.00     0.174 HD
BRANCH  18  21
HETATM   21  N9  UNL     1     -10.482 -41.329  23.146  1.00  0.00    -0.322 N 
ATOM     22  H92 UNL     1     -10.402 -40.556  23.806  1.00  0.00     0.178 HD
ATOM     23  H91 UNL     1     -11.177 -41.999  23.475  1.00  0.00     0.178 HD
ENDBRANCH  18  21
ENDBRANCH  10  11
ENDBRANCH   9  10
ENDBRANCH   5   9
BRANCH   8  24
HETATM   24  N10 UNL     1      -6.408 -38.430  19.247  1.00  0.00    -0.069 N 
ATOM     25 3H10 UNL     1      -7.350 -38.444  18.855  1.00  0.00     0.275 HD
ATOM     26 2H10 UNL     1      -6.032 -37.664  18.687  1.00  0.00     0.275 HD
ATOM     27 1H10 UNL     1      -5.909 -39.306  19.090  1.00  0.00     0.275 HD
ENDBRANCH   8  24
BRANCH   7  28
HETATM   28  O3  UNL     1      -8.202 -34.917  22.335  1.00  0.00    -0.356 OA
ATOM     29  H3  UNL     1      -8.100 -34.054  22.721  1.00  0.00     0.213 HD
ENDBRANCH   7  28
BRANCH   7  30
HETATM   30  C12 UNL     1      -6.198 -33.985  21.619  1.00  0.00     0.240 C 
HETATM   31  O4  UNL     1      -6.665 -32.899  22.080  1.00  0.00    -0.644 OA
HETATM   32  O5  UNL     1      -5.000 -33.879  20.948  1.00  0.00    -0.644 OA
ENDBRANCH   7  30
BRANCH   1  33
HETATM   33  N3  UNL     1      -3.965 -38.126  20.584  1.00  0.00    -0.121 N 
BRANCH  33  34
HETATM   34  C2  UNL     1      -2.741 -37.636  20.107  1.00  0.00     0.722 A 
HETATM   35  N2  UNL     1      -1.520 -37.955  20.594  1.00  0.00    -0.150 N 
HETATM   36  C1  UNL     1      -0.598 -37.315  19.881  1.00  0.00     0.256 A 
ATOM     37  H2  UNL     1      -1.337 -38.582  21.378  1.00  0.00     0.188 HD
HETATM   38  O6  UNL     1      -1.245 -36.626  18.985  1.00  0.00    -0.186 OA
HETATM   39  N11 UNL     1      -2.527 -36.802  19.102  1.00  0.00    -0.086 N 
ATOM     40  H11 UNL     1      -3.246 -36.372  18.519  1.00  0.00     0.214 HD
BRANCH  36  41
HETATM   41  N1  UNL     1       0.680 -37.410  20.106  1.00  0.00    -0.363 N 
ATOM     42  H12 UNL     1       1.199 -38.071  20.683  1.00  0.00     0.159 HD
ATOM     43  H11 UNL     1       1.373 -36.786  19.694  1.00  0.00     0.159 HD
ENDBRANCH  36  41
ENDBRANCH  33  34
BRANCH  33  44
HETATM   44  N4  UNL     1      -4.047 -39.550  20.683  1.00  0.00    -0.328 N 
ATOM     45  H42 UNL     1      -4.362 -40.057  19.856  1.00  0.00     0.177 HD
ATOM     46  H41 UNL     1      -3.785 -39.934  21.591  1.00  0.00     0.177 HD
ENDBRANCH  33  44
ENDBRANCH   1  33
BRANCH   2  47
HETATM   47  C5  UNL     1      -4.572 -37.724  23.454  1.00  0.00     0.172 C 
BRANCH  47  48
HETATM   48  O1  UNL     1      -3.257 -37.580  23.800  1.00  0.00    -0.400 OA
ATOM     49  H1  UNL     1      -2.721 -38.353  23.664  1.00  0.00     0.209 HD
ENDBRANCH  47  48
ENDBRANCH   2  47
TORSDOF 13
ENDMDL
MODEL 3
REMARK VINA RESULT: -7.975612911      1.780      2.565
REMARK  13 active torsions:
REMARK  status: ('A' for Active; 'I' for Inactive)
REMARK    1  A    between atoms: N1_1  and  C1_4 
REMARK    2  A    between atoms: C2_7  and  N3_8 
REMARK    3  A    between atoms: N3_8  and  N4_9 
REMARK    4  A    between atoms: N3_8  and  C3_12 
REMARK    5  A    between atoms: C4_13  and  C5_14 
REMARK    6  A    between atoms: C5_14  and  O1_15 
REMARK    7  A    between atoms: C7_19  and  C8_20 
REMARK    8  A    between atoms: C8_20  and  S2_21 
REMARK    9  A    between atoms: S2_21  and  C9_22 
REMARK   10  A    between atoms: N8_31  and  N9_32 
REMARK   11  A    between atoms: C11_36  and  O3_37 
REMARK   12  A    between atoms: C11_36  and  C12_39 
REMARK   13  A    between atoms: C13_42  and  N10_43 
ROOT
HETATM    1  C3  UNL     1      -5.083 -37.217  20.797  1.00  0.00     0.167 C 
HETATM    2  C4  UNL     1      -4.794 -36.690  22.124  1.00  0.00     0.057 C 
HETATM    3  C6  UNL     1      -5.946 -35.999  22.830  1.00  0.00     0.132 C 
HETATM    4  S1  UNL     1      -7.282 -37.280  22.975  1.00  0.00    -0.117 SA
HETATM    5  C7  UNL     1      -7.513 -37.094  21.136  1.00  0.00     0.152 C 
HETATM    6  O2  UNL     1      -7.145 -35.829  20.831  1.00  0.00    -0.320 OA
HETATM    7  C11 UNL     1      -6.738 -35.117  21.912  1.00  0.00     0.268 C 
HETATM    8  C13 UNL     1      -6.387 -38.000  20.644  1.00  0.00     0.255 C 
ENDROOT
BRANCH   5   9
HETATM    9  C8  UNL     1      -8.857 -37.554  20.740  1.00  0.00     0.134 C 
BRANCH   9  10
HETATM   10  S2  UNL     1      -9.793 -38.078  22.164  1.00  0.00    -0.086 SA
BRANCH  10  11
HETATM   11  C9  UNL     1     -10.003 -39.835  22.254  1.00  0.00     0.198 A 
HETATM   12  N5  UNL     1     -10.466 -40.523  23.296  1.00  0.00    -0.263 N 
HETATM   13  N6  UNL     1     -10.468 -41.807  22.990  1.00  0.00    -0.129 N 
ATOM     14  H5  UNL     1     -10.769 -40.124  24.184  1.00  0.00     0.189 HD
HETATM   15  C10 UNL     1      -9.996 -41.982  21.718  1.00  0.00     0.713 A 
ATOM     16  H6  UNL     1     -10.775 -42.557  23.610  1.00  0.00     0.205 HD
HETATM   17  N7  UNL     1      -9.855 -43.090  21.076  1.00  0.00    -0.231 N 
HETATM   18  N8  UNL     1      -9.715 -40.730  21.288  1.00  0.00    -0.068 N 
ATOM     19  H72 UNL     1     -10.067 -44.033  21.400  1.00  0.00     0.174 HD
ATOM     20  H71 UNL     1      -9.503 -43.219  20.128  1.00  0.00     0.174 HD
BRANCH  18  21
HETATM   21  N9  UNL     1      -9.206 -40.370  20.050  1.00  0.00    -0.322 N 
ATOM     22  H92 UNL     1      -8.231 -40.177  19.822  1.00  0.00     0.178 HD
ATOM     23  H91 UNL     1      -9.787 -40.260  19.220  1.00  0.00     0.178 HD
ENDBRANCH  18  21
ENDBRANCH  10  11
ENDBRANCH   9  10
ENDBRANCH   5   9
BRANCH   8  24
HETATM   24  N10 UNL     1      -6.604 -38.273  19.257  1.00  0.00    -0.069 N 
ATOM     25 3H10 UNL     1      -5.731 -38.403  18.745  1.00  0.00     0.275 HD
ATOM     26 2H10 UNL     1      -7.000 -39.201  19.100  1.00  0.00     0.275 HD
ATOM     27 1H10 UNL     1      -7.181 -37.532  18.859  1.00  0.00     0.275 HD
ENDBRANCH   8  24
BRANCH   7  28
HETATM   28  O3  UNL     1      -7.942 -34.828  22.638  1.00  0.00    -0.356 OA
ATOM     29  H3  UNL     1      -8.602 -35.383  22.240  1.00  0.00     0.213 HD
ENDBRANCH   7  28
BRANCH   7  30
HETATM   30  C12 UNL     1      -6.083 -33.859  21.637  1.00  0.00     0.240 C 
HETATM   31  O4  UNL     1      -6.571 -32.767  22.063  1.00  0.00    -0.644 OA
HETATM   32  O5  UNL     1      -4.915 -33.746  20.918  1.00  0.00    -0.644 OA
ENDBRANCH   7  30
BRANCH   1  33
HETATM   33  N3  UNL     1      -3.988 -37.953  20.207  1.00  0.00    -0.121 N 
BRANCH  33  34
HETATM   34  C2  UNL     1      -2.706 -37.483  19.891  1.00  0.00     0.722 A 
HETATM   35  N2  UNL     1      -1.550 -37.903  20.456  1.00  0.00    -0.150 N 
HETATM   36  C1  UNL     1      -0.540 -37.247  19.892  1.00  0.00     0.256 A 
ATOM     37  H2  UNL     1      -1.468 -38.605  21.191  1.00  0.00     0.188 HD
HETATM   38  O6  UNL     1      -1.071 -36.451  19.009  1.00  0.00    -0.186 OA
HETATM   39  N11 UNL     1      -2.364 -36.575  18.991  1.00  0.00    -0.086 N 
ATOM     40  H11 UNL     1      -3.007 -36.061  18.388  1.00  0.00     0.214 HD
BRANCH  36  41
HETATM   41  N1  UNL     1       0.706 -37.424  20.222  1.00  0.00    -0.363 N 
ATOM     42  H12 UNL     1       1.180 -38.253  20.580  1.00  0.00     0.159 HD
ATOM     43  H11 UNL     1       1.416 -36.696  20.154  1.00  0.00     0.159 HD
ENDBRANCH  36  41
ENDBRANCH  33  34
BRANCH  33  44
HETATM   44  N4  UNL     1      -4.214 -39.334  19.910  1.00  0.00    -0.328 N 
ATOM     45  H42 UNL     1      -5.182 -39.657  19.902  1.00  0.00     0.177 HD
ATOM     46  H41 UNL     1      -3.370 -39.881  19.738  1.00  0.00     0.177 HD
ENDBRANCH  33  44
ENDBRANCH   1  33
BRANCH   2  47
HETATM   47  C5  UNL     1      -4.151 -37.599  23.143  1.00  0.00     0.172 C 
BRANCH  47  48
HETATM   48  O1  UNL     1      -2.817 -37.382  23.348  1.00  0.00    -0.400 OA
ATOM     49  H1  UNL     1      -2.419 -37.935  24.010  1.00  0.00     0.209 HD
ENDBRANCH  47  48
ENDBRANCH   2  47
TORSDOF 13
ENDMDL
MODEL 4
REMARK VINA RESULT: -7.763242675      3.336      4.217
REMARK  13 active torsions:
REMARK  status: ('A' for Active; 'I' for Inactive)
REMARK    1  A    between atoms: N1_1  and  C1_4 
REMARK    2  A    between atoms: C2_7  and  N3_8 
REMARK    3  A    between atoms: N3_8  and  N4_9 
REMARK    4  A    between atoms: N3_8  and  C3_12 
REMARK    5  A    between atoms: C4_13  and  C5_14 
REMARK    6  A    between atoms: C5_14  and  O1_15 
REMARK    7  A    between atoms: C7_19  and  C8_20 
REMARK    8  A    between atoms: C8_20  and  S2_21 
REMARK    9  A    between atoms: S2_21  and  C9_22 
REMARK   10  A    between atoms: N8_31  and  N9_32 
REMARK   11  A    between atoms: C11_36  and  O3_37 
REMARK   12  A    between atoms: C11_36  and  C12_39 
REMARK   13  A    between atoms: C13_42  and  N10_43 
ROOT
HETATM    1  C3  UNL     1      -4.818 -36.824  21.012  1.00  0.00     0.167 C 
HETATM    2  C4  UNL     1      -4.821 -36.112  22.283  1.00  0.00     0.057 C 
HETATM    3  C6  UNL     1      -6.187 -35.799  22.866  1.00  0.00     0.132 C 
HETATM    4  S1  UNL     1      -7.016 -37.443  23.103  1.00  0.00    -0.117 SA
HETATM    5  C7  UNL     1      -7.164 -37.516  21.247  1.00  0.00     0.152 C 
HETATM    6  O2  UNL     1      -7.226 -36.234  20.818  1.00  0.00    -0.320 OA
HETATM    7  C11 UNL     1      -7.163 -35.331  21.828  1.00  0.00     0.268 C 
HETATM    8  C13 UNL     1      -5.766 -38.019  20.898  1.00  0.00     0.255 C 
ENDROOT
BRANCH   5   9
HETATM    9  C8  UNL     1      -8.241 -38.445  20.855  1.00  0.00     0.134 C 
BRANCH   9  10
HETATM   10  S2  UNL     1      -8.058 -40.013  21.683  1.00  0.00    -0.086 SA
BRANCH  10  11
HETATM   11  C9  UNL     1      -7.499 -41.308  20.610  1.00  0.00     0.198 A 
HETATM   12  N5  UNL     1      -8.220 -41.927  19.677  1.00  0.00    -0.263 N 
HETATM   13  N6  UNL     1      -7.464 -42.837  19.091  1.00  0.00    -0.129 N 
ATOM     14  H5  UNL     1      -9.195 -41.731  19.451  1.00  0.00     0.189 HD
HETATM   15  C10 UNL     1      -6.212 -42.827  19.644  1.00  0.00     0.713 A 
ATOM     16  H6  UNL     1      -7.768 -43.456  18.339  1.00  0.00     0.205 HD
HETATM   17  N7  UNL     1      -5.208 -43.571  19.332  1.00  0.00    -0.231 N 
HETATM   18  N8  UNL     1      -6.270 -41.861  20.589  1.00  0.00    -0.068 N 
ATOM     19  H72 UNL     1      -5.165 -44.299  18.619  1.00  0.00     0.174 HD
ATOM     20  H71 UNL     1      -4.276 -43.563  19.744  1.00  0.00     0.174 HD
BRANCH  18  21
HETATM   21  N9  UNL     1      -5.246 -41.462  21.435  1.00  0.00    -0.322 N 
ATOM     22  H92 UNL     1      -4.864 -40.522  21.531  1.00  0.00     0.178 HD
ATOM     23  H91 UNL     1      -4.763 -42.102  22.064  1.00  0.00     0.178 HD
ENDBRANCH  18  21
ENDBRANCH  10  11
ENDBRANCH   9  10
ENDBRANCH   5   9
BRANCH   8  24
HETATM   24  N10 UNL     1      -5.777 -38.475  19.543  1.00  0.00    -0.069 N 
ATOM     25 3H10 UNL     1      -6.689 -38.832  19.260  1.00  0.00     0.275 HD
ATOM     26 2H10 UNL     1      -5.710 -37.708  18.873  1.00  0.00     0.275 HD
ATOM     27 1H10 UNL     1      -5.035 -39.164  19.420  1.00  0.00     0.275 HD
ENDBRANCH   8  24
BRANCH   7  28
HETATM   28  O3  UNL     1      -8.443 -35.410  22.474  1.00  0.00    -0.356 OA
ATOM     29  H3  UNL     1      -8.686 -36.326  22.414  1.00  0.00     0.213 HD
ENDBRANCH   7  28
BRANCH   7  30
HETATM   30  C12 UNL     1      -6.956 -33.955  21.441  1.00  0.00     0.240 C 
HETATM   31  O4  UNL     1      -6.984 -33.614  20.219  1.00  0.00    -0.644 OA
HETATM   32  O5  UNL     1      -6.720 -32.936  22.337  1.00  0.00    -0.644 OA
ENDBRANCH   7  30
BRANCH   1  33
HETATM   33  N3  UNL     1      -3.500 -37.189  20.546  1.00  0.00    -0.121 N 
BRANCH  33  34
HETATM   34  C2  UNL     1      -2.593 -36.399  19.826  1.00  0.00     0.722 A 
HETATM   35  N2  UNL     1      -1.931 -35.321  20.305  1.00  0.00    -0.150 N 
HETATM   36  C1  UNL     1      -1.148 -34.842  19.343  1.00  0.00     0.256 A 
ATOM     37  H2  UNL     1      -2.017 -34.940  21.247  1.00  0.00     0.188 HD
HETATM   38  O6  UNL     1      -1.331 -35.611  18.308  1.00  0.00    -0.186 OA
HETATM   39  N11 UNL     1      -2.192 -36.548  18.574  1.00  0.00    -0.086 N 
ATOM     40  H11 UNL     1      -2.504 -37.274  17.928  1.00  0.00     0.214 HD
BRANCH  36  41
HETATM   41  N1  UNL     1      -0.382 -33.800  19.490  1.00  0.00    -0.363 N 
ATOM     42  H12 UNL     1      -0.547 -32.824  19.247  1.00  0.00     0.159 HD
ATOM     43  H11 UNL     1       0.549 -33.839  19.903  1.00  0.00     0.159 HD
ENDBRANCH  36  41
ENDBRANCH  33  34
BRANCH  33  44
HETATM   44  N4  UNL     1      -3.038 -38.506  20.856  1.00  0.00    -0.328 N 
ATOM     45  H42 UNL     1      -2.407 -38.604  21.651  1.00  0.00     0.177 HD
ATOM     46  H41 UNL     1      -3.384 -39.240  20.237  1.00  0.00     0.177 HD
ENDBRANCH  33  44
ENDBRANCH   1  33
BRANCH   2  47
HETATM   47  C5  UNL     1      -3.984 -36.647  23.418  1.00  0.00     0.172 C 
BRANCH  47  48
HETATM   48  O1  UNL     1      -2.639 -36.433  23.292  1.00  0.00    -0.400 OA
ATOM     49  H1  UNL     1      -2.132 -36.605  24.076  1.00  0.00     0.209 HD
ENDBRANCH  47  48
ENDBRANCH   2  47
TORSDOF 13
ENDMDL
MODEL 5
REMARK VINA RESULT: -7.748314440      3.811      5.113
REMARK  13 active torsions:
REMARK  status: ('A' for Active; 'I' for Inactive)
REMARK    1  A    between atoms: N1_1  and  C1_4 
REMARK    2  A    between atoms: C2_7  and  N3_8 
REMARK    3  A    between atoms: N3_8  and  N4_9 
REMARK    4  A    between atoms: N3_8  and  C3_12 
REMARK    5  A    between atoms: C4_13  and  C5_14 
REMARK    6  A    between atoms: C5_14  and  O1_15 
REMARK    7  A    between atoms: C7_19  and  C8_20 
REMARK    8  A    between atoms: C8_20  and  S2_21 
REMARK    9  A    between atoms: S2_21  and  C9_22 
REMARK   10  A    between atoms: N8_31  and  N9_32 
REMARK   11  A    between atoms: C11_36  and  O3_37 
REMARK   12  A    between atoms: C11_36  and  C12_39 
REMARK   13  A    between atoms: C13_42  and  N10_43 
ROOT
HETATM    1  C3  UNL     1      -3.008 -36.478  21.333  1.00  0.00     0.167 C 
HETATM    2  C4  UNL     1      -3.479 -36.082  22.653  1.00  0.00     0.057 C 
HETATM    3  C6  UNL     1      -4.958 -36.296  22.922  1.00  0.00     0.132 C 
HETATM    4  S1  UNL     1      -5.245 -38.117  22.708  1.00  0.00    -0.117 SA
HETATM    5  C7  UNL     1      -5.008 -37.832  20.882  1.00  0.00     0.152 C 
HETATM    6  O2  UNL     1      -5.395 -36.558  20.641  1.00  0.00    -0.320 OA
HETATM    7  C11 UNL     1      -5.817 -35.910  21.756  1.00  0.00     0.268 C 
HETATM    8  C13 UNL     1      -3.483 -37.837  20.818  1.00  0.00     0.255 C 
ENDROOT
BRANCH   5   9
HETATM    9  C8  UNL     1      -5.636 -38.919  20.108  1.00  0.00     0.134 C 
BRANCH   9  10
HETATM   10  S2  UNL     1      -5.337 -40.500  20.878  1.00  0.00    -0.086 SA
BRANCH  10  11
HETATM   11  C9  UNL     1      -5.621 -41.870  19.792  1.00  0.00     0.198 A 
HETATM   12  N5  UNL     1      -4.699 -42.708  19.320  1.00  0.00    -0.263 N 
HETATM   13  N6  UNL     1      -5.289 -43.591  18.536  1.00  0.00    -0.129 N 
ATOM     14  H5  UNL     1      -3.701 -42.673  19.529  1.00  0.00     0.189 HD
HETATM   15  C10 UNL     1      -6.633 -43.339  18.483  1.00  0.00     0.713 A 
ATOM     16  H6  UNL     1      -4.814 -44.348  18.045  1.00  0.00     0.205 HD
HETATM   17  N7  UNL     1      -7.530 -43.988  17.824  1.00  0.00    -0.231 N 
HETATM   18  N8  UNL     1      -6.805 -42.258  19.277  1.00  0.00    -0.068 N 
ATOM     19  H72 UNL     1      -7.401 -44.803  17.225  1.00  0.00     0.174 HD
ATOM     20  H71 UNL     1      -8.531 -43.800  17.784  1.00  0.00     0.174 HD
BRANCH  18  21
HETATM   21  N9  UNL     1      -7.998 -41.609  19.554  1.00  0.00    -0.322 N 
ATOM     22  H92 UNL     1      -8.149 -40.602  19.609  1.00  0.00     0.178 HD
ATOM     23  H91 UNL     1      -8.872 -42.103  19.734  1.00  0.00     0.178 HD
ENDBRANCH  18  21
ENDBRANCH  10  11
ENDBRANCH   9  10
ENDBRANCH   5   9
BRANCH   8  24
HETATM   24  N10 UNL     1      -3.091 -37.979  19.450  1.00  0.00    -0.069 N 
ATOM     25 3H10 UNL     1      -2.141 -38.339  19.353  1.00  0.00     0.275 HD
ATOM     26 2H10 UNL     1      -3.581 -38.741  18.981  1.00  0.00     0.275 HD
ATOM     27 1H10 UNL     1      -3.217 -37.085  18.975  1.00  0.00     0.275 HD
ENDBRANCH   8  24
BRANCH   7  28
HETATM   28  O3  UNL     1      -7.102 -36.479  22.050  1.00  0.00    -0.356 OA
ATOM     29  H3  UNL     1      -7.673 -35.730  22.175  1.00  0.00     0.213 HD
ENDBRANCH   7  28
BRANCH   7  30
HETATM   30  C12 UNL     1      -5.993 -34.481  21.635  1.00  0.00     0.240 C 
HETATM   31  O4  UNL     1      -5.121 -33.769  21.048  1.00  0.00    -0.644 OA
HETATM   32  O5  UNL     1      -7.083 -33.800  22.128  1.00  0.00    -0.644 OA
ENDBRANCH   7  30
BRANCH   1  33
HETATM   33  N3  UNL     1      -1.579 -36.351  21.157  1.00  0.00    -0.121 N 
BRANCH  33  34
HETATM   34  C2  UNL     1      -0.851 -35.197  20.832  1.00  0.00     0.722 A 
HETATM   35  N2  UNL     1       0.486 -35.044  20.966  1.00  0.00    -0.150 N 
HETATM   36  C1  UNL     1       0.819 -33.830  20.540  1.00  0.00     0.256 A 
ATOM     37  H2  UNL     1       1.131 -35.744  21.333  1.00  0.00     0.188 HD
HETATM   38  O6  UNL     1      -0.289 -33.262  20.157  1.00  0.00    -0.186 OA
HETATM   39  N11 UNL     1      -1.300 -34.061  20.323  1.00  0.00    -0.086 N 
ATOM     40  H11 UNL     1      -2.273 -33.850  20.100  1.00  0.00     0.214 HD
BRANCH  36  41
HETATM   41  N1  UNL     1       2.038 -33.374  20.544  1.00  0.00    -0.363 N 
ATOM     42  H12 UNL     1       2.891 -33.782  20.926  1.00  0.00     0.159 HD
ATOM     43  H11 UNL     1       2.308 -32.483  20.129  1.00  0.00     0.159 HD
ENDBRANCH  36  41
ENDBRANCH  33  34
BRANCH  33  44
HETATM   44  N4  UNL     1      -0.791 -37.529  21.343  1.00  0.00    -0.328 N 
ATOM     45  H42 UNL     1      -0.740 -38.184  20.563  1.00  0.00     0.177 HD
ATOM     46  H41 UNL     1      -0.349 -37.611  22.260  1.00  0.00     0.177 HD
ENDBRANCH  33  44
ENDBRANCH   1  33
BRANCH   2  47
HETATM   47  C5  UNL     1      -2.745 -36.591  23.869  1.00  0.00     0.172 C 
BRANCH  47  48
HETATM   48  O1  UNL     1      -3.178 -36.077  25.060  1.00  0.00    -0.400 OA
ATOM     49  H1  UNL     1      -2.536 -36.093  25.760  1.00  0.00     0.209 HD
ENDBRANCH  47  48
ENDBRANCH   2  47
TORSDOF 13
ENDMDL
