MODEL 1
REMARK VINA RESULT: -8.839189220      0.000      0.000
REMARK  13 active torsions:
REMARK  status: ('A' for Active; 'I' for Inactive)
REMARK    1  A    between atoms: O1_2  and  C2_3 
REMARK    2  A    between atoms: C2_3  and  C3_5 
REMARK    3  A    between atoms: C3_5  and  C4_6 
REMARK    4  A    between atoms: C3_5  and  N1_11 
REMARK    5  A    between atoms: C4_6  and  C5_7 
REMARK    6  A    between atoms: C5_7  and  O3_9 
REMARK       I    between atoms: N1_11  and  C7_13 
REMARK    7  A    between atoms: C7_13  and  C8_15 
REMARK    8  A    between atoms: C9_18  and  N3_19 
REMARK    9  A    between atoms: C10_23  and  C11_24 
REMARK   10  A    between atoms: C11_24  and  O5_26 
REMARK   11  A    between atoms: C11_24  and  N6_28 
REMARK   12  A    between atoms: C14_32  and  N8_33 
REMARK   13  A    between atoms: C16_40  and  N11_41 
ROOT
HETATM    1  C8  UNL     1      -0.805 -35.457  20.662  1.00  0.00     0.144 A 
HETATM    2  N2  UNL     1      -1.952 -35.756  21.340  1.00  0.00    -0.331 N 
ATOM      3  H2  UNL     1      -2.227 -35.161  22.122  1.00  0.00     0.168 HD
HETATM    4  C9  UNL     1      -2.733 -36.801  21.020  1.00  0.00     0.172 A 
HETATM    5  C16 UNL     1      -2.315 -37.578  19.953  1.00  0.00     0.147 A 
HETATM    6  N12 UNL     1      -1.180 -37.291  19.273  1.00  0.00    -0.326 N 
ATOM      7  H12 UNL     1      -0.904 -37.885  18.491  1.00  0.00     0.168 HD
HETATM    8  C17 UNL     1      -0.410 -36.243  19.604  1.00  0.00     0.150 A 
HETATM    9  N13 UNL     1       0.790 -35.931  18.894  1.00  0.00    -0.080 NA
ENDROOT
BRANCH   4  10
HETATM   10  N3  UNL     1      -3.932 -37.128  21.715  1.00  0.00    -0.204 N 
HETATM   11  N4  UNL     1      -4.138 -38.091  22.621  1.00  0.00    -0.012 NA
HETATM   12  N5  UNL     1      -5.400 -38.064  23.032  1.00  0.00    -0.280 N 
HETATM   13  C10 UNL     1      -6.056 -37.073  22.402  1.00  0.00     0.123 A 
ATOM     14  H5  UNL     1      -5.809 -38.696  23.720  1.00  0.00     0.184 HD
HETATM   15  C15 UNL     1      -5.112 -36.500  21.580  1.00  0.00     0.167 A 
HETATM   16  N10 UNL     1      -5.367 -35.402  20.718  1.00  0.00    -0.079 NA
BRANCH  13  17
HETATM   17  C11 UNL     1      -7.472 -36.726  22.590  1.00  0.00     0.197 C 
HETATM   18  C12 UNL     1      -7.909 -36.841  24.034  1.00  0.00     0.080 C 
BRANCH  17  19
HETATM   19  O5  UNL     1      -7.650 -35.420  22.125  1.00  0.00    -0.364 OA
ATOM     20  H5  UNL     1      -7.901 -34.884  22.869  1.00  0.00     0.213 HD
ENDBRANCH  17  19
BRANCH  17  21
HETATM   21  N6  UNL     1      -8.314 -37.615  21.802  1.00  0.00    -0.232 N 
HETATM   22  C13 UNL     1      -8.457 -38.941  21.969  1.00  0.00     0.222 A 
HETATM   23  N7  UNL     1      -9.321 -39.385  21.042  1.00  0.00    -0.185 N 
HETATM   24  C14 UNL     1      -9.713 -38.334  20.297  1.00  0.00     0.691 A 
ATOM     25  H7  UNL     1      -9.627 -40.351  20.922  1.00  0.00     0.185 HD
HETATM   26  N9  UNL     1      -9.079 -37.264  20.789  1.00  0.00    -0.126 N 
ATOM     27  H9  UNL     1      -9.175 -36.313  20.431  1.00  0.00     0.206 HD
BRANCH  24  28
HETATM   28  N8  UNL     1     -10.549 -38.379  19.301  1.00  0.00    -0.233 N 
ATOM     29  H82 UNL     1     -11.503 -38.019  19.268  1.00  0.00     0.174 HD
ATOM     30  H81 UNL     1     -10.364 -38.794  18.388  1.00  0.00     0.174 HD
ENDBRANCH  24  28
ENDBRANCH  17  21
ENDBRANCH  13  17
ENDBRANCH   4  10
BRANCH   5  31
HETATM   31  N11 UNL     1      -3.062 -38.586  19.640  1.00  0.00    -0.382 N 
ATOM     32 2H11 UNL     1      -2.757 -39.298  18.975  1.00  0.00     0.157 HD
ATOM     33 1H11 UNL     1      -3.976 -38.637  20.090  1.00  0.00     0.157 HD
ENDBRANCH   5  31
BRANCH   1  34
HETATM   34  C7  UNL     1       0.012 -34.313  21.040  1.00  0.00     0.272 C 
HETATM   35  N1  UNL     1       1.194 -34.543  21.772  1.00  0.00    -0.342 N 
ATOM     36  H1  UNL     1       1.447 -35.500  22.018  1.00  0.00     0.163 HD
HETATM   37  O4  UNL     1      -0.369 -33.158  20.699  1.00  0.00    -0.266 OA
BRANCH  35  38
HETATM   38  C3  UNL     1       2.082 -33.427  22.194  1.00  0.00     0.187 C 
BRANCH  38  39
HETATM   39  C2  UNL     1       2.596 -32.865  20.947  1.00  0.00     0.281 C 
HETATM   40  O2  UNL     1       3.013 -33.566  19.981  1.00  0.00    -0.263 OA
BRANCH  39  41
HETATM   41  O1  UNL     1       2.629 -31.472  20.795  1.00  0.00    -0.325 OA
HETATM   42  C1  UNL     1       3.000 -30.620  21.865  1.00  0.00     0.213 C 
ENDBRANCH  39  41
ENDBRANCH  38  39
BRANCH  38  43
HETATM   43  C4  UNL     1       3.118 -34.086  23.030  1.00  0.00     0.066 C 
BRANCH  43  44
HETATM   44  C5  UNL     1       3.255 -35.543  23.080  1.00  0.00     0.116 C 
HETATM   45  C6  UNL     1       2.116 -36.282  23.648  1.00  0.00     0.039 C 
BRANCH  44  46
HETATM   46  O3  UNL     1       3.573 -35.998  21.765  1.00  0.00    -0.396 OA
ATOM     47  H3  UNL     1       3.996 -36.845  21.844  1.00  0.00     0.210 HD
ENDBRANCH  44  46
ENDBRANCH  43  44
ENDBRANCH  38  43
ENDBRANCH  35  38
ENDBRANCH   1  34
TORSDOF 13
ENDMDL
MODEL 2
REMARK VINA RESULT: -8.755018704      2.403      9.337
REMARK  13 active torsions:
REMARK  status: ('A' for Active; 'I' for Inactive)
REMARK    1  A    between atoms: O1_2  and  C2_3 
REMARK    2  A    between atoms: C2_3  and  C3_5 
REMARK    3  A    between atoms: C3_5  and  C4_6 
REMARK    4  A    between atoms: C3_5  and  N1_11 
REMARK    5  A    between atoms: C4_6  and  C5_7 
REMARK    6  A    between atoms: C5_7  and  O3_9 
REMARK       I    between atoms: N1_11  and  C7_13 
REMARK    7  A    between atoms: C7_13  and  C8_15 
REMARK    8  A    between atoms: C9_18  and  N3_19 
REMARK    9  A    between atoms: C10_23  and  C11_24 
REMARK   10  A    between atoms: C11_24  and  O5_26 
REMARK   11  A    between atoms: C11_24  and  N6_28 
REMARK   12  A    between atoms: C14_32  and  N8_33 
REMARK   13  A    between atoms: C16_40  and  N11_41 
ROOT
HETATM    1  C8  UNL     1      -4.384 -38.380  21.678  1.00  0.00     0.144 A 
HETATM    2  N2  UNL     1      -3.462 -37.687  20.949  1.00  0.00    -0.331 N 
ATOM      3  H2  UNL     1      -3.789 -37.082  20.195  1.00  0.00     0.168 HD
HETATM    4  C9  UNL     1      -2.141 -37.769  21.183  1.00  0.00     0.172 A 
HETATM    5  C16 UNL     1      -1.749 -38.605  22.215  1.00  0.00     0.147 A 
HETATM    6  N12 UNL     1      -2.656 -39.297  22.945  1.00  0.00    -0.326 N 
ATOM      7  H12 UNL     1      -2.331 -39.902  23.699  1.00  0.00     0.168 HD
HETATM    8  C17 UNL     1      -3.972 -39.204  22.700  1.00  0.00     0.150 A 
HETATM    9  N13 UNL     1      -4.937 -39.931  23.464  1.00  0.00    -0.080 NA
ENDROOT
BRANCH   4  10
HETATM   10  N3  UNL     1      -1.165 -37.053  20.433  1.00  0.00    -0.204 N 
HETATM   11  N4  UNL     1      -0.162 -37.535  19.690  1.00  0.00    -0.012 NA
HETATM   12  N5  UNL     1       0.524 -36.534  19.151  1.00  0.00    -0.280 N 
HETATM   13  C10 UNL     1      -0.018 -35.363  19.531  1.00  0.00     0.123 A 
ATOM     14  H5  UNL     1       1.336 -36.637  18.542  1.00  0.00     0.184 HD
HETATM   15  C15 UNL     1      -1.077 -35.716  20.336  1.00  0.00     0.167 A 
HETATM   16  N10 UNL     1      -1.943 -34.785  20.967  1.00  0.00    -0.079 NA
BRANCH  13  17
HETATM   17  C11 UNL     1       0.461 -34.029  19.140  1.00  0.00     0.197 C 
HETATM   18  C12 UNL     1       1.265 -34.055  17.859  1.00  0.00     0.080 C 
BRANCH  17  19
HETATM   19  O5  UNL     1      -0.658 -33.205  19.001  1.00  0.00    -0.364 OA
ATOM     20  H5  UNL     1      -0.567 -32.491  19.621  1.00  0.00     0.213 HD
ENDBRANCH  17  19
BRANCH  17  21
HETATM   21  N6  UNL     1       1.313 -33.478  20.185  1.00  0.00    -0.232 N 
HETATM   22  C13 UNL     1       2.618 -33.176  20.079  1.00  0.00     0.222 A 
HETATM   23  N7  UNL     1       3.030 -32.693  21.263  1.00  0.00    -0.185 N 
HETATM   24  C14 UNL     1       1.979 -32.698  22.105  1.00  0.00     0.691 A 
ATOM     25  H7  UNL     1       3.974 -32.378  21.486  1.00  0.00     0.185 HD
HETATM   26  N9  UNL     1       0.942 -33.183  21.415  1.00  0.00    -0.126 N 
ATOM     27  H9  UNL     1      -0.001 -33.307  21.786  1.00  0.00     0.206 HD
BRANCH  24  28
HETATM   28  N8  UNL     1       1.997 -32.299  23.343  1.00  0.00    -0.233 N 
ATOM     29  H82 UNL     1       2.502 -32.713  24.126  1.00  0.00     0.174 HD
ATOM     30  H81 UNL     1       1.492 -31.495  23.717  1.00  0.00     0.174 HD
ENDBRANCH  24  28
ENDBRANCH  17  21
ENDBRANCH  13  17
ENDBRANCH   4  10
BRANCH   5  31
HETATM   31  N11 UNL     1      -0.480 -38.688  22.445  1.00  0.00    -0.382 N 
ATOM     32 2H11 UNL     1       0.210 -38.610  21.697  1.00  0.00     0.157 HD
ATOM     33 1H11 UNL     1      -0.198 -38.838  23.414  1.00  0.00     0.157 HD
ENDBRANCH   5  31
BRANCH   1  34
HETATM   34  C7  UNL     1      -5.807 -38.262  21.393  1.00  0.00     0.272 C 
HETATM   35  N1  UNL     1      -6.638 -37.654  22.353  1.00  0.00    -0.342 N 
ATOM     36  H1  UNL     1      -6.226 -37.312  23.222  1.00  0.00     0.163 HD
HETATM   37  O4  UNL     1      -6.243 -38.711  20.295  1.00  0.00    -0.266 OA
BRANCH  35  38
HETATM   38  C3  UNL     1      -8.102 -37.496  22.135  1.00  0.00     0.187 C 
BRANCH  38  39
HETATM   39  C2  UNL     1      -8.255 -36.149  21.589  1.00  0.00     0.281 C 
HETATM   40  O2  UNL     1      -9.099 -35.844  20.698  1.00  0.00    -0.263 OA
BRANCH  39  41
HETATM   41  O1  UNL     1      -7.433 -35.124  22.076  1.00  0.00    -0.325 OA
HETATM   42  C1  UNL     1      -6.486 -34.477  21.244  1.00  0.00     0.213 C 
ENDBRANCH  39  41
ENDBRANCH  38  39
BRANCH  38  43
HETATM   43  C4  UNL     1      -8.690 -37.669  23.487  1.00  0.00     0.066 C 
BRANCH  43  44
HETATM   44  C5  UNL     1      -9.697 -36.744  24.013  1.00  0.00     0.116 C 
HETATM   45  C6  UNL     1     -10.828 -37.354  24.728  1.00  0.00     0.039 C 
BRANCH  44  46
HETATM   46  O3  UNL     1      -9.025 -35.777  24.819  1.00  0.00    -0.396 OA
ATOM     47  H3  UNL     1      -9.681 -35.193  25.181  1.00  0.00     0.210 HD
ENDBRANCH  44  46
ENDBRANCH  43  44
ENDBRANCH  38  43
ENDBRANCH  35  38
ENDBRANCH   1  34
TORSDOF 13
ENDMDL
MODEL 3
REMARK VINA RESULT: -8.590415852      2.112      9.772
REMARK  13 active torsions:
REMARK  status: ('A' for Active; 'I' for Inactive)
REMARK    1  A    between atoms: O1_2  and  C2_3 
REMARK    2  A    between atoms: C2_3  and  C3_5 
REMARK    3  A    between atoms: C3_5  and  C4_6 
REMARK    4  A    between atoms: C3_5  and  N1_11 
REMARK    5  A    between atoms: C4_6  and  C5_7 
REMARK    6  A    between atoms: C5_7  and  O3_9 
REMARK       I    between atoms: N1_11  and  C7_13 
REMARK    7  A    between atoms: C7_13  and  C8_15 
REMARK    8  A    between atoms: C9_18  and  N3_19 
REMARK    9  A    between atoms: C10_23  and  C11_24 
REMARK   10  A    between atoms: C11_24  and  O5_26 
REMARK   11  A    between atoms: C11_24  and  N6_28 
REMARK   12  A    between atoms: C14_32  and  N8_33 
REMARK   13  A    between atoms: C16_40  and  N11_41 
ROOT
HETATM    1  C8  UNL     1      -4.127 -36.085  20.684  1.00  0.00     0.144 A 
HETATM    2  N2  UNL     1      -3.008 -35.303  20.662  1.00  0.00    -0.331 N 
ATOM      3  H2  UNL     1      -3.095 -34.317  20.909  1.00  0.00     0.168 HD
HETATM    4  C9  UNL     1      -1.797 -35.780  20.327  1.00  0.00     0.172 A 
HETATM    5  C16 UNL     1      -1.733 -37.123  19.999  1.00  0.00     0.147 A 
HETATM    6  N12 UNL     1      -2.836 -37.908  20.018  1.00  0.00    -0.326 N 
ATOM      7  H12 UNL     1      -2.751 -38.893  19.772  1.00  0.00     0.168 HD
HETATM    8  C17 UNL     1      -4.039 -37.418  20.355  1.00  0.00     0.150 A 
HETATM    9  N13 UNL     1      -5.210 -38.236  20.378  1.00  0.00    -0.080 NA
ENDROOT
BRANCH   4  10
HETATM   10  N3  UNL     1      -0.619 -34.980  20.299  1.00  0.00    -0.204 N 
HETATM   11  N4  UNL     1      -0.255 -34.058  19.399  1.00  0.00    -0.012 NA
HETATM   12  N5  UNL     1       0.919 -33.536  19.736  1.00  0.00    -0.280 N 
HETATM   13  C10 UNL     1       1.355 -34.108  20.872  1.00  0.00     0.123 A 
ATOM     14  H5  UNL     1       1.413 -32.814  19.212  1.00  0.00     0.184 HD
HETATM   15  C15 UNL     1       0.371 -35.011  21.206  1.00  0.00     0.167 A 
HETATM   16  N10 UNL     1       0.415 -35.849  22.351  1.00  0.00    -0.079 NA
BRANCH  13  17
HETATM   17  C11 UNL     1       2.616 -33.795  21.560  1.00  0.00     0.197 C 
HETATM   18  C12 UNL     1       2.984 -34.834  22.595  1.00  0.00     0.080 C 
BRANCH  17  19
HETATM   19  O5  UNL     1       3.613 -33.697  20.586  1.00  0.00    -0.364 OA
ATOM     20  H5  UNL     1       4.094 -32.893  20.749  1.00  0.00     0.213 HD
ENDBRANCH  17  19
BRANCH  17  21
HETATM   21  N6  UNL     1       2.508 -32.512  22.241  1.00  0.00    -0.232 N 
HETATM   22  C13 UNL     1       2.819 -31.306  21.735  1.00  0.00     0.222 A 
HETATM   23  N7  UNL     1       2.576 -30.384  22.681  1.00  0.00    -0.185 N 
HETATM   24  C14 UNL     1       2.116 -31.018  23.775  1.00  0.00     0.691 A 
ATOM     25  H7  UNL     1       2.717 -29.378  22.585  1.00  0.00     0.185 HD
HETATM   26  N9  UNL     1       2.084 -32.321  23.474  1.00  0.00    -0.126 N 
ATOM     27  H9  UNL     1       1.776 -33.060  24.108  1.00  0.00     0.206 HD
BRANCH  24  28
HETATM   28  N8  UNL     1       1.773 -30.449  24.894  1.00  0.00    -0.233 N 
ATOM     29  H82 UNL     1       2.322 -30.370  25.750  1.00  0.00     0.174 HD
ATOM     30  H81 UNL     1       0.881 -29.991  25.079  1.00  0.00     0.174 HD
ENDBRANCH  24  28
ENDBRANCH  17  21
ENDBRANCH  13  17
ENDBRANCH   4  10
BRANCH   5  31
HETATM   31  N11 UNL     1      -0.570 -37.588  19.676  1.00  0.00    -0.382 N 
ATOM     32 2H11 UNL     1       0.230 -36.974  19.514  1.00  0.00     0.157 HD
ATOM     33 1H11 UNL     1      -0.488 -38.600  19.589  1.00  0.00     0.157 HD
ENDBRANCH   5  31
BRANCH   1  34
HETATM   34  C7  UNL     1      -5.421 -35.529  21.054  1.00  0.00     0.272 C 
HETATM   35  N1  UNL     1      -6.245 -36.265  21.927  1.00  0.00    -0.342 N 
ATOM     36  H1  UNL     1      -5.918 -37.166  22.278  1.00  0.00     0.163 HD
HETATM   37  O4  UNL     1      -5.757 -34.408  20.577  1.00  0.00    -0.266 OA
BRANCH  35  38
HETATM   38  C3  UNL     1      -7.581 -35.765  22.351  1.00  0.00     0.187 C 
BRANCH  38  39
HETATM   39  C2  UNL     1      -7.801 -36.357  23.669  1.00  0.00     0.281 C 
HETATM   40  O2  UNL     1      -7.009 -37.181  24.210  1.00  0.00    -0.263 OA
BRANCH  39  41
HETATM   41  O1  UNL     1      -8.947 -35.995  24.391  1.00  0.00    -0.325 OA
HETATM   42  C1  UNL     1      -9.971 -36.933  24.672  1.00  0.00     0.213 C 
ENDBRANCH  39  41
ENDBRANCH  38  39
BRANCH  38  43
HETATM   43  C4  UNL     1      -8.505 -36.268  21.303  1.00  0.00     0.066 C 
BRANCH  43  44
HETATM   44  C5  UNL     1      -8.776 -37.697  21.138  1.00  0.00     0.116 C 
HETATM   45  C6  UNL     1     -10.192 -38.080  21.021  1.00  0.00     0.039 C 
BRANCH  44  46
HETATM   46  O3  UNL     1      -8.012 -38.163  20.026  1.00  0.00    -0.396 OA
ATOM     47  H3  UNL     1      -7.107 -38.236  20.304  1.00  0.00     0.210 HD
ENDBRANCH  44  46
ENDBRANCH  43  44
ENDBRANCH  38  43
ENDBRANCH  35  38
ENDBRANCH   1  34
TORSDOF 13
ENDMDL
MODEL 4
REMARK VINA RESULT: -8.487495024      3.735      5.406
REMARK  13 active torsions:
REMARK  status: ('A' for Active; 'I' for Inactive)
REMARK    1  A    between atoms: O1_2  and  C2_3 
REMARK    2  A    between atoms: C2_3  and  C3_5 
REMARK    3  A    between atoms: C3_5  and  C4_6 
REMARK    4  A    between atoms: C3_5  and  N1_11 
REMARK    5  A    between atoms: C4_6  and  C5_7 
REMARK    6  A    between atoms: C5_7  and  O3_9 
REMARK       I    between atoms: N1_11  and  C7_13 
REMARK    7  A    between atoms: C7_13  and  C8_15 
REMARK    8  A    between atoms: C9_18  and  N3_19 
REMARK    9  A    between atoms: C10_23  and  C11_24 
REMARK   10  A    between atoms: C11_24  and  O5_26 
REMARK   11  A    between atoms: C11_24  and  N6_28 
REMARK   12  A    between atoms: C14_32  and  N8_33 
REMARK   13  A    between atoms: C16_40  and  N11_41 
ROOT
HETATM    1  C8  UNL     1      -3.473 -35.967  20.625  1.00  0.00     0.144 A 
HETATM    2  N2  UNL     1      -3.886 -37.233  20.323  1.00  0.00    -0.331 N 
ATOM      3  H2  UNL     1      -3.319 -37.794  19.688  1.00  0.00     0.168 HD
HETATM    4  C9  UNL     1      -5.010 -37.768  20.829  1.00  0.00     0.172 A 
HETATM    5  C16 UNL     1      -5.745 -36.964  21.684  1.00  0.00     0.147 A 
HETATM    6  N12 UNL     1      -5.344 -35.708  21.990  1.00  0.00    -0.326 N 
ATOM      7  H12 UNL     1      -5.909 -35.144  22.625  1.00  0.00     0.168 HD
HETATM    8  C17 UNL     1      -4.218 -35.186  21.478  1.00  0.00     0.150 A 
HETATM    9  N13 UNL     1      -3.785 -33.861  21.793  1.00  0.00    -0.080 NA
ENDROOT
BRANCH   4  10
HETATM   10  N3  UNL     1      -5.458 -39.085  20.527  1.00  0.00    -0.204 N 
HETATM   11  N4  UNL     1      -6.654 -39.638  20.762  1.00  0.00    -0.012 NA
HETATM   12  N5  UNL     1      -6.667 -40.892  20.325  1.00  0.00    -0.280 N 
HETATM   13  C10 UNL     1      -5.471 -41.193  19.789  1.00  0.00     0.123 A 
ATOM     14  H5  UNL     1      -7.462 -41.528  20.387  1.00  0.00     0.184 HD
HETATM   15  C15 UNL     1      -4.729 -40.042  19.927  1.00  0.00     0.167 A 
HETATM   16  N10 UNL     1      -3.385 -39.903  19.493  1.00  0.00    -0.079 NA
BRANCH  13  17
HETATM   17  C11 UNL     1      -5.097 -42.486  19.199  1.00  0.00     0.197 C 
HETATM   18  C12 UNL     1      -6.300 -43.291  18.759  1.00  0.00     0.080 C 
BRANCH  17  19
HETATM   19  O5  UNL     1      -4.256 -42.225  18.113  1.00  0.00    -0.364 OA
ATOM     20  H5  UNL     1      -4.099 -43.050  17.669  1.00  0.00     0.213 HD
ENDBRANCH  17  19
BRANCH  17  21
HETATM   21  N6  UNL     1      -4.362 -43.285  20.170  1.00  0.00    -0.232 N 
HETATM   22  C13 UNL     1      -4.886 -44.131  21.073  1.00  0.00     0.222 A 
HETATM   23  N7  UNL     1      -3.873 -44.668  21.774  1.00  0.00    -0.185 N 
HETATM   24  C14 UNL     1      -2.721 -44.153  21.306  1.00  0.00     0.691 A 
ATOM     25  H7  UNL     1      -3.963 -45.347  22.529  1.00  0.00     0.185 HD
HETATM   26  N9  UNL     1      -3.053 -43.309  20.323  1.00  0.00    -0.126 N 
ATOM     27  H9  UNL     1      -2.390 -42.764  19.772  1.00  0.00     0.206 HD
BRANCH  24  28
HETATM   28  N8  UNL     1      -1.529 -44.439  21.743  1.00  0.00    -0.233 N 
ATOM     29  H82 UNL     1      -0.715 -44.722  21.198  1.00  0.00     0.174 HD
ATOM     30  H81 UNL     1      -1.234 -44.424  22.719  1.00  0.00     0.174 HD
ENDBRANCH  24  28
ENDBRANCH  17  21
ENDBRANCH  13  17
ENDBRANCH   4  10
BRANCH   5  31
HETATM   31  N11 UNL     1      -6.828 -37.473  22.174  1.00  0.00    -0.382 N 
ATOM     32 2H11 UNL     1      -6.826 -38.360  22.679  1.00  0.00     0.157 HD
ATOM     33 1H11 UNL     1      -7.689 -36.946  22.030  1.00  0.00     0.157 HD
ENDBRANCH   5  31
BRANCH   1  34
HETATM   34  C7  UNL     1      -2.247 -35.424  20.056  1.00  0.00     0.272 C 
HETATM   35  N1  UNL     1      -1.040 -35.609  20.758  1.00  0.00    -0.342 N 
ATOM     36  H1  UNL     1      -1.053 -36.114  21.644  1.00  0.00     0.163 HD
HETATM   37  O4  UNL     1      -2.312 -34.809  18.955  1.00  0.00    -0.266 OA
BRANCH  35  38
HETATM   38  C3  UNL     1       0.253 -35.084  20.242  1.00  0.00     0.187 C 
BRANCH  38  39
HETATM   39  C2  UNL     1       0.670 -36.051  19.227  1.00  0.00     0.281 C 
HETATM   40  O2  UNL     1       0.709 -37.300  19.421  1.00  0.00    -0.263 OA
BRANCH  39  41
HETATM   41  O1  UNL     1       1.045 -35.583  17.960  1.00  0.00    -0.325 OA
HETATM   42  C1  UNL     1       1.055 -34.199  17.656  1.00  0.00     0.213 C 
ENDBRANCH  39  41
ENDBRANCH  38  39
BRANCH  38  43
HETATM   43  C4  UNL     1       1.133 -35.050  21.438  1.00  0.00     0.066 C 
BRANCH  43  44
HETATM   44  C5  UNL     1       2.012 -33.912  21.714  1.00  0.00     0.116 C 
HETATM   45  C6  UNL     1       2.299 -33.643  23.132  1.00  0.00     0.039 C 
BRANCH  44  46
HETATM   46  O3  UNL     1       3.211 -34.091  20.960  1.00  0.00    -0.396 OA
ATOM     47  H3  UNL     1       3.140 -33.567  20.171  1.00  0.00     0.210 HD
ENDBRANCH  44  46
ENDBRANCH  43  44
ENDBRANCH  38  43
ENDBRANCH  35  38
ENDBRANCH   1  34
TORSDOF 13
ENDMDL
MODEL 5
REMARK VINA RESULT: -8.483823892      2.407      9.810
REMARK  13 active torsions:
REMARK  status: ('A' for Active; 'I' for Inactive)
REMARK    1  A    between atoms: O1_2  and  C2_3 
REMARK    2  A    between atoms: C2_3  and  C3_5 
REMARK    3  A    between atoms: C3_5  and  C4_6 
REMARK    4  A    between atoms: C3_5  and  N1_11 
REMARK    5  A    between atoms: C4_6  and  C5_7 
REMARK    6  A    between atoms: C5_7  and  O3_9 
REMARK       I    between atoms: N1_11  and  C7_13 
REMARK    7  A    between atoms: C7_13  and  C8_15 
REMARK    8  A    between atoms: C9_18  and  N3_19 
REMARK    9  A    between atoms: C10_23  and  C11_24 
REMARK   10  A    between atoms: C11_24  and  O5_26 
REMARK   11  A    between atoms: C11_24  and  N6_28 
REMARK   12  A    between atoms: C14_32  and  N8_33 
REMARK   13  A    between atoms: C16_40  and  N11_41 
ROOT
HETATM    1  C8  UNL     1      -5.358 -36.388  21.915  1.00  0.00     0.144 A 
HETATM    2  N2  UNL     1      -4.098 -36.856  21.670  1.00  0.00    -0.331 N 
ATOM      3  H2  UNL     1      -3.899 -37.839  21.849  1.00  0.00     0.168 HD
HETATM    4  C9  UNL     1      -3.112 -36.071  21.204  1.00  0.00     0.172 A 
HETATM    5  C16 UNL     1      -3.434 -34.743  20.980  1.00  0.00     0.147 A 
HETATM    6  N12 UNL     1      -4.679 -34.270  21.218  1.00  0.00    -0.326 N 
ATOM      7  H12 UNL     1      -4.881 -33.286  21.040  1.00  0.00     0.168 HD
HETATM    8  C17 UNL     1      -5.656 -35.065  21.683  1.00  0.00     0.150 A 
HETATM    9  N13 UNL     1      -6.973 -34.575  21.939  1.00  0.00    -0.080 NA
ENDROOT
BRANCH   4  10
HETATM   10  N3  UNL     1      -1.793 -36.541  20.943  1.00  0.00    -0.204 N 
HETATM   11  N4  UNL     1      -1.282 -37.007  19.798  1.00  0.00    -0.012 NA
HETATM   12  N5  UNL     1      -0.009 -37.343  19.973  1.00  0.00    -0.280 N 
HETATM   13  C10 UNL     1       0.347 -37.102  21.248  1.00  0.00     0.123 A 
ATOM     14  H5  UNL     1       0.603 -37.725  19.252  1.00  0.00     0.184 HD
HETATM   15  C15 UNL     1      -0.791 -36.598  21.836  1.00  0.00     0.167 A 
HETATM   16  N10 UNL     1      -0.875 -36.201  23.196  1.00  0.00    -0.079 NA
BRANCH  13  17
HETATM   17  C11 UNL     1       1.676 -37.344  21.827  1.00  0.00     0.197 C 
HETATM   18  C12 UNL     1       1.610 -38.123  23.121  1.00  0.00     0.080 C 
BRANCH  17  19
HETATM   19  O5  UNL     1       2.430 -38.036  20.874  1.00  0.00    -0.364 OA
ATOM     20  H5  UNL     1       3.326 -37.730  20.942  1.00  0.00     0.213 HD
ENDBRANCH  17  19
BRANCH  17  21
HETATM   21  N6  UNL     1       2.337 -36.077  22.107  1.00  0.00    -0.232 N 
HETATM   22  C13 UNL     1       3.159 -35.812  23.136  1.00  0.00     0.222 A 
HETATM   23  N7  UNL     1       3.556 -34.533  23.031  1.00  0.00    -0.185 N 
HETATM   24  C14 UNL     1       2.978 -34.004  21.936  1.00  0.00     0.691 A 
ATOM     25  H7  UNL     1       4.185 -34.047  23.671  1.00  0.00     0.185 HD
HETATM   26  N9  UNL     1       2.239 -34.975  21.390  1.00  0.00    -0.126 N 
ATOM     27  H9  UNL     1       1.679 -34.877  20.542  1.00  0.00     0.206 HD
BRANCH  24  28
HETATM   28  N8  UNL     1       3.130 -32.783  21.513  1.00  0.00    -0.233 N 
ATOM     29  H82 UNL     1       3.766 -32.071  21.872  1.00  0.00     0.174 HD
ATOM     30  H81 UNL     1       2.618 -32.352  20.743  1.00  0.00     0.174 HD
ENDBRANCH  24  28
ENDBRANCH  17  21
ENDBRANCH  13  17
ENDBRANCH   4  10
BRANCH   5  31
HETATM   31  N11 UNL     1      -2.488 -33.984  20.531  1.00  0.00    -0.382 N 
ATOM     32 2H11 UNL     1      -1.578 -33.928  20.990  1.00  0.00     0.157 HD
ATOM     33 1H11 UNL     1      -2.695 -33.440  19.694  1.00  0.00     0.157 HD
ENDBRANCH   5  31
BRANCH   1  34
HETATM   34  C7  UNL     1      -6.400 -37.272  22.419  1.00  0.00     0.272 C 
HETATM   35  N1  UNL     1      -7.148 -38.026  21.495  1.00  0.00    -0.342 N 
ATOM     36  H1  UNL     1      -6.944 -37.936  20.499  1.00  0.00     0.163 HD
HETATM   37  O4  UNL     1      -6.594 -37.328  23.666  1.00  0.00    -0.266 OA
BRANCH  35  38
HETATM   38  C3  UNL     1      -8.229 -38.951  21.932  1.00  0.00     0.187 C 
BRANCH  38  39
HETATM   39  C2  UNL     1      -7.794 -40.272  21.484  1.00  0.00     0.281 C 
HETATM   40  O2  UNL     1      -8.525 -41.303  21.525  1.00  0.00    -0.263 OA
BRANCH  39  41
HETATM   41  O1  UNL     1      -6.498 -40.420  20.972  1.00  0.00    -0.325 OA
HETATM   42  C1  UNL     1      -5.989 -41.690  20.601  1.00  0.00     0.213 C 
ENDBRANCH  39  41
ENDBRANCH  38  39
BRANCH  38  43
HETATM   43  C4  UNL     1      -9.440 -38.447  21.235  1.00  0.00     0.066 C 
BRANCH  43  44
HETATM   44  C5  UNL     1     -10.054 -37.166  21.589  1.00  0.00     0.116 C 
HETATM   45  C6  UNL     1     -10.128 -36.857  23.026  1.00  0.00     0.039 C 
BRANCH  44  46
HETATM   46  O3  UNL     1      -9.376 -36.139  20.866  1.00  0.00    -0.396 OA
ATOM     47  H3  UNL     1      -8.829 -36.556  20.211  1.00  0.00     0.210 HD
ENDBRANCH  44  46
ENDBRANCH  43  44
ENDBRANCH  38  43
ENDBRANCH  35  38
ENDBRANCH   1  34
TORSDOF 13
ENDMDL
