MODEL 1
REMARK VINA RESULT: -8.568872895      0.000      0.000
REMARK  13 active torsions:
REMARK  status: ('A' for Active; 'I' for Inactive)
REMARK    1  A    between atoms: N1_1  and  C1_5 
REMARK    2  A    between atoms: C1_5  and  C2_6 
REMARK    3  A    between atoms: C5_10  and  C6_11 
REMARK    4  A    between atoms: C8_18  and  N5_19 
REMARK    5  A    between atoms: N5_19  and  C9_21 
REMARK    6  A    between atoms: C9_21  and  C10_22 
REMARK    7  A    between atoms: N6_24  and  C12_25 
REMARK    8  A    between atoms: C12_25  and  C13_26 
REMARK    9  A    between atoms: C13_26  and  O1_27 
REMARK   10  A    between atoms: C13_26  and  N7_29 
REMARK   11  A    between atoms: C15_32  and  N8_33 
REMARK   12  A    between atoms: N8_33  and  N9_34 
REMARK   13  A    between atoms: C16_37  and  C17_38 
ROOT
HETATM    1  C10 UNL     1      -6.415 -36.570  20.735  1.00  0.00     0.019 A 
HETATM    2  C11 UNL     1      -5.042 -36.560  20.742  1.00  0.00     0.122 A 
HETATM    3  N6  UNL     1      -4.587 -35.373  21.200  1.00  0.00    -0.298 N 
HETATM    4  N10 UNL     1      -5.632 -34.642  21.479  1.00  0.00    -0.285 N 
ATOM      5  H10 UNL     1      -5.587 -33.691  21.845  1.00  0.00     0.188 HD
HETATM    6  C18 UNL     1      -6.772 -35.298  21.225  1.00  0.00     0.140 A 
HETATM    7  N11 UNL     1      -8.110 -34.884  21.382  1.00  0.00    -0.081 NA
ENDROOT
BRANCH   1   8
HETATM    8  C9  UNL     1      -7.385 -37.619  20.329  1.00  0.00     0.181 C 
BRANCH   8   9
HETATM    9  N5  UNL     1      -7.410 -38.656  21.324  1.00  0.00    -0.222 N 
ATOM     10  H5  UNL     1      -6.604 -39.272  21.433  1.00  0.00     0.178 HD
BRANCH   9  11
HETATM   11  C8  UNL     1      -8.556 -38.832  22.164  1.00  0.00     0.678 A 
HETATM   12  N4  UNL     1      -8.718 -39.901  22.831  1.00  0.00    -0.164 N 
HETATM   13  C7  UNL     1      -9.859 -40.106  23.682  1.00  0.00     0.204 A 
ATOM     14  H4  UNL     1      -8.016 -40.638  22.760  1.00  0.00     0.187 HD
HETATM   15  N2  UNL     1     -10.720 -39.174  23.755  1.00  0.00    -0.338 N 
HETATM   16  N3  UNL     1      -9.970 -41.326  24.397  1.00  0.00    -0.063 NA
HETATM   17  C6  UNL     1     -10.683 -37.923  23.072  1.00  0.00     0.236 A 
ATOM     18  H2  UNL     1     -11.521 -39.338  24.366  1.00  0.00     0.164 HD
HETATM   19  N12 UNL     1      -9.503 -37.781  22.233  1.00  0.00    -0.201 N 
ATOM     20  H12 UNL     1      -9.357 -36.926  21.696  1.00  0.00     0.180 HD
BRANCH  17  21
HETATM   21  C5  UNL     1     -10.768 -36.807  24.099  1.00  0.00    -0.000 A 
HETATM   22  C2  UNL     1     -11.969 -36.225  24.397  1.00  0.00     0.018 A 
HETATM   23  S1  UNL     1     -11.527 -35.042  25.576  1.00  0.00    -0.104 SA
HETATM   24  C3  UNL     1      -9.855 -35.333  25.640  1.00  0.00     0.051 A 
HETATM   25  C4  UNL     1      -9.682 -36.347  24.739  1.00  0.00     0.019 A 
BRANCH  22  26
HETATM   26  C1  UNL     1     -13.352 -36.514  23.867  1.00  0.00     0.276 C 
BRANCH  26  27
HETATM   27  N1  UNL     1     -14.242 -36.441  25.037  1.00  0.00    -0.075 N 
ATOM     28  H13 UNL     1     -13.747 -36.382  25.927  1.00  0.00     0.274 HD
ATOM     29  H12 UNL     1     -14.740 -35.555  25.119  1.00  0.00     0.274 HD
ATOM     30  H11 UNL     1     -14.856 -37.252  24.961  1.00  0.00     0.274 HD
ENDBRANCH  26  27
ENDBRANCH  22  26
ENDBRANCH  17  21
ENDBRANCH   9  11
ENDBRANCH   8   9
ENDBRANCH   1   8
BRANCH   3  31
HETATM   31  C12 UNL     1      -3.163 -35.022  21.338  1.00  0.00     0.198 C 
BRANCH  31  32
HETATM   32  C13 UNL     1      -2.814 -33.839  20.498  1.00  0.00     0.239 C 
BRANCH  32  33
HETATM   33  O1  UNL     1      -3.459 -33.949  19.275  1.00  0.00    -0.377 OA
ATOM     34  H1  UNL     1      -3.829 -33.105  19.045  1.00  0.00     0.211 HD
ENDBRANCH  32  33
BRANCH  32  35
HETATM   35  N7  UNL     1      -1.404 -33.734  20.342  1.00  0.00    -0.150 NA
HETATM   36  O2  UNL     1      -0.866 -32.749  21.036  1.00  0.00    -0.298 OA
HETATM   37  C14 UNL     1       0.123 -33.222  21.853  1.00  0.00     0.219 C 
HETATM   38  C15 UNL     1       0.680 -34.381  21.035  1.00  0.00     0.154 C 
HETATM   39  C16 UNL     1      -0.643 -34.916  20.467  1.00  0.00     0.213 C 
BRANCH  38  40
HETATM   40  N8  UNL     1       1.471 -33.790  19.969  1.00  0.00    -0.139 NA
BRANCH  40  41
HETATM   41  N9  UNL     1       2.694 -33.309  20.449  1.00  0.00    -0.348 N 
ATOM     42  H92 UNL     1       3.226 -32.568  19.992  1.00  0.00     0.172 HD
ATOM     43  H91 UNL     1       2.974 -33.793  21.302  1.00  0.00     0.172 HD
ENDBRANCH  40  41
ENDBRANCH  38  40
BRANCH  39  44
HETATM   44  C17 UNL     1      -0.407 -35.619  19.181  1.00  0.00     0.195 C 
HETATM   45  O3  UNL     1       0.301 -36.664  19.146  1.00  0.00    -0.647 OA
HETATM   46  O4  UNL     1      -0.930 -35.190  17.974  1.00  0.00    -0.647 OA
ENDBRANCH  39  44
ENDBRANCH  32  35
ENDBRANCH  31  32
ENDBRANCH   3  31
TORSDOF 13
ENDMDL
MODEL 2
REMARK VINA RESULT: -8.504044400      3.927      5.917
REMARK  13 active torsions:
REMARK  status: ('A' for Active; 'I' for Inactive)
REMARK    1  A    between atoms: N1_1  and  C1_5 
REMARK    2  A    between atoms: C1_5  and  C2_6 
REMARK    3  A    between atoms: C5_10  and  C6_11 
REMARK    4  A    between atoms: C8_18  and  N5_19 
REMARK    5  A    between atoms: N5_19  and  C9_21 
REMARK    6  A    between atoms: C9_21  and  C10_22 
REMARK    7  A    between atoms: N6_24  and  C12_25 
REMARK    8  A    between atoms: C12_25  and  C13_26 
REMARK    9  A    between atoms: C13_26  and  O1_27 
REMARK   10  A    between atoms: C13_26  and  N7_29 
REMARK   11  A    between atoms: C15_32  and  N8_33 
REMARK   12  A    between atoms: N8_33  and  N9_34 
REMARK   13  A    between atoms: C16_37  and  C17_38 
ROOT
HETATM    1  C10 UNL     1      -6.463 -36.525  20.786  1.00  0.00     0.019 A 
HETATM    2  C11 UNL     1      -5.091 -36.518  20.846  1.00  0.00     0.122 A 
HETATM    3  N6  UNL     1      -4.647 -35.298  21.220  1.00  0.00    -0.298 N 
HETATM    4  N10 UNL     1      -5.698 -34.543  21.395  1.00  0.00    -0.285 N 
ATOM      5  H10 UNL     1      -5.661 -33.564  21.681  1.00  0.00     0.188 HD
HETATM    6  C18 UNL     1      -6.830 -35.215  21.152  1.00  0.00     0.140 A 
HETATM    7  N11 UNL     1      -8.171 -34.785  21.220  1.00  0.00    -0.081 NA
ENDROOT
BRANCH   1   8
HETATM    8  C9  UNL     1      -7.423 -37.601  20.431  1.00  0.00     0.181 C 
BRANCH   8   9
HETATM    9  N5  UNL     1      -6.931 -38.318  19.285  1.00  0.00    -0.222 N 
ATOM     10  H5  UNL     1      -6.988 -37.894  18.359  1.00  0.00     0.178 HD
BRANCH   9  11
HETATM   11  C8  UNL     1      -6.362 -39.624  19.434  1.00  0.00     0.678 A 
HETATM   12  N4  UNL     1      -5.722 -39.940  20.485  1.00  0.00    -0.164 N 
HETATM   13  C7  UNL     1      -5.139 -41.243  20.663  1.00  0.00     0.204 A 
ATOM     14  H4  UNL     1      -5.618 -39.247  21.227  1.00  0.00     0.187 HD
HETATM   15  N2  UNL     1      -5.282 -42.090  19.726  1.00  0.00    -0.338 N 
HETATM   16  N3  UNL     1      -4.441 -41.522  21.866  1.00  0.00    -0.063 NA
HETATM   17  C6  UNL     1      -5.966 -41.889  18.492  1.00  0.00     0.236 A 
ATOM     18  H2  UNL     1      -4.863 -43.008  19.873  1.00  0.00     0.164 HD
HETATM   19  N12 UNL     1      -6.533 -40.553  18.380  1.00  0.00    -0.201 N 
ATOM     20  H12 UNL     1      -7.054 -40.287  17.544  1.00  0.00     0.180 HD
BRANCH  17  21
HETATM   21  C5  UNL     1      -7.038 -42.957  18.352  1.00  0.00    -0.000 A 
HETATM   22  C2  UNL     1      -7.222 -43.606  17.163  1.00  0.00     0.018 A 
HETATM   23  S1  UNL     1      -8.529 -44.678  17.523  1.00  0.00    -0.104 SA
HETATM   24  C3  UNL     1      -8.783 -44.260  19.149  1.00  0.00     0.051 A 
HETATM   25  C4  UNL     1      -7.841 -43.294  19.372  1.00  0.00     0.019 A 
BRANCH  22  26
HETATM   26  C1  UNL     1      -6.492 -43.466  15.850  1.00  0.00     0.276 C 
BRANCH  26  27
HETATM   27  N1  UNL     1      -5.337 -44.372  15.946  1.00  0.00    -0.075 N 
ATOM     28  H13 UNL     1      -5.029 -44.546  16.904  1.00  0.00     0.274 HD
ATOM     29  H12 UNL     1      -5.554 -45.341  15.713  1.00  0.00     0.274 HD
ATOM     30  H11 UNL     1      -4.617 -43.958  15.353  1.00  0.00     0.274 HD
ENDBRANCH  26  27
ENDBRANCH  22  26
ENDBRANCH  17  21
ENDBRANCH   9  11
ENDBRANCH   8   9
ENDBRANCH   1   8
BRANCH   3  31
HETATM   31  C12 UNL     1      -3.228 -34.940  21.385  1.00  0.00     0.198 C 
BRANCH  31  32
HETATM   32  C13 UNL     1      -2.860 -33.776  20.528  1.00  0.00     0.239 C 
BRANCH  32  33
HETATM   33  O1  UNL     1      -3.510 -33.892  19.308  1.00  0.00    -0.377 OA
ATOM     34  H1  UNL     1      -4.391 -34.213  19.457  1.00  0.00     0.211 HD
ENDBRANCH  32  33
BRANCH  32  35
HETATM   35  N7  UNL     1      -1.449 -33.697  20.368  1.00  0.00    -0.150 NA
HETATM   36  O2  UNL     1      -0.889 -32.732  21.073  1.00  0.00    -0.298 OA
HETATM   37  C14 UNL     1       0.093 -33.236  21.879  1.00  0.00     0.219 C 
HETATM   38  C15 UNL     1       0.624 -34.394  21.044  1.00  0.00     0.154 C 
HETATM   39  C16 UNL     1      -0.711 -34.894  20.474  1.00  0.00     0.213 C 
BRANCH  38  40
HETATM   40  N8  UNL     1       1.423 -33.804  19.983  1.00  0.00    -0.139 NA
BRANCH  40  41
HETATM   41  N9  UNL     1       2.648 -33.335  20.469  1.00  0.00    -0.348 N 
ATOM     42  H92 UNL     1       2.825 -33.139  21.454  1.00  0.00     0.172 HD
ATOM     43  H91 UNL     1       3.326 -33.219  19.716  1.00  0.00     0.172 HD
ENDBRANCH  40  41
ENDBRANCH  38  40
BRANCH  39  44
HETATM   44  C17 UNL     1      -0.494 -35.585  19.178  1.00  0.00     0.195 C 
HETATM   45  O3  UNL     1      -0.967 -35.103  18.111  1.00  0.00    -0.647 OA
HETATM   46  O4  UNL     1       0.220 -36.764  19.057  1.00  0.00    -0.647 OA
ENDBRANCH  39  44
ENDBRANCH  32  35
ENDBRANCH  31  32
ENDBRANCH   3  31
TORSDOF 13
ENDMDL
MODEL 3
REMARK VINA RESULT: -8.475241759      1.376      1.698
REMARK  13 active torsions:
REMARK  status: ('A' for Active; 'I' for Inactive)
REMARK    1  A    between atoms: N1_1  and  C1_5 
REMARK    2  A    between atoms: C1_5  and  C2_6 
REMARK    3  A    between atoms: C5_10  and  C6_11 
REMARK    4  A    between atoms: C8_18  and  N5_19 
REMARK    5  A    between atoms: N5_19  and  C9_21 
REMARK    6  A    between atoms: C9_21  and  C10_22 
REMARK    7  A    between atoms: N6_24  and  C12_25 
REMARK    8  A    between atoms: C12_25  and  C13_26 
REMARK    9  A    between atoms: C13_26  and  O1_27 
REMARK   10  A    between atoms: C13_26  and  N7_29 
REMARK   11  A    between atoms: C15_32  and  N8_33 
REMARK   12  A    between atoms: N8_33  and  N9_34 
REMARK   13  A    between atoms: C16_37  and  C17_38 
ROOT
HETATM    1  C10 UNL     1      -6.354 -36.446  20.866  1.00  0.00     0.019 A 
HETATM    2  C11 UNL     1      -5.005 -36.365  21.108  1.00  0.00     0.122 A 
HETATM    3  N6  UNL     1      -4.691 -35.146  21.598  1.00  0.00    -0.298 N 
HETATM    4  N10 UNL     1      -5.801 -34.463  21.669  1.00  0.00    -0.285 N 
ATOM      5  H10 UNL     1      -5.863 -33.501  22.006  1.00  0.00     0.188 HD
HETATM    6  C18 UNL     1      -6.847 -35.181  21.245  1.00  0.00     0.140 A 
HETATM    7  N11 UNL     1      -8.210 -34.832  21.157  1.00  0.00    -0.081 NA
ENDROOT
BRANCH   1   8
HETATM    8  C9  UNL     1      -7.190 -37.552  20.334  1.00  0.00     0.181 C 
BRANCH   8   9
HETATM    9  N5  UNL     1      -7.267 -38.603  21.312  1.00  0.00    -0.222 N 
ATOM     10  H5  UNL     1      -6.469 -39.224  21.451  1.00  0.00     0.178 HD
BRANCH   9  11
HETATM   11  C8  UNL     1      -8.454 -38.786  22.092  1.00  0.00     0.678 A 
HETATM   12  N4  UNL     1      -8.670 -39.878  22.703  1.00  0.00    -0.164 N 
HETATM   13  C7  UNL     1      -9.853 -40.091  23.494  1.00  0.00     0.204 A 
ATOM     14  H4  UNL     1      -7.983 -40.628  22.631  1.00  0.00     0.187 HD
HETATM   15  N2  UNL     1     -10.695 -39.141  23.570  1.00  0.00    -0.338 N 
HETATM   16  N3  UNL     1     -10.023 -41.337  24.149  1.00  0.00    -0.063 NA
HETATM   17  C6  UNL     1     -10.598 -37.864  22.944  1.00  0.00     0.236 A 
ATOM     18  H2  UNL     1     -11.525 -39.312  24.137  1.00  0.00     0.164 HD
HETATM   19  N12 UNL     1      -9.378 -37.715  22.165  1.00  0.00    -0.201 N 
ATOM     20  H12 UNL     1      -9.189 -36.842  21.673  1.00  0.00     0.180 HD
BRANCH  17  21
HETATM   21  C5  UNL     1     -10.704 -36.791  24.015  1.00  0.00    -0.000 A 
HETATM   22  C2  UNL     1     -11.919 -36.267  24.358  1.00  0.00     0.018 A 
HETATM   23  S1  UNL     1     -11.497 -35.113  25.573  1.00  0.00    -0.104 SA
HETATM   24  C3  UNL     1      -9.814 -35.341  25.592  1.00  0.00     0.051 A 
HETATM   25  C4  UNL     1      -9.622 -36.314  24.650  1.00  0.00     0.019 A 
BRANCH  22  26
HETATM   26  C1  UNL     1     -13.301 -36.589  23.845  1.00  0.00     0.276 C 
BRANCH  26  27
HETATM   27  N1  UNL     1     -14.201 -36.381  24.990  1.00  0.00    -0.075 N 
ATOM     28  H13 UNL     1     -15.133 -36.774  24.856  1.00  0.00     0.274 HD
ATOM     29  H12 UNL     1     -13.955 -36.934  25.811  1.00  0.00     0.274 HD
ATOM     30  H11 UNL     1     -14.200 -35.375  25.157  1.00  0.00     0.274 HD
ENDBRANCH  26  27
ENDBRANCH  22  26
ENDBRANCH  17  21
ENDBRANCH   9  11
ENDBRANCH   8   9
ENDBRANCH   1   8
BRANCH   3  31
HETATM   31  C12 UNL     1      -3.330 -34.720  21.966  1.00  0.00     0.198 C 
BRANCH  31  32
HETATM   32  C13 UNL     1      -2.517 -34.398  20.756  1.00  0.00     0.239 C 
BRANCH  32  33
HETATM   33  O1  UNL     1      -3.343 -34.414  19.642  1.00  0.00    -0.377 OA
ATOM     34  H1  UNL     1      -3.092 -35.138  19.081  1.00  0.00     0.211 HD
ENDBRANCH  32  33
BRANCH  32  35
HETATM   35  N7  UNL     1      -1.435 -35.312  20.622  1.00  0.00    -0.150 NA
HETATM   36  O2  UNL     1      -1.496 -36.331  21.458  1.00  0.00    -0.298 OA
HETATM   37  C14 UNL     1      -1.454 -37.514  20.774  1.00  0.00     0.219 C 
HETATM   38  C15 UNL     1      -0.571 -37.160  19.584  1.00  0.00     0.154 C 
HETATM   39  C16 UNL     1      -1.101 -35.743  19.321  1.00  0.00     0.213 C 
BRANCH  38  40
HETATM   40  N8  UNL     1       0.790 -37.092  20.087  1.00  0.00    -0.139 NA
BRANCH  40  41
HETATM   41  N9  UNL     1       0.915 -37.758  21.311  1.00  0.00    -0.348 N 
ATOM     42  H92 UNL     1       0.219 -37.703  22.055  1.00  0.00     0.172 HD
ATOM     43  H91 UNL     1       1.780 -38.296  21.354  1.00  0.00     0.172 HD
ENDBRANCH  40  41
ENDBRANCH  38  40
BRANCH  39  44
HETATM   44  C17 UNL     1      -0.060 -34.916  18.661  1.00  0.00     0.195 C 
HETATM   45  O3  UNL     1       0.259 -35.131  17.458  1.00  0.00    -0.647 OA
HETATM   46  O4  UNL     1       0.609 -33.886  19.300  1.00  0.00    -0.647 OA
ENDBRANCH  39  44
ENDBRANCH  32  35
ENDBRANCH  31  32
ENDBRANCH   3  31
TORSDOF 13
ENDMDL
MODEL 4
REMARK VINA RESULT: -8.454970800      2.240      3.726
REMARK  13 active torsions:
REMARK  status: ('A' for Active; 'I' for Inactive)
REMARK    1  A    between atoms: N1_1  and  C1_5 
REMARK    2  A    between atoms: C1_5  and  C2_6 
REMARK    3  A    between atoms: C5_10  and  C6_11 
REMARK    4  A    between atoms: C8_18  and  N5_19 
REMARK    5  A    between atoms: N5_19  and  C9_21 
REMARK    6  A    between atoms: C9_21  and  C10_22 
REMARK    7  A    between atoms: N6_24  and  C12_25 
REMARK    8  A    between atoms: C12_25  and  C13_26 
REMARK    9  A    between atoms: C13_26  and  O1_27 
REMARK   10  A    between atoms: C13_26  and  N7_29 
REMARK   11  A    between atoms: C15_32  and  N8_33 
REMARK   12  A    between atoms: N8_33  and  N9_34 
REMARK   13  A    between atoms: C16_37  and  C17_38 
ROOT
HETATM    1  C10 UNL     1      -5.399 -39.669  20.906  1.00  0.00     0.019 A 
HETATM    2  C11 UNL     1      -4.491 -38.755  21.383  1.00  0.00     0.122 A 
HETATM    3  N6  UNL     1      -3.445 -38.651  20.533  1.00  0.00    -0.298 N 
HETATM    4  N10 UNL     1      -3.671 -39.470  19.543  1.00  0.00    -0.285 N 
ATOM      5  H10 UNL     1      -3.042 -39.600  18.750  1.00  0.00     0.188 HD
HETATM    6  C18 UNL     1      -4.831 -40.119  19.697  1.00  0.00     0.140 A 
HETATM    7  N11 UNL     1      -5.449 -41.081  18.872  1.00  0.00    -0.081 NA
ENDROOT
BRANCH   1   8
HETATM    8  C9  UNL     1      -6.695 -40.140  21.456  1.00  0.00     0.181 C 
BRANCH   8   9
HETATM    9  N5  UNL     1      -7.746 -39.262  21.017  1.00  0.00    -0.222 N 
ATOM     10  H5  UNL     1      -8.382 -39.564  20.279  1.00  0.00     0.178 HD
BRANCH   9  11
HETATM   11  C8  UNL     1      -7.905 -37.967  21.607  1.00  0.00     0.678 A 
HETATM   12  N4  UNL     1      -7.621 -36.914  20.954  1.00  0.00    -0.164 N 
HETATM   13  C7  UNL     1      -7.771 -35.601  21.520  1.00  0.00     0.204 A 
ATOM     14  H4  UNL     1      -7.276 -37.004  19.998  1.00  0.00     0.187 HD
HETATM   15  N2  UNL     1      -8.203 -35.513  22.712  1.00  0.00    -0.338 N 
HETATM   16  N3  UNL     1      -7.435 -34.472  20.728  1.00  0.00    -0.063 NA
HETATM   17  C6  UNL     1      -8.562 -36.593  23.570  1.00  0.00     0.236 A 
ATOM     18  H2  UNL     1      -8.305 -34.573  23.093  1.00  0.00     0.164 HD
HETATM   19  N12 UNL     1      -8.390 -37.891  22.935  1.00  0.00    -0.201 N 
ATOM     20  H12 UNL     1      -8.618 -38.745  23.445  1.00  0.00     0.180 HD
BRANCH  17  21
HETATM   21  C5  UNL     1      -9.995 -36.390  24.033  1.00  0.00    -0.000 A 
HETATM   22  C2  UNL     1     -10.280 -36.221  25.359  1.00  0.00     0.018 A 
HETATM   23  S1  UNL     1     -12.000 -36.050  25.350  1.00  0.00    -0.104 SA
HETATM   24  C3  UNL     1     -12.280 -36.201  23.682  1.00  0.00     0.051 A 
HETATM   25  C4  UNL     1     -11.023 -36.380  23.172  1.00  0.00     0.019 A 
BRANCH  22  26
HETATM   26  C1  UNL     1      -9.365 -36.176  26.557  1.00  0.00     0.276 C 
BRANCH  26  27
HETATM   27  N1  UNL     1      -9.688 -34.918  27.249  1.00  0.00    -0.075 N 
ATOM     28  H13 UNL     1      -9.532 -34.085  26.681  1.00  0.00     0.274 HD
ATOM     29  H12 UNL     1     -10.687 -34.775  27.398  1.00  0.00     0.274 HD
ATOM     30  H11 UNL     1      -9.142 -34.934  28.111  1.00  0.00     0.274 HD
ENDBRANCH  26  27
ENDBRANCH  22  26
ENDBRANCH  17  21
ENDBRANCH   9  11
ENDBRANCH   8   9
ENDBRANCH   1   8
BRANCH   3  31
HETATM   31  C12 UNL     1      -2.289 -37.761  20.738  1.00  0.00     0.198 C 
BRANCH  31  32
HETATM   32  C13 UNL     1      -2.407 -36.523  19.912  1.00  0.00     0.239 C 
BRANCH  32  33
HETATM   33  O1  UNL     1      -1.912 -36.781  18.643  1.00  0.00    -0.377 OA
ATOM     34  H1  UNL     1      -1.408 -36.030  18.349  1.00  0.00     0.211 HD
ENDBRANCH  32  33
BRANCH  32  35
HETATM   35  N7  UNL     1      -1.726 -35.440  20.533  1.00  0.00    -0.150 NA
HETATM   36  O2  UNL     1      -0.595 -35.789  21.116  1.00  0.00    -0.298 OA
HETATM   37  C14 UNL     1       0.443 -35.042  20.634  1.00  0.00     0.219 C 
HETATM   38  C15 UNL     1      -0.237 -33.712  20.335  1.00  0.00     0.154 C 
HETATM   39  C16 UNL     1      -1.565 -34.254  19.785  1.00  0.00     0.213 C 
BRANCH  38  40
HETATM   40  N8  UNL     1      -0.461 -33.066  21.617  1.00  0.00    -0.139 NA
BRANCH  40  41
HETATM   41  N9  UNL     1       0.348 -33.620  22.615  1.00  0.00    -0.348 N 
ATOM     42  H92 UNL     1       0.728 -34.565  22.570  1.00  0.00     0.172 HD
ATOM     43  H91 UNL     1       0.500 -32.961  23.377  1.00  0.00     0.172 HD
ENDBRANCH  40  41
ENDBRANCH  38  40
BRANCH  39  44
HETATM   44  C17 UNL     1      -2.651 -33.263  19.986  1.00  0.00     0.195 C 
HETATM   45  O3  UNL     1      -2.656 -32.181  19.335  1.00  0.00    -0.647 OA
HETATM   46  O4  UNL     1      -3.697 -33.452  20.873  1.00  0.00    -0.647 OA
ENDBRANCH  39  44
ENDBRANCH  32  35
ENDBRANCH  31  32
ENDBRANCH   3  31
TORSDOF 13
ENDMDL
MODEL 5
REMARK VINA RESULT: -8.443324715      4.115      6.071
REMARK  13 active torsions:
REMARK  status: ('A' for Active; 'I' for Inactive)
REMARK    1  A    between atoms: N1_1  and  C1_5 
REMARK    2  A    between atoms: C1_5  and  C2_6 
REMARK    3  A    between atoms: C5_10  and  C6_11 
REMARK    4  A    between atoms: C8_18  and  N5_19 
REMARK    5  A    between atoms: N5_19  and  C9_21 
REMARK    6  A    between atoms: C9_21  and  C10_22 
REMARK    7  A    between atoms: N6_24  and  C12_25 
REMARK    8  A    between atoms: C12_25  and  C13_26 
REMARK    9  A    between atoms: C13_26  and  O1_27 
REMARK   10  A    between atoms: C13_26  and  N7_29 
REMARK   11  A    between atoms: C15_32  and  N8_33 
REMARK   12  A    between atoms: N8_33  and  N9_34 
REMARK   13  A    between atoms: C16_37  and  C17_38 
ROOT
HETATM    1  C10 UNL     1      -6.393 -36.333  21.117  1.00  0.00     0.019 A 
HETATM    2  C11 UNL     1      -5.044 -36.292  21.368  1.00  0.00     0.122 A 
HETATM    3  N6  UNL     1      -4.662 -35.030  21.664  1.00  0.00    -0.298 N 
HETATM    4  N10 UNL     1      -5.730 -34.282  21.606  1.00  0.00    -0.285 N 
ATOM      5  H10 UNL     1      -5.738 -33.278  21.784  1.00  0.00     0.188 HD
HETATM    6  C18 UNL     1      -6.814 -34.998  21.282  1.00  0.00     0.140 A 
HETATM    7  N11 UNL     1      -8.153 -34.590  21.115  1.00  0.00    -0.081 NA
ENDROOT
BRANCH   1   8
HETATM    8  C9  UNL     1      -7.289 -37.460  20.752  1.00  0.00     0.181 C 
BRANCH   8   9
HETATM    9  N5  UNL     1      -6.760 -38.133  19.597  1.00  0.00    -0.222 N 
ATOM     10  H5  UNL     1      -6.829 -37.693  18.679  1.00  0.00     0.178 HD
BRANCH   9  11
HETATM   11  C8  UNL     1      -6.137 -39.417  19.724  1.00  0.00     0.678 A 
HETATM   12  N4  UNL     1      -5.500 -39.730  20.778  1.00  0.00    -0.164 N 
HETATM   13  C7  UNL     1      -4.864 -41.011  20.934  1.00  0.00     0.204 A 
ATOM     14  H4  UNL     1      -5.438 -39.052  21.537  1.00  0.00     0.187 HD
HETATM   15  N2  UNL     1      -4.956 -41.840  19.976  1.00  0.00    -0.338 N 
HETATM   16  N3  UNL     1      -4.172 -41.288  22.141  1.00  0.00    -0.063 NA
HETATM   17  C6  UNL     1      -5.629 -41.639  18.736  1.00  0.00     0.236 A 
ATOM     18  H2  UNL     1      -4.500 -42.743  20.108  1.00  0.00     0.164 HD
HETATM   19  N12 UNL     1      -6.252 -40.327  18.646  1.00  0.00    -0.201 N 
ATOM     20  H12 UNL     1      -6.771 -40.063  17.808  1.00  0.00     0.180 HD
BRANCH  17  21
HETATM   21  C5  UNL     1      -6.651 -42.748  18.554  1.00  0.00    -0.000 A 
HETATM   22  C2  UNL     1      -6.632 -43.535  17.435  1.00  0.00     0.018 A 
HETATM   23  S1  UNL     1      -7.968 -44.598  17.706  1.00  0.00    -0.104 SA
HETATM   24  C3  UNL     1      -8.487 -44.005  19.210  1.00  0.00     0.051 A 
HETATM   25  C4  UNL     1      -7.605 -42.991  19.465  1.00  0.00     0.019 A 
BRANCH  22  26
HETATM   26  C1  UNL     1      -5.700 -43.523  16.249  1.00  0.00     0.276 C 
BRANCH  26  27
HETATM   27  N1  UNL     1      -6.549 -43.209  15.088  1.00  0.00    -0.075 N 
ATOM     28  H13 UNL     1      -6.024 -43.030  14.232  1.00  0.00     0.274 HD
ATOM     29  H12 UNL     1      -7.079 -44.007  14.739  1.00  0.00     0.274 HD
ATOM     30  H11 UNL     1      -7.132 -42.425  15.384  1.00  0.00     0.274 HD
ENDBRANCH  26  27
ENDBRANCH  22  26
ENDBRANCH  17  21
ENDBRANCH   9  11
ENDBRANCH   8   9
ENDBRANCH   1   8
BRANCH   3  31
HETATM   31  C12 UNL     1      -3.282 -34.629  21.984  1.00  0.00     0.198 C 
BRANCH  31  32
HETATM   32  C13 UNL     1      -2.498 -34.351  20.745  1.00  0.00     0.239 C 
BRANCH  32  33
HETATM   33  O1  UNL     1      -3.352 -34.390  19.654  1.00  0.00    -0.377 OA
ATOM     34  H1  UNL     1      -2.859 -34.181  18.868  1.00  0.00     0.211 HD
ENDBRANCH  32  33
BRANCH  32  35
HETATM   35  N7  UNL     1      -1.427 -35.278  20.611  1.00  0.00    -0.150 NA
HETATM   36  O2  UNL     1      -1.503 -36.299  21.443  1.00  0.00    -0.298 OA
HETATM   37  C14 UNL     1      -1.476 -37.481  20.756  1.00  0.00     0.219 C 
HETATM   38  C15 UNL     1      -0.586 -37.135  19.569  1.00  0.00     0.154 C 
HETATM   39  C16 UNL     1      -1.096 -35.710  19.309  1.00  0.00     0.213 C 
BRANCH  38  40
HETATM   40  N8  UNL     1       0.775 -37.087  20.075  1.00  0.00    -0.139 NA
BRANCH  40  41
HETATM   41  N9  UNL     1       0.888 -37.758  21.297  1.00  0.00    -0.348 N 
ATOM     42  H92 UNL     1       0.193 -38.420  21.642  1.00  0.00     0.172 HD
ATOM     43  H91 UNL     1       1.745 -37.497  21.785  1.00  0.00     0.172 HD
ENDBRANCH  40  41
ENDBRANCH  38  40
BRANCH  39  44
HETATM   44  C17 UNL     1      -0.043 -34.895  18.653  1.00  0.00     0.195 C 
HETATM   45  O3  UNL     1       0.291 -35.126  17.458  1.00  0.00    -0.647 OA
HETATM   46  O4  UNL     1       0.622 -33.861  19.289  1.00  0.00    -0.647 OA
ENDBRANCH  39  44
ENDBRANCH  32  35
ENDBRANCH  31  32
ENDBRANCH   3  31
TORSDOF 13
ENDMDL
