MODEL 1
REMARK VINA RESULT: -9.226176398      0.000      0.000
REMARK  11 active torsions:
REMARK  status: ('A' for Active; 'I' for Inactive)
REMARK    1  A    between atoms: N4_10  and  C5_11 
REMARK    2  A    between atoms: N6_15  and  C7_16 
REMARK    3  A    between atoms: C7_16  and  O1_17 
REMARK    4  A    between atoms: C7_16  and  C8_19 
REMARK       I    between atoms: C8_19  and  N7_21 
REMARK    5  A    between atoms: N7_21  and  C9_23 
REMARK    6  A    between atoms: C9_23  and  O3_24 
REMARK    7  A    between atoms: C9_23  and  N8_26 
REMARK    8  A    between atoms: N8_26  and  C10_29 
REMARK    9  A    between atoms: C10_29  and  C11_30 
REMARK   10  A    between atoms: C10_29  and  C13_37 
REMARK   11  A    between atoms: C15_42  and  N13_43 
ROOT
HETATM    1  C9  UNL     1       0.460 -33.956  18.523  1.00  0.00     0.430 C 
ENDROOT
BRANCH   1   2
HETATM    2  N7  UNL     1       0.210 -35.355  18.873  1.00  0.00    -0.308 N 
HETATM    3  C8  UNL     1      -1.073 -35.837  19.201  1.00  0.00     0.273 C 
HETATM    4  O2  UNL     1      -2.026 -35.009  19.184  1.00  0.00    -0.268 OA
ATOM      5  H7  UNL     1       0.995 -36.005  18.881  1.00  0.00     0.166 HD
BRANCH   3   6
HETATM    6  C7  UNL     1      -1.382 -37.223  19.559  1.00  0.00     0.352 C 
BRANCH   6   7
HETATM    7  N6  UNL     1      -2.558 -37.338  20.401  1.00  0.00    -0.193 N 
HETATM    8  N5  UNL     1      -2.631 -37.548  21.694  1.00  0.00    -0.289 N 
HETATM    9  C6  UNL     1      -3.913 -37.584  22.080  1.00  0.00     0.160 A 
ATOM     10  H5  UNL     1      -1.830 -37.667  22.315  1.00  0.00     0.188 HD
HETATM   11  C5  UNL     1      -4.683 -37.386  20.965  1.00  0.00     0.158 A 
HETATM   12  N16 UNL     1      -3.794 -37.239  19.958  1.00  0.00    -0.263 N 
ATOM     13  H16 UNL     1      -4.048 -37.074  18.983  1.00  0.00     0.190 HD
BRANCH  11  14
HETATM   14  N4  UNL     1      -6.099 -37.346  20.893  1.00  0.00    -0.242 N 
HETATM   15  C2  UNL     1      -7.037 -38.434  20.787  1.00  0.00     0.121 A 
HETATM   16  C1  UNL     1      -6.935 -39.264  22.028  1.00  0.00     0.065 C 
HETATM   17  C3  UNL     1      -6.827 -39.246  19.528  1.00  0.00     0.065 C 
HETATM   18  N1  UNL     1      -8.321 -37.789  20.759  1.00  0.00    -0.336 N 
HETATM   19  C4  UNL     1      -8.228 -36.513  20.828  1.00  0.00     0.205 A 
ATOM     20  H1  UNL     1      -9.207 -38.290  20.693  1.00  0.00     0.164 HD
HETATM   21  N2  UNL     1      -9.320 -35.609  20.821  1.00  0.00    -0.062 NA
HETATM   22  N3  UNL     1      -6.850 -36.172  20.914  1.00  0.00    -0.267 N 
ATOM     23  H3  UNL     1      -6.474 -35.227  20.981  1.00  0.00     0.190 HD
ENDBRANCH  11  14
ENDBRANCH   6   7
BRANCH   6  24
HETATM   24  O1  UNL     1      -0.304 -37.686  20.351  1.00  0.00    -0.366 OA
ATOM     25  H1  UNL     1       0.422 -37.104  20.155  1.00  0.00     0.212 HD
ENDBRANCH   6  24
ENDBRANCH   3   6
ENDBRANCH   1   2
BRANCH   1  26
HETATM   26  O3  UNL     1       1.609 -33.893  17.791  1.00  0.00    -0.354 OA
ATOM     27  H3  UNL     1       2.348 -33.937  18.387  1.00  0.00     0.214 HD
ENDBRANCH   1  26
BRANCH   1  28
HETATM   28  N8  UNL     1       0.405 -33.114  19.700  1.00  0.00    -0.016 N 
ATOM     29  H82 UNL     1       0.563 -32.136  19.459  1.00  0.00     0.283 HD
ATOM     30  H81 UNL     1      -0.547 -33.044  20.056  1.00  0.00     0.283 HD
BRANCH  28  31
HETATM   31  C10 UNL     1       1.299 -33.539  20.716  1.00  0.00     0.289 C 
BRANCH  31  32
HETATM   32  C11 UNL     1       2.030 -32.411  21.399  1.00  0.00     0.103 A 
HETATM   33  N9  UNL     1       2.266 -31.165  21.036  1.00  0.00    -0.295 N 
HETATM   34  N10 UNL     1       2.910 -30.382  21.781  1.00  0.00    -0.305 N 
ATOM     35  H9  UNL     1       1.921 -30.831  20.136  1.00  0.00     0.187 HD
HETATM   36  C12 UNL     1       3.366 -30.809  22.956  1.00  0.00     0.158 A 
ATOM     37  H10 UNL     1       3.083 -29.421  21.485  1.00  0.00     0.186 HD
HETATM   38  S1  UNL     1       2.811 -32.431  22.944  1.00  0.00    -0.066 SA
ENDBRANCH  31  32
BRANCH  31  39
HETATM   39  C13 UNL     1       0.799 -34.422  21.751  1.00  0.00     0.065 A 
HETATM   40  C14 UNL     1      -0.458 -34.160  22.327  1.00  0.00     0.144 A 
HETATM   41  N11 UNL     1      -1.187 -33.020  21.881  1.00  0.00    -0.081 NA
HETATM   42  N12 UNL     1      -0.978 -34.959  23.280  1.00  0.00    -0.178 N 
HETATM   43  C15 UNL     1      -0.313 -36.038  23.716  1.00  0.00     0.678 A 
ATOM     44  H12 UNL     1      -1.893 -34.739  23.676  1.00  0.00     0.185 HD
HETATM   45  N14 UNL     1       0.877 -36.305  23.187  1.00  0.00    -0.177 N 
HETATM   46  C16 UNL     1       1.452 -35.518  22.209  1.00  0.00     0.126 A 
ATOM     47  H14 UNL     1       1.386 -37.125  23.518  1.00  0.00     0.186 HD
HETATM   48  N15 UNL     1       2.590 -35.873  21.778  1.00  0.00    -0.384 N 
ATOM     49 2H15 UNL     1       3.015 -35.292  21.055  1.00  0.00     0.157 HD
ATOM     50 1H15 UNL     1       3.081 -36.698  22.122  1.00  0.00     0.157 HD
BRANCH  43  51
HETATM   51  N13 UNL     1      -0.854 -36.774  24.633  1.00  0.00    -0.234 N 
ATOM     52 2H13 UNL     1      -1.716 -36.515  25.113  1.00  0.00     0.174 HD
ATOM     53 1H13 UNL     1      -0.401 -37.652  24.888  1.00  0.00     0.174 HD
ENDBRANCH  43  51
ENDBRANCH  31  39
ENDBRANCH  28  31
ENDBRANCH   1  28
TORSDOF 11
ENDMDL
MODEL 2
REMARK VINA RESULT: -8.974447198      2.167      3.272
REMARK  11 active torsions:
REMARK  status: ('A' for Active; 'I' for Inactive)
REMARK    1  A    between atoms: N4_10  and  C5_11 
REMARK    2  A    between atoms: N6_15  and  C7_16 
REMARK    3  A    between atoms: C7_16  and  O1_17 
REMARK    4  A    between atoms: C7_16  and  C8_19 
REMARK       I    between atoms: C8_19  and  N7_21 
REMARK    5  A    between atoms: N7_21  and  C9_23 
REMARK    6  A    between atoms: C9_23  and  O3_24 
REMARK    7  A    between atoms: C9_23  and  N8_26 
REMARK    8  A    between atoms: N8_26  and  C10_29 
REMARK    9  A    between atoms: C10_29  and  C11_30 
REMARK   10  A    between atoms: C10_29  and  C13_37 
REMARK   11  A    between atoms: C15_42  and  N13_43 
ROOT
HETATM    1  C9  UNL     1       0.315 -37.295  20.009  1.00  0.00     0.430 C 
ENDROOT
BRANCH   1   2
HETATM    2  N7  UNL     1      -0.720 -37.872  20.866  1.00  0.00    -0.308 N 
HETATM    3  C8  UNL     1      -2.035 -38.106  20.415  1.00  0.00     0.273 C 
HETATM    4  O2  UNL     1      -2.302 -37.796  19.222  1.00  0.00    -0.268 OA
ATOM      5  H7  UNL     1      -0.481 -38.115  21.828  1.00  0.00     0.166 HD
BRANCH   3   6
HETATM    6  C7  UNL     1      -3.110 -38.680  21.227  1.00  0.00     0.352 C 
BRANCH   6   7
HETATM    7  N6  UNL     1      -4.354 -37.941  21.116  1.00  0.00    -0.193 N 
HETATM    8  N5  UNL     1      -4.787 -37.192  20.129  1.00  0.00    -0.289 N 
HETATM    9  C6  UNL     1      -5.991 -36.690  20.429  1.00  0.00     0.160 A 
ATOM     10  H5  UNL     1      -4.280 -37.018  19.261  1.00  0.00     0.188 HD
HETATM   11  C5  UNL     1      -6.329 -37.151  21.674  1.00  0.00     0.158 A 
HETATM   12  N16 UNL     1      -5.283 -37.918  22.050  1.00  0.00    -0.263 N 
ATOM     13  H16 UNL     1      -5.220 -38.413  22.940  1.00  0.00     0.190 HD
BRANCH  11  14
HETATM   14  N4  UNL     1      -7.516 -36.876  22.400  1.00  0.00    -0.242 N 
HETATM   15  C2  UNL     1      -8.866 -37.301  22.135  1.00  0.00     0.121 A 
HETATM   16  C1  UNL     1      -8.918 -38.794  22.246  1.00  0.00     0.065 C 
HETATM   17  C3  UNL     1      -9.367 -36.803  20.796  1.00  0.00     0.065 C 
HETATM   18  N1  UNL     1      -9.633 -36.725  23.204  1.00  0.00    -0.336 N 
HETATM   19  C4  UNL     1      -8.910 -36.043  24.011  1.00  0.00     0.205 A 
ATOM     20  H1  UNL     1     -10.641 -36.845  23.308  1.00  0.00     0.164 HD
HETATM   21  N2  UNL     1      -9.382 -35.357  25.158  1.00  0.00    -0.062 NA
HETATM   22  N3  UNL     1      -7.563 -36.100  23.557  1.00  0.00    -0.267 N 
ATOM     23  H3  UNL     1      -6.765 -35.650  24.004  1.00  0.00     0.190 HD
ENDBRANCH  11  14
ENDBRANCH   6   7
BRANCH   6  24
HETATM   24  O1  UNL     1      -2.712 -38.547  22.578  1.00  0.00    -0.366 OA
ATOM     25  H1  UNL     1      -1.785 -38.339  22.550  1.00  0.00     0.212 HD
ENDBRANCH   6  24
ENDBRANCH   3   6
ENDBRANCH   1   2
BRANCH   1  26
HETATM   26  O3  UNL     1       1.527 -37.776  20.411  1.00  0.00    -0.354 OA
ATOM     27  H3  UNL     1       1.689 -38.596  19.960  1.00  0.00     0.214 HD
ENDBRANCH   1  26
BRANCH   1  28
HETATM   28  N8  UNL     1       0.189 -35.853  19.952  1.00  0.00    -0.016 N 
ATOM     29  H82 UNL     1       1.045 -35.424  19.600  1.00  0.00     0.283 HD
ATOM     30  H81 UNL     1      -0.453 -35.571  19.212  1.00  0.00     0.283 HD
BRANCH  28  31
HETATM   31  C10 UNL     1      -0.189 -35.288  21.197  1.00  0.00     0.289 C 
BRANCH  31  32
HETATM   32  C11 UNL     1       0.713 -34.173  21.663  1.00  0.00     0.103 A 
HETATM   33  N9  UNL     1       0.595 -32.860  21.604  1.00  0.00    -0.295 N 
HETATM   34  N10 UNL     1       1.490 -32.107  22.068  1.00  0.00    -0.305 N 
ATOM     35  H9  UNL     1      -0.235 -32.450  21.176  1.00  0.00     0.187 HD
HETATM   36  C12 UNL     1       2.576 -32.633  22.628  1.00  0.00     0.158 A 
ATOM     37  H10 UNL     1       1.382 -31.094  22.016  1.00  0.00     0.186 HD
HETATM   38  S1  UNL     1       2.247 -34.307  22.455  1.00  0.00    -0.066 SA
ENDBRANCH  31  32
BRANCH  31  39
HETATM   39  C13 UNL     1      -1.556 -34.839  21.365  1.00  0.00     0.065 A 
HETATM   40  C14 UNL     1      -2.157 -34.075  20.348  1.00  0.00     0.144 A 
HETATM   41  N11 UNL     1      -1.387 -33.756  19.192  1.00  0.00    -0.081 NA
HETATM   42  N12 UNL     1      -3.432 -33.648  20.444  1.00  0.00    -0.178 N 
HETATM   43  C15 UNL     1      -4.177 -33.937  21.520  1.00  0.00     0.678 A 
ATOM     44  H12 UNL     1      -3.836 -33.096  19.687  1.00  0.00     0.185 HD
HETATM   45  N14 UNL     1      -3.631 -34.656  22.495  1.00  0.00    -0.177 N 
HETATM   46  C16 UNL     1      -2.331 -35.118  22.443  1.00  0.00     0.126 A 
ATOM     47  H14 UNL     1      -4.196 -34.876  23.316  1.00  0.00     0.186 HD
HETATM   48  N15 UNL     1      -1.919 -35.796  23.431  1.00  0.00    -0.384 N 
ATOM     49 2H15 UNL     1      -0.958 -36.137  23.392  1.00  0.00     0.157 HD
ATOM     50 1H15 UNL     1      -2.502 -36.006  24.241  1.00  0.00     0.157 HD
BRANCH  43  51
HETATM   51  N13 UNL     1      -5.396 -33.503  21.567  1.00  0.00    -0.234 N 
ATOM     52 2H13 UNL     1      -6.120 -33.818  20.921  1.00  0.00     0.174 HD
ATOM     53 1H13 UNL     1      -5.646 -32.819  22.281  1.00  0.00     0.174 HD
ENDBRANCH  43  51
ENDBRANCH  31  39
ENDBRANCH  28  31
ENDBRANCH   1  28
TORSDOF 11
ENDMDL
MODEL 3
REMARK VINA RESULT: -8.880500432      1.134      1.776
REMARK  11 active torsions:
REMARK  status: ('A' for Active; 'I' for Inactive)
REMARK    1  A    between atoms: N4_10  and  C5_11 
REMARK    2  A    between atoms: N6_15  and  C7_16 
REMARK    3  A    between atoms: C7_16  and  O1_17 
REMARK    4  A    between atoms: C7_16  and  C8_19 
REMARK       I    between atoms: C8_19  and  N7_21 
REMARK    5  A    between atoms: N7_21  and  C9_23 
REMARK    6  A    between atoms: C9_23  and  O3_24 
REMARK    7  A    between atoms: C9_23  and  N8_26 
REMARK    8  A    between atoms: N8_26  and  C10_29 
REMARK    9  A    between atoms: C10_29  and  C11_30 
REMARK   10  A    between atoms: C10_29  and  C13_37 
REMARK   11  A    between atoms: C15_42  and  N13_43 
ROOT
HETATM    1  C9  UNL     1       0.520 -33.720  18.699  1.00  0.00     0.430 C 
ENDROOT
BRANCH   1   2
HETATM    2  N7  UNL     1       0.174 -35.141  18.712  1.00  0.00    -0.308 N 
HETATM    3  C8  UNL     1      -1.135 -35.600  18.962  1.00  0.00     0.273 C 
HETATM    4  O2  UNL     1      -2.023 -34.731  19.179  1.00  0.00    -0.268 OA
ATOM      5  H7  UNL     1       0.908 -35.826  18.534  1.00  0.00     0.166 HD
BRANCH   3   6
HETATM    6  C7  UNL     1      -1.539 -37.008  18.989  1.00  0.00     0.352 C 
BRANCH   6   7
HETATM    7  N6  UNL     1      -2.426 -37.317  20.094  1.00  0.00    -0.193 N 
HETATM    8  N5  UNL     1      -2.178 -38.002  21.186  1.00  0.00    -0.289 N 
HETATM    9  C6  UNL     1      -3.275 -38.052  21.953  1.00  0.00     0.160 A 
ATOM     10  H5  UNL     1      -1.283 -38.432  21.417  1.00  0.00     0.188 HD
HETATM   11  C5  UNL     1      -4.263 -37.362  21.303  1.00  0.00     0.158 A 
HETATM   12  N16 UNL     1      -3.683 -36.930  20.162  1.00  0.00    -0.263 N 
ATOM     13  H16 UNL     1      -4.157 -36.377  19.447  1.00  0.00     0.190 HD
BRANCH  11  14
HETATM   14  N4  UNL     1      -5.596 -37.153  21.738  1.00  0.00    -0.242 N 
HETATM   15  C2  UNL     1      -6.798 -37.854  21.366  1.00  0.00     0.121 A 
HETATM   16  C1  UNL     1      -6.672 -39.275  21.819  1.00  0.00     0.065 C 
HETATM   17  C3  UNL     1      -7.085 -37.743  19.884  1.00  0.00     0.065 C 
HETATM   18  N1  UNL     1      -7.832 -37.209  22.127  1.00  0.00    -0.336 N 
HETATM   19  C4  UNL     1      -7.380 -36.257  22.855  1.00  0.00     0.205 A 
ATOM     20  H1  UNL     1      -8.815 -37.479  22.091  1.00  0.00     0.164 HD
HETATM   21  N2  UNL     1      -8.158 -35.439  23.713  1.00  0.00    -0.062 NA
HETATM   22  N3  UNL     1      -5.975 -36.172  22.654  1.00  0.00    -0.267 N 
ATOM     23  H3  UNL     1      -5.349 -35.506  23.105  1.00  0.00     0.190 HD
ENDBRANCH  11  14
ENDBRANCH   6   7
BRANCH   6  24
HETATM   24  O1  UNL     1      -0.365 -37.761  19.225  1.00  0.00    -0.366 OA
ATOM     25  H1  UNL     1      -0.013 -37.432  20.044  1.00  0.00     0.212 HD
ENDBRANCH   6  24
ENDBRANCH   3   6
ENDBRANCH   1   2
BRANCH   1  26
HETATM   26  O3  UNL     1       1.804 -33.592  18.255  1.00  0.00    -0.354 OA
ATOM     27  H3  UNL     1       1.866 -32.797  17.739  1.00  0.00     0.214 HD
ENDBRANCH   1  26
BRANCH   1  28
HETATM   28  N8  UNL     1       0.223 -33.106  19.976  1.00  0.00    -0.016 N 
ATOM     29  H82 UNL     1       0.321 -32.092  19.928  1.00  0.00     0.283 HD
ATOM     30  H81 UNL     1      -0.773 -33.165  20.188  1.00  0.00     0.283 HD
BRANCH  28  31
HETATM   31  C10 UNL     1       1.000 -33.643  21.034  1.00  0.00     0.289 C 
BRANCH  31  32
HETATM   32  C11 UNL     1       1.792 -32.612  21.797  1.00  0.00     0.103 A 
HETATM   33  N9  UNL     1       2.109 -32.510  23.074  1.00  0.00    -0.295 N 
HETATM   34  N10 UNL     1       2.795 -31.544  23.498  1.00  0.00    -0.305 N 
ATOM     35  H9  UNL     1       1.793 -33.226  23.728  1.00  0.00     0.187 HD
HETATM   36  C12 UNL     1       3.211 -30.604  22.653  1.00  0.00     0.158 A 
ATOM     37  H10 UNL     1       3.031 -31.482  24.488  1.00  0.00     0.186 HD
HETATM   38  S1  UNL     1       2.556 -31.186  21.179  1.00  0.00    -0.066 SA
ENDBRANCH  31  32
BRANCH  31  39
HETATM   39  C13 UNL     1       0.348 -34.497  22.007  1.00  0.00     0.065 A 
HETATM   40  C14 UNL     1       1.050 -35.599  22.531  1.00  0.00     0.144 A 
HETATM   41  N11 UNL     1       2.375 -35.844  22.067  1.00  0.00    -0.081 NA
HETATM   42  N12 UNL     1       0.498 -36.414  23.451  1.00  0.00    -0.178 N 
HETATM   43  C15 UNL     1      -0.746 -36.203  23.904  1.00  0.00     0.678 A 
ATOM     44  H12 UNL     1       1.036 -37.204  23.810  1.00  0.00     0.185 HD
HETATM   45  N14 UNL     1      -1.428 -35.169  23.423  1.00  0.00    -0.177 N 
HETATM   46  C16 UNL     1      -0.907 -34.305  22.480  1.00  0.00     0.126 A 
ATOM     47  H14 UNL     1      -2.376 -35.007  23.765  1.00  0.00     0.186 HD
HETATM   48  N15 UNL     1      -1.651 -33.353  22.097  1.00  0.00    -0.384 N 
ATOM     49 2H15 UNL     1      -1.266 -32.714  21.400  1.00  0.00     0.157 HD
ATOM     50 1H15 UNL     1      -2.595 -33.209  22.454  1.00  0.00     0.157 HD
BRANCH  43  51
HETATM   51  N13 UNL     1      -1.232 -37.015  24.788  1.00  0.00    -0.234 N 
ATOM     52 2H13 UNL     1      -1.135 -38.028  24.721  1.00  0.00     0.174 HD
ATOM     53 1H13 UNL     1      -1.733 -36.626  25.587  1.00  0.00     0.174 HD
ENDBRANCH  43  51
ENDBRANCH  31  39
ENDBRANCH  28  31
ENDBRANCH   1  28
TORSDOF 11
ENDMDL
MODEL 4
REMARK VINA RESULT: -8.863312824      1.554      2.007
REMARK  11 active torsions:
REMARK  status: ('A' for Active; 'I' for Inactive)
REMARK    1  A    between atoms: N4_10  and  C5_11 
REMARK    2  A    between atoms: N6_15  and  C7_16 
REMARK    3  A    between atoms: C7_16  and  O1_17 
REMARK    4  A    between atoms: C7_16  and  C8_19 
REMARK       I    between atoms: C8_19  and  N7_21 
REMARK    5  A    between atoms: N7_21  and  C9_23 
REMARK    6  A    between atoms: C9_23  and  O3_24 
REMARK    7  A    between atoms: C9_23  and  N8_26 
REMARK    8  A    between atoms: N8_26  and  C10_29 
REMARK    9  A    between atoms: C10_29  and  C11_30 
REMARK   10  A    between atoms: C10_29  and  C13_37 
REMARK   11  A    between atoms: C15_42  and  N13_43 
ROOT
HETATM    1  C9  UNL     1       0.359 -34.018  18.670  1.00  0.00     0.430 C 
ENDROOT
BRANCH   1   2
HETATM    2  N7  UNL     1       0.184 -35.432  19.005  1.00  0.00    -0.308 N 
HETATM    3  C8  UNL     1      -1.085 -36.019  19.178  1.00  0.00     0.273 C 
HETATM    4  O2  UNL     1      -2.093 -35.274  19.033  1.00  0.00    -0.268 OA
ATOM      5  H7  UNL     1       1.014 -36.014  19.118  1.00  0.00     0.166 HD
BRANCH   3   6
HETATM    6  C7  UNL     1      -1.320 -37.425  19.514  1.00  0.00     0.352 C 
BRANCH   6   7
HETATM    7  N6  UNL     1      -2.658 -37.666  20.018  1.00  0.00    -0.193 N 
HETATM    8  N5  UNL     1      -3.509 -38.610  19.690  1.00  0.00    -0.289 N 
HETATM    9  C6  UNL     1      -4.638 -38.475  20.396  1.00  0.00     0.160 A 
ATOM     10  H5  UNL     1      -3.335 -39.339  18.998  1.00  0.00     0.188 HD
HETATM   11  C5  UNL     1      -4.485 -37.386  21.211  1.00  0.00     0.158 A 
HETATM   12  N16 UNL     1      -3.245 -36.925  20.936  1.00  0.00    -0.263 N 
ATOM     13  H16 UNL     1      -2.819 -36.112  21.381  1.00  0.00     0.190 HD
BRANCH  11  14
HETATM   14  N4  UNL     1      -5.426 -36.863  22.134  1.00  0.00    -0.242 N 
HETATM   15  C2  UNL     1      -6.313 -35.736  21.994  1.00  0.00     0.121 A 
HETATM   16  C1  UNL     1      -7.278 -36.034  20.889  1.00  0.00     0.065 C 
HETATM   17  C3  UNL     1      -5.558 -34.443  21.770  1.00  0.00     0.065 C 
HETATM   18  N1  UNL     1      -7.026 -35.692  23.240  1.00  0.00    -0.336 N 
HETATM   19  C4  UNL     1      -6.660 -36.620  24.045  1.00  0.00     0.205 A 
ATOM     20  H1  UNL     1      -7.743 -35.001  23.460  1.00  0.00     0.164 HD
HETATM   21  N2  UNL     1      -7.182 -36.831  25.346  1.00  0.00    -0.062 NA
HETATM   22  N3  UNL     1      -5.653 -37.392  23.404  1.00  0.00    -0.267 N 
ATOM     23  H3  UNL     1      -5.176 -38.199  23.805  1.00  0.00     0.190 HD
ENDBRANCH  11  14
ENDBRANCH   6   7
BRANCH   6  24
HETATM   24  O1  UNL     1      -0.451 -37.735  20.587  1.00  0.00    -0.366 OA
ATOM     25  H1  UNL     1      -0.843 -37.335  21.355  1.00  0.00     0.212 HD
ENDBRANCH   6  24
ENDBRANCH   3   6
ENDBRANCH   1   2
BRANCH   1  26
HETATM   26  O3  UNL     1       1.502 -33.886  17.937  1.00  0.00    -0.354 OA
ATOM     27  H3  UNL     1       1.274 -33.530  17.086  1.00  0.00     0.214 HD
ENDBRANCH   1  26
BRANCH   1  28
HETATM   28  N8  UNL     1       0.264 -33.194  19.856  1.00  0.00    -0.016 N 
ATOM     29  H82 UNL     1       0.523 -32.228  19.654  1.00  0.00     0.283 HD
ATOM     30  H81 UNL     1      -0.709 -33.050  20.125  1.00  0.00     0.283 HD
BRANCH  28  31
HETATM   31  C10 UNL     1       1.021 -33.707  20.940  1.00  0.00     0.289 C 
BRANCH  31  32
HETATM   32  C11 UNL     1       1.781 -32.656  21.709  1.00  0.00     0.103 A 
HETATM   33  N9  UNL     1       2.044 -32.521  22.995  1.00  0.00    -0.295 N 
HETATM   34  N10 UNL     1       2.713 -31.544  23.422  1.00  0.00    -0.305 N 
ATOM     35  H9  UNL     1       1.699 -33.219  23.654  1.00  0.00     0.187 HD
HETATM   36  C12 UNL     1       3.166 -30.628  22.571  1.00  0.00     0.158 A 
ATOM     37  H10 UNL     1       2.908 -31.456  24.419  1.00  0.00     0.186 HD
HETATM   38  S1  UNL     1       2.573 -31.248  21.086  1.00  0.00    -0.066 SA
ENDBRANCH  31  32
BRANCH  31  39
HETATM   39  C13 UNL     1       0.355 -34.555  21.908  1.00  0.00     0.065 A 
HETATM   40  C14 UNL     1      -0.923 -34.193  22.372  1.00  0.00     0.144 A 
HETATM   41  N11 UNL     1      -1.508 -32.989  21.883  1.00  0.00    -0.081 NA
HETATM   42  N12 UNL     1      -1.596 -34.955  23.258  1.00  0.00    -0.178 N 
HETATM   43  C15 UNL     1      -1.067 -36.093  23.731  1.00  0.00     0.678 A 
ATOM     44  H12 UNL     1      -2.521 -34.662  23.573  1.00  0.00     0.185 HD
HETATM   45  N14 UNL     1       0.139 -36.455  23.308  1.00  0.00    -0.177 N 
HETATM   46  C16 UNL     1       0.867 -35.709  22.402  1.00  0.00     0.126 A 
ATOM     47  H14 UNL     1       0.545 -37.320  23.668  1.00  0.00     0.186 HD
HETATM   48  N15 UNL     1       2.006 -36.156  22.070  1.00  0.00    -0.384 N 
ATOM     49 2H15 UNL     1       2.544 -35.605  21.400  1.00  0.00     0.157 HD
ATOM     50 1H15 UNL     1       2.391 -37.024  22.441  1.00  0.00     0.157 HD
BRANCH  43  51
HETATM   51  N13 UNL     1      -1.751 -36.790  24.580  1.00  0.00    -0.234 N 
ATOM     52 2H13 UNL     1      -2.242 -36.372  25.371  1.00  0.00     0.174 HD
ATOM     53 1H13 UNL     1      -1.804 -37.801  24.456  1.00  0.00     0.174 HD
ENDBRANCH  43  51
ENDBRANCH  31  39
ENDBRANCH  28  31
ENDBRANCH   1  28
TORSDOF 11
ENDMDL
MODEL 5
REMARK VINA RESULT: -8.806359999      5.305     10.136
REMARK  11 active torsions:
REMARK  status: ('A' for Active; 'I' for Inactive)
REMARK    1  A    between atoms: N4_10  and  C5_11 
REMARK    2  A    between atoms: N6_15  and  C7_16 
REMARK    3  A    between atoms: C7_16  and  O1_17 
REMARK    4  A    between atoms: C7_16  and  C8_19 
REMARK       I    between atoms: C8_19  and  N7_21 
REMARK    5  A    between atoms: N7_21  and  C9_23 
REMARK    6  A    between atoms: C9_23  and  O3_24 
REMARK    7  A    between atoms: C9_23  and  N8_26 
REMARK    8  A    between atoms: N8_26  and  C10_29 
REMARK    9  A    between atoms: C10_29  and  C11_30 
REMARK   10  A    between atoms: C10_29  and  C13_37 
REMARK   11  A    between atoms: C15_42  and  N13_43 
ROOT
HETATM    1  C9  UNL     1      -7.481 -40.874  20.467  1.00  0.00     0.430 C 
ENDROOT
BRANCH   1   2
HETATM    2  N7  UNL     1      -7.632 -39.423  20.577  1.00  0.00    -0.308 N 
HETATM    3  C8  UNL     1      -6.533 -38.542  20.543  1.00  0.00     0.273 C 
HETATM    4  O2  UNL     1      -5.385 -39.050  20.412  1.00  0.00    -0.268 OA
ATOM      5  H7  UNL     1      -8.569 -39.035  20.682  1.00  0.00     0.166 HD
BRANCH   3   6
HETATM    6  C7  UNL     1      -6.623 -37.084  20.649  1.00  0.00     0.352 C 
BRANCH   6   7
HETATM    7  N6  UNL     1      -5.351 -36.463  20.967  1.00  0.00    -0.193 N 
HETATM    8  N5  UNL     1      -5.007 -35.781  22.034  1.00  0.00    -0.289 N 
HETATM    9  C6  UNL     1      -3.732 -35.382  21.931  1.00  0.00     0.160 A 
ATOM     10  H5  UNL     1      -5.619 -35.584  22.825  1.00  0.00     0.188 HD
HETATM   11  C5  UNL     1      -3.255 -35.840  20.732  1.00  0.00     0.158 A 
HETATM   12  N16 UNL     1      -4.295 -36.500  20.179  1.00  0.00    -0.263 N 
ATOM     13  H16 UNL     1      -4.268 -36.966  19.272  1.00  0.00     0.190 HD
BRANCH  11  14
HETATM   14  N4  UNL     1      -1.954 -35.655  20.197  1.00  0.00    -0.242 N 
HETATM   15  C2  UNL     1      -0.678 -35.718  20.861  1.00  0.00     0.121 A 
HETATM   16  C1  UNL     1      -0.478 -37.114  21.363  1.00  0.00     0.065 C 
HETATM   17  C3  UNL     1      -0.557 -34.685  21.960  1.00  0.00     0.065 C 
HETATM   18  N1  UNL     1       0.274 -35.455  19.818  1.00  0.00    -0.336 N 
HETATM   19  C4  UNL     1      -0.286 -35.251  18.684  1.00  0.00     0.205 A 
ATOM     20  H1  UNL     1       1.284 -35.433  19.963  1.00  0.00     0.164 HD
HETATM   21  N2  UNL     1       0.391 -34.967  17.472  1.00  0.00    -0.062 NA
HETATM   22  N3  UNL     1      -1.693 -35.365  18.859  1.00  0.00    -0.267 N 
ATOM     23  H3  UNL     1      -2.395 -35.253  18.127  1.00  0.00     0.190 HD
ENDBRANCH  11  14
ENDBRANCH   6   7
BRANCH   6  24
HETATM   24  O1  UNL     1      -7.463 -36.810  21.755  1.00  0.00    -0.366 OA
ATOM     25  H1  UNL     1      -6.898 -36.852  22.518  1.00  0.00     0.212 HD
ENDBRANCH   6  24
ENDBRANCH   3   6
ENDBRANCH   1   2
BRANCH   1  26
HETATM   26  O3  UNL     1      -6.787 -41.321  21.552  1.00  0.00    -0.354 OA
ATOM     27  H3  UNL     1      -6.029 -40.761  21.676  1.00  0.00     0.214 HD
ENDBRANCH   1  26
BRANCH   1  28
HETATM   28  N8  UNL     1      -6.943 -41.238  19.172  1.00  0.00    -0.016 N 
ATOM     29  H82 UNL     1      -7.435 -40.754  18.421  1.00  0.00     0.283 HD
ATOM     30  H81 UNL     1      -6.012 -40.844  19.039  1.00  0.00     0.283 HD
BRANCH  28  31
HETATM   31  C10 UNL     1      -6.937 -42.640  18.957  1.00  0.00     0.289 C 
BRANCH  31  32
HETATM   32  C11 UNL     1      -7.052 -43.037  17.507  1.00  0.00     0.103 A 
HETATM   33  N9  UNL     1      -6.392 -42.650  16.432  1.00  0.00    -0.295 N 
HETATM   34  N10 UNL     1      -6.660 -43.128  15.298  1.00  0.00    -0.305 N 
ATOM     35  H9  UNL     1      -5.653 -41.953  16.520  1.00  0.00     0.187 HD
HETATM   36  C12 UNL     1      -7.624 -44.037  15.172  1.00  0.00     0.158 A 
ATOM     37  H10 UNL     1      -6.140 -42.818  14.478  1.00  0.00     0.186 HD
HETATM   38  S1  UNL     1      -8.142 -44.181  16.801  1.00  0.00    -0.066 SA
ENDBRANCH  31  32
BRANCH  31  39
HETATM   39  C13 UNL     1      -5.867 -43.424  19.539  1.00  0.00     0.065 A 
HETATM   40  C14 UNL     1      -4.536 -42.997  19.374  1.00  0.00     0.144 A 
HETATM   41  N11 UNL     1      -4.291 -41.812  18.622  1.00  0.00    -0.081 NA
HETATM   42  N12 UNL     1      -3.504 -43.678  19.910  1.00  0.00    -0.178 N 
HETATM   43  C15 UNL     1      -3.710 -44.795  20.623  1.00  0.00     0.678 A 
ATOM     44  H12 UNL     1      -2.552 -43.340  19.771  1.00  0.00     0.185 HD
HETATM   45  N14 UNL     1      -4.958 -45.218  20.791  1.00  0.00    -0.177 N 
HETATM   46  C16 UNL     1      -6.048 -44.555  20.264  1.00  0.00     0.126 A 
ATOM     47  H14 UNL     1      -5.118 -46.069  21.333  1.00  0.00     0.186 HD
HETATM   48  N15 UNL     1      -7.192 -45.052  20.491  1.00  0.00    -0.384 N 
ATOM     49 2H15 UNL     1      -7.998 -44.563  20.101  1.00  0.00     0.157 HD
ATOM     50 1H15 UNL     1      -7.328 -45.903  21.037  1.00  0.00     0.157 HD
BRANCH  43  51
HETATM   51  N13 UNL     1      -2.687 -45.415  21.118  1.00  0.00    -0.234 N 
ATOM     52 2H13 UNL     1      -1.981 -44.949  21.688  1.00  0.00     0.174 HD
ATOM     53 1H13 UNL     1      -2.579 -46.411  20.930  1.00  0.00     0.174 HD
ENDBRANCH  43  51
ENDBRANCH  31  39
ENDBRANCH  28  31
ENDBRANCH   1  28
TORSDOF 11
ENDMDL
