MODEL 1
REMARK VINA RESULT: -8.649613731      0.000      0.000
REMARK  14 active torsions:
REMARK  status: ('A' for Active; 'I' for Inactive)
REMARK    1  A    between atoms: N1_1  and  C1_4 
REMARK    2  A    between atoms: C2_7  and  O1_8 
REMARK    3  A    between atoms: C3_10  and  O2_11 
REMARK    4  A    between atoms: C5_14  and  C6_15 
REMARK    5  A    between atoms: N6_22  and  C7_23 
REMARK    6  A    between atoms: C9_27  and  S1_28 
REMARK    7  A    between atoms: S1_28  and  N8_31 
REMARK    8  A    between atoms: N8_31  and  N9_33 
REMARK       I    between atoms: N9_33  and  C10_35 
REMARK    9  A    between atoms: C10_35  and  C11_37 
REMARK   10  A    between atoms: C11_37  and  S2_38 
REMARK   11  A    between atoms: S2_38  and  C12_39 
REMARK   12  A    between atoms: C12_39  and  C13_40 
REMARK   13  A    between atoms: C13_40  and  O6_41 
REMARK   14  A    between atoms: C13_40  and  O7_43 
ROOT
HETATM    1  C7  UNL     1      -3.946 -37.734  20.503  1.00  0.00     0.707 A 
HETATM    2  N7  UNL     1      -3.390 -37.939  21.737  1.00  0.00    -0.198 N 
ATOM      3  H7  UNL     1      -3.978 -38.290  22.493  1.00  0.00     0.183 HD
HETATM    4  C8  UNL     1      -2.084 -37.688  21.982  1.00  0.00     0.135 A 
HETATM    5  C9  UNL     1      -1.292 -37.215  20.965  1.00  0.00     0.138 A 
HETATM    6  C14 UNL     1      -1.817 -36.998  19.719  1.00  0.00     0.156 A 
HETATM    7  N10 UNL     1      -1.061 -36.497  18.629  1.00  0.00    -0.080 NA
HETATM    8  N11 UNL     1      -3.132 -37.273  19.552  1.00  0.00    -0.175 N 
ATOM      9  H11 UNL     1      -3.532 -37.116  18.627  1.00  0.00     0.185 HD
ENDROOT
BRANCH   1  10
HETATM   10  N6  UNL     1      -5.316 -38.066  20.371  1.00  0.00    -0.052 N 
HETATM   11  C6  UNL     1      -5.912 -39.205  20.119  1.00  0.00     0.176 A 
HETATM   12  N3  UNL     1      -7.281 -38.890  20.025  1.00  0.00    -0.267 N 
HETATM   13  N4  UNL     1      -7.453 -37.611  20.223  1.00  0.00    -0.226 N 
ATOM     14  H3  UNL     1      -8.025 -39.559  19.832  1.00  0.00     0.190 HD
HETATM   15  N5  UNL     1      -6.281 -37.091  20.436  1.00  0.00    -0.205 N 
ATOM     16  H4  UNL     1      -8.343 -37.113  20.212  1.00  0.00     0.210 HD
ATOM     17  H5  UNL     1      -6.104 -36.105  20.623  1.00  0.00     0.211 HD
BRANCH  11  18
HETATM   18  C5  UNL     1      -5.441 -40.542  19.872  1.00  0.00     0.058 A 
HETATM   19  C1  UNL     1      -5.101 -41.481  20.786  1.00  0.00     0.115 A 
HETATM   20  N2  UNL     1      -4.748 -42.759  20.420  1.00  0.00    -0.321 N 
HETATM   21  C2  UNL     1      -4.710 -43.180  19.160  1.00  0.00     0.175 A 
ATOM     22  H2  UNL     1      -4.501 -43.420  21.156  1.00  0.00     0.169 HD
HETATM   23  C3  UNL     1      -5.049 -42.265  18.179  1.00  0.00     0.117 A 
HETATM   24  C4  UNL     1      -5.401 -40.993  18.531  1.00  0.00     0.060 A 
BRANCH  19  25
HETATM   25  N1  UNL     1      -5.134 -41.299  22.041  1.00  0.00    -0.385 N 
ATOM     26  H12 UNL     1      -5.687 -41.862  22.687  1.00  0.00     0.157 HD
ATOM     27  H11 UNL     1      -4.512 -40.560  22.365  1.00  0.00     0.157 HD
ENDBRANCH  19  25
BRANCH  21  28
HETATM   28  O1  UNL     1      -4.349 -44.482  18.834  1.00  0.00    -0.344 OA
ATOM     29  H1  UNL     1      -4.143 -44.736  17.942  1.00  0.00     0.219 HD
ENDBRANCH  21  28
BRANCH  23  30
HETATM   30  O2  UNL     1      -5.007 -42.714  16.869  1.00  0.00    -0.357 OA
ATOM     31  H2  UNL     1      -4.176 -42.632  16.417  1.00  0.00     0.218 HD
ENDBRANCH  23  30
ENDBRANCH  11  18
ENDBRANCH   1  10
BRANCH   5  32
HETATM   32  S1  UNL     1       0.374 -36.830  21.284  1.00  0.00     0.281 S 
HETATM   33  O3  UNL     1       1.298 -37.679  20.434  1.00  0.00    -0.199 OA
HETATM   34  O4  UNL     1       0.616 -37.201  22.745  1.00  0.00    -0.199 OA
BRANCH  32  35
HETATM   35  N8  UNL     1       0.713 -35.190  21.073  1.00  0.00    -0.220 N 
ATOM     36  H8  UNL     1       1.668 -34.836  21.129  1.00  0.00     0.200 HD
BRANCH  35  37
HETATM   37  N9  UNL     1      -0.348 -34.346  20.820  1.00  0.00    -0.260 N 
HETATM   38  C10 UNL     1      -1.109 -33.891  21.919  1.00  0.00     0.245 C 
HETATM   39  O5  UNL     1      -0.860 -34.250  23.096  1.00  0.00    -0.271 OA
ATOM     40  H9  UNL     1      -0.576 -34.058  19.868  1.00  0.00     0.190 HD
BRANCH  38  41
HETATM   41  C11 UNL     1      -2.263 -32.943  21.750  1.00  0.00     0.178 C 
BRANCH  41  42
HETATM   42  S2  UNL     1      -3.505 -33.782  20.692  1.00  0.00    -0.155 SA
BRANCH  42  43
HETATM   43  C12 UNL     1      -4.957 -34.138  21.665  1.00  0.00     0.134 C 
BRANCH  43  44
HETATM   44  C13 UNL     1      -6.187 -33.474  21.138  1.00  0.00     0.263 C 
BRANCH  44  45
HETATM   45  O6  UNL     1      -6.740 -32.732  22.212  1.00  0.00    -0.371 OA
ATOM     46  H6  UNL     1      -7.128 -31.952  21.833  1.00  0.00     0.212 HD
ENDBRANCH  44  45
BRANCH  44  47
HETATM   47  O7  UNL     1      -7.174 -34.295  20.666  1.00  0.00    -0.371 OA
ATOM     48  H7  UNL     1      -7.723 -34.719  21.315  1.00  0.00     0.212 HD
ENDBRANCH  44  47
ENDBRANCH  43  44
ENDBRANCH  42  43
ENDBRANCH  41  42
ENDBRANCH  38  41
ENDBRANCH  35  37
ENDBRANCH  32  35
ENDBRANCH   5  32
TORSDOF 14
ENDMDL
MODEL 2
REMARK VINA RESULT: -8.482064323      0.948      1.448
REMARK  14 active torsions:
REMARK  status: ('A' for Active; 'I' for Inactive)
REMARK    1  A    between atoms: N1_1  and  C1_4 
REMARK    2  A    between atoms: C2_7  and  O1_8 
REMARK    3  A    between atoms: C3_10  and  O2_11 
REMARK    4  A    between atoms: C5_14  and  C6_15 
REMARK    5  A    between atoms: N6_22  and  C7_23 
REMARK    6  A    between atoms: C9_27  and  S1_28 
REMARK    7  A    between atoms: S1_28  and  N8_31 
REMARK    8  A    between atoms: N8_31  and  N9_33 
REMARK       I    between atoms: N9_33  and  C10_35 
REMARK    9  A    between atoms: C10_35  and  C11_37 
REMARK   10  A    between atoms: C11_37  and  S2_38 
REMARK   11  A    between atoms: S2_38  and  C12_39 
REMARK   12  A    between atoms: C12_39  and  C13_40 
REMARK   13  A    between atoms: C13_40  and  O6_41 
REMARK   14  A    between atoms: C13_40  and  O7_43 
ROOT
HETATM    1  C7  UNL     1      -3.971 -37.783  20.546  1.00  0.00     0.707 A 
HETATM    2  N7  UNL     1      -3.404 -37.975  21.777  1.00  0.00    -0.198 N 
ATOM      3  H7  UNL     1      -3.984 -38.321  22.541  1.00  0.00     0.183 HD
HETATM    4  C8  UNL     1      -2.096 -37.717  22.008  1.00  0.00     0.135 A 
HETATM    5  C9  UNL     1      -1.314 -37.250  20.980  1.00  0.00     0.138 A 
HETATM    6  C14 UNL     1      -1.851 -37.047  19.737  1.00  0.00     0.156 A 
HETATM    7  N10 UNL     1      -1.106 -36.553  18.636  1.00  0.00    -0.080 NA
HETATM    8  N11 UNL     1      -3.167 -37.329  19.584  1.00  0.00    -0.175 N 
ATOM      9  H11 UNL     1      -3.575 -37.181  18.661  1.00  0.00     0.185 HD
ENDROOT
BRANCH   1  10
HETATM   10  N6  UNL     1      -5.341 -38.121  20.429  1.00  0.00    -0.052 N 
HETATM   11  C6  UNL     1      -5.934 -39.264  20.185  1.00  0.00     0.176 A 
HETATM   12  N3  UNL     1      -7.305 -38.954  20.104  1.00  0.00    -0.267 N 
HETATM   13  N4  UNL     1      -7.481 -37.676  20.300  1.00  0.00    -0.226 N 
ATOM     14  H3  UNL     1      -8.049 -39.627  19.920  1.00  0.00     0.190 HD
HETATM   15  N5  UNL     1      -6.309 -37.150  20.500  1.00  0.00    -0.205 N 
ATOM     16  H4  UNL     1      -8.373 -37.181  20.297  1.00  0.00     0.210 HD
ATOM     17  H5  UNL     1      -6.134 -36.163  20.683  1.00  0.00     0.211 HD
BRANCH  11  18
HETATM   18  C5  UNL     1      -5.459 -40.599  19.936  1.00  0.00     0.058 A 
HETATM   19  C1  UNL     1      -5.268 -41.199  18.738  1.00  0.00     0.115 A 
HETATM   20  N2  UNL     1      -4.722 -42.457  18.633  1.00  0.00    -0.321 N 
HETATM   21  C2  UNL     1      -4.339 -43.182  19.678  1.00  0.00     0.175 A 
ATOM     22  H2  UNL     1      -4.605 -42.855  17.701  1.00  0.00     0.169 HD
HETATM   23  C3  UNL     1      -4.507 -42.622  20.931  1.00  0.00     0.117 A 
HETATM   24  C4  UNL     1      -5.049 -41.373  21.048  1.00  0.00     0.060 A 
BRANCH  19  25
HETATM   25  N1  UNL     1      -5.509 -40.651  17.620  1.00  0.00    -0.385 N 
ATOM     26  H12 UNL     1      -6.134 -41.039  16.914  1.00  0.00     0.157 HD
ATOM     27  H11 UNL     1      -5.055 -39.746  17.500  1.00  0.00     0.157 HD
ENDBRANCH  19  25
BRANCH  21  28
HETATM   28  O1  UNL     1      -3.790 -44.451  19.526  1.00  0.00    -0.344 OA
ATOM     29  H1  UNL     1      -3.132 -44.786  20.124  1.00  0.00     0.219 HD
ENDBRANCH  21  28
BRANCH  23  30
HETATM   30  O2  UNL     1      -4.104 -43.387  22.014  1.00  0.00    -0.357 OA
ATOM     31  H2  UNL     1      -3.199 -43.672  22.021  1.00  0.00     0.218 HD
ENDBRANCH  23  30
ENDBRANCH  11  18
ENDBRANCH   1  10
BRANCH   5  32
HETATM   32  S1  UNL     1       0.353 -36.857  21.282  1.00  0.00     0.281 S 
HETATM   33  O3  UNL     1       1.272 -37.710  20.432  1.00  0.00    -0.199 OA
HETATM   34  O4  UNL     1       0.608 -37.214  22.745  1.00  0.00    -0.199 OA
BRANCH  32  35
HETATM   35  N8  UNL     1       0.683 -35.217  21.054  1.00  0.00    -0.220 N 
ATOM     36  H8  UNL     1       1.638 -34.859  21.098  1.00  0.00     0.200 HD
BRANCH  35  37
HETATM   37  N9  UNL     1      -0.383 -34.379  20.806  1.00  0.00    -0.260 N 
HETATM   38  C10 UNL     1      -1.127 -33.908  21.910  1.00  0.00     0.245 C 
HETATM   39  O5  UNL     1      -0.859 -34.248  23.087  1.00  0.00    -0.271 OA
ATOM     40  H9  UNL     1      -0.627 -34.106  19.853  1.00  0.00     0.190 HD
BRANCH  38  41
HETATM   41  C11 UNL     1      -2.286 -32.964  21.744  1.00  0.00     0.178 C 
BRANCH  41  42
HETATM   42  S2  UNL     1      -3.532 -33.812  20.697  1.00  0.00    -0.155 SA
BRANCH  42  43
HETATM   43  C12 UNL     1      -4.980 -34.159  21.678  1.00  0.00     0.134 C 
BRANCH  43  44
HETATM   44  C13 UNL     1      -6.212 -33.504  21.146  1.00  0.00     0.263 C 
BRANCH  44  45
HETATM   45  O6  UNL     1      -6.779 -32.772  22.220  1.00  0.00    -0.371 OA
ATOM     46  H6  UNL     1      -7.245 -32.039  21.834  1.00  0.00     0.212 HD
ENDBRANCH  44  45
BRANCH  44  47
HETATM   47  O7  UNL     1      -7.189 -34.332  20.665  1.00  0.00    -0.371 OA
ATOM     48  H7  UNL     1      -7.636 -34.051  19.875  1.00  0.00     0.212 HD
ENDBRANCH  44  47
ENDBRANCH  43  44
ENDBRANCH  42  43
ENDBRANCH  41  42
ENDBRANCH  38  41
ENDBRANCH  35  37
ENDBRANCH  32  35
ENDBRANCH   5  32
TORSDOF 14
ENDMDL
MODEL 3
REMARK VINA RESULT: -8.469097454      2.994      5.350
REMARK  14 active torsions:
REMARK  status: ('A' for Active; 'I' for Inactive)
REMARK    1  A    between atoms: N1_1  and  C1_4 
REMARK    2  A    between atoms: C2_7  and  O1_8 
REMARK    3  A    between atoms: C3_10  and  O2_11 
REMARK    4  A    between atoms: C5_14  and  C6_15 
REMARK    5  A    between atoms: N6_22  and  C7_23 
REMARK    6  A    between atoms: C9_27  and  S1_28 
REMARK    7  A    between atoms: S1_28  and  N8_31 
REMARK    8  A    between atoms: N8_31  and  N9_33 
REMARK       I    between atoms: N9_33  and  C10_35 
REMARK    9  A    between atoms: C10_35  and  C11_37 
REMARK   10  A    between atoms: C11_37  and  S2_38 
REMARK   11  A    between atoms: S2_38  and  C12_39 
REMARK   12  A    between atoms: C12_39  and  C13_40 
REMARK   13  A    between atoms: C13_40  and  O6_41 
REMARK   14  A    between atoms: C13_40  and  O7_43 
ROOT
HETATM    1  C7  UNL     1      -3.378 -37.272  20.713  1.00  0.00     0.707 A 
HETATM    2  N7  UNL     1      -3.555 -36.340  21.700  1.00  0.00    -0.198 N 
ATOM      3  H7  UNL     1      -4.132 -36.577  22.507  1.00  0.00     0.183 HD
HETATM    4  C8  UNL     1      -2.988 -35.114  21.635  1.00  0.00     0.135 A 
HETATM    5  C9  UNL     1      -2.212 -34.794  20.548  1.00  0.00     0.138 A 
HETATM    6  C14 UNL     1      -2.015 -35.703  19.543  1.00  0.00     0.156 A 
HETATM    7  N10 UNL     1      -1.240 -35.433  18.387  1.00  0.00    -0.080 NA
HETATM    8  N11 UNL     1      -2.616 -36.908  19.681  1.00  0.00    -0.175 N 
ATOM      9  H11 UNL     1      -2.475 -37.592  18.937  1.00  0.00     0.185 HD
ENDROOT
BRANCH   1  10
HETATM   10  N6  UNL     1      -4.000 -38.527  20.919  1.00  0.00    -0.052 N 
HETATM   11  C6  UNL     1      -5.256 -38.853  21.100  1.00  0.00     0.176 A 
HETATM   12  N3  UNL     1      -5.244 -40.241  21.335  1.00  0.00    -0.267 N 
HETATM   13  N4  UNL     1      -4.018 -40.686  21.283  1.00  0.00    -0.226 N 
ATOM     14  H3  UNL     1      -6.069 -40.812  21.518  1.00  0.00     0.190 HD
HETATM   15  N5  UNL     1      -3.248 -39.670  21.031  1.00  0.00    -0.205 N 
ATOM     16  H4  UNL     1      -3.720 -41.652  21.416  1.00  0.00     0.210 HD
ATOM     17  H5  UNL     1      -2.234 -39.714  20.932  1.00  0.00     0.211 HD
BRANCH  11  18
HETATM   18  C5  UNL     1      -6.480 -38.100  21.171  1.00  0.00     0.058 A 
HETATM   19  C1  UNL     1      -7.379 -37.888  20.181  1.00  0.00     0.115 A 
HETATM   20  N2  UNL     1      -8.561 -37.221  20.402  1.00  0.00    -0.321 N 
HETATM   21  C2  UNL     1      -8.922 -36.734  21.584  1.00  0.00     0.175 A 
ATOM     22  H2  UNL     1      -9.196 -37.093  19.614  1.00  0.00     0.169 HD
HETATM   23  C3  UNL     1      -8.044 -36.921  22.637  1.00  0.00     0.117 A 
HETATM   24  C4  UNL     1      -6.867 -37.582  22.430  1.00  0.00     0.060 A 
BRANCH  19  25
HETATM   25  N1  UNL     1      -7.253 -38.327  18.998  1.00  0.00    -0.385 N 
ATOM     26  H12 UNL     1      -6.358 -38.453  18.525  1.00  0.00     0.157 HD
ATOM     27  H11 UNL     1      -8.135 -38.596  18.563  1.00  0.00     0.157 HD
ENDBRANCH  19  25
BRANCH  21  28
HETATM   28  O1  UNL     1     -10.128 -36.066  21.764  1.00  0.00    -0.344 OA
ATOM     29  H1  UNL     1     -10.944 -36.402  21.410  1.00  0.00     0.219 HD
ENDBRANCH  21  28
BRANCH  23  30
HETATM   30  O2  UNL     1      -8.430 -36.409  23.866  1.00  0.00    -0.357 OA
ATOM     31  H2  UNL     1      -8.336 -35.472  23.986  1.00  0.00     0.218 HD
ENDBRANCH  23  30
ENDBRANCH  11  18
ENDBRANCH   1  10
BRANCH   5  32
HETATM   32  S1  UNL     1      -1.528 -33.199  20.423  1.00  0.00     0.281 S 
HETATM   33  O3  UNL     1      -1.671 -32.445  21.730  1.00  0.00    -0.199 OA
HETATM   34  O4  UNL     1      -2.362 -32.469  19.372  1.00  0.00    -0.199 OA
BRANCH  32  35
HETATM   35  N8  UNL     1       0.084 -33.222  19.924  1.00  0.00    -0.220 N 
ATOM     36  H8  UNL     1       0.414 -32.613  19.174  1.00  0.00     0.200 HD
BRANCH  35  37
HETATM   37  N9  UNL     1       0.940 -34.092  20.565  1.00  0.00    -0.260 N 
HETATM   38  C10 UNL     1       1.674 -33.607  21.669  1.00  0.00     0.245 C 
HETATM   39  O5  UNL     1       1.584 -32.417  22.057  1.00  0.00    -0.271 OA
ATOM     40  H9  UNL     1       1.039 -35.058  20.251  1.00  0.00     0.190 HD
BRANCH  38  41
HETATM   41  C11 UNL     1       2.606 -34.487  22.454  1.00  0.00     0.178 C 
BRANCH  41  42
HETATM   42  S2  UNL     1       1.608 -35.873  23.126  1.00  0.00    -0.155 SA
BRANCH  42  43
HETATM   43  C12 UNL     1       1.652 -37.235  21.977  1.00  0.00     0.134 C 
BRANCH  43  44
HETATM   44  C13 UNL     1       0.478 -37.253  21.052  1.00  0.00     0.263 C 
BRANCH  44  45
HETATM   45  O6  UNL     1      -0.458 -38.165  21.600  1.00  0.00    -0.371 OA
ATOM     46  H6  UNL     1      -0.150 -39.036  21.381  1.00  0.00     0.212 HD
ENDBRANCH  44  45
BRANCH  44  47
HETATM   47  O7  UNL     1       0.717 -37.648  19.764  1.00  0.00    -0.371 OA
ATOM     48  H7  UNL     1       0.867 -38.576  19.623  1.00  0.00     0.212 HD
ENDBRANCH  44  47
ENDBRANCH  43  44
ENDBRANCH  42  43
ENDBRANCH  41  42
ENDBRANCH  38  41
ENDBRANCH  35  37
ENDBRANCH  32  35
ENDBRANCH   5  32
TORSDOF 14
ENDMDL
MODEL 4
REMARK VINA RESULT: -8.458731136      3.061      4.501
REMARK  14 active torsions:
REMARK  status: ('A' for Active; 'I' for Inactive)
REMARK    1  A    between atoms: N1_1  and  C1_4 
REMARK    2  A    between atoms: C2_7  and  O1_8 
REMARK    3  A    between atoms: C3_10  and  O2_11 
REMARK    4  A    between atoms: C5_14  and  C6_15 
REMARK    5  A    between atoms: N6_22  and  C7_23 
REMARK    6  A    between atoms: C9_27  and  S1_28 
REMARK    7  A    between atoms: S1_28  and  N8_31 
REMARK    8  A    between atoms: N8_31  and  N9_33 
REMARK       I    between atoms: N9_33  and  C10_35 
REMARK    9  A    between atoms: C10_35  and  C11_37 
REMARK   10  A    between atoms: C11_37  and  S2_38 
REMARK   11  A    between atoms: S2_38  and  C12_39 
REMARK   12  A    between atoms: C12_39  and  C13_40 
REMARK   13  A    between atoms: C13_40  and  O6_41 
REMARK   14  A    between atoms: C13_40  and  O7_43 
ROOT
HETATM    1  C7  UNL     1      -4.502 -37.858  20.961  1.00  0.00     0.707 A 
HETATM    2  N7  UNL     1      -3.397 -38.579  20.595  1.00  0.00    -0.198 N 
ATOM      3  H7  UNL     1      -3.410 -39.593  20.701  1.00  0.00     0.183 HD
HETATM    4  C8  UNL     1      -2.289 -37.984  20.098  1.00  0.00     0.135 A 
HETATM    5  C9  UNL     1      -2.270 -36.618  19.955  1.00  0.00     0.138 A 
HETATM    6  C14 UNL     1      -3.359 -35.867  20.312  1.00  0.00     0.156 A 
HETATM    7  N10 UNL     1      -3.402 -34.454  20.207  1.00  0.00    -0.080 NA
HETATM    8  N11 UNL     1      -4.430 -36.536  20.802  1.00  0.00    -0.175 N 
ATOM      9  H11 UNL     1      -5.245 -35.985  21.070  1.00  0.00     0.185 HD
ENDROOT
BRANCH   1  10
HETATM   10  N6  UNL     1      -5.606 -38.605  21.436  1.00  0.00    -0.052 N 
HETATM   11  C6  UNL     1      -6.210 -39.663  20.953  1.00  0.00     0.176 A 
HETATM   12  N3  UNL     1      -7.294 -39.895  21.822  1.00  0.00    -0.267 N 
HETATM   13  N4  UNL     1      -7.299 -38.998  22.770  1.00  0.00    -0.226 N 
ATOM     14  H3  UNL     1      -7.972 -40.650  21.726  1.00  0.00     0.190 HD
HETATM   15  N5  UNL     1      -6.288 -38.208  22.560  1.00  0.00    -0.205 N 
ATOM     16  H4  UNL     1      -7.971 -38.929  23.534  1.00  0.00     0.210 HD
ATOM     17  H5  UNL     1      -6.037 -37.410  23.143  1.00  0.00     0.211 HD
BRANCH  11  18
HETATM   18  C5  UNL     1      -6.016 -40.471  19.779  1.00  0.00     0.058 A 
HETATM   19  C1  UNL     1      -6.361 -40.175  18.504  1.00  0.00     0.115 A 
HETATM   20  N2  UNL     1      -6.037 -40.999  17.452  1.00  0.00    -0.321 N 
HETATM   21  C2  UNL     1      -5.369 -42.139  17.589  1.00  0.00     0.175 A 
ATOM     22  H2  UNL     1      -6.328 -40.720  16.515  1.00  0.00     0.169 HD
HETATM   23  C3  UNL     1      -4.986 -42.496  18.869  1.00  0.00     0.117 A 
HETATM   24  C4  UNL     1      -5.301 -41.685  19.922  1.00  0.00     0.060 A 
BRANCH  19  25
HETATM   25  N1  UNL     1      -6.947 -39.105  18.155  1.00  0.00    -0.385 N 
ATOM     26  H12 UNL     1      -7.940 -38.923  18.297  1.00  0.00     0.157 HD
ATOM     27  H11 UNL     1      -6.322 -38.407  17.754  1.00  0.00     0.157 HD
ENDBRANCH  19  25
BRANCH  21  28
HETATM   28  O1  UNL     1      -5.061 -42.943  16.496  1.00  0.00    -0.344 OA
ATOM     29  H1  UNL     1      -4.665 -42.587  15.709  1.00  0.00     0.219 HD
ENDBRANCH  21  28
BRANCH  23  30
HETATM   30  O2  UNL     1      -4.288 -43.686  19.000  1.00  0.00    -0.357 OA
ATOM     31  H2  UNL     1      -4.754 -44.481  18.770  1.00  0.00     0.218 HD
ENDBRANCH  23  30
ENDBRANCH  11  18
ENDBRANCH   1  10
BRANCH   5  32
HETATM   32  S1  UNL     1      -0.828 -35.836  19.376  1.00  0.00     0.281 S 
HETATM   33  O3  UNL     1      -1.005 -35.366  17.946  1.00  0.00    -0.199 OA
HETATM   34  O4  UNL     1       0.259 -36.908  19.381  1.00  0.00    -0.199 OA
BRANCH  32  35
HETATM   35  N8  UNL     1      -0.342 -34.558  20.366  1.00  0.00    -0.220 N 
ATOM     36  H8  UNL     1      -0.965 -34.172  21.075  1.00  0.00     0.200 HD
BRANCH  35  37
HETATM   37  N9  UNL     1       0.929 -34.054  20.181  1.00  0.00    -0.260 N 
HETATM   38  C10 UNL     1       1.322 -32.946  20.961  1.00  0.00     0.245 C 
HETATM   39  O5  UNL     1       0.548 -32.404  21.786  1.00  0.00    -0.271 OA
ATOM     40  H9  UNL     1       1.565 -34.471  19.501  1.00  0.00     0.190 HD
BRANCH  38  41
HETATM   41  C11 UNL     1       2.697 -32.346  20.856  1.00  0.00     0.178 C 
BRANCH  41  42
HETATM   42  S2  UNL     1       2.674 -30.767  21.790  1.00  0.00    -0.155 SA
BRANCH  42  43
HETATM   43  C12 UNL     1       3.415 -31.024  23.391  1.00  0.00     0.134 C 
BRANCH  43  44
HETATM   44  C13 UNL     1       3.099 -29.931  24.359  1.00  0.00     0.263 C 
BRANCH  44  45
HETATM   45  O6  UNL     1       1.795 -29.472  24.044  1.00  0.00    -0.371 OA
ATOM     46  H6  UNL     1       1.833 -28.523  24.044  1.00  0.00     0.212 HD
ENDBRANCH  44  45
BRANCH  44  47
HETATM   47  O7  UNL     1       3.924 -28.839  24.343  1.00  0.00    -0.371 OA
ATOM     48  H7  UNL     1       3.505 -27.988  24.283  1.00  0.00     0.212 HD
ENDBRANCH  44  47
ENDBRANCH  43  44
ENDBRANCH  42  43
ENDBRANCH  41  42
ENDBRANCH  38  41
ENDBRANCH  35  37
ENDBRANCH  32  35
ENDBRANCH   5  32
TORSDOF 14
ENDMDL
MODEL 5
REMARK VINA RESULT: -8.226026177      2.625      3.957
REMARK  14 active torsions:
REMARK  status: ('A' for Active; 'I' for Inactive)
REMARK    1  A    between atoms: N1_1  and  C1_4 
REMARK    2  A    between atoms: C2_7  and  O1_8 
REMARK    3  A    between atoms: C3_10  and  O2_11 
REMARK    4  A    between atoms: C5_14  and  C6_15 
REMARK    5  A    between atoms: N6_22  and  C7_23 
REMARK    6  A    between atoms: C9_27  and  S1_28 
REMARK    7  A    between atoms: S1_28  and  N8_31 
REMARK    8  A    between atoms: N8_31  and  N9_33 
REMARK       I    between atoms: N9_33  and  C10_35 
REMARK    9  A    between atoms: C10_35  and  C11_37 
REMARK   10  A    between atoms: C11_37  and  S2_38 
REMARK   11  A    between atoms: S2_38  and  C12_39 
REMARK   12  A    between atoms: C12_39  and  C13_40 
REMARK   13  A    between atoms: C13_40  and  O6_41 
REMARK   14  A    between atoms: C13_40  and  O7_43 
ROOT
HETATM    1  C7  UNL     1      -4.424 -37.793  21.042  1.00  0.00     0.707 A 
HETATM    2  N7  UNL     1      -3.305 -38.450  20.608  1.00  0.00    -0.198 N 
ATOM      3  H7  UNL     1      -3.252 -39.463  20.715  1.00  0.00     0.183 HD
HETATM    4  C8  UNL     1      -2.266 -37.794  20.042  1.00  0.00     0.135 A 
HETATM    5  C9  UNL     1      -2.336 -36.430  19.897  1.00  0.00     0.138 A 
HETATM    6  C14 UNL     1      -3.442 -35.742  20.322  1.00  0.00     0.156 A 
HETATM    7  N10 UNL     1      -3.574 -34.334  20.218  1.00  0.00    -0.080 NA
HETATM    8  N11 UNL     1      -4.439 -36.470  20.878  1.00  0.00    -0.175 N 
ATOM      9  H11 UNL     1      -5.267 -35.966  21.196  1.00  0.00     0.185 HD
ENDROOT
BRANCH   1  10
HETATM   10  N6  UNL     1      -5.452 -38.601  21.586  1.00  0.00    -0.052 N 
HETATM   11  C6  UNL     1      -6.040 -39.679  21.131  1.00  0.00     0.176 A 
HETATM   12  N3  UNL     1      -7.040 -39.978  22.076  1.00  0.00    -0.267 N 
HETATM   13  N4  UNL     1      -7.014 -39.097  23.038  1.00  0.00    -0.226 N 
ATOM     14  H3  UNL     1      -7.687 -40.764  22.017  1.00  0.00     0.190 HD
HETATM   15  N5  UNL     1      -6.062 -38.255  22.766  1.00  0.00    -0.205 N 
ATOM     16  H4  UNL     1      -7.628 -39.073  23.852  1.00  0.00     0.210 HD
ATOM     17  H5  UNL     1      -5.806 -37.454  23.344  1.00  0.00     0.211 HD
BRANCH  11  18
HETATM   18  C5  UNL     1      -5.898 -40.459  19.930  1.00  0.00     0.058 A 
HETATM   19  C1  UNL     1      -6.301 -40.132  18.680  1.00  0.00     0.115 A 
HETATM   20  N2  UNL     1      -6.025 -40.931  17.594  1.00  0.00    -0.321 N 
HETATM   21  C2  UNL     1      -5.351 -42.072  17.673  1.00  0.00     0.175 A 
ATOM     22  H2  UNL     1      -6.357 -40.630  16.678  1.00  0.00     0.169 HD
HETATM   23  C3  UNL     1      -4.910 -42.460  18.926  1.00  0.00     0.117 A 
HETATM   24  C4  UNL     1      -5.178 -41.675  20.012  1.00  0.00     0.060 A 
BRANCH  19  25
HETATM   25  N1  UNL     1      -6.901 -39.055  18.383  1.00  0.00    -0.385 N 
ATOM     26  H12 UNL     1      -6.971 -38.679  17.437  1.00  0.00     0.157 HD
ATOM     27  H11 UNL     1      -7.362 -38.610  19.175  1.00  0.00     0.157 HD
ENDBRANCH  19  25
BRANCH  21  28
HETATM   28  O1  UNL     1      -5.093 -42.850  16.549  1.00  0.00    -0.344 OA
ATOM     29  H1  UNL     1      -5.418 -43.739  16.470  1.00  0.00     0.219 HD
ENDBRANCH  21  28
BRANCH  23  30
HETATM   30  O2  UNL     1      -4.208 -43.652  18.997  1.00  0.00    -0.357 OA
ATOM     31  H2  UNL     1      -3.879 -43.903  19.852  1.00  0.00     0.218 HD
ENDBRANCH  23  30
ENDBRANCH  11  18
ENDBRANCH   1  10
BRANCH   5  32
HETATM   32  S1  UNL     1      -0.981 -35.568  19.228  1.00  0.00     0.281 S 
HETATM   33  O3  UNL     1      -1.037 -35.564  17.714  1.00  0.00    -0.199 OA
HETATM   34  O4  UNL     1       0.260 -36.353  19.645  1.00  0.00    -0.199 OA
BRANCH  32  35
HETATM   35  N8  UNL     1      -0.857 -33.993  19.822  1.00  0.00    -0.220 N 
ATOM     36  H8  UNL     1      -1.455 -33.245  19.468  1.00  0.00     0.200 HD
BRANCH  35  37
HETATM   37  N9  UNL     1       0.081 -33.752  20.804  1.00  0.00    -0.260 N 
HETATM   38  C10 UNL     1       1.387 -33.399  20.400  1.00  0.00     0.245 C 
HETATM   39  O5  UNL     1       1.713 -33.324  19.191  1.00  0.00    -0.271 OA
ATOM     40  H9  UNL     1      -0.162 -33.827  21.792  1.00  0.00     0.190 HD
BRANCH  38  41
HETATM   41  C11 UNL     1       2.470 -33.086  21.395  1.00  0.00     0.178 C 
BRANCH  41  42
HETATM   42  S2  UNL     1       2.176 -34.140  22.869  1.00  0.00    -0.155 SA
BRANCH  42  43
HETATM   43  C12 UNL     1       2.447 -35.846  22.429  1.00  0.00     0.134 C 
BRANCH  43  44
HETATM   44  C13 UNL     1       1.298 -36.729  22.790  1.00  0.00     0.263 C 
BRANCH  44  45
HETATM   45  O6  UNL     1       1.357 -37.849  21.923  1.00  0.00    -0.371 OA
ATOM     46  H6  UNL     1       1.860 -38.517  22.374  1.00  0.00     0.212 HD
ENDBRANCH  44  45
BRANCH  44  47
HETATM   47  O7  UNL     1       0.047 -36.190  22.665  1.00  0.00    -0.371 OA
ATOM     48  H7  UNL     1      -0.162 -35.785  21.832  1.00  0.00     0.212 HD
ENDBRANCH  44  47
ENDBRANCH  43  44
ENDBRANCH  42  43
ENDBRANCH  41  42
ENDBRANCH  38  41
ENDBRANCH  35  37
ENDBRANCH  32  35
ENDBRANCH   5  32
TORSDOF 14
ENDMDL
