MODEL 1
REMARK VINA RESULT: -8.217393025      0.000      0.000
REMARK  14 active torsions:
REMARK  status: ('A' for Active; 'I' for Inactive)
REMARK    1  A    between atoms: N1_1  and  C1_4 
REMARK    2  A    between atoms: C5_13  and  C6_14 
REMARK    3  A    between atoms: N4_16  and  C8_17 
REMARK    4  A    between atoms: C8_17  and  C9_18 
REMARK    5  A    between atoms: C11_20  and  C12_21 
REMARK    6  A    between atoms: C12_21  and  O2_22 
REMARK    7  A    between atoms: C12_21  and  N5_24 
REMARK    8  A    between atoms: N5_24  and  C13_27 
REMARK    9  A    between atoms: C13_27  and  C14_28 
REMARK   10  A    between atoms: C14_28  and  O3_29 
REMARK   11  A    between atoms: C15_31  and  O4_32 
REMARK   12  A    between atoms: N6_34  and  N7_35 
REMARK   13  A    between atoms: N10_42  and  C16_43 
REMARK   14  A    between atoms: C17_49  and  N13_50 
ROOT
HETATM    1  C6  UNL     1      -2.350 -37.759  20.603  1.00  0.00     0.111 A 
HETATM    2  C7  UNL     1      -3.064 -38.628  21.403  1.00  0.00     0.146 A 
HETATM    3  N4  UNL     1      -3.840 -39.428  20.611  1.00  0.00    -0.281 N 
HETATM    4  N8  UNL     1      -3.599 -39.052  19.370  1.00  0.00    -0.240 N 
ATOM      5  H8  UNL     1      -4.031 -39.464  18.543  1.00  0.00     0.208 HD
HETATM    6  N9  UNL     1      -2.715 -38.060  19.346  1.00  0.00    -0.281 N 
ATOM      7  H9  UNL     1      -2.368 -37.599  18.505  1.00  0.00     0.188 HD
ENDROOT
BRANCH   1   8
HETATM    8  C5  UNL     1      -1.399 -36.711  20.972  1.00  0.00     0.146 A 
HETATM    9  N3  UNL     1      -0.048 -36.867  21.104  1.00  0.00    -0.324 N 
HETATM   10  C4  UNL     1       0.518 -35.696  21.466  1.00  0.00     0.155 A 
ATOM     11  H3  UNL     1       0.458 -37.740  20.951  1.00  0.00     0.169 HD
HETATM   12  C3  UNL     1      -0.552 -34.820  21.547  1.00  0.00     0.156 A 
HETATM   13  N14 UNL     1       1.779 -35.303  21.723  1.00  0.00    -0.174 N 
HETATM   14  C2  UNL     1      -0.319 -33.512  21.902  1.00  0.00     0.290 A 
HETATM   15  N10 UNL     1      -1.711 -35.438  21.248  1.00  0.00    -0.268 N 
HETATM   16  N2  UNL     1       0.950 -33.149  22.152  1.00  0.00    -0.154 N 
HETATM   17  O1  UNL     1      -1.288 -32.717  21.976  1.00  0.00    -0.265 OA
HETATM   18  C1  UNL     1       1.994 -34.024  22.067  1.00  0.00     0.680 A 
ATOM     19  H2  UNL     1       1.141 -32.182  22.415  1.00  0.00     0.187 HD
ATOM     20  H14 UNL     1       2.554 -35.963  21.657  1.00  0.00     0.186 HD
BRANCH  18  21
HETATM   21  N1  UNL     1       3.187 -33.562  22.332  1.00  0.00    -0.234 N 
ATOM     22  H12 UNL     1       3.783 -33.971  23.052  1.00  0.00     0.174 HD
ATOM     23  H11 UNL     1       3.513 -32.765  21.786  1.00  0.00     0.174 HD
ENDBRANCH  18  21
BRANCH  15  24
HETATM   24  C16 UNL     1      -3.019 -34.836  21.226  1.00  0.00     0.182 A 
HETATM   25  N11 UNL     1      -3.468 -33.937  20.308  1.00  0.00    -0.221 N 
HETATM   26  O5  UNL     1      -4.690 -33.616  20.610  1.00  0.00    -0.153 OA
ATOM     27  H11 UNL     1      -2.934 -33.576  19.518  1.00  0.00     0.198 HD
HETATM   28  N12 UNL     1      -5.090 -34.235  21.662  1.00  0.00    -0.222 N 
HETATM   29  C17 UNL     1      -4.079 -35.012  22.085  1.00  0.00     0.168 A 
ATOM     30  H12 UNL     1      -6.008 -34.152  22.098  1.00  0.00     0.198 HD
BRANCH  29  31
HETATM   31  N13 UNL     1      -4.069 -35.807  23.122  1.00  0.00    -0.381 N 
ATOM     32 2H13 UNL     1      -3.478 -35.737  23.950  1.00  0.00     0.157 HD
ATOM     33 1H13 UNL     1      -4.673 -36.621  23.234  1.00  0.00     0.157 HD
ENDBRANCH  29  31
ENDBRANCH  15  24
ENDBRANCH   1   8
BRANCH   3  34
HETATM   34  C8  UNL     1      -4.730 -40.451  21.121  1.00  0.00     0.209 C 
BRANCH  34  35
HETATM   35  C9  UNL     1      -5.999 -39.932  21.616  1.00  0.00     0.056 A 
HETATM   36  C10 UNL     1      -6.231 -39.042  22.643  1.00  0.00     0.045 A 
HETATM   37  C11 UNL     1      -7.574 -38.832  22.770  1.00  0.00     0.052 A 
HETATM   38  C15 UNL     1      -8.190 -39.595  21.817  1.00  0.00     0.172 A 
HETATM   39  N6  UNL     1      -7.216 -40.251  21.132  1.00  0.00    -0.243 N 
BRANCH  37  40
HETATM   40  C12 UNL     1      -8.256 -37.952  23.737  1.00  0.00     0.357 C 
BRANCH  40  41
HETATM   41  O2  UNL     1      -7.339 -37.281  24.553  1.00  0.00    -0.366 OA
ATOM     42  H2  UNL     1      -7.471 -37.491  25.470  1.00  0.00     0.212 HD
ENDBRANCH  40  41
BRANCH  40  43
HETATM   43  N5  UNL     1      -8.986 -36.941  23.025  1.00  0.00    -0.043 N 
ATOM     44  H52 UNL     1      -9.477 -37.352  22.231  1.00  0.00     0.280 HD
ATOM     45  H51 UNL     1      -9.781 -36.622  23.578  1.00  0.00     0.280 HD
BRANCH  43  46
HETATM   46  C13 UNL     1      -8.194 -35.822  22.597  1.00  0.00     0.261 C 
BRANCH  46  47
HETATM   47  C14 UNL     1      -8.440 -35.575  21.129  1.00  0.00     0.191 C 
BRANCH  47  48
HETATM   48  O3  UNL     1      -7.692 -34.493  20.661  1.00  0.00    -0.399 OA
ATOM     49  H3  UNL     1      -8.211 -33.698  20.632  1.00  0.00     0.209 HD
ENDBRANCH  47  48
ENDBRANCH  46  47
ENDBRANCH  43  46
ENDBRANCH  40  43
ENDBRANCH  37  40
BRANCH  38  50
HETATM   50  O4  UNL     1      -9.569 -39.685  21.587  1.00  0.00    -0.344 OA
ATOM     51  H4  UNL     1     -10.017 -40.373  21.110  1.00  0.00     0.219 HD
ENDBRANCH  38  50
BRANCH  39  52
HETATM   52  N7  UNL     1      -7.468 -41.136  20.071  1.00  0.00    -0.336 N 
ATOM     53  H72 UNL     1      -8.332 -41.667  19.967  1.00  0.00     0.177 HD
ATOM     54  H71 UNL     1      -6.826 -41.342  19.305  1.00  0.00     0.177 HD
ENDBRANCH  39  52
ENDBRANCH  34  35
ENDBRANCH   3  34
TORSDOF 14
ENDMDL
MODEL 2
REMARK VINA RESULT: -8.196941047      3.052      4.618
REMARK  14 active torsions:
REMARK  status: ('A' for Active; 'I' for Inactive)
REMARK    1  A    between atoms: N1_1  and  C1_4 
REMARK    2  A    between atoms: C5_13  and  C6_14 
REMARK    3  A    between atoms: N4_16  and  C8_17 
REMARK    4  A    between atoms: C8_17  and  C9_18 
REMARK    5  A    between atoms: C11_20  and  C12_21 
REMARK    6  A    between atoms: C12_21  and  O2_22 
REMARK    7  A    between atoms: C12_21  and  N5_24 
REMARK    8  A    between atoms: N5_24  and  C13_27 
REMARK    9  A    between atoms: C13_27  and  C14_28 
REMARK   10  A    between atoms: C14_28  and  O3_29 
REMARK   11  A    between atoms: C15_31  and  O4_32 
REMARK   12  A    between atoms: N6_34  and  N7_35 
REMARK   13  A    between atoms: N10_42  and  C16_43 
REMARK   14  A    between atoms: C17_49  and  N13_50 
ROOT
HETATM    1  C6  UNL     1      -2.416 -37.799  20.640  1.00  0.00     0.111 A 
HETATM    2  C7  UNL     1      -3.043 -38.736  21.435  1.00  0.00     0.146 A 
HETATM    3  N4  UNL     1      -3.851 -39.515  20.654  1.00  0.00    -0.281 N 
HETATM    4  N8  UNL     1      -3.713 -39.060  19.424  1.00  0.00    -0.240 N 
ATOM      5  H8  UNL     1      -4.192 -39.438  18.607  1.00  0.00     0.208 HD
HETATM    6  N9  UNL     1      -2.863 -38.039  19.396  1.00  0.00    -0.281 N 
ATOM      7  H9  UNL     1      -2.593 -37.518  18.561  1.00  0.00     0.188 HD
ENDROOT
BRANCH   1   8
HETATM    8  C5  UNL     1      -1.471 -36.742  21.002  1.00  0.00     0.146 A 
HETATM    9  N3  UNL     1      -0.119 -36.888  21.133  1.00  0.00    -0.324 N 
HETATM   10  C4  UNL     1       0.439 -35.711  21.488  1.00  0.00     0.155 A 
ATOM     11  H3  UNL     1       0.392 -37.758  20.984  1.00  0.00     0.169 HD
HETATM   12  C3  UNL     1      -0.637 -34.843  21.565  1.00  0.00     0.156 A 
HETATM   13  N14 UNL     1       1.697 -35.309  21.740  1.00  0.00    -0.174 N 
HETATM   14  C2  UNL     1      -0.413 -33.530  21.912  1.00  0.00     0.290 A 
HETATM   15  N10 UNL     1      -1.792 -35.470  21.271  1.00  0.00    -0.268 N 
HETATM   16  N2  UNL     1       0.854 -33.157  22.159  1.00  0.00    -0.154 N 
HETATM   17  O1  UNL     1      -1.387 -32.742  21.983  1.00  0.00    -0.265 OA
HETATM   18  C1  UNL     1       1.904 -34.026  22.078  1.00  0.00     0.680 A 
ATOM     19  H2  UNL     1       1.039 -32.188  22.416  1.00  0.00     0.187 HD
ATOM     20  H14 UNL     1       2.477 -35.963  21.678  1.00  0.00     0.186 HD
BRANCH  18  21
HETATM   21  N1  UNL     1       3.095 -33.555  22.338  1.00  0.00    -0.234 N 
ATOM     22  H12 UNL     1       3.441 -32.689  21.925  1.00  0.00     0.174 HD
ATOM     23  H11 UNL     1       3.679 -34.088  22.981  1.00  0.00     0.174 HD
ENDBRANCH  18  21
BRANCH  15  24
HETATM   24  C16 UNL     1      -3.105 -34.877  21.247  1.00  0.00     0.182 A 
HETATM   25  N11 UNL     1      -3.547 -33.956  20.348  1.00  0.00    -0.221 N 
HETATM   26  O5  UNL     1      -4.776 -33.652  20.642  1.00  0.00    -0.153 OA
ATOM     27  H11 UNL     1      -3.005 -33.569  19.576  1.00  0.00     0.198 HD
HETATM   28  N12 UNL     1      -5.185 -34.303  21.671  1.00  0.00    -0.222 N 
HETATM   29  C17 UNL     1      -4.174 -35.085  22.086  1.00  0.00     0.168 A 
ATOM     30  H12 UNL     1      -6.110 -34.239  22.095  1.00  0.00     0.198 HD
BRANCH  29  31
HETATM   31  N13 UNL     1      -4.173 -35.908  23.100  1.00  0.00    -0.381 N 
ATOM     32 2H13 UNL     1      -4.890 -36.589  23.346  1.00  0.00     0.157 HD
ATOM     33 1H13 UNL     1      -3.427 -35.972  23.793  1.00  0.00     0.157 HD
ENDBRANCH  29  31
ENDBRANCH  15  24
ENDBRANCH   1   8
BRANCH   3  34
HETATM   34  C8  UNL     1      -4.670 -40.595  21.165  1.00  0.00     0.209 C 
BRANCH  34  35
HETATM   35  C9  UNL     1      -5.251 -41.435  20.123  1.00  0.00     0.056 A 
HETATM   36  C10 UNL     1      -4.614 -42.236  19.199  1.00  0.00     0.045 A 
HETATM   37  C11 UNL     1      -5.543 -42.847  18.408  1.00  0.00     0.052 A 
HETATM   38  C15 UNL     1      -6.771 -42.427  18.836  1.00  0.00     0.172 A 
HETATM   39  N6  UNL     1      -6.568 -41.574  19.875  1.00  0.00    -0.243 N 
BRANCH  37  40
HETATM   40  C12 UNL     1      -5.297 -43.790  17.301  1.00  0.00     0.357 C 
BRANCH  40  41
HETATM   41  O2  UNL     1      -5.970 -45.000  17.500  1.00  0.00    -0.366 OA
ATOM     42  H2  UNL     1      -6.548 -45.199  16.772  1.00  0.00     0.212 HD
ENDBRANCH  40  41
BRANCH  40  43
HETATM   43  N5  UNL     1      -5.809 -43.232  16.081  1.00  0.00    -0.043 N 
ATOM     44  H52 UNL     1      -6.598 -42.615  16.277  1.00  0.00     0.280 HD
ATOM     45  H51 UNL     1      -5.149 -42.556  15.696  1.00  0.00     0.280 HD
BRANCH  43  46
HETATM   46  C13 UNL     1      -6.168 -44.201  15.085  1.00  0.00     0.261 C 
BRANCH  46  47
HETATM   47  C14 UNL     1      -7.630 -44.042  14.745  1.00  0.00     0.191 C 
BRANCH  47  48
HETATM   48  O3  UNL     1      -8.429 -44.087  15.888  1.00  0.00    -0.399 OA
ATOM     49  H3  UNL     1      -9.260 -44.512  15.715  1.00  0.00     0.209 HD
ENDBRANCH  47  48
ENDBRANCH  46  47
ENDBRANCH  43  46
ENDBRANCH  40  43
ENDBRANCH  37  40
BRANCH  38  50
HETATM   50  O4  UNL     1      -8.011 -42.806  18.306  1.00  0.00    -0.344 OA
ATOM     51  H4  UNL     1      -8.572 -42.277  17.749  1.00  0.00     0.219 HD
ENDBRANCH  38  50
BRANCH  39  52
HETATM   52  N7  UNL     1      -7.604 -40.934  20.576  1.00  0.00    -0.336 N 
ATOM     53  H72 UNL     1      -7.848 -39.951  20.456  1.00  0.00     0.177 HD
ATOM     54  H71 UNL     1      -8.212 -41.373  21.268  1.00  0.00     0.177 HD
ENDBRANCH  39  52
ENDBRANCH  34  35
ENDBRANCH   3  34
TORSDOF 14
ENDMDL
MODEL 3
REMARK VINA RESULT: -8.012322923      0.908      1.239
REMARK  14 active torsions:
REMARK  status: ('A' for Active; 'I' for Inactive)
REMARK    1  A    between atoms: N1_1  and  C1_4 
REMARK    2  A    between atoms: C5_13  and  C6_14 
REMARK    3  A    between atoms: N4_16  and  C8_17 
REMARK    4  A    between atoms: C8_17  and  C9_18 
REMARK    5  A    between atoms: C11_20  and  C12_21 
REMARK    6  A    between atoms: C12_21  and  O2_22 
REMARK    7  A    between atoms: C12_21  and  N5_24 
REMARK    8  A    between atoms: N5_24  and  C13_27 
REMARK    9  A    between atoms: C13_27  and  C14_28 
REMARK   10  A    between atoms: C14_28  and  O3_29 
REMARK   11  A    between atoms: C15_31  and  O4_32 
REMARK   12  A    between atoms: N6_34  and  N7_35 
REMARK   13  A    between atoms: N10_42  and  C16_43 
REMARK   14  A    between atoms: C17_49  and  N13_50 
ROOT
HETATM    1  C6  UNL     1      -2.290 -37.742  20.569  1.00  0.00     0.111 A 
HETATM    2  C7  UNL     1      -2.993 -38.624  21.364  1.00  0.00     0.146 A 
HETATM    3  N4  UNL     1      -3.763 -39.425  20.568  1.00  0.00    -0.281 N 
HETATM    4  N8  UNL     1      -3.529 -39.037  19.329  1.00  0.00    -0.240 N 
ATOM      5  H8  UNL     1      -3.959 -39.448  18.501  1.00  0.00     0.208 HD
HETATM    6  N9  UNL     1      -2.655 -38.036  19.311  1.00  0.00    -0.281 N 
ATOM      7  H9  UNL     1      -2.315 -37.565  18.472  1.00  0.00     0.188 HD
ENDROOT
BRANCH   1   8
HETATM    8  C5  UNL     1      -1.348 -36.686  20.944  1.00  0.00     0.146 A 
HETATM    9  N3  UNL     1       0.004 -36.831  21.072  1.00  0.00    -0.324 N 
HETATM   10  C4  UNL     1       0.559 -35.656  21.441  1.00  0.00     0.155 A 
ATOM     11  H3  UNL     1       0.518 -37.697  20.912  1.00  0.00     0.169 HD
HETATM   12  C3  UNL     1      -0.519 -34.792  21.530  1.00  0.00     0.156 A 
HETATM   13  N14 UNL     1       1.816 -35.253  21.699  1.00  0.00    -0.174 N 
HETATM   14  C2  UNL     1      -0.299 -33.483  21.894  1.00  0.00     0.290 A 
HETATM   15  N10 UNL     1      -1.673 -35.418  21.229  1.00  0.00    -0.268 N 
HETATM   16  N2  UNL     1       0.968 -33.110  22.144  1.00  0.00    -0.154 N 
HETATM   17  O1  UNL     1      -1.276 -32.699  21.975  1.00  0.00    -0.265 OA
HETATM   18  C1  UNL     1       2.020 -33.974  22.052  1.00  0.00     0.680 A 
ATOM     19  H2  UNL     1       1.149 -32.143  22.414  1.00  0.00     0.187 HD
ATOM     20  H14 UNL     1       2.598 -35.905  21.627  1.00  0.00     0.186 HD
BRANCH  18  21
HETATM   21  N1  UNL     1       3.209 -33.502  22.317  1.00  0.00    -0.234 N 
ATOM     22  H12 UNL     1       3.460 -32.528  22.149  1.00  0.00     0.174 HD
ATOM     23  H11 UNL     1       3.893 -34.150  22.707  1.00  0.00     0.174 HD
ENDBRANCH  18  21
BRANCH  15  24
HETATM   24  C16 UNL     1      -2.987 -34.829  21.213  1.00  0.00     0.182 A 
HETATM   25  N11 UNL     1      -3.455 -33.951  20.285  1.00  0.00    -0.221 N 
HETATM   26  O5  UNL     1      -4.677 -33.636  20.597  1.00  0.00    -0.153 OA
ATOM     27  H11 UNL     1      -2.935 -33.600  19.482  1.00  0.00     0.198 HD
HETATM   28  N12 UNL     1      -5.057 -34.240  21.666  1.00  0.00    -0.222 N 
HETATM   29  C17 UNL     1      -4.033 -35.000  22.089  1.00  0.00     0.168 A 
ATOM     30  H12 UNL     1      -5.971 -34.158  22.112  1.00  0.00     0.198 HD
BRANCH  29  31
HETATM   31  N13 UNL     1      -4.002 -35.776  23.140  1.00  0.00    -0.381 N 
ATOM     32 2H13 UNL     1      -3.197 -35.991  23.727  1.00  0.00     0.157 HD
ATOM     33 1H13 UNL     1      -4.808 -36.277  23.513  1.00  0.00     0.157 HD
ENDBRANCH  29  31
ENDBRANCH  15  24
ENDBRANCH   1   8
BRANCH   3  34
HETATM   34  C8  UNL     1      -4.641 -40.462  21.072  1.00  0.00     0.209 C 
BRANCH  34  35
HETATM   35  C9  UNL     1      -5.854 -39.950  21.698  1.00  0.00     0.056 A 
HETATM   36  C10 UNL     1      -6.781 -39.060  21.197  1.00  0.00     0.045 A 
HETATM   37  C11 UNL     1      -7.764 -38.855  22.121  1.00  0.00     0.052 A 
HETATM   38  C15 UNL     1      -7.454 -39.620  23.210  1.00  0.00     0.172 A 
HETATM   39  N6  UNL     1      -6.294 -40.273  22.931  1.00  0.00    -0.243 N 
BRANCH  37  40
HETATM   40  C12 UNL     1      -8.948 -37.986  21.992  1.00  0.00     0.357 C 
BRANCH  40  41
HETATM   41  O2  UNL     1     -10.128 -38.686  22.267  1.00  0.00    -0.366 OA
ATOM     42  H2  UNL     1     -10.664 -38.227  22.902  1.00  0.00     0.212 HD
ENDBRANCH  40  41
BRANCH  40  43
HETATM   43  N5  UNL     1      -8.866 -36.927  22.958  1.00  0.00    -0.043 N 
ATOM     44  H52 UNL     1      -9.801 -36.626  23.234  1.00  0.00     0.280 HD
ATOM     45  H51 UNL     1      -8.526 -37.287  23.850  1.00  0.00     0.280 HD
BRANCH  43  46
HETATM   46  C13 UNL     1      -8.080 -35.800  22.543  1.00  0.00     0.261 C 
BRANCH  46  47
HETATM   47  C14 UNL     1      -8.396 -35.479  21.103  1.00  0.00     0.191 C 
BRANCH  47  48
HETATM   48  O3  UNL     1      -7.661 -34.382  20.651  1.00  0.00    -0.399 OA
ATOM     49  H3  UNL     1      -7.728 -34.283  19.708  1.00  0.00     0.209 HD
ENDBRANCH  47  48
ENDBRANCH  46  47
ENDBRANCH  43  46
ENDBRANCH  40  43
ENDBRANCH  37  40
BRANCH  38  50
HETATM   50  O4  UNL     1      -8.192 -39.716  24.397  1.00  0.00    -0.344 OA
ATOM     51  H4  UNL     1      -7.904 -40.115  25.210  1.00  0.00     0.219 HD
ENDBRANCH  38  50
BRANCH  39  52
HETATM   52  N7  UNL     1      -5.659 -41.156  23.820  1.00  0.00    -0.336 N 
ATOM     53  H72 UNL     1      -4.719 -41.523  23.681  1.00  0.00     0.177 HD
ATOM     54  H71 UNL     1      -6.063 -41.520  24.683  1.00  0.00     0.177 HD
ENDBRANCH  39  52
ENDBRANCH  34  35
ENDBRANCH   3  34
TORSDOF 14
ENDMDL
MODEL 4
REMARK VINA RESULT: -7.985219194      3.224      4.739
REMARK  14 active torsions:
REMARK  status: ('A' for Active; 'I' for Inactive)
REMARK    1  A    between atoms: N1_1  and  C1_4 
REMARK    2  A    between atoms: C5_13  and  C6_14 
REMARK    3  A    between atoms: N4_16  and  C8_17 
REMARK    4  A    between atoms: C8_17  and  C9_18 
REMARK    5  A    between atoms: C11_20  and  C12_21 
REMARK    6  A    between atoms: C12_21  and  O2_22 
REMARK    7  A    between atoms: C12_21  and  N5_24 
REMARK    8  A    between atoms: N5_24  and  C13_27 
REMARK    9  A    between atoms: C13_27  and  C14_28 
REMARK   10  A    between atoms: C14_28  and  O3_29 
REMARK   11  A    between atoms: C15_31  and  O4_32 
REMARK   12  A    between atoms: N6_34  and  N7_35 
REMARK   13  A    between atoms: N10_42  and  C16_43 
REMARK   14  A    between atoms: C17_49  and  N13_50 
ROOT
HETATM    1  C6  UNL     1      -2.314 -37.758  20.544  1.00  0.00     0.111 A 
HETATM    2  C7  UNL     1      -3.001 -38.673  21.315  1.00  0.00     0.146 A 
HETATM    3  N4  UNL     1      -3.756 -39.468  20.497  1.00  0.00    -0.281 N 
HETATM    4  N8  UNL     1      -3.529 -39.043  19.270  1.00  0.00    -0.240 N 
ATOM      5  H8  UNL     1      -3.951 -39.440  18.430  1.00  0.00     0.208 HD
HETATM    6  N9  UNL     1      -2.674 -38.026  19.278  1.00  0.00    -0.281 N 
ATOM      7  H9  UNL     1      -2.342 -37.527  18.452  1.00  0.00     0.188 HD
ENDROOT
BRANCH   1   8
HETATM    8  C5  UNL     1      -1.392 -36.696  20.947  1.00  0.00     0.146 A 
HETATM    9  N3  UNL     1      -0.039 -36.822  21.087  1.00  0.00    -0.324 N 
HETATM   10  C4  UNL     1       0.495 -35.647  21.482  1.00  0.00     0.155 A 
ATOM     11  H3  UNL     1       0.489 -37.678  20.917  1.00  0.00     0.169 HD
HETATM   12  C3  UNL     1      -0.597 -34.800  21.574  1.00  0.00     0.156 A 
HETATM   13  N14 UNL     1       1.743 -35.230  21.759  1.00  0.00    -0.174 N 
HETATM   14  C2  UNL     1      -0.400 -33.495  21.962  1.00  0.00     0.290 A 
HETATM   15  N10 UNL     1      -1.738 -35.438  21.250  1.00  0.00    -0.268 N 
HETATM   16  N2  UNL     1       0.858 -33.107  22.233  1.00  0.00    -0.154 N 
HETATM   17  O1  UNL     1      -1.389 -32.726  22.047  1.00  0.00    -0.265 OA
HETATM   18  C1  UNL     1       1.924 -33.954  22.136  1.00  0.00     0.680 A 
ATOM     19  H2  UNL     1       1.023 -32.142  22.521  1.00  0.00     0.187 HD
ATOM     20  H14 UNL     1       2.535 -35.868  21.685  1.00  0.00     0.186 HD
BRANCH  18  21
HETATM   21  N1  UNL     1       3.103 -33.470  22.423  1.00  0.00    -0.234 N 
ATOM     22  H12 UNL     1       3.469 -33.451  23.374  1.00  0.00     0.174 HD
ATOM     23  H11 UNL     1       3.659 -33.104  21.651  1.00  0.00     0.174 HD
ENDBRANCH  18  21
BRANCH  15  24
HETATM   24  C16 UNL     1      -3.061 -34.868  21.230  1.00  0.00     0.182 A 
HETATM   25  N11 UNL     1      -3.522 -33.956  20.332  1.00  0.00    -0.221 N 
HETATM   26  O5  UNL     1      -4.755 -33.673  20.630  1.00  0.00    -0.153 OA
ATOM     27  H11 UNL     1      -2.990 -33.562  19.556  1.00  0.00     0.198 HD
HETATM   28  N12 UNL     1      -5.149 -34.329  21.661  1.00  0.00    -0.222 N 
HETATM   29  C17 UNL     1      -4.123 -35.092  22.074  1.00  0.00     0.168 A 
ATOM     30  H12 UNL     1      -6.074 -34.280  22.090  1.00  0.00     0.198 HD
BRANCH  29  31
HETATM   31  N13 UNL     1      -4.103 -35.914  23.090  1.00  0.00    -0.381 N 
ATOM     32 2H13 UNL     1      -3.996 -36.927  23.065  1.00  0.00     0.157 HD
ATOM     33 1H13 UNL     1      -4.195 -35.631  24.065  1.00  0.00     0.157 HD
ENDBRANCH  29  31
ENDBRANCH  15  24
ENDBRANCH   1   8
BRANCH   3  34
HETATM   34  C8  UNL     1      -4.614 -40.533  20.974  1.00  0.00     0.209 C 
BRANCH  34  35
HETATM   35  C9  UNL     1      -5.085 -41.424  19.921  1.00  0.00     0.056 A 
HETATM   36  C10 UNL     1      -6.098 -41.227  19.006  1.00  0.00     0.045 A 
HETATM   37  C11 UNL     1      -6.204 -42.322  18.199  1.00  0.00     0.052 A 
HETATM   38  C15 UNL     1      -5.253 -43.214  18.609  1.00  0.00     0.172 A 
HETATM   39  N6  UNL     1      -4.589 -42.648  19.652  1.00  0.00    -0.243 N 
BRANCH  37  40
HETATM   40  C12 UNL     1      -7.150 -42.528  17.086  1.00  0.00     0.357 C 
BRANCH  40  41
HETATM   41  O2  UNL     1      -6.486 -42.907  15.915  1.00  0.00    -0.366 OA
ATOM     42  H2  UNL     1      -6.829 -42.448  15.157  1.00  0.00     0.212 HD
ENDBRANCH  40  41
BRANCH  40  43
HETATM   43  N5  UNL     1      -8.044 -43.602  17.417  1.00  0.00    -0.043 N 
ATOM     44  H52 UNL     1      -7.820 -43.978  18.338  1.00  0.00     0.280 HD
ATOM     45  H51 UNL     1      -8.981 -43.241  17.597  1.00  0.00     0.280 HD
BRANCH  43  46
HETATM   46  C13 UNL     1      -8.095 -44.657  16.445  1.00  0.00     0.261 C 
BRANCH  46  47
HETATM   47  C14 UNL     1      -8.176 -45.984  17.159  1.00  0.00     0.191 C 
BRANCH  47  48
HETATM   48  O3  UNL     1      -7.562 -45.929  18.411  1.00  0.00    -0.399 OA
ATOM     49  H3  UNL     1      -6.905 -46.608  18.506  1.00  0.00     0.209 HD
ENDBRANCH  47  48
ENDBRANCH  46  47
ENDBRANCH  43  46
ENDBRANCH  40  43
ENDBRANCH  37  40
BRANCH  38  50
HETATM   50  O4  UNL     1      -5.006 -44.478  18.058  1.00  0.00    -0.344 OA
ATOM     51  H4  UNL     1      -4.695 -45.246  18.525  1.00  0.00     0.219 HD
ENDBRANCH  38  50
BRANCH  39  52
HETATM   52  N7  UNL     1      -3.536 -43.273  20.340  1.00  0.00    -0.336 N 
ATOM     53  H72 UNL     1      -2.740 -42.772  20.734  1.00  0.00     0.177 HD
ATOM     54  H71 UNL     1      -3.454 -44.274  20.516  1.00  0.00     0.177 HD
ENDBRANCH  39  52
ENDBRANCH  34  35
ENDBRANCH   3  34
TORSDOF 14
ENDMDL
MODEL 5
REMARK VINA RESULT: -7.828716068      2.765      8.898
REMARK  14 active torsions:
REMARK  status: ('A' for Active; 'I' for Inactive)
REMARK    1  A    between atoms: N1_1  and  C1_4 
REMARK    2  A    between atoms: C5_13  and  C6_14 
REMARK    3  A    between atoms: N4_16  and  C8_17 
REMARK    4  A    between atoms: C8_17  and  C9_18 
REMARK    5  A    between atoms: C11_20  and  C12_21 
REMARK    6  A    between atoms: C12_21  and  O2_22 
REMARK    7  A    between atoms: C12_21  and  N5_24 
REMARK    8  A    between atoms: N5_24  and  C13_27 
REMARK    9  A    between atoms: C13_27  and  C14_28 
REMARK   10  A    between atoms: C14_28  and  O3_29 
REMARK   11  A    between atoms: C15_31  and  O4_32 
REMARK   12  A    between atoms: N6_34  and  N7_35 
REMARK   13  A    between atoms: N10_42  and  C16_43 
REMARK   14  A    between atoms: C17_49  and  N13_50 
ROOT
HETATM    1  C6  UNL     1      -1.061 -36.728  22.147  1.00  0.00     0.111 A 
HETATM    2  C7  UNL     1       0.142 -36.452  21.531  1.00  0.00     0.146 A 
HETATM    3  N4  UNL     1       0.958 -35.805  22.417  1.00  0.00    -0.281 N 
HETATM    4  N8  UNL     1       0.265 -35.695  23.534  1.00  0.00    -0.240 N 
ATOM      5  H8  UNL     1       0.606 -35.255  24.388  1.00  0.00     0.208 HD
HETATM    6  N9  UNL     1      -0.939 -36.239  23.391  1.00  0.00    -0.281 N 
ATOM      7  H9  UNL     1      -1.657 -36.279  24.114  1.00  0.00     0.188 HD
ENDROOT
BRANCH   1   8
HETATM    8  C5  UNL     1      -2.254 -37.392  21.620  1.00  0.00     0.146 A 
HETATM    9  N3  UNL     1      -2.424 -38.741  21.483  1.00  0.00    -0.324 N 
HETATM   10  C4  UNL     1      -3.639 -39.000  20.955  1.00  0.00     0.155 A 
ATOM     11  H3  UNL     1      -1.735 -39.447  21.742  1.00  0.00     0.169 HD
HETATM   12  C3  UNL     1      -4.200 -37.747  20.779  1.00  0.00     0.156 A 
HETATM   13  N14 UNL     1      -4.296 -40.126  20.622  1.00  0.00    -0.174 N 
HETATM   14  C2  UNL     1      -5.465 -37.649  20.247  1.00  0.00     0.290 A 
HETATM   15  N10 UNL     1      -3.359 -36.775  21.182  1.00  0.00    -0.268 N 
HETATM   16  N2  UNL     1      -6.097 -38.791  19.924  1.00  0.00    -0.154 N 
HETATM   17  O1  UNL     1      -5.975 -36.513  20.086  1.00  0.00    -0.265 OA
HETATM   18  C1  UNL     1      -5.530 -40.019  20.104  1.00  0.00     0.680 A 
ATOM     19  H2  UNL     1      -7.036 -38.737  19.529  1.00  0.00     0.187 HD
ATOM     20  H14 UNL     1      -3.866 -41.041  20.760  1.00  0.00     0.186 HD
BRANCH  18  21
HETATM   21  N1  UNL     1      -6.235 -41.062  19.755  1.00  0.00    -0.234 N 
ATOM     22  H12 UNL     1      -7.246 -41.020  19.627  1.00  0.00     0.174 HD
ATOM     23  H11 UNL     1      -5.735 -41.939  19.612  1.00  0.00     0.174 HD
ENDBRANCH  18  21
BRANCH  15  24
HETATM   24  C16 UNL     1      -3.612 -35.357  21.150  1.00  0.00     0.182 A 
HETATM   25  N11 UNL     1      -4.444 -34.677  21.985  1.00  0.00    -0.221 N 
HETATM   26  O5  UNL     1      -4.420 -33.420  21.655  1.00  0.00    -0.153 OA
ATOM     27  H11 UNL     1      -4.993 -35.085  22.742  1.00  0.00     0.198 HD
HETATM   28  N12 UNL     1      -3.634 -33.213  20.660  1.00  0.00    -0.222 N 
HETATM   29  C17 UNL     1      -3.103 -34.396  20.308  1.00  0.00     0.168 A 
ATOM     30  H12 UNL     1      -3.446 -32.313  20.218  1.00  0.00     0.198 HD
BRANCH  29  31
HETATM   31  N13 UNL     1      -2.252 -34.629  19.345  1.00  0.00    -0.381 N 
ATOM     32 2H13 UNL     1      -1.642 -35.439  19.240  1.00  0.00     0.157 HD
ATOM     33 1H13 UNL     1      -2.090 -34.008  18.553  1.00  0.00     0.157 HD
ENDBRANCH  29  31
ENDBRANCH  15  24
ENDBRANCH   1   8
BRANCH   3  34
HETATM   34  C8  UNL     1       2.298 -35.355  22.100  1.00  0.00     0.209 C 
BRANCH  34  35
HETATM   35  C9  UNL     1       2.463 -33.908  22.168  1.00  0.00     0.056 A 
HETATM   36  C10 UNL     1       2.939 -33.136  23.208  1.00  0.00     0.045 A 
HETATM   37  C11 UNL     1       2.922 -31.821  22.845  1.00  0.00     0.052 A 
HETATM   38  C15 UNL     1       2.433 -31.764  21.570  1.00  0.00     0.172 A 
HETATM   39  N6  UNL     1       2.163 -33.039  21.182  1.00  0.00    -0.243 N 
BRANCH  37  40
HETATM   40  C12 UNL     1       3.350 -30.663  23.652  1.00  0.00     0.357 C 
BRANCH  40  41
HETATM   41  O2  UNL     1       4.135 -29.780  22.902  1.00  0.00    -0.366 OA
ATOM     42  H2  UNL     1       3.984 -28.878  23.158  1.00  0.00     0.212 HD
ENDBRANCH  40  41
BRANCH  40  43
HETATM   43  N5  UNL     1       2.193 -29.925  24.073  1.00  0.00    -0.043 N 
ATOM     44  H52 UNL     1       1.499 -29.898  23.326  1.00  0.00     0.280 HD
ATOM     45  H51 UNL     1       1.674 -30.451  24.776  1.00  0.00     0.280 HD
BRANCH  43  46
HETATM   46  C13 UNL     1       2.470 -28.599  24.547  1.00  0.00     0.261 C 
BRANCH  46  47
HETATM   47  C14 UNL     1       1.190 -27.974  25.044  1.00  0.00     0.191 C 
BRANCH  47  48
HETATM   48  O3  UNL     1       0.070 -28.671  24.589  1.00  0.00    -0.399 OA
ATOM     49  H3  UNL     1      -0.692 -28.106  24.531  1.00  0.00     0.209 HD
ENDBRANCH  47  48
ENDBRANCH  46  47
ENDBRANCH  43  46
ENDBRANCH  40  43
ENDBRANCH  37  40
BRANCH  38  50
HETATM   50  O4  UNL     1       2.244 -30.608  20.802  1.00  0.00    -0.344 OA
ATOM     51  H4  UNL     1       2.844 -29.874  20.732  1.00  0.00     0.219 HD
ENDBRANCH  38  50
BRANCH  39  52
HETATM   52  N7  UNL     1       1.640 -33.380  19.924  1.00  0.00    -0.336 N 
ATOM     53  H72 UNL     1       2.095 -33.153  19.040  1.00  0.00     0.177 HD
ATOM     54  H71 UNL     1       0.766 -33.879  19.760  1.00  0.00     0.177 HD
ENDBRANCH  39  52
ENDBRANCH  34  35
ENDBRANCH   3  34
TORSDOF 14
ENDMDL
