MODEL 1
REMARK VINA RESULT: -5.768304268      0.000      0.000
REMARK  3 active torsions:
REMARK  status: ('A' for Active; 'I' for Inactive)
REMARK    1  A    between atoms: C2_2  and  N1_3 
REMARK    2  A    between atoms: N2_6  and  C5_7 
REMARK    3  A    between atoms: C10_14  and  O1_15 
ROOT
HETATM    1  N1  UNL     1      -0.508  16.428  -6.696  1.00  0.00    -0.380 N 
HETATM    2  C3  UNL     1      -1.199  15.521  -7.525  1.00  0.00     0.139 C 
HETATM    3  C4  UNL     1      -2.496  16.199  -8.003  1.00  0.00     0.142 C 
HETATM    4  N2  UNL     1      -3.307  16.317  -6.827  1.00  0.00    -0.377 N 
HETATM    5  C7  UNL     1      -2.705  16.627  -5.560  1.00  0.00     0.139 C 
HETATM    6  C8  UNL     1      -2.980  18.049  -5.155  1.00  0.00     0.035 C 
HETATM    7  C9  UNL     1      -1.669  18.427  -5.787  1.00  0.00     0.065 C 
HETATM    8  C10 UNL     1      -1.248  16.982  -5.629  1.00  0.00     0.150 C 
ENDROOT
BRANCH   4   9
HETATM    9  C5  UNL     1      -4.699  16.110  -6.886  1.00  0.00     0.122 C 
HETATM   10  C6  UNL     1      -5.244  14.939  -6.674  1.00  0.00     0.118 C 
HETATM   11 CL1  UNL     1      -6.978  14.768  -6.766  1.00  0.00    -0.069 Cl
HETATM   12 CL2  UNL     1      -4.241  13.564  -6.307  1.00  0.00    -0.069 Cl
ENDBRANCH   4   9
BRANCH   8  13
HETATM   13  O1  UNL     1      -0.693  16.778  -4.348  1.00  0.00    -0.369 OA
ATOM     14  H1  UNL     1      -0.858  17.473  -3.723  1.00  0.00     0.212 HD
ENDBRANCH   8  13
BRANCH   1  15
HETATM   15  C2  UNL     1       0.878  16.184  -6.483  1.00  0.00     0.115 C 
HETATM   16  C1  UNL     1       1.649  15.823  -7.745  1.00  0.00     0.026 C 
ENDBRANCH   1  15
TORSDOF 3
ENDMDL
MODEL 2
REMARK VINA RESULT: -5.591473359      1.785      3.247
REMARK  3 active torsions:
REMARK  status: ('A' for Active; 'I' for Inactive)
REMARK    1  A    between atoms: C2_2  and  N1_3 
REMARK    2  A    between atoms: N2_6  and  C5_7 
REMARK    3  A    between atoms: C10_14  and  O1_15 
ROOT
HETATM    1  N1  UNL     1      -2.200  17.984  -5.772  1.00  0.00    -0.380 N 
HETATM    2  C3  UNL     1      -3.464  17.612  -5.270  1.00  0.00     0.139 C 
HETATM    3  C4  UNL     1      -3.446  16.098  -4.997  1.00  0.00     0.142 C 
HETATM    4  N2  UNL     1      -3.369  15.489  -6.293  1.00  0.00    -0.377 N 
HETATM    5  C7  UNL     1      -2.574  16.089  -7.328  1.00  0.00     0.139 C 
HETATM    6  C8  UNL     1      -1.304  15.319  -7.561  1.00  0.00     0.035 C 
HETATM    7  C9  UNL     1      -0.623  16.253  -6.599  1.00  0.00     0.065 C 
HETATM    8  C10 UNL     1      -1.730  17.247  -6.879  1.00  0.00     0.150 C 
ENDROOT
BRANCH   4   9
HETATM    9  C5  UNL     1      -4.085  14.312  -6.581  1.00  0.00     0.122 C 
HETATM   10  C6  UNL     1      -5.324  14.329  -7.004  1.00  0.00     0.118 C 
HETATM   11 CL1  UNL     1      -6.140  12.824  -7.339  1.00  0.00    -0.069 Cl
HETATM   12 CL2  UNL     1      -6.149  15.846  -7.225  1.00  0.00    -0.069 Cl
ENDBRANCH   4   9
BRANCH   8  13
HETATM   13  O1  UNL     1      -1.412  18.016  -8.018  1.00  0.00    -0.369 OA
ATOM     14  H1  UNL     1      -0.560  18.436  -7.994  1.00  0.00     0.212 HD
ENDBRANCH   8  13
BRANCH   1  15
HETATM   15  C2  UNL     1      -1.856  19.364  -5.702  1.00  0.00     0.115 C 
HETATM   16  C1  UNL     1      -2.566  20.129  -4.593  1.00  0.00     0.026 C 
ENDBRANCH   1  15
TORSDOF 3
ENDMDL
MODEL 3
REMARK VINA RESULT: -5.572252920      1.260      1.533
REMARK  3 active torsions:
REMARK  status: ('A' for Active; 'I' for Inactive)
REMARK    1  A    between atoms: C2_2  and  N1_3 
REMARK    2  A    between atoms: N2_6  and  C5_7 
REMARK    3  A    between atoms: C10_14  and  O1_15 
ROOT
HETATM    1  N1  UNL     1      -0.836  17.298  -6.478  1.00  0.00    -0.380 N 
HETATM    2  C3  UNL     1      -0.999  16.199  -7.347  1.00  0.00     0.139 C 
HETATM    3  C4  UNL     1      -2.493  16.084  -7.699  1.00  0.00     0.142 C 
HETATM    4  N2  UNL     1      -3.132  15.689  -6.478  1.00  0.00    -0.377 N 
HETATM    5  C7  UNL     1      -2.681  16.219  -5.221  1.00  0.00     0.139 C 
HETATM    6  C8  UNL     1      -3.642  17.243  -4.681  1.00  0.00     0.035 C 
HETATM    7  C9  UNL     1      -2.804  18.301  -5.344  1.00  0.00     0.065 C 
HETATM    8  C10 UNL     1      -1.658  17.312  -5.332  1.00  0.00     0.150 C 
ENDROOT
BRANCH   4   9
HETATM    9  C5  UNL     1      -4.191  14.761  -6.484  1.00  0.00     0.122 C 
HETATM   10  C6  UNL     1      -5.404  15.083  -6.858  1.00  0.00     0.118 C 
HETATM   11 CL1  UNL     1      -6.660  13.873  -6.837  1.00  0.00    -0.069 Cl
HETATM   12 CL2  UNL     1      -5.757  16.711  -7.367  1.00  0.00    -0.069 Cl
ENDBRANCH   4   9
BRANCH   8  13
HETATM   13  O1  UNL     1      -0.969  17.386  -4.104  1.00  0.00    -0.369 OA
ATOM     14  H1  UNL     1      -1.327  18.005  -3.479  1.00  0.00     0.212 HD
ENDBRANCH   8  13
BRANCH   1  15
HETATM   15  C2  UNL     1       0.476  17.838  -6.358  1.00  0.00     0.115 C 
HETATM   16  C1  UNL     1       0.850  18.822  -7.459  1.00  0.00     0.026 C 
ENDBRANCH   1  15
TORSDOF 3
ENDMDL
MODEL 4
REMARK VINA RESULT: -5.442799334      1.736      2.627
REMARK  3 active torsions:
REMARK  status: ('A' for Active; 'I' for Inactive)
REMARK    1  A    between atoms: C2_2  and  N1_3 
REMARK    2  A    between atoms: N2_6  and  C5_7 
REMARK    3  A    between atoms: C10_14  and  O1_15 
ROOT
HETATM    1  N1  UNL     1      -1.931  17.667  -5.678  1.00  0.00    -0.380 N 
HETATM    2  C3  UNL     1      -3.166  17.857  -5.023  1.00  0.00     0.139 C 
HETATM    3  C4  UNL     1      -3.975  16.552  -5.137  1.00  0.00     0.142 C 
HETATM    4  N2  UNL     1      -4.306  16.442  -6.527  1.00  0.00    -0.377 N 
HETATM    5  C7  UNL     1      -3.360  16.845  -7.531  1.00  0.00     0.139 C 
HETATM    6  C8  UNL     1      -2.739  15.655  -8.208  1.00  0.00     0.035 C 
HETATM    7  C9  UNL     1      -1.612  15.744  -7.216  1.00  0.00     0.065 C 
HETATM    8  C10 UNL     1      -1.998  17.193  -7.005  1.00  0.00     0.150 C 
ENDROOT
BRANCH   4   9
HETATM    9  C5  UNL     1      -5.565  15.961  -6.933  1.00  0.00     0.122 C 
HETATM   10  C6  UNL     1      -5.879  14.690  -6.892  1.00  0.00     0.118 C 
HETATM   11 CL1  UNL     1      -7.462  14.177  -7.413  1.00  0.00    -0.069 Cl
HETATM   12 CL2  UNL     1      -4.717  13.524  -6.324  1.00  0.00    -0.069 Cl
ENDBRANCH   4   9
BRANCH   8  13
HETATM   13  O1  UNL     1      -1.360  18.008  -7.963  1.00  0.00    -0.369 OA
ATOM     14  H1  UNL     1      -0.510  17.698  -8.253  1.00  0.00     0.212 HD
ENDBRANCH   8  13
BRANCH   1  15
HETATM   15  C2  UNL     1      -0.880  18.570  -5.350  1.00  0.00     0.115 C 
HETATM   16  C1  UNL     1       0.457  17.896  -5.072  1.00  0.00     0.026 C 
ENDBRANCH   1  15
TORSDOF 3
ENDMDL
MODEL 5
REMARK VINA RESULT: -5.339872982      1.822      3.097
REMARK  3 active torsions:
REMARK  status: ('A' for Active; 'I' for Inactive)
REMARK    1  A    between atoms: C2_2  and  N1_3 
REMARK    2  A    between atoms: N2_6  and  C5_7 
REMARK    3  A    between atoms: C10_14  and  O1_15 
ROOT
HETATM    1  N1  UNL     1      -2.276  17.742  -5.660  1.00  0.00    -0.380 N 
HETATM    2  C3  UNL     1      -3.572  17.640  -5.112  1.00  0.00     0.139 C 
HETATM    3  C4  UNL     1      -3.997  16.161  -5.159  1.00  0.00     0.142 C 
HETATM    4  N2  UNL     1      -4.160  15.866  -6.553  1.00  0.00    -0.377 N 
HETATM    5  C7  UNL     1      -3.265  16.435  -7.522  1.00  0.00     0.139 C 
HETATM    6  C8  UNL     1      -2.295  15.410  -8.041  1.00  0.00     0.035 C 
HETATM    7  C9  UNL     1      -1.326  15.869  -6.986  1.00  0.00     0.065 C 
HETATM    8  C10 UNL     1      -2.095  17.173  -6.938  1.00  0.00     0.150 C 
ENDROOT
BRANCH   4   9
HETATM    9  C5  UNL     1      -5.207  15.038  -6.997  1.00  0.00     0.122 C 
HETATM   10  C6  UNL     1      -5.252  13.758  -6.728  1.00  0.00     0.118 C 
HETATM   11 CL1  UNL     1      -6.587  12.801  -7.317  1.00  0.00    -0.069 Cl
HETATM   12 CL2  UNL     1      -3.984  13.018  -5.791  1.00  0.00    -0.069 Cl
ENDBRANCH   4   9
BRANCH   8  13
HETATM   13  O1  UNL     1      -1.608  18.058  -7.922  1.00  0.00    -0.369 OA
ATOM     14  H1  UNL     1      -0.842  17.752  -8.394  1.00  0.00     0.212 HD
ENDBRANCH   8  13
BRANCH   1  15
HETATM   15  C2  UNL     1      -1.531  18.914  -5.346  1.00  0.00     0.115 C 
HETATM   16  C1  UNL     1      -2.385  20.097  -4.910  1.00  0.00     0.026 C 
ENDBRANCH   1  15
TORSDOF 3
ENDMDL
