MODEL 1
REMARK VINA RESULT: -4.938402389      0.000      0.000
REMARK  1 active torsions:
REMARK  status: ('A' for Active; 'I' for Inactive)
REMARK       I    between atoms: N2_6  and  C4_8 
REMARK    1  A    between atoms: C4_8  and  C5_10 
ROOT
HETATM    1  C1  UNL     1      -7.221  17.550  -6.941  1.00  0.00     0.044 C 
HETATM    2  C2  UNL     1      -6.659  16.408  -7.707  1.00  0.00     0.141 C 
HETATM    3  N1  UNL     1      -5.217  16.366  -7.692  1.00  0.00    -0.366 N 
ATOM      4  H1  UNL     1      -4.653  17.131  -8.062  1.00  0.00     0.162 HD
HETATM    5  C3  UNL     1      -4.640  15.228  -7.147  1.00  0.00     0.094 C 
HETATM    6  N2  UNL     1      -3.577  15.072  -6.517  1.00  0.00    -0.313 N 
ATOM      7  H2  UNL     1      -3.404  14.108  -6.234  1.00  0.00     0.170 HD
HETATM    8  C4  UNL     1      -2.595  15.947  -6.129  1.00  0.00     0.261 C 
HETATM    9  O1  UNL     1      -1.378  15.635  -6.418  1.00  0.00    -0.270 OA
HETATM   10  C7  UNL     1      -5.509  14.008  -7.403  1.00  0.00     0.112 C 
HETATM   11  C8  UNL     1      -5.207  12.880  -6.485  1.00  0.00     0.029 C 
HETATM   12  S1  UNL     1      -7.118  14.784  -7.053  1.00  0.00    -0.132 SA
ENDROOT
BRANCH   8  13
HETATM   13  C5  UNL     1      -2.721  17.233  -5.408  1.00  0.00     0.190 C 
HETATM   14  C6  UNL     1      -1.514  17.551  -4.587  1.00  0.00     0.061 C 
HETATM   15 CL1  UNL     1      -2.694  18.489  -6.744  1.00  0.00    -0.091 Cl
HETATM   16 CL2  UNL     1      -4.193  17.449  -4.500  1.00  0.00    -0.091 Cl
ENDBRANCH   8  13
TORSDOF 1
ENDMDL
MODEL 2
REMARK VINA RESULT: -4.904203937      0.889      1.267
REMARK  1 active torsions:
REMARK  status: ('A' for Active; 'I' for Inactive)
REMARK       I    between atoms: N2_6  and  C4_8 
REMARK    1  A    between atoms: C4_8  and  C5_10 
ROOT
HETATM    1  C1  UNL     1      -7.256  17.554  -7.034  1.00  0.00     0.044 C 
HETATM    2  C2  UNL     1      -6.709  16.378  -7.759  1.00  0.00     0.141 C 
HETATM    3  N1  UNL     1      -5.267  16.336  -7.773  1.00  0.00    -0.366 N 
ATOM      4  H1  UNL     1      -4.711  17.083  -8.189  1.00  0.00     0.162 HD
HETATM    5  C3  UNL     1      -4.679  15.224  -7.189  1.00  0.00     0.094 C 
HETATM    6  N2  UNL     1      -3.603  15.096  -6.574  1.00  0.00    -0.313 N 
ATOM      7  H2  UNL     1      -3.424  14.145  -6.251  1.00  0.00     0.170 HD
HETATM    8  C4  UNL     1      -2.613  15.986  -6.247  1.00  0.00     0.261 C 
HETATM    9  O1  UNL     1      -1.402  15.661  -6.547  1.00  0.00    -0.270 OA
HETATM   10  C7  UNL     1      -5.553  13.994  -7.371  1.00  0.00     0.112 C 
HETATM   11  C8  UNL     1      -5.231  12.908  -6.409  1.00  0.00     0.029 C 
HETATM   12  S1  UNL     1      -7.155  14.786  -7.024  1.00  0.00    -0.132 SA
ENDROOT
BRANCH   8  13
HETATM   13  C5  UNL     1      -2.725  17.303  -5.582  1.00  0.00     0.190 C 
HETATM   14  C6  UNL     1      -3.873  17.368  -4.628  1.00  0.00     0.061 C 
HETATM   15 CL1  UNL     1      -1.244  17.377  -4.502  1.00  0.00    -0.091 Cl
HETATM   16 CL2  UNL     1      -2.687  18.690  -6.638  1.00  0.00    -0.091 Cl
ENDBRANCH   8  13
TORSDOF 1
ENDMDL
MODEL 3
REMARK VINA RESULT: -4.693636604      2.034      3.223
REMARK  1 active torsions:
REMARK  status: ('A' for Active; 'I' for Inactive)
REMARK       I    between atoms: N2_6  and  C4_8 
REMARK    1  A    between atoms: C4_8  and  C5_10 
ROOT
HETATM    1  C1  UNL     1      -3.896  12.827  -6.593  1.00  0.00     0.044 C 
HETATM    2  C2  UNL     1      -4.852  13.851  -6.098  1.00  0.00     0.141 C 
HETATM    3  N1  UNL     1      -4.216  15.090  -5.721  1.00  0.00    -0.366 N 
ATOM      4  H1  UNL     1      -3.508  15.130  -4.988  1.00  0.00     0.162 HD
HETATM    5  C3  UNL     1      -4.621  16.224  -6.410  1.00  0.00     0.094 C 
HETATM    6  N2  UNL     1      -3.996  17.251  -6.735  1.00  0.00    -0.313 N 
ATOM      7  H2  UNL     1      -4.558  17.932  -7.245  1.00  0.00     0.170 HD
HETATM    8  C4  UNL     1      -2.696  17.643  -6.538  1.00  0.00     0.261 C 
HETATM    9  O1  UNL     1      -2.502  18.813  -6.033  1.00  0.00    -0.270 OA
HETATM   10  C7  UNL     1      -6.086  16.121  -6.802  1.00  0.00     0.112 C 
HETATM   11  C8  UNL     1      -6.456  17.046  -7.904  1.00  0.00     0.029 C 
HETATM   12  S1  UNL     1      -6.071  14.377  -7.327  1.00  0.00    -0.132 SA
ENDROOT
BRANCH   8  13
HETATM   13  C5  UNL     1      -1.446  16.906  -6.826  1.00  0.00     0.190 C 
HETATM   14  C6  UNL     1      -0.348  17.803  -7.300  1.00  0.00     0.061 C 
HETATM   15 CL1  UNL     1      -0.878  16.343  -5.175  1.00  0.00    -0.091 Cl
HETATM   16 CL2  UNL     1      -1.612  15.500  -7.843  1.00  0.00    -0.091 Cl
ENDBRANCH   8  13
TORSDOF 1
ENDMDL
MODEL 4
REMARK VINA RESULT: -4.643553092      3.143      4.907
REMARK  1 active torsions:
REMARK  status: ('A' for Active; 'I' for Inactive)
REMARK       I    between atoms: N2_6  and  C4_8 
REMARK    1  A    between atoms: C4_8  and  C5_10 
ROOT
HETATM    1  C1  UNL     1      -1.211  19.683  -6.317  1.00  0.00     0.044 C 
HETATM    2  C2  UNL     1      -0.417  18.478  -5.964  1.00  0.00     0.141 C 
HETATM    3  N1  UNL     1      -1.231  17.331  -5.646  1.00  0.00    -0.366 N 
ATOM      4  H1  UNL     1      -1.899  17.342  -4.875  1.00  0.00     0.162 HD
HETATM    5  C3  UNL     1      -1.056  16.211  -6.446  1.00  0.00     0.094 C 
HETATM    6  N2  UNL     1      -1.860  15.332  -6.809  1.00  0.00    -0.313 N 
ATOM      7  H2  UNL     1      -1.446  14.616  -7.406  1.00  0.00     0.170 HD
HETATM    8  C4  UNL     1      -3.196  15.141  -6.563  1.00  0.00     0.261 C 
HETATM    9  O1  UNL     1      -3.558  13.978  -6.139  1.00  0.00    -0.270 OA
HETATM   10  C7  UNL     1       0.384  16.108  -6.921  1.00  0.00     0.112 C 
HETATM   11  C8  UNL     1       0.538  15.235  -8.113  1.00  0.00     0.029 C 
HETATM   12  S1  UNL     1       0.634  17.870  -7.306  1.00  0.00    -0.132 SA
ENDROOT
BRANCH   8  13
HETATM   13  C5  UNL     1      -4.318  16.093  -6.712  1.00  0.00     0.190 C 
HETATM   14  C6  UNL     1      -5.635  15.406  -6.875  1.00  0.00     0.061 C 
HETATM   15 CL1  UNL     1      -4.435  16.894  -5.066  1.00  0.00    -0.091 Cl
HETATM   16 CL2  UNL     1      -4.094  17.346  -7.903  1.00  0.00    -0.091 Cl
ENDBRANCH   8  13
TORSDOF 1
ENDMDL
MODEL 5
REMARK VINA RESULT: -4.544067888      3.208      4.679
REMARK  1 active torsions:
REMARK  status: ('A' for Active; 'I' for Inactive)
REMARK       I    between atoms: N2_6  and  C4_8 
REMARK    1  A    between atoms: C4_8  and  C5_10 
ROOT
HETATM    1  C1  UNL     1      -1.689  19.644  -5.831  1.00  0.00     0.044 C 
HETATM    2  C2  UNL     1      -0.848  18.464  -5.504  1.00  0.00     0.141 C 
HETATM    3  N1  UNL     1      -1.610  17.256  -5.305  1.00  0.00    -0.366 N 
ATOM      4  H1  UNL     1      -2.321  17.182  -4.577  1.00  0.00     0.162 HD
HETATM    5  C3  UNL     1      -1.325  16.201  -6.159  1.00  0.00     0.094 C 
HETATM    6  N2  UNL     1      -2.054  15.303  -6.623  1.00  0.00    -0.313 N 
ATOM      7  H2  UNL     1      -1.564  14.651  -7.235  1.00  0.00     0.170 HD
HETATM    8  C4  UNL     1      -3.387  15.024  -6.470  1.00  0.00     0.261 C 
HETATM    9  O1  UNL     1      -3.705  13.819  -6.141  1.00  0.00    -0.270 OA
HETATM   10  C7  UNL     1       0.144  16.207  -6.550  1.00  0.00     0.112 C 
HETATM   11  C8  UNL     1       0.418  15.422  -7.781  1.00  0.00     0.029 C 
HETATM   12  S1  UNL     1       0.313  18.001  -6.812  1.00  0.00    -0.132 SA
ENDROOT
BRANCH   8  13
HETATM   13  C5  UNL     1      -4.553  15.921  -6.630  1.00  0.00     0.190 C 
HETATM   14  C6  UNL     1      -4.783  16.783  -5.431  1.00  0.00     0.061 C 
HETATM   15 CL1  UNL     1      -4.022  17.101  -7.931  1.00  0.00    -0.091 Cl
HETATM   16 CL2  UNL     1      -6.026  15.160  -7.168  1.00  0.00    -0.091 Cl
ENDBRANCH   8  13
TORSDOF 1
ENDMDL
