MODEL 1
REMARK VINA RESULT: -6.779320045      0.000      0.000
REMARK  2 active torsions:
REMARK  status: ('A' for Active; 'I' for Inactive)
REMARK    1  A    between atoms: C6_8  and  N2_9 
REMARK    2  A    between atoms: N2_9  and  C7_11 
ROOT
HETATM    1  N1  UNL     1       1.302  15.572  -8.494  1.00  0.00    -0.197 NA
HETATM    2  C1  UNL     1       0.509  15.787  -7.697  1.00  0.00     0.064 C 
HETATM    3  C2  UNL     1      -0.491  16.075  -6.708  1.00  0.00     0.095 C 
HETATM    4  C3  UNL     1       0.016  17.059  -5.653  1.00  0.00     0.021 C 
HETATM    5  C4  UNL     1      -1.016  17.275  -4.597  1.00  0.00     0.023 C 
HETATM    6  C5  UNL     1      -2.292  17.833  -5.222  1.00  0.00     0.105 C 
HETATM    7 CL1  UNL     1      -1.902  19.384  -5.964  1.00  0.00    -0.123 Cl
HETATM    8  C6  UNL     1      -2.750  16.782  -6.219  1.00  0.00     0.102 C 
HETATM    9  C11 UNL     1      -1.729  16.759  -7.313  1.00  0.00     0.045 C 
ENDROOT
BRANCH   8  10
HETATM   10  N2  UNL     1      -4.093  16.825  -6.557  1.00  0.00    -0.369 N 
ATOM     11  H2  UNL     1      -4.409  17.792  -6.626  1.00  0.00     0.161 HD
BRANCH  10  12
HETATM   12  C7  UNL     1      -5.030  16.047  -6.802  1.00  0.00     0.117 A 
HETATM   13  C8  UNL     1      -6.257  16.595  -7.192  1.00  0.00     0.136 A 
HETATM   14  N3  UNL     1      -7.295  15.826  -7.467  1.00  0.00    -0.371 N 
HETATM   15  C9  UNL     1      -7.173  14.488  -7.373  1.00  0.00     0.104 A 
ATOM     16  H3  UNL     1      -8.182  16.242  -7.749  1.00  0.00     0.164 HD
HETATM   17  C10 UNL     1      -5.989  13.917  -6.995  1.00  0.00     0.106 A 
HETATM   18  N4  UNL     1      -4.952  14.721  -6.721  1.00  0.00    -0.350 N 
ATOM     19  H4  UNL     1      -4.067  14.299  -6.439  1.00  0.00     0.166 HD
ENDBRANCH  10  12
ENDBRANCH   8  10
TORSDOF 2
ENDMDL
MODEL 2
REMARK VINA RESULT: -6.640976910      0.682      1.202
REMARK  2 active torsions:
REMARK  status: ('A' for Active; 'I' for Inactive)
REMARK    1  A    between atoms: C6_8  and  N2_9 
REMARK    2  A    between atoms: N2_9  and  C7_11 
ROOT
HETATM    1  N1  UNL     1       1.238  15.550  -8.536  1.00  0.00    -0.197 NA
HETATM    2  C1  UNL     1       0.512  15.796  -7.686  1.00  0.00     0.064 C 
HETATM    3  C2  UNL     1      -0.406  16.121  -6.631  1.00  0.00     0.095 C 
HETATM    4  C3  UNL     1       0.180  17.150  -5.663  1.00  0.00     0.021 C 
HETATM    5  C4  UNL     1      -0.763  17.406  -4.535  1.00  0.00     0.023 C 
HETATM    6  C5  UNL     1      -2.090  17.933  -5.075  1.00  0.00     0.105 C 
HETATM    7 CL1  UNL     1      -1.773  19.453  -5.910  1.00  0.00    -0.123 Cl
HETATM    8  C6  UNL     1      -2.621  16.839  -5.986  1.00  0.00     0.102 C 
HETATM    9  C11 UNL     1      -1.693  16.775  -7.159  1.00  0.00     0.045 C 
ENDROOT
BRANCH   8  10
HETATM   10  N2  UNL     1      -3.988  16.864  -6.214  1.00  0.00    -0.369 N 
ATOM     11  H2  UNL     1      -4.366  17.786  -5.998  1.00  0.00     0.161 HD
BRANCH  10  12
HETATM   12  C7  UNL     1      -4.894  16.107  -6.601  1.00  0.00     0.117 A 
HETATM   13  C8  UNL     1      -4.690  14.727  -6.493  1.00  0.00     0.136 A 
HETATM   14  N3  UNL     1      -5.612  13.866  -6.885  1.00  0.00    -0.371 N 
HETATM   15  C9  UNL     1      -6.770  14.321  -7.399  1.00  0.00     0.104 A 
ATOM     16  H3  UNL     1      -5.448  12.863  -6.799  1.00  0.00     0.164 HD
HETATM   17  C10 UNL     1      -7.004  15.663  -7.521  1.00  0.00     0.106 A 
HETATM   18  N4  UNL     1      -6.051  16.516  -7.115  1.00  0.00    -0.350 N 
ATOM     19  H4  UNL     1      -6.221  17.518  -7.204  1.00  0.00     0.166 HD
ENDBRANCH  10  12
ENDBRANCH   8  10
TORSDOF 2
ENDMDL
MODEL 3
REMARK VINA RESULT: -6.333860107      4.719      6.732
REMARK  2 active torsions:
REMARK  status: ('A' for Active; 'I' for Inactive)
REMARK    1  A    between atoms: C6_8  and  N2_9 
REMARK    2  A    between atoms: N2_9  and  C7_11 
ROOT
HETATM    1  N1  UNL     1      -7.560  17.911  -7.201  1.00  0.00    -0.197 NA
HETATM    2  C1  UNL     1      -7.259  16.834  -7.443  1.00  0.00     0.064 C 
HETATM    3  C2  UNL     1      -6.885  15.477  -7.726  1.00  0.00     0.095 C 
HETATM    4  C3  UNL     1      -5.424  15.200  -7.366  1.00  0.00     0.021 C 
HETATM    5  C4  UNL     1      -5.043  13.809  -7.747  1.00  0.00     0.023 C 
HETATM    6  C5  UNL     1      -5.933  12.807  -7.014  1.00  0.00     0.105 C 
HETATM    7 CL1  UNL     1      -5.676  13.015  -5.283  1.00  0.00    -0.123 Cl
HETATM    8  C6  UNL     1      -7.351  13.121  -7.459  1.00  0.00     0.102 C 
HETATM    9  C11 UNL     1      -7.688  14.465  -6.893  1.00  0.00     0.045 C 
ENDROOT
BRANCH   8  10
HETATM   10  N2  UNL     1      -8.263  12.087  -7.319  1.00  0.00    -0.369 N 
ATOM     11  H2  UNL     1      -8.001  11.488  -6.536  1.00  0.00     0.161 HD
BRANCH  10  12
HETATM   12  C7  UNL     1      -9.302  11.666  -7.853  1.00  0.00     0.117 A 
HETATM   13  C8  UNL     1      -9.386  10.300  -8.146  1.00  0.00     0.136 A 
HETATM   14  N3  UNL     1     -10.462   9.786  -8.714  1.00  0.00    -0.371 N 
HETATM   15  C9  UNL     1     -11.500  10.588  -9.018  1.00  0.00     0.104 A 
ATOM     16  H3  UNL     1     -10.507   8.788  -8.920  1.00  0.00     0.164 HD
HETATM   17  C10 UNL     1     -11.453  11.928  -8.747  1.00  0.00     0.106 A 
HETATM   18  N4  UNL     1     -10.349  12.424  -8.170  1.00  0.00    -0.350 N 
ATOM     19  H4  UNL     1     -10.310  13.423  -7.967  1.00  0.00     0.166 HD
ENDBRANCH  10  12
ENDBRANCH   8  10
TORSDOF 2
ENDMDL
MODEL 4
REMARK VINA RESULT: -6.318557865      4.680      6.602
REMARK  2 active torsions:
REMARK  status: ('A' for Active; 'I' for Inactive)
REMARK    1  A    between atoms: C6_8  and  N2_9 
REMARK    2  A    between atoms: N2_9  and  C7_11 
ROOT
HETATM    1  N1  UNL     1      -7.511  17.787  -7.176  1.00  0.00    -0.197 NA
HETATM    2  C1  UNL     1      -7.201  16.711  -7.412  1.00  0.00     0.064 C 
HETATM    3  C2  UNL     1      -6.817  15.356  -7.687  1.00  0.00     0.095 C 
HETATM    4  C3  UNL     1      -5.344  15.103  -7.359  1.00  0.00     0.021 C 
HETATM    5  C4  UNL     1      -4.954  13.711  -7.732  1.00  0.00     0.023 C 
HETATM    6  C5  UNL     1      -5.812  12.708  -6.965  1.00  0.00     0.105 C 
HETATM    7 CL1  UNL     1      -5.516  12.942  -5.243  1.00  0.00    -0.123 Cl
HETATM    8  C6  UNL     1      -7.245  12.998  -7.379  1.00  0.00     0.102 C 
HETATM    9  C11 UNL     1      -7.585  14.344  -6.821  1.00  0.00     0.045 C 
ENDROOT
BRANCH   8  10
HETATM   10  N2  UNL     1      -8.140  11.954  -7.203  1.00  0.00    -0.369 N 
ATOM     11  H2  UNL     1      -7.929  11.450  -6.341  1.00  0.00     0.161 HD
BRANCH  10  12
HETATM   12  C7  UNL     1      -9.119  11.444  -7.772  1.00  0.00     0.117 A 
HETATM   13  C8  UNL     1     -10.234  12.253  -8.016  1.00  0.00     0.136 A 
HETATM   14  N3  UNL     1     -11.309  11.776  -8.617  1.00  0.00    -0.371 N 
HETATM   15  C9  UNL     1     -11.335  10.486  -9.004  1.00  0.00     0.104 A 
ATOM     16  H3  UNL     1     -12.113  12.379  -8.787  1.00  0.00     0.164 HD
HETATM   17  C10 UNL     1     -10.264   9.666  -8.782  1.00  0.00     0.106 A 
HETATM   18  N4  UNL     1      -9.186  10.176  -8.170  1.00  0.00    -0.350 N 
ATOM     19  H4  UNL     1      -8.384   9.567  -8.002  1.00  0.00     0.166 HD
ENDBRANCH  10  12
ENDBRANCH   8  10
TORSDOF 2
ENDMDL
MODEL 5
REMARK VINA RESULT: -6.305064281      1.614      2.048
REMARK  2 active torsions:
REMARK  status: ('A' for Active; 'I' for Inactive)
REMARK    1  A    between atoms: C6_8  and  N2_9 
REMARK    2  A    between atoms: N2_9  and  C7_11 
ROOT
HETATM    1  N1  UNL     1       0.586  19.240  -8.887  1.00  0.00    -0.197 NA
HETATM    2  C1  UNL     1       0.084  18.589  -8.091  1.00  0.00     0.064 C 
HETATM    3  C2  UNL     1      -0.561  17.788  -7.090  1.00  0.00     0.095 C 
HETATM    4  C3  UNL     1      -0.098  18.156  -5.680  1.00  0.00     0.021 C 
HETATM    5  C4  UNL     1      -0.722  17.253  -4.669  1.00  0.00     0.023 C 
HETATM    6  C5  UNL     1      -2.243  17.369  -4.737  1.00  0.00     0.105 C 
HETATM    7 CL1  UNL     1      -2.680  19.035  -4.362  1.00  0.00    -0.123 Cl
HETATM    8  C6  UNL     1      -2.620  16.946  -6.147  1.00  0.00     0.102 C 
HETATM    9  C11 UNL     1      -2.084  17.999  -7.065  1.00  0.00     0.045 C 
ENDROOT
BRANCH   8  10
HETATM   10  N2  UNL     1      -3.928  16.517  -6.312  1.00  0.00    -0.369 N 
ATOM     11  H2  UNL     1      -4.567  17.312  -6.286  1.00  0.00     0.161 HD
BRANCH  10  12
HETATM   12  C7  UNL     1      -4.560  15.462  -6.481  1.00  0.00     0.117 A 
HETATM   13  C8  UNL     1      -3.964  14.263  -6.072  1.00  0.00     0.136 A 
HETATM   14  N3  UNL     1      -4.581  13.105  -6.222  1.00  0.00    -0.371 N 
HETATM   15  C9  UNL     1      -5.806  13.073  -6.778  1.00  0.00     0.104 A 
ATOM     16  H3  UNL     1      -4.132  12.241  -5.918  1.00  0.00     0.164 HD
HETATM   17  C10 UNL     1      -6.420  14.224  -7.190  1.00  0.00     0.106 A 
HETATM   18  N4  UNL     1      -5.772  15.386  -7.026  1.00  0.00    -0.350 N 
ATOM     19  H4  UNL     1      -6.226  16.247  -7.332  1.00  0.00     0.166 HD
ENDBRANCH  10  12
ENDBRANCH   8  10
TORSDOF 2
ENDMDL
