MODEL 1
REMARK VINA RESULT: -5.576214261      0.000      0.000
REMARK  2 active torsions:
REMARK  status: ('A' for Active; 'I' for Inactive)
REMARK    1  A    between atoms: C3_3  and  S1_4 
REMARK    2  A    between atoms: C5_6  and  O1_7 
ROOT
HETATM    1  C1  UNL     1      -2.110  19.464  -5.290  1.00  0.00     0.017 C 
HETATM    2  C2  UNL     1      -2.087  18.397  -6.019  1.00  0.00    -0.045 C 
HETATM    3  C3  UNL     1      -1.249  18.237  -7.215  1.00  0.00     0.111 C 
HETATM    4  C5  UNL     1      -0.973  16.746  -7.321  1.00  0.00     0.077 C 
HETATM    5  C6  UNL     1      -0.757  16.119  -5.944  1.00  0.00     0.046 C 
HETATM    6  C7  UNL     1      -2.041  16.069  -5.167  1.00  0.00     0.023 C 
HETATM    7  C8  UNL     1      -3.087  15.171  -5.792  1.00  0.00     0.053 C 
HETATM    8  C9  UNL     1      -3.305  16.333  -6.785  1.00  0.00     0.132 C 
HETATM    9  F1  UNL     1      -4.589  16.407  -7.249  1.00  0.00    -0.240 F 
HETATM   10  C10 UNL     1      -2.261  16.128  -7.838  1.00  0.00     0.085 C 
HETATM   11  C11 UNL     1      -2.925  17.227  -5.663  1.00  0.00     0.101 C 
HETATM   12 CL1  UNL     1      -4.219  17.533  -4.527  1.00  0.00    -0.110 Cl
ENDROOT
BRANCH   3  13
HETATM   13  S1  UNL     1       0.207  19.234  -7.345  1.00  0.00    -0.161 SA
HETATM   14  C4  UNL     1       0.171  20.214  -8.865  1.00  0.00     0.090 C 
ENDBRANCH   3  13
BRANCH   4  15
HETATM   15  O1  UNL     1       0.091  16.562  -8.158  1.00  0.00    -0.388 OA
ATOM     16  H1  UNL     1       0.878  16.487  -7.630  1.00  0.00     0.210 HD
ENDBRANCH   4  15
TORSDOF 2
ENDMDL
MODEL 2
REMARK VINA RESULT: -5.554223304      3.106      4.311
REMARK  2 active torsions:
REMARK  status: ('A' for Active; 'I' for Inactive)
REMARK    1  A    between atoms: C3_3  and  S1_4 
REMARK    2  A    between atoms: C5_6  and  O1_7 
ROOT
HETATM    1  C1  UNL     1      -2.148  15.069  -7.195  1.00  0.00     0.017 C 
HETATM    2  C2  UNL     1      -1.846  16.290  -6.899  1.00  0.00    -0.045 C 
HETATM    3  C3  UNL     1      -2.824  17.298  -6.472  1.00  0.00     0.111 C 
HETATM    4  C5  UNL     1      -2.052  18.265  -5.587  1.00  0.00     0.077 C 
HETATM    5  C6  UNL     1      -1.033  17.530  -4.716  1.00  0.00     0.046 C 
HETATM    6  C7  UNL     1       0.104  17.005  -5.545  1.00  0.00     0.023 C 
HETATM    7  C8  UNL     1       0.930  18.096  -6.193  1.00  0.00     0.053 C 
HETATM    8  C9  UNL     1      -0.237  18.202  -7.198  1.00  0.00     0.132 C 
HETATM    9  F1  UNL     1       0.165  18.593  -8.446  1.00  0.00    -0.240 F 
HETATM   10  C10 UNL     1      -1.223  19.113  -6.535  1.00  0.00     0.085 C 
HETATM   11  C11 UNL     1      -0.437  16.751  -6.962  1.00  0.00     0.101 C 
HETATM   12 CL1  UNL     1       0.661  15.726  -7.857  1.00  0.00    -0.110 Cl
ENDROOT
BRANCH   3  13
HETATM   13  S1  UNL     1      -4.334  16.731  -5.744  1.00  0.00    -0.161 SA
HETATM   14  C4  UNL     1      -5.583  16.441  -7.020  1.00  0.00     0.090 C 
ENDBRANCH   3  13
BRANCH   4  15
HETATM   15  O1  UNL     1      -2.949  18.989  -4.854  1.00  0.00    -0.388 OA
ATOM     16  H1  UNL     1      -2.519  19.781  -4.551  1.00  0.00     0.210 HD
ENDBRANCH   4  15
TORSDOF 2
ENDMDL
MODEL 3
REMARK VINA RESULT: -5.466374188      2.593      3.987
REMARK  2 active torsions:
REMARK  status: ('A' for Active; 'I' for Inactive)
REMARK    1  A    between atoms: C3_3  and  S1_4 
REMARK    2  A    between atoms: C5_6  and  O1_7 
ROOT
HETATM    1  C1  UNL     1      -4.444  17.162  -4.960  1.00  0.00     0.017 C 
HETATM    2  C2  UNL     1      -3.233  16.956  -5.360  1.00  0.00    -0.045 C 
HETATM    3  C3  UNL     1      -2.770  15.702  -5.969  1.00  0.00     0.111 C 
HETATM    4  C5  UNL     1      -1.625  16.095  -6.889  1.00  0.00     0.077 C 
HETATM    5  C6  UNL     1      -1.906  17.423  -7.594  1.00  0.00     0.046 C 
HETATM    6  C7  UNL     1      -1.841  18.570  -6.627  1.00  0.00     0.023 C 
HETATM    7  C8  UNL     1      -0.463  18.780  -6.038  1.00  0.00     0.053 C 
HETATM    8  C9  UNL     1      -0.801  17.568  -5.144  1.00  0.00     0.132 C 
HETATM    9  F1  UNL     1      -0.198  17.621  -3.917  1.00  0.00    -0.240 F 
HETATM   10  C10 UNL     1      -0.445  16.376  -5.975  1.00  0.00     0.085 C 
HETATM   11  C11 UNL     1      -2.211  18.024  -5.237  1.00  0.00     0.101 C 
HETATM   12 CL1  UNL     1      -2.608  19.338  -4.155  1.00  0.00    -0.110 Cl
ENDROOT
BRANCH   3  13
HETATM   13  S1  UNL     1      -3.975  14.666  -6.747  1.00  0.00    -0.161 SA
HETATM   14  C4  UNL     1      -4.181  13.127  -5.819  1.00  0.00     0.090 C 
ENDBRANCH   3  13
BRANCH   4  15
HETATM   15  O1  UNL     1      -1.403  15.070  -7.764  1.00  0.00    -0.388 OA
ATOM     16  H1  UNL     1      -1.184  15.441  -8.611  1.00  0.00     0.210 HD
ENDBRANCH   4  15
TORSDOF 2
ENDMDL
MODEL 4
REMARK VINA RESULT: -5.406211503      2.536      3.237
REMARK  2 active torsions:
REMARK  status: ('A' for Active; 'I' for Inactive)
REMARK    1  A    between atoms: C3_3  and  S1_4 
REMARK    2  A    between atoms: C5_6  and  O1_7 
ROOT
HETATM    1  C1  UNL     1       1.576  17.477  -7.377  1.00  0.00     0.017 C 
HETATM    2  C2  UNL     1       0.449  17.914  -6.921  1.00  0.00    -0.045 C 
HETATM    3  C3  UNL     1      -0.127  19.220  -7.267  1.00  0.00     0.111 C 
HETATM    4  C5  UNL     1      -1.633  19.045  -7.147  1.00  0.00     0.077 C 
HETATM    5  C6  UNL     1      -2.076  17.670  -7.649  1.00  0.00     0.046 C 
HETATM    6  C7  UNL     1      -1.634  16.585  -6.709  1.00  0.00     0.023 C 
HETATM    7  C8  UNL     1      -2.278  16.676  -5.343  1.00  0.00     0.053 C 
HETATM    8  C9  UNL     1      -1.270  17.816  -5.085  1.00  0.00     0.132 C 
HETATM    9  F1  UNL     1      -0.902  17.919  -3.772  1.00  0.00    -0.240 F 
HETATM   10  C10 UNL     1      -1.926  19.034  -5.658  1.00  0.00     0.085 C 
HETATM   11  C11 UNL     1      -0.362  17.081  -5.999  1.00  0.00     0.101 C 
HETATM   12 CL1  UNL     1       0.474  15.742  -5.248  1.00  0.00    -0.110 Cl
ENDROOT
BRANCH   3  13
HETATM   13  S1  UNL     1       0.376  19.969  -8.789  1.00  0.00    -0.161 SA
HETATM   14  C4  UNL     1       1.622  21.245  -8.487  1.00  0.00     0.090 C 
ENDBRANCH   3  13
BRANCH   4  15
HETATM   15  O1  UNL     1      -2.241  20.070  -7.813  1.00  0.00    -0.388 OA
ATOM     16  H1  UNL     1      -1.648  20.813  -7.827  1.00  0.00     0.210 HD
ENDBRANCH   4  15
TORSDOF 2
ENDMDL
MODEL 5
REMARK VINA RESULT: -4.908823119      3.328      4.819
REMARK  2 active torsions:
REMARK  status: ('A' for Active; 'I' for Inactive)
REMARK    1  A    between atoms: C3_3  and  S1_4 
REMARK    2  A    between atoms: C5_6  and  O1_7 
ROOT
HETATM    1  C1  UNL     1      -3.459  13.762  -5.499  1.00  0.00     0.017 C 
HETATM    2  C2  UNL     1      -3.598  14.891  -6.111  1.00  0.00    -0.045 C 
HETATM    3  C3  UNL     1      -4.706  15.200  -7.024  1.00  0.00     0.111 C 
HETATM    4  C5  UNL     1      -4.897  16.706  -6.938  1.00  0.00     0.077 C 
HETATM    5  C6  UNL     1      -4.702  17.212  -5.508  1.00  0.00     0.046 C 
HETATM    6  C7  UNL     1      -3.259  17.130  -5.100  1.00  0.00     0.023 C 
HETATM    7  C8  UNL     1      -2.354  18.033  -5.909  1.00  0.00     0.053 C 
HETATM    8  C9  UNL     1      -2.484  16.960  -7.012  1.00  0.00     0.132 C 
HETATM    9  F1  UNL     1      -1.373  16.870  -7.805  1.00  0.00    -0.240 F 
HETATM   10  C10 UNL     1      -3.750  17.309  -7.729  1.00  0.00     0.085 C 
HETATM   11  C11 UNL     1      -2.617  15.984  -5.902  1.00  0.00     0.101 C 
HETATM   12 CL1  UNL     1      -1.096  15.515  -5.178  1.00  0.00    -0.110 Cl
ENDROOT
BRANCH   3  13
HETATM   13  S1  UNL     1      -6.211  14.288  -6.838  1.00  0.00    -0.161 SA
HETATM   14  C4  UNL     1      -6.068  12.662  -7.617  1.00  0.00     0.090 C 
ENDBRANCH   3  13
BRANCH   4  15
HETATM   15  O1  UNL     1      -6.127  17.015  -7.443  1.00  0.00    -0.388 OA
ATOM     16  H1  UNL     1      -6.025  17.251  -8.358  1.00  0.00     0.210 HD
ENDBRANCH   4  15
TORSDOF 2
ENDMDL
