MODEL 1
REMARK VINA RESULT: -2.728034039      0.000      0.000
REMARK  0 active torsions:
REMARK  status: ('A' for Active; 'I' for Inactive)
ROOT
HETATM    1  C1  UNL     1     -33.931   4.139  -8.676  1.00  0.00     0.009 C 
HETATM    2  C2  UNL     1     -33.182   5.013  -9.642  1.00  0.00    -0.013 C 
HETATM    3  C3  UNL     1     -34.531   5.463 -10.121  1.00  0.00     0.009 C 
HETATM    4  C4  UNL     1     -34.663   5.441  -8.612  1.00  0.00    -0.013 C 
HETATM    5  C5  UNL     1     -33.314   6.099  -8.599  1.00  0.00     0.009 C 
ENDROOT
TORSDOF 0
ENDMDL
MODEL 2
REMARK VINA RESULT: -2.715846930      0.086      1.587
REMARK  0 active torsions:
REMARK  status: ('A' for Active; 'I' for Inactive)
ROOT
HETATM    1  C1  UNL     1     -33.284   6.124  -8.566  1.00  0.00     0.009 C 
HETATM    2  C2  UNL     1     -33.209   5.080  -9.642  1.00  0.00    -0.013 C 
HETATM    3  C3  UNL     1     -33.895   4.170  -8.666  1.00  0.00     0.009 C 
HETATM    4  C4  UNL     1     -34.635   5.485  -8.529  1.00  0.00    -0.013 C 
HETATM    5  C5  UNL     1     -34.599   5.529 -10.029  1.00  0.00     0.009 C 
ENDROOT
TORSDOF 0
ENDMDL
MODEL 3
REMARK VINA RESULT: -2.711307263      0.099      1.750
REMARK  0 active torsions:
REMARK  status: ('A' for Active; 'I' for Inactive)
ROOT
HETATM    1  C1  UNL     1     -33.896   4.191  -8.771  1.00  0.00     0.009 C 
HETATM    2  C2  UNL     1     -34.654   5.483  -8.663  1.00  0.00    -0.013 C 
HETATM    3  C3  UNL     1     -33.310   6.147  -8.589  1.00  0.00     0.009 C 
HETATM    4  C4  UNL     1     -33.153   5.112  -9.685  1.00  0.00    -0.013 C 
HETATM    5  C5  UNL     1     -34.496   5.581 -10.162  1.00  0.00     0.009 C 
ENDROOT
TORSDOF 0
ENDMDL
MODEL 4
REMARK VINA RESULT: -2.709217734      0.097      1.752
REMARK  0 active torsions:
REMARK  status: ('A' for Active; 'I' for Inactive)
ROOT
HETATM    1  C1  UNL     1     -33.293   6.139  -8.569  1.00  0.00     0.009 C 
HETATM    2  C2  UNL     1     -34.641   5.478  -8.531  1.00  0.00    -0.013 C 
HETATM    3  C3  UNL     1     -34.606   5.553 -10.029  1.00  0.00     0.009 C 
HETATM    4  C4  UNL     1     -33.208   5.109  -9.648  1.00  0.00    -0.013 C 
HETATM    5  C5  UNL     1     -33.891   4.176  -8.690  1.00  0.00     0.009 C 
ENDROOT
TORSDOF 0
ENDMDL
MODEL 5
REMARK VINA RESULT: -2.705823107      0.264      1.765
REMARK  0 active torsions:
REMARK  status: ('A' for Active; 'I' for Inactive)
ROOT
HETATM    1  C1  UNL     1     -34.523   5.637 -10.068  1.00  0.00     0.009 C 
HETATM    2  C2  UNL     1     -34.577   5.746  -8.571  1.00  0.00    -0.013 C 
HETATM    3  C3  UNL     1     -33.877   4.419  -8.551  1.00  0.00     0.009 C 
HETATM    4  C4  UNL     1     -33.161   5.199  -9.635  1.00  0.00    -0.013 C 
HETATM    5  C5  UNL     1     -33.195   6.348  -8.669  1.00  0.00     0.009 C 
ENDROOT
TORSDOF 0
ENDMDL
