MODEL 1
REMARK VINA RESULT: -3.004828225      0.000      0.000
REMARK  2 active torsions:
REMARK  status: ('A' for Active; 'I' for Inactive)
REMARK    1  A    between atoms: C2_2  and  C3_3 
REMARK    2  A    between atoms: C4_4  and  C5_5 
ROOT
HETATM    1  C3  UNL     1     -33.046   6.564  -8.818  1.00  0.00    -0.073 C 
HETATM    2  C4  UNL     1     -33.378   5.420  -9.036  1.00  0.00    -0.057 C 
ENDROOT
BRANCH   2   3
HETATM    3  C5  UNL     1     -33.759   4.059  -9.300  1.00  0.00     0.146 C 
HETATM    4  N1  UNL     1     -34.436   3.431  -8.402  1.00  0.00    -0.401 N 
ATOM      5  H12 UNL     1     -34.688   3.900  -7.533  1.00  0.00     0.156 HD
ATOM      6  H11 UNL     1     -34.707   2.465  -8.589  1.00  0.00     0.156 HD
ENDBRANCH   2   3
BRANCH   1   7
HETATM    7  C2  UNL     1     -32.649   7.918  -8.556  1.00  0.00     0.054 C 
HETATM    8  C1  UNL     1     -33.410   8.689  -7.809  1.00  0.00     0.020 C 
ENDBRANCH   1   7
TORSDOF 2
ENDMDL
MODEL 2
REMARK VINA RESULT: -3.004408037      2.392      4.000
REMARK  2 active torsions:
REMARK  status: ('A' for Active; 'I' for Inactive)
REMARK    1  A    between atoms: C2_2  and  C3_3 
REMARK    2  A    between atoms: C4_4  and  C5_5 
ROOT
HETATM    1  C3  UNL     1     -33.368   5.824  -8.938  1.00  0.00    -0.073 C 
HETATM    2  C4  UNL     1     -33.107   6.954  -8.587  1.00  0.00    -0.057 C 
ENDROOT
BRANCH   2   3
HETATM    3  C5  UNL     1     -32.808   8.299  -8.178  1.00  0.00     0.146 C 
HETATM    4  N1  UNL     1     -33.782   9.056  -7.809  1.00  0.00    -0.401 N 
ATOM      5  H12 UNL     1     -34.736   8.695  -7.812  1.00  0.00     0.156 HD
ATOM      6  H11 UNL     1     -33.570  10.010  -7.519  1.00  0.00     0.156 HD
ENDBRANCH   2   3
BRANCH   1   7
HETATM    7  C2  UNL     1     -33.681   4.487  -9.352  1.00  0.00     0.054 C 
HETATM    8  C1  UNL     1     -34.133   3.619  -8.472  1.00  0.00     0.020 C 
ENDBRANCH   1   7
TORSDOF 2
ENDMDL
MODEL 3
REMARK VINA RESULT: -2.920079047      3.022      3.494
REMARK  2 active torsions:
REMARK  status: ('A' for Active; 'I' for Inactive)
REMARK    1  A    between atoms: C2_2  and  C3_3 
REMARK    2  A    between atoms: C4_4  and  C5_5 
ROOT
HETATM    1  C3  UNL     1     -34.067   5.206 -10.605  1.00  0.00    -0.073 C 
HETATM    2  C4  UNL     1     -34.780   5.175 -11.584  1.00  0.00    -0.057 C 
ENDROOT
BRANCH   2   3
HETATM    3  C5  UNL     1     -35.636   5.146 -12.739  1.00  0.00     0.146 C 
HETATM    4  N1  UNL     1     -35.652   4.079 -13.459  1.00  0.00    -0.401 N 
ATOM      5  H12 UNL     1     -35.067   3.284 -13.204  1.00  0.00     0.156 HD
ATOM      6  H11 UNL     1     -36.259   4.058 -14.279  1.00  0.00     0.156 HD
ENDBRANCH   2   3
BRANCH   1   7
HETATM    7  C2  UNL     1     -33.222   5.248  -9.447  1.00  0.00     0.054 C 
HETATM    8  C1  UNL     1     -33.196   6.329  -8.695  1.00  0.00     0.020 C 
ENDBRANCH   1   7
TORSDOF 2
ENDMDL
MODEL 4
REMARK VINA RESULT: -2.599107912      8.973      9.534
REMARK  2 active torsions:
REMARK  status: ('A' for Active; 'I' for Inactive)
REMARK    1  A    between atoms: C2_2  and  C3_3 
REMARK    2  A    between atoms: C4_4  and  C5_5 
ROOT
HETATM    1  C3  UNL     1     -29.008  11.037 -14.218  1.00  0.00    -0.073 C 
HETATM    2  C4  UNL     1     -28.582  10.585 -15.258  1.00  0.00    -0.057 C 
ENDROOT
BRANCH   2   3
HETATM    3  C5  UNL     1     -28.082  10.037 -16.489  1.00  0.00     0.146 C 
HETATM    4  N1  UNL     1     -28.004  10.812 -17.515  1.00  0.00    -0.401 N 
ATOM      5  H12 UNL     1     -28.294  11.787 -17.439  1.00  0.00     0.156 HD
ATOM      6  H11 UNL     1     -27.650  10.423 -18.389  1.00  0.00     0.156 HD
ENDBRANCH   2   3
BRANCH   1   7
HETATM    7  C2  UNL     1     -29.517  11.570 -12.987  1.00  0.00     0.054 C 
HETATM    8  C1  UNL     1     -28.685  11.881 -12.015  1.00  0.00     0.020 C 
ENDBRANCH   1   7
TORSDOF 2
ENDMDL
MODEL 5
REMARK VINA RESULT: -2.589021169      8.567      9.026
REMARK  2 active torsions:
REMARK  status: ('A' for Active; 'I' for Inactive)
REMARK    1  A    between atoms: C2_2  and  C3_3 
REMARK    2  A    between atoms: C4_4  and  C5_5 
ROOT
HETATM    1  C3  UNL     1     -29.049  11.487 -13.312  1.00  0.00    -0.073 C 
HETATM    2  C4  UNL     1     -28.929  11.126 -14.462  1.00  0.00    -0.057 C 
ENDROOT
BRANCH   2   3
HETATM    3  C5  UNL     1     -28.776  10.706 -15.828  1.00  0.00     0.146 C 
HETATM    4  N1  UNL     1     -27.836   9.871 -16.108  1.00  0.00    -0.401 N 
ATOM      5  H12 UNL     1     -27.225   9.526 -15.368  1.00  0.00     0.156 HD
ATOM      6  H11 UNL     1     -27.727   9.573 -17.078  1.00  0.00     0.156 HD
ENDBRANCH   2   3
BRANCH   1   7
HETATM    7  C2  UNL     1     -29.187  11.913 -11.949  1.00  0.00     0.054 C 
HETATM    8  C1  UNL     1     -28.113  12.087 -11.207  1.00  0.00     0.020 C 
ENDBRANCH   1   7
TORSDOF 2
ENDMDL
