MODEL 1
REMARK VINA RESULT: -2.971113894      0.000      0.000
REMARK  1 active torsions:
REMARK  status: ('A' for Active; 'I' for Inactive)
REMARK    1  A    between atoms: N1_1  and  C1_5 
ROOT
HETATM    1  C1  UNL     1     -34.958   4.388  -9.434  1.00  0.00     0.188 C 
HETATM    2  C2  UNL     1     -34.128   3.841  -8.254  1.00  0.00     0.038 C 
HETATM    3  C3  UNL     1     -33.844   5.343  -8.123  1.00  0.00    -0.006 A 
HETATM    4  C4  UNL     1     -33.045   6.159  -8.961  1.00  0.00     0.012 A 
HETATM    5  C5  UNL     1     -33.613   5.075  -9.674  1.00  0.00     0.020 A 
ENDROOT
BRANCH   1   6
HETATM    6  N1  UNL     1     -35.252   3.431 -10.448  1.00  0.00    -0.075 N 
ATOM      7  H13 UNL     1     -34.793   2.544 -10.241  1.00  0.00     0.274 HD
ATOM      8  H12 UNL     1     -36.229   3.141 -10.389  1.00  0.00     0.274 HD
ATOM      9  H11 UNL     1     -35.028   3.732 -11.396  1.00  0.00     0.274 HD
ENDBRANCH   1   6
TORSDOF 1
ENDMDL
MODEL 2
REMARK VINA RESULT: -2.881848550      2.136      2.864
REMARK  1 active torsions:
REMARK  status: ('A' for Active; 'I' for Inactive)
REMARK    1  A    between atoms: N1_1  and  C1_5 
ROOT
HETATM    1  C1  UNL     1     -33.827   6.382  -8.898  1.00  0.00     0.188 C 
HETATM    2  C2  UNL     1     -33.046   5.290  -9.659  1.00  0.00     0.038 C 
HETATM    3  C3  UNL     1     -34.234   4.471  -9.139  1.00  0.00    -0.006 A 
HETATM    4  C4  UNL     1     -34.499   4.061  -7.810  1.00  0.00     0.012 A 
HETATM    5  C5  UNL     1     -33.765   5.272  -7.847  1.00  0.00     0.020 A 
ENDROOT
BRANCH   1   6
HETATM    6  N1  UNL     1     -33.050   7.514  -8.519  1.00  0.00    -0.075 N 
ATOM      7  H13 UNL     1     -32.882   7.508  -7.513  1.00  0.00     0.274 HD
ATOM      8  H12 UNL     1     -32.092   7.415  -8.857  1.00  0.00     0.274 HD
ATOM      9  H11 UNL     1     -33.437   8.412  -8.808  1.00  0.00     0.274 HD
ENDBRANCH   1   6
TORSDOF 1
ENDMDL
MODEL 3
REMARK VINA RESULT: -2.770367551      9.529     10.413
REMARK  1 active torsions:
REMARK  status: ('A' for Active; 'I' for Inactive)
REMARK    1  A    between atoms: N1_1  and  C1_5 
ROOT
HETATM    1  C1  UNL     1     -28.268  10.076 -16.583  1.00  0.00     0.188 C 
HETATM    2  C2  UNL     1     -28.640  10.863 -15.310  1.00  0.00     0.038 C 
HETATM    3  C3  UNL     1     -29.382   9.546 -15.050  1.00  0.00    -0.006 A 
HETATM    4  C4  UNL     1     -30.545   9.056 -15.693  1.00  0.00     0.012 A 
HETATM    5  C5  UNL     1     -29.785   9.888 -16.550  1.00  0.00     0.020 A 
ENDROOT
BRANCH   1   6
HETATM    6  N1  UNL     1     -27.858  10.884 -17.683  1.00  0.00    -0.075 N 
ATOM      7  H13 UNL     1     -28.670  11.203 -18.210  1.00  0.00     0.274 HD
ATOM      8  H12 UNL     1     -27.501  11.780 -17.350  1.00  0.00     0.274 HD
ATOM      9  H11 UNL     1     -27.182  10.443 -18.307  1.00  0.00     0.274 HD
ENDBRANCH   1   6
TORSDOF 1
ENDMDL
MODEL 4
REMARK VINA RESULT: -2.608336584      1.678      2.335
REMARK  1 active torsions:
REMARK  status: ('A' for Active; 'I' for Inactive)
REMARK    1  A    between atoms: N1_1  and  C1_5 
ROOT
HETATM    1  C1  UNL     1     -34.683   5.614  -9.901  1.00  0.00     0.188 C 
HETATM    2  C2  UNL     1     -33.168   5.386  -9.724  1.00  0.00     0.038 C 
HETATM    3  C3  UNL     1     -33.720   4.119  -9.058  1.00  0.00    -0.006 A 
HETATM    4  C4  UNL     1     -34.390   4.005  -7.816  1.00  0.00     0.012 A 
HETATM    5  C5  UNL     1     -34.605   5.272  -8.412  1.00  0.00     0.020 A 
ENDROOT
BRANCH   1   6
HETATM    6  N1  UNL     1     -35.059   6.972 -10.114  1.00  0.00    -0.075 N 
ATOM      7  H13 UNL     1     -35.778   7.249  -9.446  1.00  0.00     0.274 HD
ATOM      8  H12 UNL     1     -34.304   7.596  -9.829  1.00  0.00     0.274 HD
ATOM      9  H11 UNL     1     -35.357   7.187 -11.065  1.00  0.00     0.274 HD
ENDBRANCH   1   6
TORSDOF 1
ENDMDL
MODEL 5
REMARK VINA RESULT: -2.607308561      1.900      2.668
REMARK  1 active torsions:
REMARK  status: ('A' for Active; 'I' for Inactive)
REMARK    1  A    between atoms: N1_1  and  C1_5 
ROOT
HETATM    1  C1  UNL     1     -33.424   5.943  -8.988  1.00  0.00     0.188 C 
HETATM    2  C2  UNL     1     -34.641   6.841  -9.294  1.00  0.00     0.038 C 
HETATM    3  C3  UNL     1     -33.566   7.906  -9.041  1.00  0.00    -0.006 A 
HETATM    4  C4  UNL     1     -32.971   8.273  -7.809  1.00  0.00     0.012 A 
HETATM    5  C5  UNL     1     -33.380   6.917  -7.809  1.00  0.00     0.020 A 
ENDROOT
BRANCH   1   6
HETATM    6  N1  UNL     1     -33.751   4.621  -8.571  1.00  0.00    -0.075 N 
ATOM      7  H13 UNL     1     -33.363   3.938  -9.221  1.00  0.00     0.274 HD
ATOM      8  H12 UNL     1     -33.230   4.376  -7.728  1.00  0.00     0.274 HD
ATOM      9  H11 UNL     1     -34.748   4.452  -8.433  1.00  0.00     0.274 HD
ENDBRANCH   1   6
TORSDOF 1
ENDMDL
