MODEL 1
REMARK VINA RESULT: -4.849398553      0.000      0.000
REMARK  5 active torsions:
REMARK  status: ('A' for Active; 'I' for Inactive)
REMARK    1  A    between atoms: N1_2  and  C2_4 
REMARK    2  A    between atoms: C3_7  and  N3_8 
REMARK    3  A    between atoms: N3_8  and  N4_10 
REMARK    4  A    between atoms: C4_15  and  N6_16 
REMARK    5  A    between atoms: N6_16  and  C5_18 
ROOT
HETATM    1  C2  UNL     1     -23.453  63.110  40.670  1.00  0.00     0.706 A 
HETATM    2  N2  UNL     1     -24.673  63.186  40.115  1.00  0.00    -0.020 N 
ATOM      3  H2  UNL     1     -24.789  63.185  39.102  1.00  0.00     0.203 HD
HETATM    4  C3  UNL     1     -25.748  63.266  40.939  1.00  0.00     0.725 A 
HETATM    5  N5  UNL     1     -25.606  63.267  42.258  1.00  0.00    -0.020 N 
ATOM      6  H5  UNL     1     -26.437  63.328  42.846  1.00  0.00     0.203 HD
HETATM    7  C4  UNL     1     -24.375  63.190  42.850  1.00  0.00     0.707 A 
HETATM    8  N7  UNL     1     -23.335  63.114  42.002  1.00  0.00    -0.022 N 
ATOM      9  H7  UNL     1     -22.398  63.055  42.399  1.00  0.00     0.203 HD
ENDROOT
BRANCH   4  10
HETATM   10  N3  UNL     1     -26.935  63.340  40.410  1.00  0.00    -0.138 N 
ATOM     11  H3  UNL     1     -27.707  62.815  40.821  1.00  0.00     0.205 HD
BRANCH  10  12
HETATM   12  N4  UNL     1     -27.160  64.132  39.288  1.00  0.00    -0.331 N 
ATOM     13  H42 UNL     1     -26.662  65.019  39.206  1.00  0.00     0.177 HD
ATOM     14  H41 UNL     1     -27.810  63.831  38.563  1.00  0.00     0.177 HD
ENDBRANCH  10  12
ENDBRANCH   4  10
BRANCH   1  15
HETATM   15  N1  UNL     1     -22.428  63.035  39.903  1.00  0.00    -0.229 N 
HETATM   16  C1  UNL     1     -22.476  62.879  38.485  1.00  0.00     0.165 C 
ATOM     17  H1  UNL     1     -21.508  63.091  40.340  1.00  0.00     0.177 HD
ENDBRANCH   1  15
BRANCH   7  18
HETATM   18  N6  UNL     1     -24.299  63.196  44.114  1.00  0.00    -0.221 N 
ATOM     19  H6  UNL     1     -24.911  63.852  44.601  1.00  0.00     0.178 HD
BRANCH  18  20
HETATM   20  C5  UNL     1     -23.460  62.395  44.931  1.00  0.00     0.091 C 
HETATM   21  C6  UNL     1     -24.301  61.377  45.696  1.00  0.00     0.032 C 
HETATM   22  C7  UNL     1     -22.573  63.176  45.841  1.00  0.00     0.032 C 
ENDBRANCH  18  20
ENDBRANCH   7  18
TORSDOF 5
ENDMDL
MODEL 2
REMARK VINA RESULT: -4.401184007      0.840      2.828
REMARK  5 active torsions:
REMARK  status: ('A' for Active; 'I' for Inactive)
REMARK    1  A    between atoms: N1_2  and  C2_4 
REMARK    2  A    between atoms: C3_7  and  N3_8 
REMARK    3  A    between atoms: N3_8  and  N4_10 
REMARK    4  A    between atoms: C4_15  and  N6_16 
REMARK    5  A    between atoms: N6_16  and  C5_18 
ROOT
HETATM    1  C2  UNL     1     -25.674  63.287  40.737  1.00  0.00     0.706 A 
HETATM    2  N2  UNL     1     -24.610  63.110  39.937  1.00  0.00    -0.020 N 
ATOM      3  H2  UNL     1     -24.716  63.072  38.923  1.00  0.00     0.203 HD
HETATM    4  C3  UNL     1     -23.388  62.982  40.514  1.00  0.00     0.725 A 
HETATM    5  N5  UNL     1     -23.241  63.030  41.832  1.00  0.00    -0.020 N 
ATOM      6  H5  UNL     1     -22.308  62.930  42.231  1.00  0.00     0.203 HD
HETATM    7  C4  UNL     1     -24.308  63.209  42.670  1.00  0.00     0.707 A 
HETATM    8  N7  UNL     1     -25.500  63.331  42.061  1.00  0.00    -0.022 N 
ATOM      9  H7  UNL     1     -26.324  63.465  42.647  1.00  0.00     0.203 HD
ENDROOT
BRANCH   4  10
HETATM   10  N3  UNL     1     -22.351  62.810  39.747  1.00  0.00    -0.138 N 
ATOM     11  H3  UNL     1     -21.421  62.741  40.161  1.00  0.00     0.205 HD
BRANCH  10  12
HETATM   12  N4  UNL     1     -22.501  62.720  38.367  1.00  0.00    -0.331 N 
ATOM     13  H42 UNL     1     -23.355  62.308  37.992  1.00  0.00     0.177 HD
ATOM     14  H41 UNL     1     -21.769  63.060  37.743  1.00  0.00     0.177 HD
ENDBRANCH  10  12
ENDBRANCH   4  10
BRANCH   1  15
HETATM   15  N1  UNL     1     -26.834  63.408  40.205  1.00  0.00    -0.229 N 
HETATM   16  C1  UNL     1     -27.136  64.227  39.074  1.00  0.00     0.165 C 
ATOM     17  H1  UNL     1     -27.601  62.879  40.620  1.00  0.00     0.177 HD
ENDBRANCH   1  15
BRANCH   7  18
HETATM   18  N6  UNL     1     -24.109  63.246  43.920  1.00  0.00    -0.221 N 
ATOM     19  H6  UNL     1     -24.612  63.967  44.437  1.00  0.00     0.178 HD
BRANCH  18  20
HETATM   20  C5  UNL     1     -23.265  62.398  44.684  1.00  0.00     0.091 C 
HETATM   21  C6  UNL     1     -24.101  61.588  45.670  1.00  0.00     0.032 C 
HETATM   22  C7  UNL     1     -22.143  63.109  45.362  1.00  0.00     0.032 C 
ENDBRANCH  18  20
ENDBRANCH   7  18
TORSDOF 5
ENDMDL
MODEL 3
REMARK VINA RESULT: -3.758049946      1.975      4.877
REMARK  5 active torsions:
REMARK  status: ('A' for Active; 'I' for Inactive)
REMARK    1  A    between atoms: N1_2  and  C2_4 
REMARK    2  A    between atoms: C3_7  and  N3_8 
REMARK    3  A    between atoms: N3_8  and  N4_10 
REMARK    4  A    between atoms: C4_15  and  N6_16 
REMARK    5  A    between atoms: N6_16  and  C5_18 
ROOT
HETATM    1  C2  UNL     1     -23.001  62.815  44.751  1.00  0.00     0.706 A 
HETATM    2  N2  UNL     1     -24.174  63.237  45.249  1.00  0.00    -0.020 N 
ATOM      3  H2  UNL     1     -24.334  63.275  46.255  1.00  0.00     0.203 HD
HETATM    4  C3  UNL     1     -25.143  63.612  44.375  1.00  0.00     0.725 A 
HETATM    5  N5  UNL     1     -24.944  63.567  43.065  1.00  0.00    -0.020 N 
ATOM      6  H5  UNL     1     -25.695  63.858  42.439  1.00  0.00     0.203 HD
HETATM    7  C4  UNL     1     -23.759  63.142  42.530  1.00  0.00     0.707 A 
HETATM    8  N7  UNL     1     -22.824  62.778  43.426  1.00  0.00    -0.022 N 
ATOM      9  H7  UNL     1     -21.925  62.453  43.073  1.00  0.00     0.203 HD
ENDROOT
BRANCH   4  10
HETATM   10  N3  UNL     1     -26.284  64.023  44.849  1.00  0.00    -0.138 N 
ATOM     11  H3  UNL     1     -27.114  63.439  44.748  1.00  0.00     0.205 HD
BRANCH  10  12
HETATM   12  N4  UNL     1     -26.380  65.253  45.491  1.00  0.00    -0.331 N 
ATOM     13  H42 UNL     1     -25.652  65.519  46.154  1.00  0.00     0.177 HD
ATOM     14  H41 UNL     1     -27.165  65.876  45.303  1.00  0.00     0.177 HD
ENDBRANCH  10  12
ENDBRANCH   4  10
BRANCH   1  15
HETATM   15  N1  UNL     1     -22.077  62.457  45.564  1.00  0.00    -0.229 N 
HETATM   16  C1  UNL     1     -21.882  61.127  46.049  1.00  0.00     0.165 C 
ATOM     17  H1  UNL     1     -21.431  63.176  45.890  1.00  0.00     0.177 HD
ENDBRANCH   1  15
BRANCH   7  18
HETATM   18  N6  UNL     1     -23.624  63.119  41.272  1.00  0.00    -0.221 N 
ATOM     19  H6  UNL     1     -22.789  62.654  40.914  1.00  0.00     0.178 HD
BRANCH  18  20
HETATM   20  C5  UNL     1     -24.503  63.665  40.301  1.00  0.00     0.091 C 
HETATM   21  C6  UNL     1     -24.877  62.595  39.279  1.00  0.00     0.032 C 
HETATM   22  C7  UNL     1     -23.989  64.902  39.644  1.00  0.00     0.032 C 
ENDBRANCH  18  20
ENDBRANCH   7  18
TORSDOF 5
ENDMDL
MODEL 4
REMARK VINA RESULT: -3.287029214      1.940      3.195
REMARK  5 active torsions:
REMARK  status: ('A' for Active; 'I' for Inactive)
REMARK    1  A    between atoms: N1_2  and  C2_4 
REMARK    2  A    between atoms: C3_7  and  N3_8 
REMARK    3  A    between atoms: N3_8  and  N4_10 
REMARK    4  A    between atoms: C4_15  and  N6_16 
REMARK    5  A    between atoms: N6_16  and  C5_18 
ROOT
HETATM    1  C2  UNL     1     -23.794  63.153  42.491  1.00  0.00     0.706 A 
HETATM    2  N2  UNL     1     -24.979  63.581  42.955  1.00  0.00    -0.020 N 
ATOM      3  H2  UNL     1     -25.721  63.867  42.315  1.00  0.00     0.203 HD
HETATM    4  C3  UNL     1     -25.165  63.623  44.298  1.00  0.00     0.725 A 
HETATM    5  N5  UNL     1     -24.207  63.252  45.137  1.00  0.00    -0.020 N 
ATOM      6  H5  UNL     1     -24.382  63.296  46.141  1.00  0.00     0.203 HD
HETATM    7  C4  UNL     1     -22.990  62.812  44.693  1.00  0.00     0.707 A 
HETATM    8  N7  UNL     1     -22.844  62.785  43.356  1.00  0.00    -0.022 N 
ATOM      9  H7  UNL     1     -21.953  62.464  42.980  1.00  0.00     0.203 HD
ENDROOT
BRANCH   4  10
HETATM   10  N3  UNL     1     -26.311  64.036  44.757  1.00  0.00    -0.138 N 
ATOM     11  H3  UNL     1     -27.149  63.475  44.606  1.00  0.00     0.205 HD
BRANCH  10  12
HETATM   12  N4  UNL     1     -26.401  65.238  45.452  1.00  0.00    -0.331 N 
ATOM     13  H42 UNL     1     -26.366  65.220  46.472  1.00  0.00     0.177 HD
ATOM     14  H41 UNL     1     -26.500  66.121  44.950  1.00  0.00     0.177 HD
ENDBRANCH  10  12
ENDBRANCH   4  10
BRANCH   1  15
HETATM   15  N1  UNL     1     -23.605  63.109  41.224  1.00  0.00    -0.229 N 
HETATM   16  C1  UNL     1     -24.136  64.043  40.283  1.00  0.00     0.165 C 
ATOM     17  H1  UNL     1     -23.031  62.349  40.859  1.00  0.00     0.177 HD
ENDBRANCH   1  15
BRANCH   7  18
HETATM   18  N6  UNL     1     -22.112  62.471  45.539  1.00  0.00    -0.221 N 
ATOM     19  H6  UNL     1     -21.217  62.957  45.483  1.00  0.00     0.178 HD
BRANCH  18  20
HETATM   20  C5  UNL     1     -22.232  61.490  46.558  1.00  0.00     0.091 C 
HETATM   21  C6  UNL     1     -21.049  60.528  46.491  1.00  0.00     0.032 C 
HETATM   22  C7  UNL     1     -23.536  60.766  46.553  1.00  0.00     0.032 C 
ENDBRANCH  18  20
ENDBRANCH   7  18
TORSDOF 5
ENDMDL
MODEL 5
REMARK VINA RESULT: -3.275394362      1.942      2.948
REMARK  5 active torsions:
REMARK  status: ('A' for Active; 'I' for Inactive)
REMARK    1  A    between atoms: N1_2  and  C2_4 
REMARK    2  A    between atoms: C3_7  and  N3_8 
REMARK    3  A    between atoms: N3_8  and  N4_10 
REMARK    4  A    between atoms: C4_15  and  N6_16 
REMARK    5  A    between atoms: N6_16  and  C5_18 
ROOT
HETATM    1  C2  UNL     1     -24.110  65.158  40.250  1.00  0.00     0.706 A 
HETATM    2  N2  UNL     1     -23.554  64.238  39.445  1.00  0.00    -0.020 N 
ATOM      3  H2  UNL     1     -23.326  64.458  38.475  1.00  0.00     0.203 HD
HETATM    4  C3  UNL     1     -23.304  63.006  39.956  1.00  0.00     0.725 A 
HETATM    5  N5  UNL     1     -23.598  62.711  41.215  1.00  0.00    -0.020 N 
ATOM      6  H5  UNL     1     -23.395  61.774  41.565  1.00  0.00     0.203 HD
HETATM    7  C4  UNL     1     -24.164  63.628  42.057  1.00  0.00     0.707 A 
HETATM    8  N7  UNL     1     -24.397  64.836  41.515  1.00  0.00    -0.022 N 
ATOM      9  H7  UNL     1     -24.819  65.552  42.106  1.00  0.00     0.203 HD
ENDROOT
BRANCH   4  10
HETATM   10  N3  UNL     1     -22.766  62.107  39.183  1.00  0.00    -0.138 N 
ATOM     11  H3  UNL     1     -22.624  61.159  39.531  1.00  0.00     0.205 HD
BRANCH  10  12
HETATM   12  N4  UNL     1     -22.383  62.430  37.885  1.00  0.00    -0.331 N 
ATOM     13  H42 UNL     1     -22.857  61.974  37.105  1.00  0.00     0.177 HD
ATOM     14  H41 UNL     1     -21.641  63.111  37.718  1.00  0.00     0.177 HD
ENDBRANCH  10  12
ENDBRANCH   4  10
BRANCH   1  15
HETATM   15  N1  UNL     1     -24.352  66.326  39.779  1.00  0.00    -0.229 N 
HETATM   16  C1  UNL     1     -24.654  67.479  40.566  1.00  0.00     0.165 C 
ATOM     17  H1  UNL     1     -24.327  66.440  38.766  1.00  0.00     0.177 HD
ENDBRANCH   1  15
BRANCH   7  18
HETATM   18  N6  UNL     1     -24.423  63.291  43.250  1.00  0.00    -0.221 N 
ATOM     19  H6  UNL     1     -25.317  63.610  43.626  1.00  0.00     0.178 HD
BRANCH  18  20
HETATM   20  C5  UNL     1     -23.613  62.520  44.123  1.00  0.00     0.091 C 
HETATM   21  C6  UNL     1     -24.462  61.965  45.263  1.00  0.00     0.032 C 
HETATM   22  C7  UNL     1     -22.409  63.241  44.630  1.00  0.00     0.032 C 
ENDBRANCH  18  20
ENDBRANCH   7  18
TORSDOF 5
ENDMDL
