MODEL 1
REMARK VINA RESULT: -5.330407413      0.000      0.000
REMARK  4 active torsions:
REMARK  status: ('A' for Active; 'I' for Inactive)
REMARK    1  A    between atoms: O1_2  and  N1_3 
REMARK       I    between atoms: N1_3  and  C2_5 
REMARK       I    between atoms: C2_5  and  N3_9 
REMARK    2  A    between atoms: N3_9  and  N4_11 
REMARK    3  A    between atoms: N4_11  and  C3_13 
REMARK    4  A    between atoms: C3_13  and  N5_15 
ROOT
HETATM    1  N1  UNL     1     -23.345  62.337  40.826  1.00  0.00    -0.096 N 
ATOM      2  H1  UNL     1     -22.366  62.084  40.959  1.00  0.00     0.213 HD
HETATM    3  C2  UNL     1     -23.985  63.113  41.811  1.00  0.00     0.710 C 
HETATM    4  N2  UNL     1     -25.100  63.675  41.573  1.00  0.00    -0.232 N 
ATOM      5  H21 UNL     1     -25.564  64.237  42.287  1.00  0.00     0.174 HD
ATOM      6  H22 UNL     1     -25.535  63.563  40.657  1.00  0.00     0.174 HD
HETATM    7  N3  UNL     1     -23.380  63.268  43.086  1.00  0.00    -0.129 N 
ATOM      8  H3  UNL     1     -22.413  63.594  43.127  1.00  0.00     0.205 HD
ENDROOT
BRANCH   7   9
HETATM    9  N4  UNL     1     -24.034  62.999  44.277  1.00  0.00    -0.262 N 
ATOM     10  H4  UNL     1     -24.929  63.469  44.408  1.00  0.00     0.190 HD
BRANCH   9  11
HETATM   11  C3  UNL     1     -23.629  62.175  45.313  1.00  0.00     0.188 C 
HETATM   12  S1  UNL     1     -24.701  60.974  45.760  1.00  0.00    -0.039 SA
BRANCH  11  13
HETATM   13  N5  UNL     1     -22.438  62.206  46.046  1.00  0.00    -0.366 N 
HETATM   14  C4  UNL     1     -21.632  61.028  46.176  1.00  0.00     0.151 C 
HETATM   15  C5  UNL     1     -21.961  63.426  46.711  1.00  0.00     0.151 C 
ENDBRANCH  11  13
ENDBRANCH   9  11
ENDBRANCH   7   9
BRANCH   1  16
HETATM   16  O1  UNL     1     -23.982  61.915  39.703  1.00  0.00    -0.271 OA
HETATM   17  C1  UNL     1     -23.262  62.280  38.553  1.00  0.00     0.238 C 
ENDBRANCH   1  16
TORSDOF 4
ENDMDL
MODEL 2
REMARK VINA RESULT: -5.322211254      0.027      1.012
REMARK  4 active torsions:
REMARK  status: ('A' for Active; 'I' for Inactive)
REMARK    1  A    between atoms: O1_2  and  N1_3 
REMARK       I    between atoms: N1_3  and  C2_5 
REMARK       I    between atoms: C2_5  and  N3_9 
REMARK    2  A    between atoms: N3_9  and  N4_11 
REMARK    3  A    between atoms: N4_11  and  C3_13 
REMARK    4  A    between atoms: C3_13  and  N5_15 
ROOT
HETATM    1  N1  UNL     1     -23.341  62.349  40.822  1.00  0.00    -0.096 N 
ATOM      2  H1  UNL     1     -22.362  62.095  40.954  1.00  0.00     0.213 HD
HETATM    3  C2  UNL     1     -23.980  63.122  41.809  1.00  0.00     0.710 C 
HETATM    4  N2  UNL     1     -25.096  63.684  41.573  1.00  0.00    -0.232 N 
ATOM      5  H21 UNL     1     -25.559  64.244  42.289  1.00  0.00     0.174 HD
ATOM      6  H22 UNL     1     -25.531  63.574  40.658  1.00  0.00     0.174 HD
HETATM    7  N3  UNL     1     -23.373  63.275  43.084  1.00  0.00    -0.129 N 
ATOM      8  H3  UNL     1     -22.407  63.602  43.124  1.00  0.00     0.205 HD
ENDROOT
BRANCH   7   9
HETATM    9  N4  UNL     1     -24.026  63.004  44.275  1.00  0.00    -0.262 N 
ATOM     10  H4  UNL     1     -24.918  63.479  44.411  1.00  0.00     0.190 HD
BRANCH   9  11
HETATM   11  C3  UNL     1     -23.623  62.172  45.305  1.00  0.00     0.188 C 
HETATM   12  S1  UNL     1     -24.705  60.980  45.755  1.00  0.00    -0.039 SA
BRANCH  11  13
HETATM   13  N5  UNL     1     -22.428  62.188  46.031  1.00  0.00    -0.366 N 
HETATM   14  C4  UNL     1     -21.978  63.390  46.669  1.00  0.00     0.151 C 
HETATM   15  C5  UNL     1     -21.583  60.994  46.172  1.00  0.00     0.151 C 
ENDBRANCH  11  13
ENDBRANCH   9  11
ENDBRANCH   7   9
BRANCH   1  16
HETATM   16  O1  UNL     1     -23.979  61.928  39.700  1.00  0.00    -0.271 OA
HETATM   17  C1  UNL     1     -23.262  62.297  38.548  1.00  0.00     0.238 C 
ENDBRANCH   1  16
TORSDOF 4
ENDMDL
MODEL 3
REMARK VINA RESULT: -5.090458515      1.471      1.885
REMARK  4 active torsions:
REMARK  status: ('A' for Active; 'I' for Inactive)
REMARK    1  A    between atoms: O1_2  and  N1_3 
REMARK       I    between atoms: N1_3  and  C2_5 
REMARK       I    between atoms: C2_5  and  N3_9 
REMARK    2  A    between atoms: N3_9  and  N4_11 
REMARK    3  A    between atoms: N4_11  and  C3_13 
REMARK    4  A    between atoms: C3_13  and  N5_15 
ROOT
HETATM    1  N1  UNL     1     -24.649  63.710  41.401  1.00  0.00    -0.096 N 
ATOM      2  H1  UNL     1     -23.785  63.863  40.880  1.00  0.00     0.213 HD
HETATM    3  C2  UNL     1     -24.568  63.357  42.761  1.00  0.00     0.710 C 
HETATM    4  N2  UNL     1     -25.593  63.418  43.511  1.00  0.00    -0.232 N 
ATOM      5  H21 UNL     1     -25.534  63.162  44.496  1.00  0.00     0.174 HD
ATOM      6  H22 UNL     1     -26.483  63.728  43.122  1.00  0.00     0.174 HD
HETATM    7  N3  UNL     1     -23.328  62.925  43.302  1.00  0.00    -0.129 N 
ATOM      8  H3  UNL     1     -22.508  63.519  43.168  1.00  0.00     0.205 HD
ENDROOT
BRANCH   7   9
HETATM    9  N4  UNL     1     -23.174  61.740  44.002  1.00  0.00    -0.262 N 
ATOM     10  H4  UNL     1     -23.048  60.903  43.435  1.00  0.00     0.190 HD
BRANCH   9  11
HETATM   11  C3  UNL     1     -23.168  61.546  45.373  1.00  0.00     0.188 C 
HETATM   12  S1  UNL     1     -24.571  60.923  46.034  1.00  0.00    -0.039 SA
BRANCH  11  13
HETATM   13  N5  UNL     1     -22.145  61.801  46.292  1.00  0.00    -0.366 N 
HETATM   14  C4  UNL     1     -21.928  63.126  46.792  1.00  0.00     0.151 C 
HETATM   15  C5  UNL     1     -21.253  60.742  46.781  1.00  0.00     0.151 C 
ENDBRANCH  11  13
ENDBRANCH   9  11
ENDBRANCH   7   9
BRANCH   1  16
HETATM   16  O1  UNL     1     -25.835  63.855  40.755  1.00  0.00    -0.271 OA
HETATM   17  C1  UNL     1     -25.939  62.943  39.691  1.00  0.00     0.238 C 
ENDBRANCH   1  16
TORSDOF 4
ENDMDL
MODEL 4
REMARK VINA RESULT: -4.910653116      1.188      1.375
REMARK  4 active torsions:
REMARK  status: ('A' for Active; 'I' for Inactive)
REMARK    1  A    between atoms: O1_2  and  N1_3 
REMARK       I    between atoms: N1_3  and  C2_5 
REMARK       I    between atoms: C2_5  and  N3_9 
REMARK    2  A    between atoms: N3_9  and  N4_11 
REMARK    3  A    between atoms: N4_11  and  C3_13 
REMARK    4  A    between atoms: C3_13  and  N5_15 
ROOT
HETATM    1  N1  UNL     1     -23.166  63.800  40.292  1.00  0.00    -0.096 N 
ATOM      2  H1  UNL     1     -22.222  64.131  40.489  1.00  0.00     0.213 HD
HETATM    3  C2  UNL     1     -24.045  63.577  41.369  1.00  0.00     0.710 C 
HETATM    4  N2  UNL     1     -25.292  63.428  41.171  1.00  0.00    -0.232 N 
ATOM      5  H21 UNL     1     -25.928  63.266  41.951  1.00  0.00     0.174 HD
ATOM      6  H22 UNL     1     -25.659  63.472  40.221  1.00  0.00     0.174 HD
HETATM    7  N3  UNL     1     -23.533  63.516  42.692  1.00  0.00    -0.129 N 
ATOM      8  H3  UNL     1     -22.953  64.287  43.023  1.00  0.00     0.205 HD
ENDROOT
BRANCH   7   9
HETATM    9  N4  UNL     1     -23.781  62.462  43.557  1.00  0.00    -0.262 N 
ATOM     10  H4  UNL     1     -24.234  61.647  43.144  1.00  0.00     0.190 HD
BRANCH   9  11
HETATM   11  C3  UNL     1     -23.494  62.373  44.908  1.00  0.00     0.188 C 
HETATM   12  S1  UNL     1     -24.258  61.145  45.744  1.00  0.00    -0.039 SA
BRANCH  11  13
HETATM   13  N5  UNL     1     -22.646  63.174  45.680  1.00  0.00    -0.366 N 
HETATM   14  C4  UNL     1     -23.160  63.918  46.792  1.00  0.00     0.151 C 
HETATM   15  C5  UNL     1     -21.211  63.296  45.394  1.00  0.00     0.151 C 
ENDBRANCH  11  13
ENDBRANCH   9  11
ENDBRANCH   7   9
BRANCH   1  16
HETATM   16  O1  UNL     1     -23.530  63.591  39.000  1.00  0.00    -0.271 OA
HETATM   17  C1  UNL     1     -23.150  62.305  38.576  1.00  0.00     0.238 C 
ENDBRANCH   1  16
TORSDOF 4
ENDMDL
MODEL 5
REMARK VINA RESULT: -4.907501592      2.987      5.467
REMARK  4 active torsions:
REMARK  status: ('A' for Active; 'I' for Inactive)
REMARK    1  A    between atoms: O1_2  and  N1_3 
REMARK       I    between atoms: N1_3  and  C2_5 
REMARK       I    between atoms: C2_5  and  N3_9 
REMARK    2  A    between atoms: N3_9  and  N4_11 
REMARK    3  A    between atoms: N4_11  and  C3_13 
REMARK    4  A    between atoms: C3_13  and  N5_15 
ROOT
HETATM    1  N1  UNL     1     -24.796  61.583  45.115  1.00  0.00    -0.096 N 
ATOM      2  H1  UNL     1     -25.486  60.941  44.725  1.00  0.00     0.213 HD
HETATM    3  C2  UNL     1     -24.712  62.888  44.595  1.00  0.00     0.710 C 
HETATM    4  N2  UNL     1     -24.070  63.795  45.213  1.00  0.00    -0.232 N 
ATOM      5  H21 UNL     1     -24.010  64.741  44.835  1.00  0.00     0.174 HD
ATOM      6  H22 UNL     1     -23.612  63.574  46.096  1.00  0.00     0.174 HD
HETATM    7  N3  UNL     1     -25.350  63.196  43.364  1.00  0.00    -0.129 N 
ATOM      8  H3  UNL     1     -26.340  62.969  43.262  1.00  0.00     0.205 HD
ENDROOT
BRANCH   7   9
HETATM    9  N4  UNL     1     -24.698  63.788  42.295  1.00  0.00    -0.262 N 
ATOM     10  H4  UNL     1     -24.088  64.572  42.526  1.00  0.00     0.190 HD
BRANCH   9  11
HETATM   11  C3  UNL     1     -24.767  63.453  40.954  1.00  0.00     0.188 C 
HETATM   12  S1  UNL     1     -26.291  63.122  40.355  1.00  0.00    -0.039 SA
BRANCH  11  13
HETATM   13  N5  UNL     1     -23.731  63.351  40.019  1.00  0.00    -0.366 N 
HETATM   14  C4  UNL     1     -23.217  64.521  39.371  1.00  0.00     0.151 C 
HETATM   15  C5  UNL     1     -23.128  62.061  39.658  1.00  0.00     0.151 C 
ENDBRANCH  11  13
ENDBRANCH   9  11
ENDBRANCH   7   9
BRANCH   1  16
HETATM   16  O1  UNL     1     -23.991  61.146  46.119  1.00  0.00    -0.271 OA
HETATM   17  C1  UNL     1     -22.783  60.643  45.607  1.00  0.00     0.238 C 
ENDBRANCH   1  16
TORSDOF 4
ENDMDL
