MODEL 1
REMARK VINA RESULT: -5.359814345      0.000      0.000
REMARK  3 active torsions:
REMARK  status: ('A' for Active; 'I' for Inactive)
REMARK    1  A    between atoms: C2_2  and  N1_5 
REMARK       I    between atoms: C5_7  and  N3_9 
REMARK    2  A    between atoms: N3_9  and  N4_11 
REMARK    3  A    between atoms: N4_11  and  C6_13 
ROOT
HETATM    1  N4  UNL     1     -23.548  62.738  41.748  1.00  0.00    -0.127 N 
ATOM      2  H4  UNL     1     -23.502  61.748  41.511  1.00  0.00     0.206 HD
ENDROOT
BRANCH   1   3
HETATM    3  N3  UNL     1     -23.549  63.175  43.099  1.00  0.00    -0.259 N 
HETATM    4  C5  UNL     1     -24.616  62.901  43.979  1.00  0.00     0.204 C 
HETATM    5  N1  UNL     1     -24.478  62.157  44.983  1.00  0.00    -0.355 N 
HETATM    6  N2  UNL     1     -25.870  63.490  43.709  1.00  0.00    -0.062 NA
ATOM      7  H1  UNL     1     -25.315  62.028  45.552  1.00  0.00     0.163 HD
ATOM      8  H3  UNL     1     -22.748  63.705  43.445  1.00  0.00     0.190 HD
BRANCH   5   9
HETATM    9  C2  UNL     1     -23.322  61.473  45.435  1.00  0.00     0.021 C 
HETATM   10  C1  UNL     1     -22.135  62.386  45.624  1.00  0.00     0.037 C 
HETATM   11  C3  UNL     1     -22.881  60.340  44.540  1.00  0.00     0.037 C 
HETATM   12  C4  UNL     1     -23.659  60.841  46.791  1.00  0.00     0.037 C 
ENDBRANCH   5   9
ENDBRANCH   1   3
BRANCH   1  13
HETATM   13  C6  UNL     1     -23.606  63.638  40.840  1.00  0.00     0.728 A 
HETATM   14  N5  UNL     1     -22.760  63.864  39.797  1.00  0.00    -0.114 N 
HETATM   15  N6  UNL     1     -23.161  64.881  39.084  1.00  0.00    -0.213 N 
ATOM     16  H5  UNL     1     -21.925  63.313  39.600  1.00  0.00     0.207 HD
HETATM   17  N7  UNL     1     -24.259  65.335  39.635  1.00  0.00    -0.213 N 
ATOM     18  H6  UNL     1     -22.703  65.254  38.252  1.00  0.00     0.210 HD
HETATM   19  N8  UNL     1     -24.551  64.596  40.705  1.00  0.00    -0.114 N 
ATOM     20  H7  UNL     1     -24.804  66.129  39.298  1.00  0.00     0.210 HD
ATOM     21  H8  UNL     1     -25.354  64.730  41.320  1.00  0.00     0.207 HD
ENDBRANCH   1  13
TORSDOF 3
ENDMDL
MODEL 2
REMARK VINA RESULT: -5.137660191      0.091      1.135
REMARK  3 active torsions:
REMARK  status: ('A' for Active; 'I' for Inactive)
REMARK    1  A    between atoms: C2_2  and  N1_5 
REMARK       I    between atoms: C5_7  and  N3_9 
REMARK    2  A    between atoms: N3_9  and  N4_11 
REMARK    3  A    between atoms: N4_11  and  C6_13 
ROOT
HETATM    1  N4  UNL     1     -23.561  62.746  41.749  1.00  0.00    -0.127 N 
ATOM      2  H4  UNL     1     -23.504  61.758  41.503  1.00  0.00     0.206 HD
ENDROOT
BRANCH   1   3
HETATM    3  N3  UNL     1     -23.557  63.171  43.103  1.00  0.00    -0.259 N 
HETATM    4  C5  UNL     1     -24.614  62.877  43.989  1.00  0.00     0.204 C 
HETATM    5  N1  UNL     1     -24.460  62.126  44.986  1.00  0.00    -0.355 N 
HETATM    6  N2  UNL     1     -25.877  63.453  43.734  1.00  0.00    -0.062 NA
ATOM      7  H1  UNL     1     -25.291  61.983  45.560  1.00  0.00     0.163 HD
ATOM      8  H3  UNL     1     -22.760  63.707  43.448  1.00  0.00     0.190 HD
BRANCH   5   9
HETATM    9  C2  UNL     1     -23.293  61.452  45.423  1.00  0.00     0.021 C 
HETATM   10  C1  UNL     1     -22.846  60.371  44.468  1.00  0.00     0.037 C 
HETATM   11  C3  UNL     1     -23.413  60.823  46.791  1.00  0.00     0.037 C 
HETATM   12  C4  UNL     1     -22.170  62.490  45.527  1.00  0.00     0.037 C 
ENDBRANCH   5   9
ENDBRANCH   1   3
BRANCH   1  13
HETATM   13  C6  UNL     1     -23.640  63.652  40.849  1.00  0.00     0.728 A 
HETATM   14  N5  UNL     1     -22.796  63.911  39.812  1.00  0.00    -0.114 N 
HETATM   15  N6  UNL     1     -23.221  64.924  39.108  1.00  0.00    -0.213 N 
ATOM     16  H5  UNL     1     -21.946  63.384  39.614  1.00  0.00     0.207 HD
HETATM   17  N7  UNL     1     -24.333  65.343  39.658  1.00  0.00    -0.213 N 
ATOM     18  H6  UNL     1     -22.770  65.317  38.281  1.00  0.00     0.210 HD
HETATM   19  N8  UNL     1     -24.610  64.586  40.720  1.00  0.00    -0.114 N 
ATOM     20  H7  UNL     1     -24.898  66.126  39.327  1.00  0.00     0.210 HD
ATOM     21  H8  UNL     1     -25.418  64.693  41.333  1.00  0.00     0.207 HD
ENDBRANCH   1  13
TORSDOF 3
ENDMDL
MODEL 3
REMARK VINA RESULT: -5.130461536      1.126      1.626
REMARK  3 active torsions:
REMARK  status: ('A' for Active; 'I' for Inactive)
REMARK    1  A    between atoms: C2_2  and  N1_5 
REMARK       I    between atoms: C5_7  and  N3_9 
REMARK    2  A    between atoms: N3_9  and  N4_11 
REMARK    3  A    between atoms: N4_11  and  C6_13 
ROOT
HETATM    1  N4  UNL     1     -23.534  62.219  41.504  1.00  0.00    -0.127 N 
ATOM      2  H4  UNL     1     -23.739  61.233  41.664  1.00  0.00     0.206 HD
ENDROOT
BRANCH   1   3
HETATM    3  N3  UNL     1     -23.576  63.163  42.562  1.00  0.00    -0.259 N 
HETATM    4  C5  UNL     1     -24.564  63.125  43.568  1.00  0.00     0.204 C 
HETATM    5  N1  UNL     1     -24.283  62.883  44.770  1.00  0.00    -0.355 N 
HETATM    6  N2  UNL     1     -25.904  63.368  43.197  1.00  0.00    -0.062 NA
ATOM      7  H1  UNL     1     -25.074  62.880  45.413  1.00  0.00     0.163 HD
ATOM      8  H3  UNL     1     -22.867  63.896  42.597  1.00  0.00     0.190 HD
BRANCH   5   9
HETATM    9  C2  UNL     1     -23.021  62.613  45.354  1.00  0.00     0.021 C 
HETATM   10  C1  UNL     1     -22.929  63.065  46.792  1.00  0.00     0.037 C 
HETATM   11  C3  UNL     1     -21.851  63.220  44.617  1.00  0.00     0.037 C 
HETATM   12  C4  UNL     1     -22.808  61.096  45.318  1.00  0.00     0.037 C 
ENDBRANCH   5   9
ENDBRANCH   1   3
BRANCH   1  13
HETATM   13  C6  UNL     1     -23.227  62.654  40.340  1.00  0.00     0.728 A 
HETATM   14  N5  UNL     1     -22.995  61.956  39.194  1.00  0.00    -0.114 N 
HETATM   15  N6  UNL     1     -22.709  62.761  38.208  1.00  0.00    -0.213 N 
ATOM     16  H5  UNL     1     -23.039  60.939  39.117  1.00  0.00     0.207 HD
HETATM   17  N7  UNL     1     -22.747  63.983  38.678  1.00  0.00    -0.213 N 
ATOM     18  H6  UNL     1     -22.496  62.489  37.248  1.00  0.00     0.210 HD
HETATM   19  N8  UNL     1     -23.059  63.944  39.974  1.00  0.00    -0.114 N 
ATOM     20  H7  UNL     1     -22.565  64.829  38.138  1.00  0.00     0.210 HD
ATOM     21  H8  UNL     1     -23.157  64.754  40.587  1.00  0.00     0.207 HD
ENDBRANCH   1  13
TORSDOF 3
ENDMDL
MODEL 4
REMARK VINA RESULT: -4.809911559      1.464      1.968
REMARK  3 active torsions:
REMARK  status: ('A' for Active; 'I' for Inactive)
REMARK    1  A    between atoms: C2_2  and  N1_5 
REMARK       I    between atoms: C5_7  and  N3_9 
REMARK    2  A    between atoms: N3_9  and  N4_11 
REMARK    3  A    between atoms: N4_11  and  C6_13 
ROOT
HETATM    1  N4  UNL     1     -23.399  62.740  41.708  1.00  0.00    -0.127 N 
ATOM      2  H4  UNL     1     -22.613  62.101  41.592  1.00  0.00     0.206 HD
ENDROOT
BRANCH   1   3
HETATM    3  N3  UNL     1     -23.549  63.519  42.885  1.00  0.00    -0.259 N 
HETATM    4  C5  UNL     1     -24.424  63.149  43.928  1.00  0.00     0.204 C 
HETATM    5  N1  UNL     1     -24.004  62.829  45.069  1.00  0.00    -0.355 N 
HETATM    6  N2  UNL     1     -25.810  63.144  43.664  1.00  0.00    -0.062 NA
ATOM      7  H1  UNL     1     -24.723  62.580  45.747  1.00  0.00     0.163 HD
ATOM      8  H3  UNL     1     -23.004  64.376  42.981  1.00  0.00     0.190 HD
BRANCH   5   9
HETATM    9  C2  UNL     1     -22.670  62.766  45.544  1.00  0.00     0.021 C 
HETATM   10  C1  UNL     1     -22.451  63.588  46.792  1.00  0.00     0.037 C 
HETATM   11  C3  UNL     1     -21.630  63.192  44.536  1.00  0.00     0.037 C 
HETATM   12  C4  UNL     1     -22.366  61.302  45.879  1.00  0.00     0.037 C 
ENDBRANCH   5   9
ENDBRANCH   1   3
BRANCH   1  13
HETATM   13  C6  UNL     1     -24.289  62.873  40.799  1.00  0.00     0.728 A 
HETATM   14  N5  UNL     1     -25.443  63.595  40.822  1.00  0.00    -0.114 N 
HETATM   15  N6  UNL     1     -26.089  63.478  39.695  1.00  0.00    -0.213 N 
ATOM     16  H5  UNL     1     -25.760  64.152  41.616  1.00  0.00     0.207 HD
HETATM   17  N7  UNL     1     -25.385  62.690  38.921  1.00  0.00    -0.213 N 
ATOM     18  H6  UNL     1     -26.979  63.919  39.459  1.00  0.00     0.210 HD
HETATM   19  N8  UNL     1     -24.285  62.307  39.570  1.00  0.00    -0.114 N 
ATOM     20  H7  UNL     1     -25.639  62.412  37.973  1.00  0.00     0.210 HD
ATOM     21  H8  UNL     1     -23.560  61.692  39.201  1.00  0.00     0.207 HD
ENDBRANCH   1  13
TORSDOF 3
ENDMDL
MODEL 5
REMARK VINA RESULT: -4.596825668      2.298      5.242
REMARK  3 active torsions:
REMARK  status: ('A' for Active; 'I' for Inactive)
REMARK    1  A    between atoms: C2_2  and  N1_5 
REMARK       I    between atoms: C5_7  and  N3_9 
REMARK    2  A    between atoms: N3_9  and  N4_11 
REMARK    3  A    between atoms: N4_11  and  C6_13 
ROOT
HETATM    1  N4  UNL     1     -25.488  63.554  42.759  1.00  0.00    -0.127 N 
ATOM      2  H4  UNL     1     -26.182  64.294  42.855  1.00  0.00     0.206 HD
ENDROOT
BRANCH   1   3
HETATM    3  N3  UNL     1     -25.406  62.765  41.582  1.00  0.00    -0.259 N 
HETATM    4  C5  UNL     1     -25.757  63.267  40.312  1.00  0.00     0.204 C 
HETATM    5  N1  UNL     1     -24.909  63.414  39.395  1.00  0.00    -0.355 N 
HETATM    6  N2  UNL     1     -27.107  63.610  40.080  1.00  0.00    -0.062 NA
ATOM      7  H1  UNL     1     -25.272  63.785  38.517  1.00  0.00     0.163 HD
ATOM      8  H3  UNL     1     -25.083  61.800  41.658  1.00  0.00     0.190 HD
BRANCH   5   9
HETATM    9  C2  UNL     1     -23.519  63.137  39.413  1.00  0.00     0.021 C 
HETATM   10  C1  UNL     1     -22.889  63.203  38.042  1.00  0.00     0.037 C 
HETATM   11  C3  UNL     1     -23.159  61.798  40.011  1.00  0.00     0.037 C 
HETATM   12  C4  UNL     1     -22.848  64.195  40.297  1.00  0.00     0.037 C 
ENDBRANCH   5   9
ENDBRANCH   1   3
BRANCH   1  13
HETATM   13  C6  UNL     1     -24.654  63.299  43.696  1.00  0.00     0.728 A 
HETATM   14  N5  UNL     1     -24.791  63.471  45.040  1.00  0.00    -0.114 N 
HETATM   15  N6  UNL     1     -23.714  63.091  45.671  1.00  0.00    -0.213 N 
ATOM     16  H5  UNL     1     -25.624  63.847  45.493  1.00  0.00     0.207 HD
HETATM   17  N7  UNL     1     -22.862  62.669  44.770  1.00  0.00    -0.213 N 
ATOM     18  H6  UNL     1     -23.562  63.117  46.679  1.00  0.00     0.210 HD
HETATM   19  N8  UNL     1     -23.411  62.786  43.559  1.00  0.00    -0.114 N 
ATOM     20  H7  UNL     1     -21.928  62.309  44.963  1.00  0.00     0.210 HD
ATOM     21  H8  UNL     1     -22.966  62.531  42.678  1.00  0.00     0.207 HD
ENDBRANCH   1  13
TORSDOF 3
ENDMDL
