MODEL 1
REMARK VINA RESULT: -2.594258709      0.000      0.000
REMARK  2 active torsions:
REMARK  status: ('A' for Active; 'I' for Inactive)
REMARK    1  A    between atoms: C2_2  and  N1_3 
REMARK    2  A    between atoms: N1_3  and  C3_5 
ROOT
HETATM    1  C3  UNL     1     -23.988  63.127  40.821  1.00  0.00     0.119 A 
HETATM    2  N2  UNL     1     -24.877  63.119  39.820  1.00  0.00    -0.338 N 
ATOM      3  H2  UNL     1     -24.534  63.076  38.860  1.00  0.00     0.168 HD
HETATM    4  C4  UNL     1     -26.196  63.166  40.029  1.00  0.00     0.183 A 
HETATM    5  N3  UNL     1     -26.636  63.223  41.308  1.00  0.00    -0.337 N 
ATOM      6  H3  UNL     1     -27.639  63.260  41.488  1.00  0.00     0.168 HD
HETATM    7  C5  UNL     1     -25.782  63.233  42.347  1.00  0.00     0.138 A 
HETATM    8  N4  UNL     1     -25.936  63.285  43.704  1.00  0.00    -0.283 N 
ATOM      9  H4  UNL     1     -26.831  63.329  44.190  1.00  0.00     0.188 HD
HETATM   10  N5  UNL     1     -24.755  63.270  44.291  1.00  0.00    -0.283 N 
ATOM     11  H5  UNL     1     -24.609  63.300  45.300  1.00  0.00     0.188 HD
HETATM   12  C6  UNL     1     -23.773  63.208  43.376  1.00  0.00     0.133 A 
HETATM   13  N6  UNL     1     -22.503  63.175  43.504  1.00  0.00    -0.379 N 
ATOM     14  H6  UNL     1     -21.952  63.130  42.646  1.00  0.00     0.160 HD
HETATM   15  C7  UNL     1     -21.784  63.196  44.735  1.00  0.00     0.147 C 
HETATM   16  C8  UNL     1     -24.416  63.186  42.156  1.00  0.00     0.098 A 
ENDROOT
BRANCH   1  17
HETATM   17  N1  UNL     1     -22.722  63.084  40.656  1.00  0.00    -0.376 N 
ATOM     18  H1  UNL     1     -22.136  63.553  41.347  1.00  0.00     0.161 HD
BRANCH  17  19
HETATM   19  C2  UNL     1     -22.064  62.415  39.557  1.00  0.00     0.116 C 
HETATM   20  C1  UNL     1     -22.385  63.049  38.219  1.00  0.00     0.026 C 
ENDBRANCH  17  19
ENDBRANCH   1  17
TORSDOF 2
ENDMDL
MODEL 2
REMARK VINA RESULT: -2.464177932      2.331      4.654
REMARK  2 active torsions:
REMARK  status: ('A' for Active; 'I' for Inactive)
REMARK    1  A    between atoms: C2_2  and  N1_3 
REMARK    2  A    between atoms: N1_3  and  C3_5 
ROOT
HETATM    1  C3  UNL     1     -23.865  63.144  41.005  1.00  0.00     0.119 A 
HETATM    2  N2  UNL     1     -23.500  61.867  40.837  1.00  0.00    -0.338 N 
ATOM      3  H2  UNL     1     -23.711  61.195  41.574  1.00  0.00     0.168 HD
HETATM    4  C4  UNL     1     -22.870  61.439  39.738  1.00  0.00     0.183 A 
HETATM    5  N3  UNL     1     -22.596  62.342  38.768  1.00  0.00    -0.337 N 
ATOM      6  H3  UNL     1     -22.116  62.035  37.923  1.00  0.00     0.168 HD
HETATM    7  C5  UNL     1     -22.944  63.636  38.892  1.00  0.00     0.138 A 
HETATM    8  N4  UNL     1     -22.800  64.739  38.099  1.00  0.00    -0.283 N 
ATOM      9  H4  UNL     1     -22.354  64.746  37.182  1.00  0.00     0.188 HD
HETATM   10  N5  UNL     1     -23.325  65.792  38.694  1.00  0.00    -0.283 N 
ATOM     11  H5  UNL     1     -23.341  66.732  38.300  1.00  0.00     0.188 HD
HETATM   12  C6  UNL     1     -23.834  65.454  39.891  1.00  0.00     0.133 A 
HETATM   13  N6  UNL     1     -24.424  66.151  40.784  1.00  0.00    -0.379 N 
ATOM     14  H6  UNL     1     -24.726  65.664  41.627  1.00  0.00     0.160 HD
HETATM   15  C7  UNL     1     -24.697  67.549  40.709  1.00  0.00     0.147 C 
HETATM   16  C8  UNL     1     -23.595  64.101  40.017  1.00  0.00     0.098 A 
ENDROOT
BRANCH   1  17
HETATM   17  N1  UNL     1     -24.469  63.585  42.042  1.00  0.00    -0.376 N 
ATOM     18  H1  UNL     1     -25.232  64.248  41.901  1.00  0.00     0.161 HD
BRANCH  17  19
HETATM   19  C2  UNL     1     -24.143  63.210  43.398  1.00  0.00     0.116 C 
HETATM   20  C1  UNL     1     -25.347  63.264  44.317  1.00  0.00     0.026 C 
ENDBRANCH  17  19
ENDBRANCH   1  17
TORSDOF 2
ENDMDL
MODEL 3
REMARK VINA RESULT: -1.875640693      3.328      4.539
REMARK  2 active torsions:
REMARK  status: ('A' for Active; 'I' for Inactive)
REMARK    1  A    between atoms: C2_2  and  N1_3 
REMARK    2  A    between atoms: N1_3  and  C3_5 
ROOT
HETATM    1  C3  UNL     1     -23.158  62.838  44.478  1.00  0.00     0.119 A 
HETATM    2  N2  UNL     1     -24.169  63.510  43.915  1.00  0.00    -0.338 N 
ATOM      3  H2  UNL     1     -23.954  64.280  43.282  1.00  0.00     0.168 HD
HETATM    4  C4  UNL     1     -25.450  63.208  44.149  1.00  0.00     0.183 A 
HETATM    5  N3  UNL     1     -25.720  62.183  44.990  1.00  0.00    -0.337 N 
ATOM      6  H3  UNL     1     -26.691  61.939  45.182  1.00  0.00     0.168 HD
HETATM    7  C5  UNL     1     -24.737  61.479  45.580  1.00  0.00     0.138 A 
HETATM    8  N4  UNL     1     -24.714  60.425  46.449  1.00  0.00    -0.283 N 
ATOM      9  H4  UNL     1     -25.538  59.958  46.825  1.00  0.00     0.188 HD
HETATM   10  N5  UNL     1     -23.466  60.100  46.728  1.00  0.00    -0.283 N 
ATOM     11  H5  UNL     1     -23.190  59.344  47.353  1.00  0.00     0.188 HD
HETATM   12  C6  UNL     1     -22.611  60.905  46.074  1.00  0.00     0.133 A 
HETATM   13  N6  UNL     1     -21.335  60.943  46.057  1.00  0.00    -0.379 N 
ATOM     14  H6  UNL     1     -20.900  61.658  45.474  1.00  0.00     0.160 HD
HETATM   15  C7  UNL     1     -20.462  60.076  46.778  1.00  0.00     0.147 C 
HETATM   16  C8  UNL     1     -23.408  61.771  45.354  1.00  0.00     0.098 A 
ENDROOT
BRANCH   1  17
HETATM   17  N1  UNL     1     -21.923  63.099  44.276  1.00  0.00    -0.376 N 
ATOM     18  H1  UNL     1     -21.536  62.884  43.357  1.00  0.00     0.161 HD
BRANCH  17  19
HETATM   19  C2  UNL     1     -21.039  63.678  45.261  1.00  0.00     0.116 C 
HETATM   20  C1  UNL     1     -21.787  64.208  46.468  1.00  0.00     0.026 C 
ENDBRANCH  17  19
ENDBRANCH   1  17
TORSDOF 2
ENDMDL
MODEL 4
REMARK VINA RESULT: -1.737038717      0.890      3.979
REMARK  2 active torsions:
REMARK  status: ('A' for Active; 'I' for Inactive)
REMARK    1  A    between atoms: C2_2  and  N1_3 
REMARK    2  A    between atoms: N1_3  and  C3_5 
ROOT
HETATM    1  C3  UNL     1     -23.591  63.202  43.750  1.00  0.00     0.119 A 
HETATM    2  N2  UNL     1     -24.247  63.267  44.915  1.00  0.00    -0.338 N 
ATOM      3  H2  UNL     1     -23.708  63.269  45.781  1.00  0.00     0.168 HD
HETATM    4  C4  UNL     1     -25.581  63.331  44.987  1.00  0.00     0.183 A 
HETATM    5  N3  UNL     1     -26.281  63.327  43.829  1.00  0.00    -0.337 N 
ATOM      6  H3  UNL     1     -27.299  63.375  43.863  1.00  0.00     0.168 HD
HETATM    7  C5  UNL     1     -25.667  63.263  42.634  1.00  0.00     0.138 A 
HETATM    8  N4  UNL     1     -26.105  63.243  41.340  1.00  0.00    -0.283 N 
ATOM      9  H4  UNL     1     -27.083  63.279  41.053  1.00  0.00     0.188 HD
HETATM   10  N5  UNL     1     -25.077  63.172  40.518  1.00  0.00    -0.283 N 
ATOM     11  H5  UNL     1     -25.147  63.144  39.501  1.00  0.00     0.188 HD
HETATM   12  C6  UNL     1     -23.923  63.140  41.207  1.00  0.00     0.133 A 
HETATM   13  N6  UNL     1     -22.709  63.072  40.815  1.00  0.00    -0.379 N 
ATOM     14  H6  UNL     1     -21.989  63.060  41.538  1.00  0.00     0.160 HD
HETATM   15  C7  UNL     1     -22.268  63.011  39.461  1.00  0.00     0.147 C 
HETATM   16  C8  UNL     1     -24.292  63.197  42.535  1.00  0.00     0.098 A 
ENDROOT
BRANCH   1  17
HETATM   17  N1  UNL     1     -22.319  63.140  43.646  1.00  0.00    -0.376 N 
ATOM     18  H1  UNL     1     -21.923  63.047  42.710  1.00  0.00     0.161 HD
BRANCH  17  19
HETATM   19  C2  UNL     1     -21.405  63.194  44.763  1.00  0.00     0.116 C 
HETATM   20  C1  UNL     1     -21.542  61.995  45.679  1.00  0.00     0.026 C 
ENDBRANCH  17  19
ENDBRANCH   1  17
TORSDOF 2
ENDMDL
MODEL 5
REMARK VINA RESULT: -1.574459270      2.291      4.586
REMARK  2 active torsions:
REMARK  status: ('A' for Active; 'I' for Inactive)
REMARK    1  A    between atoms: C2_2  and  N1_3 
REMARK    2  A    between atoms: N1_3  and  C3_5 
ROOT
HETATM    1  C3  UNL     1     -23.923  63.052  40.686  1.00  0.00     0.119 A 
HETATM    2  N2  UNL     1     -23.528  61.791  40.470  1.00  0.00    -0.338 N 
ATOM      3  H2  UNL     1     -23.819  61.067  41.126  1.00  0.00     0.168 HD
HETATM    4  C4  UNL     1     -22.767  61.446  39.426  1.00  0.00     0.183 A 
HETATM    5  N3  UNL     1     -22.389  62.418  38.564  1.00  0.00    -0.337 N 
ATOM      6  H3  UNL     1     -21.809  62.174  37.762  1.00  0.00     0.168 HD
HETATM    7  C5  UNL     1     -22.762  63.699  38.739  1.00  0.00     0.138 A 
HETATM    8  N4  UNL     1     -22.536  64.857  38.051  1.00  0.00    -0.283 N 
ATOM      9  H4  UNL     1     -21.984  64.932  37.197  1.00  0.00     0.188 HD
HETATM   10  N5  UNL     1     -23.137  65.864  38.654  1.00  0.00    -0.283 N 
ATOM     11  H5  UNL     1     -23.116  66.830  38.331  1.00  0.00     0.188 HD
HETATM   12  C6  UNL     1     -23.782  65.437  39.754  1.00  0.00     0.133 A 
HETATM   13  N6  UNL     1     -24.481  66.067  40.619  1.00  0.00    -0.379 N 
ATOM     14  H6  UNL     1     -24.876  65.518  41.383  1.00  0.00     0.160 HD
HETATM   15  C7  UNL     1     -24.757  67.466  40.614  1.00  0.00     0.147 C 
HETATM   16  C8  UNL     1     -23.547  64.079  39.809  1.00  0.00     0.098 A 
ENDROOT
BRANCH   1  17
HETATM   17  N1  UNL     1     -24.650  63.416  41.672  1.00  0.00    -0.376 N 
ATOM     18  H1  UNL     1     -24.187  63.862  42.465  1.00  0.00     0.161 HD
BRANCH  17  19
HETATM   19  C2  UNL     1     -26.082  63.239  41.740  1.00  0.00     0.116 C 
HETATM   20  C1  UNL     1     -26.717  63.139  40.369  1.00  0.00     0.026 C 
ENDBRANCH  17  19
ENDBRANCH   1  17
TORSDOF 2
ENDMDL
