MODEL 1
REMARK VINA RESULT: -5.811741509      0.000      0.000
REMARK  3 active torsions:
REMARK  status: ('A' for Active; 'I' for Inactive)
REMARK    1  A    between atoms: N1_1  and  C1_4 
REMARK    2  A    between atoms: C3_9  and  S1_10 
REMARK    3  A    between atoms: S1_10  and  N4_11 
ROOT
HETATM    1  C1  UNL     1      18.238  -4.664 -25.748  1.00  0.00     0.677 A 
HETATM    2  N2  UNL     1      18.858  -5.816 -26.059  1.00  0.00    -0.178 N 
ATOM      3  H2  UNL     1      19.517  -5.827 -26.836  1.00  0.00     0.185 HD
HETATM    4  C2  UNL     1      18.634  -6.961 -25.371  1.00  0.00     0.156 A 
HETATM    5  N3  UNL     1      19.290  -8.180 -25.700  1.00  0.00    -0.080 NA
HETATM    6  C3  UNL     1      17.747  -6.983 -24.312  1.00  0.00     0.136 A 
HETATM    7  C4  UNL     1      17.118  -5.791 -24.008  1.00  0.00     0.135 A 
HETATM    8  N5  UNL     1      17.369  -4.661 -24.721  1.00  0.00    -0.201 N 
ATOM      9  H5  UNL     1      16.890  -3.795 -24.473  1.00  0.00     0.183 HD
ENDROOT
BRANCH   6  10
HETATM   10  S1  UNL     1      17.422  -8.438 -23.391  1.00  0.00     0.261 S 
HETATM   11  O1  UNL     1      16.702  -8.067 -22.148  1.00  0.00    -0.201 OA
HETATM   12  O2  UNL     1      16.696  -9.456 -24.212  1.00  0.00    -0.201 OA
BRANCH  10  13
HETATM   13  N4  UNL     1      18.944  -9.160 -22.930  1.00  0.00    -0.324 N 
ATOM     14  H42 UNL     1      19.858  -8.725 -23.056  1.00  0.00     0.169 HD
ATOM     15  H41 UNL     1      18.760 -10.077 -22.520  1.00  0.00     0.169 HD
ENDBRANCH  10  13
ENDBRANCH   6  10
BRANCH   1  16
HETATM   16  N1  UNL     1      18.443  -3.560 -26.397  1.00  0.00    -0.234 N 
ATOM     17  H12 UNL     1      18.820  -3.609 -27.342  1.00  0.00     0.174 HD
ATOM     18  H11 UNL     1      18.242  -2.642 -26.000  1.00  0.00     0.174 HD
ENDBRANCH   1  16
TORSDOF 3
ENDMDL
MODEL 2
REMARK VINA RESULT: -5.681237482      1.112      2.121
REMARK  3 active torsions:
REMARK  status: ('A' for Active; 'I' for Inactive)
REMARK    1  A    between atoms: N1_1  and  C1_4 
REMARK    2  A    between atoms: C3_9  and  S1_10 
REMARK    3  A    between atoms: S1_10  and  N4_11 
ROOT
HETATM    1  C1  UNL     1      18.409  -4.727 -25.642  1.00  0.00     0.677 A 
HETATM    2  N2  UNL     1      17.479  -4.751 -24.672  1.00  0.00    -0.178 N 
ATOM      3  H2  UNL     1      17.039  -3.876 -24.389  1.00  0.00     0.185 HD
HETATM    4  C2  UNL     1      17.108  -5.900 -24.059  1.00  0.00     0.156 A 
HETATM    5  N3  UNL     1      16.123  -5.926 -23.032  1.00  0.00    -0.080 NA
HETATM    6  C3  UNL     1      17.684  -7.105 -24.417  1.00  0.00     0.136 A 
HETATM    7  C4  UNL     1      18.639  -7.061 -25.414  1.00  0.00     0.135 A 
HETATM    8  N5  UNL     1      18.984  -5.887 -26.007  1.00  0.00    -0.201 N 
ATOM      9  H5  UNL     1      19.692  -5.886 -26.741  1.00  0.00     0.183 HD
ENDROOT
BRANCH   6  10
HETATM   10  S1  UNL     1      17.240  -8.619 -23.654  1.00  0.00     0.261 S 
HETATM   11  O1  UNL     1      15.782  -8.833 -23.831  1.00  0.00    -0.201 OA
HETATM   12  O2  UNL     1      18.070  -9.754 -24.164  1.00  0.00    -0.201 OA
BRANCH  10  13
HETATM   13  N4  UNL     1      17.556  -8.497 -21.941  1.00  0.00    -0.324 N 
ATOM     14  H42 UNL     1      18.315  -7.958 -21.524  1.00  0.00     0.169 HD
ATOM     15  H41 UNL     1      16.860  -9.050 -21.440  1.00  0.00     0.169 HD
ENDBRANCH  10  13
ENDBRANCH   6  10
BRANCH   1  16
HETATM   16  N1  UNL     1      18.774  -3.635 -26.238  1.00  0.00    -0.234 N 
ATOM     17  H12 UNL     1      18.629  -2.744 -25.763  1.00  0.00     0.174 HD
ATOM     18  H11 UNL     1      19.200  -3.628 -27.164  1.00  0.00     0.174 HD
ENDBRANCH   1  16
TORSDOF 3
ENDMDL
MODEL 3
REMARK VINA RESULT: -5.587910717      0.995      2.082
REMARK  3 active torsions:
REMARK  status: ('A' for Active; 'I' for Inactive)
REMARK    1  A    between atoms: N1_1  and  C1_4 
REMARK    2  A    between atoms: C3_9  and  S1_10 
REMARK    3  A    between atoms: S1_10  and  N4_11 
ROOT
HETATM    1  C1  UNL     1      18.313  -4.796 -25.474  1.00  0.00     0.677 A 
HETATM    2  N2  UNL     1      17.285  -4.744 -24.608  1.00  0.00    -0.178 N 
ATOM      3  H2  UNL     1      16.821  -3.851 -24.446  1.00  0.00     0.185 HD
HETATM    4  C2  UNL     1      16.848  -5.841 -23.945  1.00  0.00     0.156 A 
HETATM    5  N3  UNL     1      15.760  -5.786 -23.029  1.00  0.00    -0.080 NA
HETATM    6  C3  UNL     1      17.454  -7.067 -24.139  1.00  0.00     0.136 A 
HETATM    7  C4  UNL     1      18.508  -7.101 -25.031  1.00  0.00     0.135 A 
HETATM    8  N5  UNL     1      18.919  -5.979 -25.679  1.00  0.00    -0.201 N 
ATOM      9  H5  UNL     1      19.700  -6.035 -26.332  1.00  0.00     0.183 HD
ENDROOT
BRANCH   6  10
HETATM   10  S1  UNL     1      16.926  -8.516 -23.306  1.00  0.00     0.261 S 
HETATM   11  O1  UNL     1      17.037  -8.293 -21.843  1.00  0.00    -0.201 OA
HETATM   12  O2  UNL     1      15.554  -8.928 -23.738  1.00  0.00    -0.201 OA
BRANCH  10  13
HETATM   13  N4  UNL     1      17.999  -9.828 -23.728  1.00  0.00    -0.324 N 
ATOM     14  H42 UNL     1      18.279 -10.069 -24.678  1.00  0.00     0.169 HD
ATOM     15  H41 UNL     1      18.291 -10.300 -22.871  1.00  0.00     0.169 HD
ENDBRANCH  10  13
ENDBRANCH   6  10
BRANCH   1  16
HETATM   16  N1  UNL     1      18.742  -3.754 -26.116  1.00  0.00    -0.234 N 
ATOM     17  H12 UNL     1      18.700  -2.844 -25.659  1.00  0.00     0.174 HD
ATOM     18  H11 UNL     1      19.121  -3.807 -27.062  1.00  0.00     0.174 HD
ENDBRANCH   1  16
TORSDOF 3
ENDMDL
MODEL 4
REMARK VINA RESULT: -5.513394472      2.183      3.091
REMARK  3 active torsions:
REMARK  status: ('A' for Active; 'I' for Inactive)
REMARK    1  A    between atoms: N1_1  and  C1_4 
REMARK    2  A    between atoms: C3_9  and  S1_10 
REMARK    3  A    between atoms: S1_10  and  N4_11 
ROOT
HETATM    1  C1  UNL     1      19.760  -8.608 -26.803  1.00  0.00     0.677 A 
HETATM    2  N2  UNL     1      19.218  -9.660 -26.166  1.00  0.00    -0.178 N 
ATOM      3  H2  UNL     1      19.458 -10.602 -26.475  1.00  0.00     0.185 HD
HETATM    4  C2  UNL     1      18.363  -9.508 -25.127  1.00  0.00     0.156 A 
HETATM    5  N3  UNL     1      17.788 -10.621 -24.452  1.00  0.00    -0.080 NA
HETATM    6  C3  UNL     1      18.014  -8.247 -24.682  1.00  0.00     0.136 A 
HETATM    7  C4  UNL     1      18.581  -7.178 -25.350  1.00  0.00     0.135 A 
HETATM    8  N5  UNL     1      19.436  -7.370 -26.389  1.00  0.00    -0.201 N 
ATOM      9  H5  UNL     1      19.839  -6.562 -26.863  1.00  0.00     0.183 HD
ENDROOT
BRANCH   6  10
HETATM   10  S1  UNL     1      16.912  -7.997 -23.343  1.00  0.00     0.261 S 
HETATM   11  O1  UNL     1      16.725  -6.538 -23.144  1.00  0.00    -0.201 OA
HETATM   12  O2  UNL     1      15.627  -8.735 -23.544  1.00  0.00    -0.201 OA
BRANCH  10  13
HETATM   13  N4  UNL     1      17.639  -8.643 -21.892  1.00  0.00    -0.324 N 
ATOM     14  H42 UNL     1      18.525  -8.331 -21.494  1.00  0.00     0.169 HD
ATOM     15  H41 UNL     1      17.031  -9.374 -21.519  1.00  0.00     0.169 HD
ENDBRANCH  10  13
ENDBRANCH   6  10
BRANCH   1  16
HETATM   16  N1  UNL     1      20.581  -8.738 -27.799  1.00  0.00    -0.234 N 
ATOM     17  H12 UNL     1      21.259  -9.499 -27.780  1.00  0.00     0.174 HD
ATOM     18  H11 UNL     1      20.577  -8.110 -28.602  1.00  0.00     0.174 HD
ENDBRANCH   1  16
TORSDOF 3
ENDMDL
MODEL 5
REMARK VINA RESULT: -5.450188038      2.061      2.568
REMARK  3 active torsions:
REMARK  status: ('A' for Active; 'I' for Inactive)
REMARK    1  A    between atoms: N1_1  and  C1_4 
REMARK    2  A    between atoms: C3_9  and  S1_10 
REMARK    3  A    between atoms: S1_10  and  N4_11 
ROOT
HETATM    1  C1  UNL     1      17.751  -5.820 -24.646  1.00  0.00     0.677 A 
HETATM    2  N2  UNL     1      18.633  -6.196 -25.589  1.00  0.00    -0.178 N 
ATOM      3  H2  UNL     1      19.034  -5.486 -26.201  1.00  0.00     0.185 HD
HETATM    4  C2  UNL     1      19.006  -7.488 -25.750  1.00  0.00     0.156 A 
HETATM    5  N3  UNL     1      19.939  -7.887 -26.747  1.00  0.00    -0.080 NA
HETATM    6  C3  UNL     1      18.483  -8.477 -24.938  1.00  0.00     0.136 A 
HETATM    7  C4  UNL     1      17.578  -8.072 -23.976  1.00  0.00     0.135 A 
HETATM    8  N5  UNL     1      17.228  -6.765 -23.844  1.00  0.00    -0.201 N 
ATOM      9  H5  UNL     1      16.557  -6.496 -23.125  1.00  0.00     0.183 HD
ENDROOT
BRANCH   6  10
HETATM   10  S1  UNL     1      18.932 -10.163 -25.106  1.00  0.00     0.261 S 
HETATM   11  O1  UNL     1      20.338 -10.329 -24.660  1.00  0.00    -0.201 OA
HETATM   12  O2  UNL     1      17.974 -11.060 -24.389  1.00  0.00    -0.201 OA
BRANCH  10  13
HETATM   13  N4  UNL     1      18.855 -10.597 -26.797  1.00  0.00    -0.324 N 
ATOM     14  H42 UNL     1      18.120 -10.306 -27.441  1.00  0.00     0.169 HD
ATOM     15  H41 UNL     1      19.661 -11.182 -27.021  1.00  0.00     0.169 HD
ENDBRANCH  10  13
ENDBRANCH   6  10
BRANCH   1  16
HETATM   16  N1  UNL     1      17.385  -4.587 -24.480  1.00  0.00    -0.234 N 
ATOM     17  H12 UNL     1      17.212  -4.250 -23.533  1.00  0.00     0.174 HD
ATOM     18  H11 UNL     1      17.263  -3.939 -25.257  1.00  0.00     0.174 HD
ENDBRANCH   1  16
TORSDOF 3
ENDMDL
