MODEL 1
REMARK VINA RESULT: -6.929343003      0.000      0.000
REMARK  7 active torsions:
REMARK  status: ('A' for Active; 'I' for Inactive)
REMARK    1  A    between atoms: C3_3  and  C4_4 
REMARK    2  A    between atoms: C4_4  and  O1_5 
REMARK    3  A    between atoms: C8_10  and  O2_11 
REMARK    4  A    between atoms: C15_20  and  C16_21 
REMARK    5  A    between atoms: C16_21  and  C18_23 
REMARK    6  A    between atoms: C16_21  and  N1_26 
REMARK    7  A    between atoms: C18_23  and  C19_24 
ROOT
HETATM    1  C1  UNL     1      34.794  29.439  22.335  1.00  0.00     0.112 C 
HETATM    2  C2  UNL     1      35.563  30.161  23.346  1.00  0.00    -0.108 C 
HETATM    3  C3  UNL     1      36.190  30.769  24.186  1.00  0.00    -0.064 C 
ENDROOT
BRANCH   3   4
HETATM    4  C4  UNL     1      36.895  31.519  25.162  1.00  0.00     0.146 C 
HETATM    5  C5  UNL     1      37.883  32.474  24.499  1.00  0.00     0.062 C 
HETATM    6  C6  UNL     1      39.029  31.756  23.814  1.00  0.00     0.002 C 
HETATM    7  C7  UNL     1      39.609  30.584  24.469  1.00  0.00     0.038 C 
HETATM    8  C12 UNL     1      39.956  32.836  23.394  1.00  0.00     0.002 C 
HETATM    9  C8  UNL     1      41.073  30.599  24.765  1.00  0.00     0.158 C 
HETATM   10  C22 UNL     1      38.856  29.951  25.626  1.00  0.00     0.008 A 
HETATM   11  C9  UNL     1      41.911  31.690  24.212  1.00  0.00     0.208 C 
HETATM   12  F1  UNL     1      42.405  32.454  25.257  1.00  0.00    -0.246 F 
HETATM   13  C10 UNL     1      41.389  32.398  23.060  1.00  0.00    -0.001 C 
HETATM   14  C11 UNL     1      41.193  31.431  21.895  1.00  0.00     0.019 C 
HETATM   15  C15 UNL     1      41.852  33.721  22.642  1.00  0.00     0.035 C 
HETATM   16  C14 UNL     1      41.447  34.589  23.816  1.00  0.00     0.008 C 
HETATM   17  C13 UNL     1      40.201  33.932  24.387  1.00  0.00     0.006 C 
HETATM   18  C23 UNL     1      38.118  28.698  25.003  1.00  0.00     0.025 C 
HETATM   19  C24 UNL     1      39.651  29.318  26.652  1.00  0.00    -0.008 A 
HETATM   20  C28 UNL     1      37.773  30.780  26.125  1.00  0.00    -0.017 A 
HETATM   21  C25 UNL     1      39.424  29.441  27.926  1.00  0.00     0.052 A 
HETATM   22  C26 UNL     1      38.334  30.251  28.455  1.00  0.00     0.172 A 
HETATM   23  O3  UNL     1      38.088  30.384  29.664  1.00  0.00    -0.289 OA
HETATM   24  C27 UNL     1      37.547  30.900  27.413  1.00  0.00     0.062 A 
BRANCH   4  25
HETATM   25  O1  UNL     1      36.036  32.394  25.889  1.00  0.00    -0.373 OA
ATOM     26  H1  UNL     1      36.523  33.050  26.374  1.00  0.00     0.212 HD
ENDBRANCH   4  25
BRANCH   9  27
HETATM   27  O2  UNL     1      41.687  29.351  24.436  1.00  0.00    -0.392 OA
ATOM     28  H2  UNL     1      41.577  28.714  25.131  1.00  0.00     0.210 HD
ENDBRANCH   9  27
BRANCH  15  29
HETATM   29  C16 UNL     1      43.212  34.023  22.148  1.00  0.00     0.162 C 
HETATM   30  C17 UNL     1      43.917  35.168  22.896  1.00  0.00     0.049 C 
BRANCH  29  31
HETATM   31  C18 UNL     1      43.013  34.581  20.751  1.00  0.00     0.073 C 
BRANCH  31  32
HETATM   32  C19 UNL     1      43.028  36.042  20.577  1.00  0.00     0.224 C 
HETATM   33  F2  UNL     1      41.729  36.494  20.916  1.00  0.00    -0.255 F 
ENDBRANCH  31  32
ENDBRANCH  29  31
BRANCH  29  34
HETATM   34  N1  UNL     1      44.176  32.968  22.174  1.00  0.00     0.089 N 
HETATM   35  C20 UNL     1      44.958  32.768  20.971  1.00  0.00     0.310 C 
HETATM   36  C21 UNL     1      45.252  33.155  23.158  1.00  0.00     0.310 C 
ENDBRANCH  29  34
ENDBRANCH  15  29
ENDBRANCH   3   4
TORSDOF 7
ENDMDL
MODEL 2
REMARK VINA RESULT: -6.846032771      5.434      8.635
REMARK  7 active torsions:
REMARK  status: ('A' for Active; 'I' for Inactive)
REMARK    1  A    between atoms: C3_3  and  C4_4 
REMARK    2  A    between atoms: C4_4  and  O1_5 
REMARK    3  A    between atoms: C8_10  and  O2_11 
REMARK    4  A    between atoms: C15_20  and  C16_21 
REMARK    5  A    between atoms: C16_21  and  C18_23 
REMARK    6  A    between atoms: C16_21  and  N1_26 
REMARK    7  A    between atoms: C18_23  and  C19_24 
ROOT
HETATM    1  C1  UNL     1      35.506  27.041  20.262  1.00  0.00     0.112 C 
HETATM    2  C2  UNL     1      36.257  27.738  21.304  1.00  0.00    -0.108 C 
HETATM    3  C3  UNL     1      36.890  28.317  22.160  1.00  0.00    -0.064 C 
ENDROOT
BRANCH   3   4
HETATM    4  C4  UNL     1      37.672  28.986  23.136  1.00  0.00     0.146 C 
HETATM    5  C5  UNL     1      38.364  27.982  24.054  1.00  0.00     0.062 C 
HETATM    6  C6  UNL     1      37.394  27.227  24.941  1.00  0.00     0.002 C 
HETATM    7  C7  UNL     1      36.265  27.956  25.519  1.00  0.00     0.038 C 
HETATM    8  C12 UNL     1      38.253  26.447  25.865  1.00  0.00     0.002 C 
HETATM    9  C8  UNL     1      36.116  27.952  27.005  1.00  0.00     0.158 C 
HETATM   10  C22 UNL     1      35.931  29.332  24.971  1.00  0.00     0.008 A 
HETATM   11  C9  UNL     1      36.978  27.059  27.816  1.00  0.00     0.208 C 
HETATM   12  F1  UNL     1      37.816  27.834  28.604  1.00  0.00    -0.246 F 
HETATM   13  C10 UNL     1      37.569  25.924  27.137  1.00  0.00    -0.001 C 
HETATM   14  C11 UNL     1      36.473  25.013  26.590  1.00  0.00     0.019 C 
HETATM   15  C15 UNL     1      38.733  25.193  27.638  1.00  0.00     0.035 C 
HETATM   16  C14 UNL     1      39.819  26.248  27.593  1.00  0.00     0.008 C 
HETATM   17  C13 UNL     1      39.442  27.160  26.436  1.00  0.00     0.006 C 
HETATM   18  C23 UNL     1      34.715  29.100  23.985  1.00  0.00     0.025 C 
HETATM   19  C24 UNL     1      35.355  30.279  25.896  1.00  0.00    -0.008 A 
HETATM   20  C28 UNL     1      36.972  29.875  24.117  1.00  0.00    -0.017 A 
HETATM   21  C25 UNL     1      35.703  31.529  25.964  1.00  0.00     0.052 A 
HETATM   22  C26 UNL     1      36.731  32.107  25.108  1.00  0.00     0.172 A 
HETATM   23  O3  UNL     1      37.081  33.297  25.145  1.00  0.00    -0.289 OA
HETATM   24  C27 UNL     1      37.319  31.139  24.190  1.00  0.00     0.062 A 
BRANCH   4  25
HETATM   25  O1  UNL     1      38.762  29.697  22.555  1.00  0.00    -0.373 OA
ATOM     26  H1  UNL     1      39.584  29.231  22.648  1.00  0.00     0.212 HD
ENDBRANCH   4  25
BRANCH   9  27
HETATM   27  O2  UNL     1      34.758  27.739  27.396  1.00  0.00    -0.392 OA
ATOM     28  H2  UNL     1      34.657  27.768  28.339  1.00  0.00     0.210 HD
ENDBRANCH   9  27
BRANCH  15  29
HETATM   29  C16 UNL     1      38.759  24.398  28.883  1.00  0.00     0.162 C 
HETATM   30  C17 UNL     1      40.073  24.504  29.676  1.00  0.00     0.049 C 
BRANCH  29  31
HETATM   31  C18 UNL     1      38.733  22.949  28.430  1.00  0.00     0.073 C 
BRANCH  31  32
HETATM   32  C19 UNL     1      39.328  22.618  27.126  1.00  0.00     0.224 C 
HETATM   33  F2  UNL     1      38.261  22.172  26.307  1.00  0.00    -0.255 F 
ENDBRANCH  31  32
ENDBRANCH  29  31
BRANCH  29  34
HETATM   34  N1  UNL     1      37.758  24.672  29.865  1.00  0.00     0.089 N 
HETATM   35  C20 UNL     1      36.755  23.647  30.081  1.00  0.00     0.310 C 
HETATM   36  C21 UNL     1      38.276  24.822  31.233  1.00  0.00     0.310 C 
ENDBRANCH  29  34
ENDBRANCH  15  29
ENDBRANCH   3   4
TORSDOF 7
ENDMDL
MODEL 3
REMARK VINA RESULT: -6.713587564      1.128      1.681
REMARK  7 active torsions:
REMARK  status: ('A' for Active; 'I' for Inactive)
REMARK    1  A    between atoms: C3_3  and  C4_4 
REMARK    2  A    between atoms: C4_4  and  O1_5 
REMARK    3  A    between atoms: C8_10  and  O2_11 
REMARK    4  A    between atoms: C15_20  and  C16_21 
REMARK    5  A    between atoms: C16_21  and  C18_23 
REMARK    6  A    between atoms: C16_21  and  N1_26 
REMARK    7  A    between atoms: C18_23  and  C19_24 
ROOT
HETATM    1  C1  UNL     1      34.798  29.358  22.376  1.00  0.00     0.112 C 
HETATM    2  C2  UNL     1      35.570  30.117  23.358  1.00  0.00    -0.108 C 
HETATM    3  C3  UNL     1      36.198  30.750  24.178  1.00  0.00    -0.064 C 
ENDROOT
BRANCH   3   4
HETATM    4  C4  UNL     1      36.892  31.512  25.152  1.00  0.00     0.146 C 
HETATM    5  C5  UNL     1      37.869  32.477  24.488  1.00  0.00     0.062 C 
HETATM    6  C6  UNL     1      39.025  31.772  23.807  1.00  0.00     0.002 C 
HETATM    7  C7  UNL     1      39.619  30.609  24.467  1.00  0.00     0.038 C 
HETATM    8  C12 UNL     1      39.939  32.861  23.384  1.00  0.00     0.002 C 
HETATM    9  C8  UNL     1      41.082  30.643  24.765  1.00  0.00     0.158 C 
HETATM   10  C22 UNL     1      38.872  29.971  25.626  1.00  0.00     0.008 A 
HETATM   11  C9  UNL     1      41.907  31.743  24.209  1.00  0.00     0.208 C 
HETATM   12  F1  UNL     1      42.389  32.518  25.253  1.00  0.00    -0.246 F 
HETATM   13  C10 UNL     1      41.378  32.440  23.054  1.00  0.00    -0.001 C 
HETATM   14  C11 UNL     1      41.196  31.466  21.893  1.00  0.00     0.019 C 
HETATM   15  C15 UNL     1      41.825  33.768  22.632  1.00  0.00     0.035 C 
HETATM   16  C14 UNL     1      41.407  34.635  23.802  1.00  0.00     0.008 C 
HETATM   17  C13 UNL     1      40.168  33.964  24.374  1.00  0.00     0.006 C 
HETATM   18  C23 UNL     1      38.151  28.706  25.006  1.00  0.00     0.025 C 
HETATM   19  C24 UNL     1      39.674  29.352  26.655  1.00  0.00    -0.008 A 
HETATM   20  C28 UNL     1      37.778  30.788  26.120  1.00  0.00    -0.017 A 
HETATM   21  C25 UNL     1      39.443  29.477  27.928  1.00  0.00     0.052 A 
HETATM   22  C26 UNL     1      38.341  30.275  28.452  1.00  0.00     0.172 A 
HETATM   23  O3  UNL     1      38.092  30.409  29.660  1.00  0.00    -0.289 OA
HETATM   24  C27 UNL     1      37.549  30.910  27.407  1.00  0.00     0.062 A 
BRANCH   4  25
HETATM   25  O1  UNL     1      36.021  32.379  25.875  1.00  0.00    -0.373 OA
ATOM     26  H1  UNL     1      36.254  32.434  26.794  1.00  0.00     0.212 HD
ENDBRANCH   4  25
BRANCH   9  27
HETATM   27  O2  UNL     1      41.712  29.402  24.442  1.00  0.00    -0.392 OA
ATOM     28  H2  UNL     1      42.050  28.970  25.217  1.00  0.00     0.210 HD
ENDBRANCH   9  27
BRANCH  15  29
HETATM   29  C16 UNL     1      43.182  34.085  22.139  1.00  0.00     0.162 C 
HETATM   30  C17 UNL     1      44.138  32.881  22.099  1.00  0.00     0.049 C 
BRANCH  29  31
HETATM   31  C18 UNL     1      43.789  34.985  23.199  1.00  0.00     0.073 C 
BRANCH  31  32
HETATM   32  C19 UNL     1      44.985  34.511  23.912  1.00  0.00     0.224 C 
HETATM   33  F2  UNL     1      44.623  34.427  25.279  1.00  0.00    -0.255 F 
ENDBRANCH  31  32
ENDBRANCH  29  31
BRANCH  29  34
HETATM   34  N1  UNL     1      43.298  34.642  20.828  1.00  0.00     0.089 N 
HETATM   35  C20 UNL     1      42.536  34.001  19.776  1.00  0.00     0.310 C 
HETATM   36  C21 UNL     1      42.799  36.020  20.710  1.00  0.00     0.310 C 
ENDBRANCH  29  34
ENDBRANCH  15  29
ENDBRANCH   3   4
TORSDOF 7
ENDMDL
MODEL 4
REMARK VINA RESULT: -6.687213330      3.045      7.613
REMARK  7 active torsions:
REMARK  status: ('A' for Active; 'I' for Inactive)
REMARK    1  A    between atoms: C3_3  and  C4_4 
REMARK    2  A    between atoms: C4_4  and  O1_5 
REMARK    3  A    between atoms: C8_10  and  O2_11 
REMARK    4  A    between atoms: C15_20  and  C16_21 
REMARK    5  A    between atoms: C16_21  and  C18_23 
REMARK    6  A    between atoms: C16_21  and  N1_26 
REMARK    7  A    between atoms: C18_23  and  C19_24 
ROOT
HETATM    1  C1  UNL     1      45.340  36.542  25.969  1.00  0.00     0.112 C 
HETATM    2  C2  UNL     1      44.272  36.269  25.010  1.00  0.00    -0.108 C 
HETATM    3  C3  UNL     1      43.380  36.053  24.219  1.00  0.00    -0.064 C 
ENDROOT
BRANCH   3   4
HETATM    4  C4  UNL     1      42.304  35.825  23.324  1.00  0.00     0.146 C 
HETATM    5  C5  UNL     1      41.172  35.074  24.019  1.00  0.00     0.062 C 
HETATM    6  C6  UNL     1      41.544  33.649  24.381  1.00  0.00     0.002 C 
HETATM    7  C7  UNL     1      42.342  32.874  23.432  1.00  0.00     0.038 C 
HETATM    8  C12 UNL     1      40.283  33.042  24.875  1.00  0.00     0.002 C 
HETATM    9  C8  UNL     1      41.786  31.576  22.944  1.00  0.00     0.158 C 
HETATM   10  C22 UNL     1      43.023  33.605  22.288  1.00  0.00     0.008 A 
HETATM   11  C9  UNL     1      40.564  31.028  23.581  1.00  0.00     0.208 C 
HETATM   12  F1  UNL     1      39.537  31.015  22.650  1.00  0.00    -0.246 F 
HETATM   13  C10 UNL     1      40.248  31.507  24.912  1.00  0.00    -0.001 C 
HETATM   14  C11 UNL     1      41.378  31.157  25.876  1.00  0.00     0.019 C 
HETATM   15  C15 UNL     1      38.919  31.407  25.517  1.00  0.00     0.035 C 
HETATM   16  C14 UNL     1      38.085  32.286  24.607  1.00  0.00     0.008 C 
HETATM   17  C13 UNL     1      39.041  33.352  24.095  1.00  0.00     0.006 C 
HETATM   18  C23 UNL     1      44.529  33.776  22.746  1.00  0.00     0.025 C 
HETATM   19  C24 UNL     1      43.195  32.871  21.056  1.00  0.00    -0.008 A 
HETATM   20  C28 UNL     1      42.553  34.968  22.121  1.00  0.00    -0.017 A 
HETATM   21  C25 UNL     1      42.978  33.372  19.877  1.00  0.00     0.052 A 
HETATM   22  C26 UNL     1      42.523  34.742  19.677  1.00  0.00     0.172 A 
HETATM   23  O3  UNL     1      42.313  35.251  18.565  1.00  0.00    -0.289 OA
HETATM   24  C27 UNL     1      42.337  35.470  20.927  1.00  0.00     0.062 A 
BRANCH   4  25
HETATM   25  O1  UNL     1      41.681  37.039  22.913  1.00  0.00    -0.373 OA
ATOM     26  H1  UNL     1      41.861  37.242  22.003  1.00  0.00     0.212 HD
ENDBRANCH   4  25
BRANCH   9  27
HETATM   27  O2  UNL     1      42.782  30.551  22.929  1.00  0.00    -0.392 OA
ATOM     28  H2  UNL     1      42.471  29.770  22.488  1.00  0.00     0.210 HD
ENDBRANCH   9  27
BRANCH  15  29
HETATM   29  C16 UNL     1      38.244  30.140  25.866  1.00  0.00     0.162 C 
HETATM   30  C17 UNL     1      37.189  29.682  24.844  1.00  0.00     0.049 C 
BRANCH  29  31
HETATM   31  C18 UNL     1      37.425  30.455  27.104  1.00  0.00     0.073 C 
BRANCH  31  32
HETATM   32  C19 UNL     1      35.959  30.486  26.979  1.00  0.00     0.224 C 
HETATM   33  F2  UNL     1      35.602  31.851  26.859  1.00  0.00    -0.255 F 
ENDBRANCH  31  32
ENDBRANCH  29  31
BRANCH  29  34
HETATM   34  N1  UNL     1      39.060  28.980  26.040  1.00  0.00     0.089 N 
HETATM   35  C20 UNL     1      39.028  28.349  27.345  1.00  0.00     0.310 C 
HETATM   36  C21 UNL     1      38.684  27.841  25.190  1.00  0.00     0.310 C 
ENDBRANCH  29  34
ENDBRANCH  15  29
ENDBRANCH   3   4
TORSDOF 7
ENDMDL
MODEL 5
REMARK VINA RESULT: -6.623916272      5.492      8.524
REMARK  7 active torsions:
REMARK  status: ('A' for Active; 'I' for Inactive)
REMARK    1  A    between atoms: C3_3  and  C4_4 
REMARK    2  A    between atoms: C4_4  and  O1_5 
REMARK    3  A    between atoms: C8_10  and  O2_11 
REMARK    4  A    between atoms: C15_20  and  C16_21 
REMARK    5  A    between atoms: C16_21  and  C18_23 
REMARK    6  A    between atoms: C16_21  and  N1_26 
REMARK    7  A    between atoms: C18_23  and  C19_24 
ROOT
HETATM    1  C1  UNL     1      35.509  26.989  20.249  1.00  0.00     0.112 C 
HETATM    2  C2  UNL     1      36.265  27.667  21.300  1.00  0.00    -0.108 C 
HETATM    3  C3  UNL     1      36.895  28.240  22.163  1.00  0.00    -0.064 C 
ENDROOT
BRANCH   3   4
HETATM    4  C4  UNL     1      37.655  28.935  23.137  1.00  0.00     0.146 C 
HETATM    5  C5  UNL     1      38.394  27.957  24.046  1.00  0.00     0.062 C 
HETATM    6  C6  UNL     1      37.461  27.157  24.934  1.00  0.00     0.002 C 
HETATM    7  C7  UNL     1      36.307  27.836  25.524  1.00  0.00     0.038 C 
HETATM    8  C12 UNL     1      38.358  26.409  25.849  1.00  0.00     0.002 C 
HETATM    9  C8  UNL     1      36.168  27.819  27.010  1.00  0.00     0.158 C 
HETATM   10  C22 UNL     1      35.913  29.199  24.985  1.00  0.00     0.008 A 
HETATM   11  C9  UNL     1      37.072  26.958  27.811  1.00  0.00     0.208 C 
HETATM   12  F1  UNL     1      37.882  27.763  28.598  1.00  0.00    -0.246 F 
HETATM   13  C10 UNL     1      37.705  25.852  27.122  1.00  0.00    -0.001 C 
HETATM   14  C11 UNL     1      36.644  24.898  26.578  1.00  0.00     0.019 C 
HETATM   15  C15 UNL     1      38.901  25.167  27.611  1.00  0.00     0.035 C 
HETATM   16  C14 UNL     1      39.943  26.267  27.565  1.00  0.00     0.008 C 
HETATM   17  C13 UNL     1      39.521  27.168  26.416  1.00  0.00     0.006 C 
HETATM   18  C23 UNL     1      34.701  28.922  24.005  1.00  0.00     0.025 C 
HETATM   19  C24 UNL     1      35.304  30.117  25.919  1.00  0.00    -0.008 A 
HETATM   20  C28 UNL     1      36.925  29.790  24.128  1.00  0.00    -0.017 A 
HETATM   21  C25 UNL     1      35.600  31.381  25.992  1.00  0.00     0.052 A 
HETATM   22  C26 UNL     1      36.598  32.005  25.132  1.00  0.00     0.172 A 
HETATM   23  O3  UNL     1      36.899  33.208  25.174  1.00  0.00    -0.289 OA
HETATM   24  C27 UNL     1      37.219  31.067  24.205  1.00  0.00     0.062 A 
BRANCH   4  25
HETATM   25  O1  UNL     1      38.710  29.694  22.553  1.00  0.00    -0.373 OA
ATOM     26  H1  UNL     1      39.148  30.246  23.189  1.00  0.00     0.212 HD
ENDBRANCH   4  25
BRANCH   9  27
HETATM   27  O2  UNL     1      34.822  27.547  27.408  1.00  0.00    -0.392 OA
ATOM     28  H2  UNL     1      34.554  28.100  28.133  1.00  0.00     0.210 HD
ENDBRANCH   9  27
BRANCH  15  29
HETATM   29  C16 UNL     1      38.968  24.367  28.852  1.00  0.00     0.162 C 
HETATM   30  C17 UNL     1      37.789  24.591  29.814  1.00  0.00     0.049 C 
BRANCH  29  31
HETATM   31  C18 UNL     1      40.159  24.917  29.616  1.00  0.00     0.073 C 
BRANCH  31  32
HETATM   32  C19 UNL     1      40.012  25.143  31.062  1.00  0.00     0.224 C 
HETATM   33  F2  UNL     1      40.837  26.252  31.374  1.00  0.00    -0.255 F 
ENDBRANCH  31  32
ENDBRANCH  29  31
BRANCH  29  34
HETATM   34  N1  UNL     1      39.022  22.945  28.722  1.00  0.00     0.089 N 
HETATM   35  C20 UNL     1      37.785  22.221  28.935  1.00  0.00     0.310 C 
HETATM   36  C21 UNL     1      39.373  22.473  27.374  1.00  0.00     0.310 C 
ENDBRANCH  29  34
ENDBRANCH  15  29
ENDBRANCH   3   4
TORSDOF 7
ENDMDL
