MODEL 1
REMARK VINA RESULT: -8.150357786      0.000      0.000
REMARK  5 active torsions:
REMARK  status: ('A' for Active; 'I' for Inactive)
REMARK    1  A    between atoms: C1_2  and  C2_3 
REMARK       I    between atoms: C1_2  and  N3_11 
REMARK    2  A    between atoms: C2_3  and  C3_4 
REMARK    3  A    between atoms: N3_11  and  C6_13 
REMARK    4  A    between atoms: C8_18  and  C9_19 
REMARK    5  A    between atoms: C9_19  and  C10_21 
ROOT
HETATM    1  C6  UNL     1      33.116  29.781  23.428  1.00  0.00     0.152 A 
HETATM    2  N4  UNL     1      32.521  29.971  24.610  1.00  0.00    -0.329 N 
ATOM      3  H4  UNL     1      31.512  29.862  24.710  1.00  0.00     0.168 HD
HETATM    4  C7  UNL     1      33.262  30.297  25.631  1.00  0.00     0.103 A 
HETATM    5 BR1  UNL     1      32.522  30.613  27.398  1.00  0.00    -0.030 Br
HETATM    6  C8  UNL     1      34.607  30.427  25.436  1.00  0.00     0.093 A 
HETATM    7  S1  UNL     1      34.761  30.072  23.776  1.00  0.00    -0.047 SA
ENDROOT
BRANCH   1   8
HETATM    8  N3  UNL     1      32.552  29.449  22.286  1.00  0.00    -0.307 N 
HETATM    9  C1  UNL     1      33.211  29.873  21.097  1.00  0.00     0.229 C 
HETATM   10  O1  UNL     1      33.883  29.097  20.383  1.00  0.00    -0.273 OA
ATOM     11  H3  UNL     1      31.684  28.914  22.255  1.00  0.00     0.171 HD
BRANCH   9  12
HETATM   12  C2  UNL     1      33.103  31.292  20.678  1.00  0.00     0.161 C 
BRANCH  12  13
HETATM   13  C3  UNL     1      32.100  31.455  19.611  1.00  0.00     0.034 A 
HETATM   14  C4  UNL     1      31.828  32.679  19.003  1.00  0.00     0.114 A 
HETATM   15  N1  UNL     1      30.877  32.460  18.092  1.00  0.00    -0.360 N 
HETATM   16  C5  UNL     1      30.562  31.158  18.120  1.00  0.00     0.180 A 
ATOM     17  H1  UNL     1      30.462  33.163  17.480  1.00  0.00     0.166 HD
HETATM   18  N2  UNL     1      31.297  30.547  19.037  1.00  0.00    -0.354 N 
ATOM     19  H2  UNL     1      31.259  29.554  19.267  1.00  0.00     0.166 HD
ENDBRANCH  12  13
ENDBRANCH   9  12
ENDBRANCH   1   8
BRANCH   6  20
HETATM   20  C9  UNL     1      35.689  30.767  26.367  1.00  0.00     0.203 C 
HETATM   21  O2  UNL     1      35.647  31.882  26.990  1.00  0.00    -0.286 OA
BRANCH  20  22
HETATM   22  C10 UNL     1      36.802  29.900  26.616  1.00  0.00     0.033 A 
HETATM   23  C11 UNL     1      36.674  28.777  27.398  1.00  0.00     0.017 A 
HETATM   24  C12 UNL     1      37.708  27.907  27.660  1.00  0.00     0.001 A 
HETATM   25  C13 UNL     1      38.932  28.194  27.099  1.00  0.00     0.001 A 
HETATM   26  C14 UNL     1      39.096  29.331  26.297  1.00  0.00     0.020 A 
HETATM   27  C15 UNL     1      38.033  30.170  26.064  1.00  0.00     0.025 A 
HETATM   28 BR2  UNL     1      38.340  31.715  24.966  1.00  0.00    -0.050 Br
ENDBRANCH  20  22
ENDBRANCH   6  20
TORSDOF 5
ENDMDL
MODEL 2
REMARK VINA RESULT: -7.897801490      1.158      1.532
REMARK  5 active torsions:
REMARK  status: ('A' for Active; 'I' for Inactive)
REMARK    1  A    between atoms: C1_2  and  C2_3 
REMARK       I    between atoms: C1_2  and  N3_11 
REMARK    2  A    between atoms: C2_3  and  C3_4 
REMARK    3  A    between atoms: N3_11  and  C6_13 
REMARK    4  A    between atoms: C8_18  and  C9_19 
REMARK    5  A    between atoms: C9_19  and  C10_21 
ROOT
HETATM    1  C6  UNL     1      33.101  29.816  23.389  1.00  0.00     0.152 A 
HETATM    2  N4  UNL     1      32.521  29.972  24.583  1.00  0.00    -0.329 N 
ATOM      3  H4  UNL     1      31.517  29.831  24.699  1.00  0.00     0.168 HD
HETATM    4  C7  UNL     1      33.269  30.308  25.596  1.00  0.00     0.103 A 
HETATM    5 BR1  UNL     1      32.549  30.579  27.379  1.00  0.00    -0.030 Br
HETATM    6  C8  UNL     1      34.605  30.482  25.381  1.00  0.00     0.093 A 
HETATM    7  S1  UNL     1      34.743  30.153  23.713  1.00  0.00    -0.047 SA
ENDROOT
BRANCH   1   8
HETATM    8  N3  UNL     1      32.528  29.481  22.253  1.00  0.00    -0.307 N 
HETATM    9  C1  UNL     1      33.174  29.909  21.058  1.00  0.00     0.229 C 
HETATM   10  O1  UNL     1      33.844  29.136  20.337  1.00  0.00    -0.273 OA
ATOM     11  H3  UNL     1      31.663  28.941  22.229  1.00  0.00     0.171 HD
BRANCH   9  12
HETATM   12  C2  UNL     1      33.054  31.327  20.640  1.00  0.00     0.161 C 
BRANCH  12  13
HETATM   13  C3  UNL     1      32.047  31.483  19.576  1.00  0.00     0.034 A 
HETATM   14  C4  UNL     1      31.774  32.704  18.960  1.00  0.00     0.114 A 
HETATM   15  N1  UNL     1      30.820  32.479  18.054  1.00  0.00    -0.360 N 
HETATM   16  C5  UNL     1      30.503  31.176  18.092  1.00  0.00     0.180 A 
ATOM     17  H1  UNL     1      30.403  33.177  17.439  1.00  0.00     0.166 HD
HETATM   18  N2  UNL     1      31.242  30.571  19.011  1.00  0.00    -0.354 N 
ATOM     19  H2  UNL     1      31.204  29.580  19.248  1.00  0.00     0.166 HD
ENDBRANCH  12  13
ENDBRANCH   9  12
ENDBRANCH   1   8
BRANCH   6  20
HETATM   20  C9  UNL     1      35.692  30.844  26.298  1.00  0.00     0.203 C 
HETATM   21  O2  UNL     1      35.463  31.683  27.234  1.00  0.00    -0.286 OA
BRANCH  20  22
HETATM   22  C10 UNL     1      37.012  30.296  26.196  1.00  0.00     0.033 A 
HETATM   23  C11 UNL     1      38.078  31.067  25.799  1.00  0.00     0.017 A 
HETATM   24  C12 UNL     1      39.366  30.594  25.694  1.00  0.00     0.001 A 
HETATM   25  C13 UNL     1      39.579  29.269  26.008  1.00  0.00     0.001 A 
HETATM   26  C14 UNL     1      38.514  28.456  26.415  1.00  0.00     0.020 A 
HETATM   27  C15 UNL     1      37.245  28.976  26.505  1.00  0.00     0.025 A 
HETATM   28 BR2  UNL     1      35.835  27.795  27.057  1.00  0.00    -0.050 Br
ENDBRANCH  20  22
ENDBRANCH   6  20
TORSDOF 5
ENDMDL
MODEL 3
REMARK VINA RESULT: -7.889530945      1.286      1.909
REMARK  5 active torsions:
REMARK  status: ('A' for Active; 'I' for Inactive)
REMARK    1  A    between atoms: C1_2  and  C2_3 
REMARK       I    between atoms: C1_2  and  N3_11 
REMARK    2  A    between atoms: C2_3  and  C3_4 
REMARK    3  A    between atoms: N3_11  and  C6_13 
REMARK    4  A    between atoms: C8_18  and  C9_19 
REMARK    5  A    between atoms: C9_19  and  C10_21 
ROOT
HETATM    1  C6  UNL     1      33.100  29.910  23.372  1.00  0.00     0.152 A 
HETATM    2  N4  UNL     1      32.534  29.982  24.581  1.00  0.00    -0.329 N 
ATOM      3  H4  UNL     1      31.561  29.713  24.719  1.00  0.00     0.168 HD
HETATM    4  C7  UNL     1      33.258  30.406  25.579  1.00  0.00     0.103 A 
HETATM    5 BR1  UNL     1      32.554  30.571  27.381  1.00  0.00    -0.030 Br
HETATM    6  C8  UNL     1      34.555  30.751  25.333  1.00  0.00     0.093 A 
HETATM    7  S1  UNL     1      34.692  30.453  23.660  1.00  0.00    -0.047 SA
ENDROOT
BRANCH   1   8
HETATM    8  N3  UNL     1      32.547  29.511  22.247  1.00  0.00    -0.307 N 
HETATM    9  C1  UNL     1      33.212  29.873  21.041  1.00  0.00     0.229 C 
HETATM   10  O1  UNL     1      33.895  29.062  20.376  1.00  0.00    -0.273 OA
ATOM     11  H3  UNL     1      31.683  28.969  22.239  1.00  0.00     0.171 HD
BRANCH   9  12
HETATM   12  C2  UNL     1      33.099  31.266  20.543  1.00  0.00     0.161 C 
BRANCH  12  13
HETATM   13  C3  UNL     1      32.030  31.383  19.535  1.00  0.00     0.034 A 
HETATM   14  C4  UNL     1      31.683  32.590  18.932  1.00  0.00     0.114 A 
HETATM   15  N1  UNL     1      30.688  32.330  18.081  1.00  0.00    -0.360 N 
HETATM   16  C5  UNL     1      30.417  31.018  18.141  1.00  0.00     0.180 A 
ATOM     17  H1  UNL     1      30.215  33.011  17.487  1.00  0.00     0.166 HD
HETATM   18  N2  UNL     1      31.225  30.442  19.019  1.00  0.00    -0.354 N 
ATOM     19  H2  UNL     1      31.233  29.452  19.262  1.00  0.00     0.166 HD
ENDBRANCH  12  13
ENDBRANCH   9  12
ENDBRANCH   1   8
BRANCH   6  20
HETATM   20  C9  UNL     1      35.609  31.244  26.228  1.00  0.00     0.203 C 
HETATM   21  O2  UNL     1      35.303  31.586  27.421  1.00  0.00    -0.286 OA
BRANCH  20  22
HETATM   22  C10 UNL     1      36.979  31.361  25.826  1.00  0.00     0.033 A 
HETATM   23  C11 UNL     1      37.419  32.431  25.083  1.00  0.00     0.017 A 
HETATM   24  C12 UNL     1      38.724  32.596  24.680  1.00  0.00     0.001 A 
HETATM   25  C13 UNL     1      39.627  31.625  25.051  1.00  0.00     0.001 A 
HETATM   26  C14 UNL     1      39.212  30.522  25.808  1.00  0.00     0.020 A 
HETATM   27  C15 UNL     1      37.896  30.402  26.187  1.00  0.00     0.025 A 
HETATM   28 BR2  UNL     1      37.401  28.854  27.212  1.00  0.00    -0.050 Br
ENDBRANCH  20  22
ENDBRANCH   6  20
TORSDOF 5
ENDMDL
MODEL 4
REMARK VINA RESULT: -7.704508435      1.385      1.569
REMARK  5 active torsions:
REMARK  status: ('A' for Active; 'I' for Inactive)
REMARK    1  A    between atoms: C1_2  and  C2_3 
REMARK       I    between atoms: C1_2  and  N3_11 
REMARK    2  A    between atoms: C2_3  and  C3_4 
REMARK    3  A    between atoms: N3_11  and  C6_13 
REMARK    4  A    between atoms: C8_18  and  C9_19 
REMARK    5  A    between atoms: C9_19  and  C10_21 
ROOT
HETATM    1  C6  UNL     1      33.891  29.237  22.872  1.00  0.00     0.152 A 
HETATM    2  N4  UNL     1      33.373  29.432  24.088  1.00  0.00    -0.329 N 
ATOM      3  H4  UNL     1      32.481  29.013  24.349  1.00  0.00     0.168 HD
HETATM    4  C7  UNL     1      34.036  30.171  24.933  1.00  0.00     0.103 A 
HETATM    5 BR1  UNL     1      33.388  30.542  26.726  1.00  0.00    -0.030 Br
HETATM    6  C8  UNL     1      35.225  30.705  24.527  1.00  0.00     0.093 A 
HETATM    7  S1  UNL     1      35.350  30.121  22.930  1.00  0.00    -0.047 SA
ENDROOT
BRANCH   1   8
HETATM    8  N3  UNL     1      33.384  28.531  21.884  1.00  0.00    -0.307 N 
HETATM    9  C1  UNL     1      33.026  29.242  20.703  1.00  0.00     0.229 C 
HETATM   10  O1  UNL     1      33.719  29.217  19.663  1.00  0.00    -0.273 OA
ATOM     11  H3  UNL     1      33.254  27.522  21.961  1.00  0.00     0.171 HD
BRANCH   9  12
HETATM   12  C2  UNL     1      31.781  30.049  20.695  1.00  0.00     0.161 C 
BRANCH  12  13
HETATM   13  C3  UNL     1      31.990  31.339  20.016  1.00  0.00     0.034 A 
HETATM   14  C4  UNL     1      31.247  31.745  18.908  1.00  0.00     0.114 A 
HETATM   15  N1  UNL     1      31.698  32.951  18.557  1.00  0.00    -0.360 N 
HETATM   16  C5  UNL     1      32.680  33.295  19.401  1.00  0.00     0.180 A 
ATOM     17  H1  UNL     1      31.354  33.515  17.779  1.00  0.00     0.166 HD
HETATM   18  N2  UNL     1      32.861  32.324  20.284  1.00  0.00    -0.354 N 
ATOM     19  H2  UNL     1      33.546  32.324  21.039  1.00  0.00     0.166 HD
ENDBRANCH  12  13
ENDBRANCH   9  12
ENDBRANCH   1   8
BRANCH   6  20
HETATM   20  C9  UNL     1      36.192  31.554  25.231  1.00  0.00     0.203 C 
HETATM   21  O2  UNL     1      36.120  32.823  25.100  1.00  0.00    -0.286 OA
BRANCH  20  22
HETATM   22  C10 UNL     1      37.226  31.024  26.071  1.00  0.00     0.033 A 
HETATM   23  C11 UNL     1      36.979  30.678  27.378  1.00  0.00     0.017 A 
HETATM   24  C12 UNL     1      37.932  30.157  28.223  1.00  0.00     0.001 A 
HETATM   25  C13 UNL     1      39.199  29.978  27.712  1.00  0.00     0.001 A 
HETATM   26  C14 UNL     1      39.483  30.320  26.384  1.00  0.00     0.020 A 
HETATM   27  C15 UNL     1      38.497  30.838  25.579  1.00  0.00     0.025 A 
HETATM   28 BR2  UNL     1      38.968  31.296  23.774  1.00  0.00    -0.050 Br
ENDBRANCH  20  22
ENDBRANCH   6  20
TORSDOF 5
ENDMDL
MODEL 5
REMARK VINA RESULT: -7.469532420      2.808      3.830
REMARK  5 active torsions:
REMARK  status: ('A' for Active; 'I' for Inactive)
REMARK    1  A    between atoms: C1_2  and  C2_3 
REMARK       I    between atoms: C1_2  and  N3_11 
REMARK    2  A    between atoms: C2_3  and  C3_4 
REMARK    3  A    between atoms: N3_11  and  C6_13 
REMARK    4  A    between atoms: C8_18  and  C9_19 
REMARK    5  A    between atoms: C9_19  and  C10_21 
ROOT
HETATM    1  C6  UNL     1      34.581  28.692  21.647  1.00  0.00     0.152 A 
HETATM    2  N4  UNL     1      35.708  28.063  21.300  1.00  0.00    -0.329 N 
ATOM      3  H4  UNL     1      35.723  27.414  20.514  1.00  0.00     0.168 HD
HETATM    4  C7  UNL     1      36.787  28.299  21.992  1.00  0.00     0.103 A 
HETATM    5 BR1  UNL     1      38.485  27.441  21.600  1.00  0.00    -0.030 Br
HETATM    6  C8  UNL     1      36.706  29.178  23.033  1.00  0.00     0.093 A 
HETATM    7  S1  UNL     1      35.065  29.639  22.982  1.00  0.00    -0.047 SA
ENDROOT
BRANCH   1   8
HETATM    8  N3  UNL     1      33.396  28.593  21.082  1.00  0.00    -0.307 N 
HETATM    9  C1  UNL     1      33.130  29.468  19.991  1.00  0.00     0.229 C 
HETATM   10  O1  UNL     1      33.144  29.087  18.800  1.00  0.00    -0.273 OA
ATOM     11  H3  UNL     1      32.702  27.921  21.411  1.00  0.00     0.171 HD
BRANCH   9  12
HETATM   12  C2  UNL     1      32.822  30.893  20.266  1.00  0.00     0.161 C 
BRANCH  12  13
HETATM   13  C3  UNL     1      31.752  31.385  19.380  1.00  0.00     0.034 A 
HETATM   14  C4  UNL     1      31.725  32.680  18.867  1.00  0.00     0.114 A 
HETATM   15  N1  UNL     1      30.627  32.778  18.114  1.00  0.00    -0.360 N 
HETATM   16  C5  UNL     1      29.989  31.600  18.147  1.00  0.00     0.180 A 
ATOM     17  H1  UNL     1      30.326  33.607  17.601  1.00  0.00     0.166 HD
HETATM   18  N2  UNL     1      30.664  30.755  18.911  1.00  0.00    -0.354 N 
ATOM     19  H2  UNL     1      30.402  29.790  19.110  1.00  0.00     0.166 HD
ENDBRANCH  12  13
ENDBRANCH   9  12
ENDBRANCH   1   8
BRANCH   6  20
HETATM   20  C9  UNL     1      37.724  29.652  23.977  1.00  0.00     0.203 C 
HETATM   21  O2  UNL     1      37.905  29.016  25.070  1.00  0.00    -0.286 OA
BRANCH  20  22
HETATM   22  C10 UNL     1      38.536  30.807  23.730  1.00  0.00     0.033 A 
HETATM   23  C11 UNL     1      39.694  30.723  22.994  1.00  0.00     0.017 A 
HETATM   24  C12 UNL     1      40.504  31.801  22.719  1.00  0.00     0.001 A 
HETATM   25  C13 UNL     1      40.116  33.025  23.218  1.00  0.00     0.001 A 
HETATM   26  C14 UNL     1      38.942  33.145  23.971  1.00  0.00     0.020 A 
HETATM   27  C15 UNL     1      38.166  32.038  24.219  1.00  0.00     0.025 A 
HETATM   28 BR2  UNL     1      36.578  32.280  25.272  1.00  0.00    -0.050 Br
ENDBRANCH  20  22
ENDBRANCH   6  20
TORSDOF 5
ENDMDL
