MODEL 1
REMARK VINA RESULT: -8.968874697      0.000      0.000
REMARK  6 active torsions:
REMARK  status: ('A' for Active; 'I' for Inactive)
REMARK    1  A    between atoms: C2_2  and  O2_4 
REMARK    2  A    between atoms: O2_4  and  C3_5 
REMARK    3  A    between atoms: C5_7  and  C6_8 
REMARK    4  A    between atoms: C15_22  and  C16_23 
REMARK    5  A    between atoms: C16_23  and  C17_25 
REMARK    6  A    between atoms: C17_25  and  C18_28 
ROOT
HETATM    1  C3  UNL     1      36.200  30.078  24.377  1.00  0.00     0.200 C 
HETATM    2  C4  UNL     1      35.342  30.254  23.124  1.00  0.00     0.043 C 
HETATM    3  C5  UNL     1      34.565  31.272  22.916  1.00  0.00     0.045 C 
HETATM    4  C14 UNL     1      35.657  29.052  22.394  1.00  0.00     0.251 C 
HETATM    5  O3  UNL     1      34.929  28.585  21.474  1.00  0.00    -0.268 OA
HETATM    6  N2  UNL     1      36.894  28.512  22.886  1.00  0.00    -0.343 N 
ATOM      7  H2  UNL     1      37.276  27.575  22.756  1.00  0.00     0.163 HD
HETATM    8  C15 UNL     1      37.476  29.655  23.632  1.00  0.00     0.193 C 
ENDROOT
BRANCH   1   9
HETATM    9  O2  UNL     1      35.600  29.004  25.050  1.00  0.00    -0.309 OA
BRANCH   9  10
HETATM   10  C2  UNL     1      35.127  29.025  26.346  1.00  0.00     0.255 C 
HETATM   11  C1  UNL     1      34.211  30.137  26.790  1.00  0.00     0.126 C 
HETATM   12  O1  UNL     1      35.470  28.115  27.135  1.00  0.00    -0.266 OA
ENDBRANCH   9  10
ENDBRANCH   1   9
BRANCH   3  13
HETATM   13  C6  UNL     1      33.727  31.519  21.764  1.00  0.00     0.034 A 
HETATM   14  C7  UNL     1      33.524  32.706  21.128  1.00  0.00     0.043 A 
HETATM   15  C8  UNL     1      32.656  32.452  20.075  1.00  0.00    -0.007 A 
HETATM   16  C9  UNL     1      32.100  33.275  19.091  1.00  0.00     0.014 A 
HETATM   17  C13 UNL     1      32.339  31.109  20.080  1.00  0.00     0.043 A 
HETATM   18  C10 UNL     1      31.247  32.772  18.132  1.00  0.00     0.001 A 
HETATM   19  C11 UNL     1      30.967  31.426  18.188  1.00  0.00     0.002 A 
HETATM   20  C12 UNL     1      31.484  30.571  19.130  1.00  0.00     0.030 A 
HETATM   21  N1  UNL     1      33.011  30.592  21.118  1.00  0.00    -0.356 N 
ATOM     22  H1  UNL     1      32.979  29.608  21.385  1.00  0.00     0.166 HD
ENDBRANCH   3  13
BRANCH   8  23
HETATM   23  C16 UNL     1      38.575  29.225  24.471  1.00  0.00     0.207 C 
HETATM   24  O4  UNL     1      38.793  28.012  24.670  1.00  0.00    -0.291 OA
BRANCH  23  25
HETATM   25  C17 UNL     1      39.497  30.163  25.128  1.00  0.00     0.249 C 
HETATM   26  F1  UNL     1      40.838  29.783  24.888  1.00  0.00    -0.216 F 
HETATM   27 BR1  UNL     1      39.382  31.984  24.499  1.00  0.00    -0.035 Br
BRANCH  25  28
HETATM   28  C18 UNL     1      39.364  30.155  26.626  1.00  0.00    -0.000 A 
HETATM   29  C19 UNL     1      38.166  30.502  27.259  1.00  0.00     0.012 A 
HETATM   30  C20 UNL     1      38.032  30.483  28.631  1.00  0.00     0.001 A 
HETATM   31  C21 UNL     1      39.079  30.118  29.436  1.00  0.00     0.000 A 
HETATM   32  C22 UNL     1      40.262  29.774  28.824  1.00  0.00     0.001 A 
HETATM   33  C23 UNL     1      40.406  29.791  27.430  1.00  0.00     0.012 A 
ENDBRANCH  25  28
ENDBRANCH  23  25
ENDBRANCH   8  23
TORSDOF 6
ENDMDL
MODEL 2
REMARK VINA RESULT: -8.684627195      1.693      2.287
REMARK  6 active torsions:
REMARK  status: ('A' for Active; 'I' for Inactive)
REMARK    1  A    between atoms: C2_2  and  O2_4 
REMARK    2  A    between atoms: O2_4  and  C3_5 
REMARK    3  A    between atoms: C5_7  and  C6_8 
REMARK    4  A    between atoms: C15_22  and  C16_23 
REMARK    5  A    between atoms: C16_23  and  C17_25 
REMARK    6  A    between atoms: C17_25  and  C18_28 
ROOT
HETATM    1  C3  UNL     1      36.387  30.183  24.646  1.00  0.00     0.200 C 
HETATM    2  C4  UNL     1      35.548  30.317  23.375  1.00  0.00     0.043 C 
HETATM    3  C5  UNL     1      34.706  31.280  23.161  1.00  0.00     0.045 C 
HETATM    4  C14 UNL     1      35.963  29.150  22.637  1.00  0.00     0.251 C 
HETATM    5  O3  UNL     1      35.291  28.646  21.695  1.00  0.00    -0.268 OA
HETATM    6  N2  UNL     1      37.223  28.691  23.153  1.00  0.00    -0.343 N 
ATOM      7  H2  UNL     1      37.673  27.786  23.020  1.00  0.00     0.163 HD
HETATM    8  C15 UNL     1      37.706  29.862  23.925  1.00  0.00     0.193 C 
ENDROOT
BRANCH   1   9
HETATM    9  O2  UNL     1      35.849  29.060  25.291  1.00  0.00    -0.309 OA
BRANCH   9  10
HETATM   10  C2  UNL     1      35.192  29.063  26.504  1.00  0.00     0.255 C 
HETATM   11  C1  UNL     1      34.133  30.100  26.779  1.00  0.00     0.126 C 
HETATM   12  O1  UNL     1      35.491  28.199  27.360  1.00  0.00    -0.266 OA
ENDBRANCH   9  10
ENDBRANCH   1   9
BRANCH   3  13
HETATM   13  C6  UNL     1      33.879  31.484  21.993  1.00  0.00     0.034 A 
HETATM   14  C7  UNL     1      33.651  32.655  21.334  1.00  0.00     0.043 A 
HETATM   15  C8  UNL     1      32.808  32.358  20.273  1.00  0.00    -0.007 A 
HETATM   16  C9  UNL     1      32.243  33.149  19.267  1.00  0.00     0.014 A 
HETATM   17  C13 UNL     1      32.530  31.007  20.295  1.00  0.00     0.043 A 
HETATM   18  C10 UNL     1      31.420  32.606  18.304  1.00  0.00     0.001 A 
HETATM   19  C11 UNL     1      31.179  31.253  18.377  1.00  0.00     0.002 A 
HETATM   20  C12 UNL     1      31.706  30.429  19.341  1.00  0.00     0.030 A 
HETATM   21  N1  UNL     1      33.200  30.527  21.351  1.00  0.00    -0.356 N 
ATOM     22  H1  UNL     1      33.193  29.546  21.633  1.00  0.00     0.166 HD
ENDBRANCH   3  13
BRANCH   8  23
HETATM   23  C16 UNL     1      38.814  29.498  24.786  1.00  0.00     0.207 C 
HETATM   24  O4  UNL     1      39.392  28.399  24.655  1.00  0.00    -0.291 OA
BRANCH  23  25
HETATM   25  C17 UNL     1      39.330  30.378  25.844  1.00  0.00     0.249 C 
HETATM   26  F1  UNL     1      38.262  30.935  26.585  1.00  0.00    -0.216 F 
HETATM   27 BR1  UNL     1      40.435  29.498  27.159  1.00  0.00    -0.035 Br
BRANCH  25  28
HETATM   28  C18 UNL     1      40.074  31.566  25.299  1.00  0.00    -0.000 A 
HETATM   29  C19 UNL     1      39.403  32.678  24.780  1.00  0.00     0.012 A 
HETATM   30  C20 UNL     1      40.078  33.776  24.292  1.00  0.00     0.001 A 
HETATM   31  C21 UNL     1      41.447  33.822  24.298  1.00  0.00     0.000 A 
HETATM   32  C22 UNL     1      42.118  32.733  24.806  1.00  0.00     0.001 A 
HETATM   33  C23 UNL     1      41.438  31.613  25.304  1.00  0.00     0.012 A 
ENDBRANCH  25  28
ENDBRANCH  23  25
ENDBRANCH   8  23
TORSDOF 6
ENDMDL
MODEL 3
REMARK VINA RESULT: -8.615607840      1.601      2.614
REMARK  6 active torsions:
REMARK  status: ('A' for Active; 'I' for Inactive)
REMARK    1  A    between atoms: C2_2  and  O2_4 
REMARK    2  A    between atoms: O2_4  and  C3_5 
REMARK    3  A    between atoms: C5_7  and  C6_8 
REMARK    4  A    between atoms: C15_22  and  C16_23 
REMARK    5  A    between atoms: C16_23  and  C17_25 
REMARK    6  A    between atoms: C17_25  and  C18_28 
ROOT
HETATM    1  C3  UNL     1      36.392  30.003  24.514  1.00  0.00     0.200 C 
HETATM    2  C4  UNL     1      35.518  30.191  23.275  1.00  0.00     0.043 C 
HETATM    3  C5  UNL     1      34.755  31.221  23.076  1.00  0.00     0.045 C 
HETATM    4  C14 UNL     1      35.800  28.982  22.543  1.00  0.00     0.251 C 
HETATM    5  O3  UNL     1      35.050  28.524  21.637  1.00  0.00    -0.268 OA
HETATM    6  N2  UNL     1      37.036  28.422  23.017  1.00  0.00    -0.343 N 
ATOM      7  H2  UNL     1      37.400  27.479  22.884  1.00  0.00     0.163 HD
HETATM    8  C15 UNL     1      37.649  29.558  23.750  1.00  0.00     0.193 C 
ENDROOT
BRANCH   1   9
HETATM    9  O2  UNL     1      35.786  28.941  25.201  1.00  0.00    -0.309 OA
BRANCH   9  10
HETATM   10  C2  UNL     1      35.168  29.022  26.431  1.00  0.00     0.255 C 
HETATM   11  C1  UNL     1      34.113  30.072  26.671  1.00  0.00     0.126 C 
HETATM   12  O1  UNL     1      35.499  28.218  27.333  1.00  0.00    -0.266 OA
ENDBRANCH   9  10
ENDBRANCH   1   9
BRANCH   3  13
HETATM   13  C6  UNL     1      33.902  31.479  21.937  1.00  0.00     0.034 A 
HETATM   14  C7  UNL     1      33.696  32.671  21.311  1.00  0.00     0.043 A 
HETATM   15  C8  UNL     1      32.813  32.427  20.269  1.00  0.00    -0.007 A 
HETATM   16  C9  UNL     1      32.248  33.259  19.297  1.00  0.00     0.014 A 
HETATM   17  C13 UNL     1      32.490  31.086  20.270  1.00  0.00     0.043 A 
HETATM   18  C10 UNL     1      31.379  32.766  18.348  1.00  0.00     0.001 A 
HETATM   19  C11 UNL     1      31.093  31.421  18.399  1.00  0.00     0.002 A 
HETATM   20  C12 UNL     1      31.618  30.558  19.329  1.00  0.00     0.030 A 
HETATM   21  N1  UNL     1      33.172  30.560  21.296  1.00  0.00    -0.356 N 
ATOM     22  H1  UNL     1      33.139  29.574  21.557  1.00  0.00     0.166 HD
ENDBRANCH   3  13
BRANCH   8  23
HETATM   23  C16 UNL     1      38.754  29.111  24.573  1.00  0.00     0.207 C 
HETATM   24  O4  UNL     1      38.989  27.894  24.725  1.00  0.00    -0.291 OA
BRANCH  23  25
HETATM   25  C17 UNL     1      39.664  30.036  25.265  1.00  0.00     0.249 C 
HETATM   26  F1  UNL     1      39.029  30.592  26.399  1.00  0.00    -0.216 F 
HETATM   27 BR1  UNL     1      41.274  29.223  25.952  1.00  0.00    -0.035 Br
BRANCH  25  28
HETATM   28  C18 UNL     1      40.038  31.222  24.420  1.00  0.00    -0.000 A 
HETATM   29  C19 UNL     1      40.768  31.080  23.235  1.00  0.00     0.012 A 
HETATM   30  C20 UNL     1      41.102  32.162  22.449  1.00  0.00     0.001 A 
HETATM   31  C21 UNL     1      40.727  33.432  22.801  1.00  0.00     0.000 A 
HETATM   32  C22 UNL     1      40.009  33.584  23.965  1.00  0.00     0.001 A 
HETATM   33  C23 UNL     1      39.666  32.488  24.770  1.00  0.00     0.012 A 
ENDBRANCH  25  28
ENDBRANCH  23  25
ENDBRANCH   8  23
TORSDOF 6
ENDMDL
MODEL 4
REMARK VINA RESULT: -8.554756343      0.682      1.255
REMARK  6 active torsions:
REMARK  status: ('A' for Active; 'I' for Inactive)
REMARK    1  A    between atoms: C2_2  and  O2_4 
REMARK    2  A    between atoms: O2_4  and  C3_5 
REMARK    3  A    between atoms: C5_7  and  C6_8 
REMARK    4  A    between atoms: C15_22  and  C16_23 
REMARK    5  A    between atoms: C16_23  and  C17_25 
REMARK    6  A    between atoms: C17_25  and  C18_28 
ROOT
HETATM    1  C3  UNL     1      36.274  29.811  24.422  1.00  0.00     0.200 C 
HETATM    2  C4  UNL     1      35.438  30.009  23.157  1.00  0.00     0.043 C 
HETATM    3  C5  UNL     1      34.541  30.935  23.020  1.00  0.00     0.045 C 
HETATM    4  C14 UNL     1      35.929  28.941  22.323  1.00  0.00     0.251 C 
HETATM    5  O3  UNL     1      35.296  28.484  21.331  1.00  0.00    -0.268 OA
HETATM    6  N2  UNL     1      37.211  28.514  22.811  1.00  0.00    -0.343 N 
ATOM      7  H2  UNL     1      37.717  27.653  22.604  1.00  0.00     0.163 HD
HETATM    8  C15 UNL     1      37.616  29.637  23.692  1.00  0.00     0.193 C 
ENDROOT
BRANCH   1   9
HETATM    9  O2  UNL     1      35.801  28.604  24.957  1.00  0.00    -0.309 OA
BRANCH   9  10
HETATM   10  C2  UNL     1      35.530  28.361  26.287  1.00  0.00     0.255 C 
HETATM   11  C1  UNL     1      36.070  27.117  26.946  1.00  0.00     0.126 C 
HETATM   12  O1  UNL     1      34.835  29.184  26.927  1.00  0.00    -0.266 OA
ENDBRANCH   9  10
ENDBRANCH   1   9
BRANCH   3  13
HETATM   13  C6  UNL     1      33.712  31.194  21.864  1.00  0.00     0.034 A 
HETATM   14  C7  UNL     1      32.910  30.311  21.207  1.00  0.00     0.043 A 
HETATM   15  C8  UNL     1      32.303  31.014  20.175  1.00  0.00    -0.007 A 
HETATM   16  C9  UNL     1      31.391  30.636  19.185  1.00  0.00     0.014 A 
HETATM   17  C13 UNL     1      32.742  32.321  20.215  1.00  0.00     0.043 A 
HETATM   18  C10 UNL     1      30.927  31.540  18.254  1.00  0.00     0.001 A 
HETATM   19  C11 UNL     1      31.400  32.828  18.343  1.00  0.00     0.002 A 
HETATM   20  C12 UNL     1      32.295  33.256  19.293  1.00  0.00     0.030 A 
HETATM   21  N1  UNL     1      33.590  32.377  21.251  1.00  0.00    -0.356 N 
ATOM     22  H1  UNL     1      34.084  33.222  21.539  1.00  0.00     0.166 HD
ENDBRANCH   3  13
BRANCH   8  23
HETATM   23  C16 UNL     1      38.737  29.263  24.531  1.00  0.00     0.207 C 
HETATM   24  O4  UNL     1      39.026  28.063  24.719  1.00  0.00    -0.291 OA
BRANCH  23  25
HETATM   25  C17 UNL     1      39.602  30.247  25.198  1.00  0.00     0.249 C 
HETATM   26  F1  UNL     1      40.963  29.958  24.943  1.00  0.00    -0.216 F 
HETATM   27 BR1  UNL     1      39.366  32.067  24.601  1.00  0.00    -0.035 Br
BRANCH  25  28
HETATM   28  C18 UNL     1      39.480  30.206  26.696  1.00  0.00    -0.000 A 
HETATM   29  C19 UNL     1      38.267  30.461  27.342  1.00  0.00     0.012 A 
HETATM   30  C20 UNL     1      38.145  30.410  28.714  1.00  0.00     0.001 A 
HETATM   31  C21 UNL     1      39.219  30.103  29.507  1.00  0.00     0.000 A 
HETATM   32  C22 UNL     1      40.418  29.849  28.882  1.00  0.00     0.001 A 
HETATM   33  C23 UNL     1      40.550  29.900  27.487  1.00  0.00     0.012 A 
ENDBRANCH  25  28
ENDBRANCH  23  25
ENDBRANCH   8  23
TORSDOF 6
ENDMDL
MODEL 5
REMARK VINA RESULT: -8.292777486      3.056      3.901
REMARK  6 active torsions:
REMARK  status: ('A' for Active; 'I' for Inactive)
REMARK    1  A    between atoms: C2_2  and  O2_4 
REMARK    2  A    between atoms: O2_4  and  C3_5 
REMARK    3  A    between atoms: C5_7  and  C6_8 
REMARK    4  A    between atoms: C15_22  and  C16_23 
REMARK    5  A    between atoms: C16_23  and  C17_25 
REMARK    6  A    between atoms: C17_25  and  C18_28 
ROOT
HETATM    1  C3  UNL     1      35.969  29.740  24.775  1.00  0.00     0.200 C 
HETATM    2  C4  UNL     1      34.856  30.068  23.779  1.00  0.00     0.043 C 
HETATM    3  C5  UNL     1      35.058  30.305  22.520  1.00  0.00     0.045 C 
HETATM    4  C14 UNL     1      33.695  30.039  24.633  1.00  0.00     0.251 C 
HETATM    5  O3  UNL     1      32.600  30.593  24.338  1.00  0.00    -0.268 OA
HETATM    6  N2  UNL     1      34.004  29.297  25.824  1.00  0.00    -0.343 N 
ATOM      7  H2  UNL     1      33.502  29.279  26.711  1.00  0.00     0.163 HD
HETATM    8  C15 UNL     1      35.236  28.564  25.441  1.00  0.00     0.193 C 
ENDROOT
BRANCH   1   9
HETATM    9  O2  UNL     1      36.025  30.868  25.606  1.00  0.00    -0.309 OA
BRANCH   9  10
HETATM   10  C2  UNL     1      36.941  31.895  25.513  1.00  0.00     0.255 C 
HETATM   11  C1  UNL     1      38.416  31.586  25.531  1.00  0.00     0.126 C 
HETATM   12  O1  UNL     1      36.527  33.073  25.416  1.00  0.00    -0.266 OA
ENDBRANCH   9  10
ENDBRANCH   1   9
BRANCH   3  13
HETATM   13  C6  UNL     1      34.069  30.619  21.514  1.00  0.00     0.034 A 
HETATM   14  C7  UNL     1      33.296  29.744  20.812  1.00  0.00     0.043 A 
HETATM   15  C8  UNL     1      32.492  30.504  19.974  1.00  0.00    -0.007 A 
HETATM   16  C9  UNL     1      31.513  30.159  19.037  1.00  0.00     0.014 A 
HETATM   17  C13 UNL     1      32.784  31.837  20.174  1.00  0.00     0.043 A 
HETATM   18  C10 UNL     1      30.839  31.120  18.316  1.00  0.00     0.001 A 
HETATM   19  C11 UNL     1      31.173  32.433  18.557  1.00  0.00     0.002 A 
HETATM   20  C12 UNL     1      32.125  32.830  19.465  1.00  0.00     0.030 A 
HETATM   21  N1  UNL     1      33.741  31.852  21.112  1.00  0.00    -0.356 N 
ATOM     22  H1  UNL     1      34.169  32.703  21.477  1.00  0.00     0.166 HD
ENDBRANCH   3  13
BRANCH   8  23
HETATM   23  C16 UNL     1      35.890  28.001  26.605  1.00  0.00     0.207 C 
HETATM   24  O4  UNL     1      35.604  28.395  27.755  1.00  0.00    -0.291 OA
BRANCH  23  25
HETATM   25  C17 UNL     1      36.908  26.943  26.520  1.00  0.00     0.249 C 
HETATM   26  F1  UNL     1      36.738  26.192  25.334  1.00  0.00    -0.216 F 
HETATM   27 BR1  UNL     1      38.729  27.578  26.442  1.00  0.00    -0.035 Br
BRANCH  25  28
HETATM   28  C18 UNL     1      36.791  25.934  27.628  1.00  0.00    -0.000 A 
HETATM   29  C19 UNL     1      35.654  25.132  27.775  1.00  0.00     0.012 A 
HETATM   30  C20 UNL     1      35.546  24.195  28.779  1.00  0.00     0.001 A 
HETATM   31  C21 UNL     1      36.560  24.010  29.683  1.00  0.00     0.000 A 
HETATM   32  C22 UNL     1      37.683  24.793  29.548  1.00  0.00     0.001 A 
HETATM   33  C23 UNL     1      37.800  25.748  28.529  1.00  0.00     0.012 A 
ENDBRANCH  25  28
ENDBRANCH  23  25
ENDBRANCH   8  23
TORSDOF 6
ENDMDL
