MODEL 1
REMARK VINA RESULT: -7.437457849      0.000      0.000
REMARK  6 active torsions:
REMARK  status: ('A' for Active; 'I' for Inactive)
REMARK    1  A    between atoms: C4_4  and  N1_5 
REMARK    2  A    between atoms: C7_10  and  N2_11 
REMARK       I    between atoms: N2_11  and  C8_13 
REMARK    3  A    between atoms: C8_13  and  C9_15 
REMARK    4  A    between atoms: C15_23  and  C16_24 
REMARK    5  A    between atoms: C16_24  and  O4_25 
REMARK    6  A    between atoms: C16_24  and  N3_27 
ROOT
HETATM    1  C1  UNL     1      38.146  30.447  28.481  1.00  0.00     0.018 C 
HETATM    2  C2  UNL     1      37.604  30.097  27.453  1.00  0.00    -0.074 C 
HETATM    3  C3  UNL     1      37.001  29.650  26.199  1.00  0.00     0.066 A 
HETATM    4  C4  UNL     1      36.911  28.252  26.104  1.00  0.00     0.122 A 
HETATM    5  C5  UNL     1      36.450  27.768  24.897  1.00  0.00     0.040 A 
HETATM    6  C6  UNL     1      36.111  28.614  23.880  1.00  0.00     0.033 A 
HETATM    7  C7  UNL     1      36.195  29.987  23.971  1.00  0.00     0.051 A 
HETATM    8  C15 UNL     1      36.663  30.518  25.190  1.00  0.00     0.062 A 
ENDROOT
BRANCH   4   9
HETATM    9  N1  UNL     1      37.248  27.364  27.151  1.00  0.00    -0.114 N 
HETATM   10  O1  UNL     1      38.350  26.875  27.341  1.00  0.00    -0.532 OA
HETATM   11  O2  UNL     1      36.258  26.966  28.053  1.00  0.00    -0.532 OA
ENDBRANCH   4   9
BRANCH   8  12
HETATM   12  C16 UNL     1      36.900  31.939  25.252  1.00  0.00     0.149 C 
BRANCH  12  13
HETATM   13  O4  UNL     1      35.902  32.610  25.809  1.00  0.00    -0.346 OA
ATOM     14  H4  UNL     1      36.196  33.321  26.365  1.00  0.00     0.219 HD
ENDBRANCH  12  13
BRANCH  12  15
HETATM   15  N3  UNL     1      37.934  32.770  24.867  1.00  0.00    -0.375 N 
HETATM   16  C17 UNL     1      39.324  32.221  24.786  1.00  0.00     0.148 C 
ATOM     17  H3  UNL     1      37.753  33.749  24.641  1.00  0.00     0.161 HD
ENDBRANCH  12  15
ENDBRANCH   8  12
BRANCH   7  18
HETATM   18  N2  UNL     1      35.687  30.784  22.912  1.00  0.00    -0.322 N 
HETATM   19  C8  UNL     1      34.302  31.000  22.690  1.00  0.00     0.257 C 
HETATM   20  O3  UNL     1      33.422  30.450  23.444  1.00  0.00    -0.267 OA
ATOM     21  H2  UNL     1      36.353  31.224  22.277  1.00  0.00     0.169 HD
BRANCH  19  22
HETATM   22  C9  UNL     1      33.789  31.826  21.615  1.00  0.00     0.051 A 
HETATM   23  C10 UNL     1      32.862  31.267  20.748  1.00  0.00     0.037 A 
HETATM   24  C11 UNL     1      32.338  31.963  19.688  1.00  0.00     0.012 A 
HETATM   25 BR1  UNL     1      31.083  31.186  18.493  1.00  0.00    -0.051 Br
HETATM   26  C12 UNL     1      32.771  33.256  19.512  1.00  0.00     0.020 A 
HETATM   27  C13 UNL     1      33.699  33.851  20.361  1.00  0.00     0.021 A 
HETATM   28  C14 UNL     1      34.209  33.112  21.429  1.00  0.00     0.026 A 
HETATM   29 BR2  UNL     1      35.462  33.922  22.603  1.00  0.00    -0.050 Br
ENDBRANCH  19  22
ENDBRANCH   7  18
TORSDOF 6
ENDMDL
MODEL 2
REMARK VINA RESULT: -7.428991248      2.003      2.859
REMARK  6 active torsions:
REMARK  status: ('A' for Active; 'I' for Inactive)
REMARK    1  A    between atoms: C4_4  and  N1_5 
REMARK    2  A    between atoms: C7_10  and  N2_11 
REMARK       I    between atoms: N2_11  and  C8_13 
REMARK    3  A    between atoms: C8_13  and  C9_15 
REMARK    4  A    between atoms: C15_23  and  C16_24 
REMARK    5  A    between atoms: C16_24  and  O4_25 
REMARK    6  A    between atoms: C16_24  and  N3_27 
ROOT
HETATM    1  C1  UNL     1      37.985  26.319  25.059  1.00  0.00     0.018 C 
HETATM    2  C2  UNL     1      37.350  27.352  24.998  1.00  0.00    -0.074 C 
HETATM    3  C3  UNL     1      36.541  28.568  24.947  1.00  0.00     0.066 A 
HETATM    4  C4  UNL     1      36.179  29.036  26.220  1.00  0.00     0.122 A 
HETATM    5  C5  UNL     1      35.323  30.118  26.233  1.00  0.00     0.040 A 
HETATM    6  C6  UNL     1      34.874  30.677  25.070  1.00  0.00     0.033 A 
HETATM    7  C7  UNL     1      35.232  30.222  23.818  1.00  0.00     0.051 A 
HETATM    8  C15 UNL     1      36.104  29.116  23.767  1.00  0.00     0.062 A 
ENDROOT
BRANCH   4   9
HETATM    9  N1  UNL     1      36.641  28.474  27.432  1.00  0.00    -0.114 N 
HETATM   10  O1  UNL     1      37.554  28.908  28.115  1.00  0.00    -0.532 OA
HETATM   11  O2  UNL     1      36.042  27.306  27.914  1.00  0.00    -0.532 OA
ENDBRANCH   4   9
BRANCH   8  12
HETATM   12  C16 UNL     1      36.368  28.534  22.474  1.00  0.00     0.149 C 
BRANCH  12  13
HETATM   13  O4  UNL     1      35.268  28.175  21.831  1.00  0.00    -0.346 OA
ATOM     14  H4  UNL     1      35.419  27.975  20.914  1.00  0.00     0.219 HD
ENDBRANCH  12  13
BRANCH  12  15
HETATM   15  N3  UNL     1      37.509  28.266  21.742  1.00  0.00    -0.375 N 
HETATM   16  C17 UNL     1      37.378  27.794  20.328  1.00  0.00     0.148 C 
ATOM     17  H3  UNL     1      38.431  28.389  22.161  1.00  0.00     0.161 HD
ENDBRANCH  12  15
ENDBRANCH   8  12
BRANCH   7  18
HETATM   18  N2  UNL     1      34.827  30.956  22.673  1.00  0.00    -0.322 N 
HETATM   19  C8  UNL     1      33.473  31.107  22.278  1.00  0.00     0.257 C 
HETATM   20  O3  UNL     1      32.528  30.552  22.945  1.00  0.00    -0.267 OA
ATOM     21  H2  UNL     1      35.549  31.399  22.104  1.00  0.00     0.169 HD
BRANCH  19  22
HETATM   22  C9  UNL     1      33.063  31.870  21.116  1.00  0.00     0.051 A 
HETATM   23  C10 UNL     1      32.114  31.314  20.271  1.00  0.00     0.037 A 
HETATM   24  C11 UNL     1      31.683  31.951  19.134  1.00  0.00     0.012 A 
HETATM   25 BR1  UNL     1      30.397  31.175  17.972  1.00  0.00    -0.051 Br
HETATM   26  C12 UNL     1      32.233  33.180  18.858  1.00  0.00     0.020 A 
HETATM   27  C13 UNL     1      33.186  33.770  19.681  1.00  0.00     0.021 A 
HETATM   28  C14 UNL     1      33.601  33.093  20.829  1.00  0.00     0.026 A 
HETATM   29 BR2  UNL     1      34.888  33.899  21.968  1.00  0.00    -0.050 Br
ENDBRANCH  19  22
ENDBRANCH   7  18
TORSDOF 6
ENDMDL
MODEL 3
REMARK VINA RESULT: -7.183730644      3.391      7.953
REMARK  6 active torsions:
REMARK  status: ('A' for Active; 'I' for Inactive)
REMARK    1  A    between atoms: C4_4  and  N1_5 
REMARK    2  A    between atoms: C7_10  and  N2_11 
REMARK       I    between atoms: N2_11  and  C8_13 
REMARK    3  A    between atoms: C8_13  and  C9_15 
REMARK    4  A    between atoms: C15_23  and  C16_24 
REMARK    5  A    between atoms: C16_24  and  O4_25 
REMARK    6  A    between atoms: C16_24  and  N3_27 
ROOT
HETATM    1  C1  UNL     1      32.533  31.035  20.726  1.00  0.00     0.018 C 
HETATM    2  C2  UNL     1      33.378  31.432  21.501  1.00  0.00    -0.074 C 
HETATM    3  C3  UNL     1      34.434  31.908  22.392  1.00  0.00     0.066 A 
HETATM    4  C4  UNL     1      34.932  33.168  22.023  1.00  0.00     0.122 A 
HETATM    5  C5  UNL     1      36.006  33.620  22.763  1.00  0.00     0.040 A 
HETATM    6  C6  UNL     1      36.529  32.873  23.778  1.00  0.00     0.033 A 
HETATM    7  C7  UNL     1      36.039  31.636  24.145  1.00  0.00     0.051 A 
HETATM    8  C15 UNL     1      34.943  31.142  23.411  1.00  0.00     0.062 A 
ENDROOT
BRANCH   4   9
HETATM    9  N1  UNL     1      34.397  33.958  20.981  1.00  0.00    -0.114 N 
HETATM   10  O1  UNL     1      34.911  34.139  19.889  1.00  0.00    -0.532 OA
HETATM   11  O2  UNL     1      33.187  34.627  21.185  1.00  0.00    -0.532 OA
ENDBRANCH   4   9
BRANCH   8  12
HETATM   12  C16 UNL     1      34.515  29.791  23.680  1.00  0.00     0.149 C 
BRANCH  12  13
HETATM   13  O4  UNL     1      35.301  28.877  23.131  1.00  0.00    -0.346 OA
ATOM     14  H4  UNL     1      35.610  28.228  23.752  1.00  0.00     0.219 HD
ENDBRANCH  12  13
BRANCH  12  15
HETATM   15  N3  UNL     1      33.472  29.223  24.385  1.00  0.00    -0.375 N 
HETATM   16  C17 UNL     1      32.731  30.050  25.389  1.00  0.00     0.148 C 
ATOM     17  H3  UNL     1      33.209  28.250  24.223  1.00  0.00     0.161 HD
ENDBRANCH  12  15
ENDBRANCH   8  12
BRANCH   7  18
HETATM   18  N2  UNL     1      36.559  31.001  25.303  1.00  0.00    -0.322 N 
HETATM   19  C8  UNL     1      37.625  30.064  25.270  1.00  0.00     0.257 C 
HETATM   20  O3  UNL     1      38.166  29.722  24.158  1.00  0.00    -0.267 OA
ATOM     21  H2  UNL     1      36.145  31.231  26.206  1.00  0.00     0.169 HD
BRANCH  19  22
HETATM   22  C9  UNL     1      38.162  29.430  26.457  1.00  0.00     0.051 A 
HETATM   23  C10 UNL     1      39.377  29.885  26.949  1.00  0.00     0.037 A 
HETATM   24  C11 UNL     1      39.975  29.330  28.052  1.00  0.00     0.012 A 
HETATM   25 BR1  UNL     1      41.647  29.946  28.708  1.00  0.00    -0.051 Br
HETATM   26  C12 UNL     1      39.317  28.290  28.664  1.00  0.00     0.020 A 
HETATM   27  C13 UNL     1      38.098  27.806  28.202  1.00  0.00     0.021 A 
HETATM   28  C14 UNL     1      37.519  28.395  27.077  1.00  0.00     0.026 A 
HETATM   29 BR2  UNL     1      35.847  27.754  26.450  1.00  0.00    -0.050 Br
ENDBRANCH  19  22
ENDBRANCH   7  18
TORSDOF 6
ENDMDL
MODEL 4
REMARK VINA RESULT: -7.178477579      3.437      7.652
REMARK  6 active torsions:
REMARK  status: ('A' for Active; 'I' for Inactive)
REMARK    1  A    between atoms: C4_4  and  N1_5 
REMARK    2  A    between atoms: C7_10  and  N2_11 
REMARK       I    between atoms: N2_11  and  C8_13 
REMARK    3  A    between atoms: C8_13  and  C9_15 
REMARK    4  A    between atoms: C15_23  and  C16_24 
REMARK    5  A    between atoms: C16_24  and  O4_25 
REMARK    6  A    between atoms: C16_24  and  N3_27 
ROOT
HETATM    1  C1  UNL     1      32.254  31.389  19.768  1.00  0.00     0.018 C 
HETATM    2  C2  UNL     1      33.027  31.613  20.677  1.00  0.00    -0.074 C 
HETATM    3  C3  UNL     1      34.000  31.886  21.732  1.00  0.00     0.066 A 
HETATM    4  C4  UNL     1      34.603  33.147  21.606  1.00  0.00     0.122 A 
HETATM    5  C5  UNL     1      35.610  33.416  22.511  1.00  0.00     0.040 A 
HETATM    6  C6  UNL     1      35.975  32.499  23.455  1.00  0.00     0.033 A 
HETATM    7  C7  UNL     1      35.381  31.260  23.583  1.00  0.00     0.051 A 
HETATM    8  C15 UNL     1      34.349  30.951  22.675  1.00  0.00     0.062 A 
ENDROOT
BRANCH   4   9
HETATM    9  N1  UNL     1      34.232  34.110  20.641  1.00  0.00    -0.114 N 
HETATM   10  O1  UNL     1      34.836  34.352  19.608  1.00  0.00    -0.532 OA
HETATM   11  O2  UNL     1      33.095  34.892  20.861  1.00  0.00    -0.532 OA
ENDBRANCH   4   9
BRANCH   8  12
HETATM   12  C16 UNL     1      33.822  29.609  22.697  1.00  0.00     0.149 C 
BRANCH  12  13
HETATM   13  O4  UNL     1      33.043  29.372  23.742  1.00  0.00    -0.346 OA
ATOM     14  H4  UNL     1      32.155  29.136  23.501  1.00  0.00     0.219 HD
ENDBRANCH  12  13
BRANCH  12  15
HETATM   15  N3  UNL     1      33.936  28.505  21.874  1.00  0.00    -0.375 N 
HETATM   16  C17 UNL     1      35.215  28.274  21.132  1.00  0.00     0.148 C 
ATOM     17  H3  UNL     1      33.157  27.854  21.773  1.00  0.00     0.161 HD
ENDBRANCH  12  15
ENDBRANCH   8  12
BRANCH   7  18
HETATM   18  N2  UNL     1      35.732  30.435  24.684  1.00  0.00    -0.322 N 
HETATM   19  C8  UNL     1      36.819  29.523  24.662  1.00  0.00     0.257 C 
HETATM   20  O3  UNL     1      37.539  29.383  23.610  1.00  0.00    -0.267 OA
ATOM     21  H2  UNL     1      35.174  30.502  25.534  1.00  0.00     0.169 HD
BRANCH  19  22
HETATM   22  C9  UNL     1      37.183  28.693  25.794  1.00  0.00     0.051 A 
HETATM   23  C10 UNL     1      36.430  27.553  26.036  1.00  0.00     0.037 A 
HETATM   24  C11 UNL     1      36.684  26.720  27.096  1.00  0.00     0.012 A 
HETATM   25 BR1  UNL     1      35.638  25.171  27.432  1.00  0.00    -0.051 Br
HETATM   26  C12 UNL     1      37.727  27.059  27.924  1.00  0.00     0.020 A 
HETATM   27  C13 UNL     1      38.505  28.194  27.713  1.00  0.00     0.021 A 
HETATM   28  C14 UNL     1      38.218  29.018  26.625  1.00  0.00     0.026 A 
HETATM   29 BR2  UNL     1      39.284  30.558  26.319  1.00  0.00    -0.050 Br
ENDBRANCH  19  22
ENDBRANCH   7  18
TORSDOF 6
ENDMDL
MODEL 5
REMARK VINA RESULT: -7.115445872      3.559      7.700
REMARK  6 active torsions:
REMARK  status: ('A' for Active; 'I' for Inactive)
REMARK    1  A    between atoms: C4_4  and  N1_5 
REMARK    2  A    between atoms: C7_10  and  N2_11 
REMARK       I    between atoms: N2_11  and  C8_13 
REMARK    3  A    between atoms: C8_13  and  C9_15 
REMARK    4  A    between atoms: C15_23  and  C16_24 
REMARK    5  A    between atoms: C16_24  and  O4_25 
REMARK    6  A    between atoms: C16_24  and  N3_27 
ROOT
HETATM    1  C1  UNL     1      32.079  30.504  21.002  1.00  0.00     0.018 C 
HETATM    2  C2  UNL     1      32.985  31.091  21.556  1.00  0.00    -0.074 C 
HETATM    3  C3  UNL     1      34.106  31.797  22.174  1.00  0.00     0.066 A 
HETATM    4  C4  UNL     1      34.333  33.061  21.609  1.00  0.00     0.122 A 
HETATM    5  C5  UNL     1      35.446  33.730  22.077  1.00  0.00     0.040 A 
HETATM    6  C6  UNL     1      36.255  33.174  23.026  1.00  0.00     0.033 A 
HETATM    7  C7  UNL     1      36.033  31.933  23.586  1.00  0.00     0.051 A 
HETATM    8  C15 UNL     1      34.905  31.221  23.131  1.00  0.00     0.062 A 
ENDROOT
BRANCH   4   9
HETATM    9  N1  UNL     1      33.500  33.654  20.632  1.00  0.00    -0.114 N 
HETATM   10  O1  UNL     1      33.561  33.456  19.430  1.00  0.00    -0.532 OA
HETATM   11  O2  UNL     1      32.525  34.571  21.034  1.00  0.00    -0.532 OA
ENDBRANCH   4   9
BRANCH   8  12
HETATM   12  C16 UNL     1      34.742  29.865  23.592  1.00  0.00     0.149 C 
BRANCH  12  13
HETATM   13  O4  UNL     1      35.540  29.006  22.975  1.00  0.00    -0.346 OA
ATOM     14  H4  UNL     1      36.273  29.424  22.538  1.00  0.00     0.219 HD
ENDBRANCH  12  13
BRANCH  12  15
HETATM   15  N3  UNL     1      33.945  29.248  24.537  1.00  0.00    -0.375 N 
HETATM   16  C17 UNL     1      32.970  30.068  25.321  1.00  0.00     0.148 C 
ATOM     17  H3  UNL     1      34.021  28.243  24.698  1.00  0.00     0.161 HD
ENDBRANCH  12  15
ENDBRANCH   8  12
BRANCH   7  18
HETATM   18  N2  UNL     1      36.849  31.504  24.665  1.00  0.00    -0.322 N 
HETATM   19  C8  UNL     1      37.985  30.669  24.504  1.00  0.00     0.257 C 
HETATM   20  O3  UNL     1      38.321  30.232  23.345  1.00  0.00    -0.267 OA
ATOM     21  H2  UNL     1      36.606  31.813  25.606  1.00  0.00     0.169 HD
BRANCH  19  22
HETATM   22  C9  UNL     1      38.824  30.245  25.607  1.00  0.00     0.051 A 
HETATM   23  C10 UNL     1      38.396  29.175  26.379  1.00  0.00     0.037 A 
HETATM   24  C11 UNL     1      39.110  28.719  27.458  1.00  0.00     0.012 A 
HETATM   25 BR1  UNL     1      38.510  27.265  28.522  1.00  0.00    -0.051 Br
HETATM   26  C12 UNL     1      40.285  29.370  27.753  1.00  0.00     0.020 A 
HETATM   27  C13 UNL     1      40.746  30.446  27.002  1.00  0.00     0.021 A 
HETATM   28  C14 UNL     1      39.993  30.882  25.911  1.00  0.00     0.026 A 
HETATM   29 BR2  UNL     1      40.625  32.338  24.870  1.00  0.00    -0.050 Br
ENDBRANCH  19  22
ENDBRANCH   7  18
TORSDOF 6
ENDMDL
