MODEL 1
REMARK VINA RESULT: -8.207573443      0.000      0.000
REMARK  8 active torsions:
REMARK  status: ('A' for Active; 'I' for Inactive)
REMARK    1  A    between atoms: O1_1  and  C1_3 
REMARK    2  A    between atoms: C1_3  and  N1_4 
REMARK    3  A    between atoms: C1_3  and  C18_28 
REMARK    4  A    between atoms: N1_4  and  C2_6 
REMARK       I    between atoms: N2_9  and  C5_10 
REMARK    5  A    between atoms: C5_10  and  O3_12 
REMARK    6  A    between atoms: O3_12  and  C6_13 
REMARK    7  A    between atoms: C10_17  and  N3_18 
REMARK       I    between atoms: N3_18  and  C11_20 
REMARK    8  A    between atoms: C11_20  and  C12_22 
ROOT
HETATM    1  C2  UNL     1      34.453  28.904  19.897  1.00  0.00     0.103 C 
HETATM    2  C3  UNL     1      34.906  28.496  21.303  1.00  0.00     0.047 C 
HETATM    3  C4  UNL     1      35.918  27.372  21.087  1.00  0.00     0.130 C 
HETATM    4  N2  UNL     1      36.312  27.596  19.716  1.00  0.00    -0.326 N 
HETATM    5  C5  UNL     1      37.634  27.537  19.229  1.00  0.00     0.363 C 
HETATM    6  O2  UNL     1      37.894  27.728  17.997  1.00  0.00    -0.238 OA
HETATM    7  C17 UNL     1      35.098  27.891  18.990  1.00  0.00     0.153 C 
ENDROOT
BRANCH   5   8
HETATM    8  O3  UNL     1      38.694  27.275  20.050  1.00  0.00    -0.296 OA
BRANCH   8   9
HETATM    9  C6  UNL     1      39.367  28.150  20.871  1.00  0.00     0.156 C 
HETATM   10  C7  UNL     1      40.847  28.038  20.913  1.00  0.00     0.035 C 
HETATM   11  C8  UNL     1      41.031  26.849  21.864  1.00  0.00     0.005 C 
HETATM   12  C9  UNL     1      39.869  26.943  22.830  1.00  0.00     0.028 C 
HETATM   13  C10 UNL     1      38.986  28.059  22.332  1.00  0.00     0.114 C 
BRANCH  13  14
HETATM   14  N3  UNL     1      39.222  29.322  23.011  1.00  0.00    -0.354 N 
HETATM   15  C11 UNL     1      38.204  30.019  23.696  1.00  0.00     0.222 C 
HETATM   16  O4  UNL     1      37.048  29.552  23.733  1.00  0.00    -0.273 OA
ATOM     17  H3  UNL     1      40.161  29.721  22.993  1.00  0.00     0.163 HD
BRANCH  15  18
HETATM   18  C12 UNL     1      38.486  31.302  24.374  1.00  0.00     0.078 C 
HETATM   19  C13 UNL     1      38.278  32.483  23.484  1.00  0.00     0.014 C 
HETATM   20  C14 UNL     1      37.076  33.243  23.942  1.00  0.00     0.001 C 
HETATM   21  C15 UNL     1      36.576  32.562  25.181  1.00  0.00     0.001 C 
HETATM   22  C16 UNL     1      37.578  31.521  25.555  1.00  0.00     0.014 C 
ENDBRANCH  15  18
ENDBRANCH  13  14
ENDBRANCH   8   9
ENDBRANCH   5   8
BRANCH   1  23
HETATM   23  N1  UNL     1      32.978  28.839  19.836  1.00  0.00    -0.364 N 
ATOM     24  H1  UNL     1      32.496  28.055  19.396  1.00  0.00     0.162 HD
BRANCH  23  25
HETATM   25  C1  UNL     1      32.280  29.898  20.406  1.00  0.00     0.150 C 
BRANCH  25  26
HETATM   26  O1  UNL     1      31.213  29.631  21.103  1.00  0.00    -0.346 OA
ATOM     27  H1  UNL     1      30.873  30.303  21.683  1.00  0.00     0.219 HD
ENDBRANCH  25  26
BRANCH  25  28
HETATM   28  C18 UNL     1      32.583  31.313  20.328  1.00  0.00     0.058 A 
HETATM   29  C19 UNL     1      32.049  32.083  19.278  1.00  0.00     0.050 A 
HETATM   30 CL1  UNL     1      31.064  31.291  18.073  1.00  0.00    -0.083 Cl
HETATM   31  C20 UNL     1      32.257  33.430  19.142  1.00  0.00     0.025 A 
HETATM   32  C21 UNL     1      33.024  34.102  20.059  1.00  0.00     0.003 A 
HETATM   33  C22 UNL     1      33.563  33.393  21.099  1.00  0.00     0.025 A 
HETATM   34  C23 UNL     1      33.339  32.010  21.226  1.00  0.00     0.050 A 
HETATM   35 CL2  UNL     1      34.060  31.253  22.650  1.00  0.00    -0.083 Cl
ENDBRANCH  25  28
ENDBRANCH  23  25
ENDBRANCH   1  23
TORSDOF 8
ENDMDL
MODEL 2
REMARK VINA RESULT: -8.059390157      0.107      1.603
REMARK  8 active torsions:
REMARK  status: ('A' for Active; 'I' for Inactive)
REMARK    1  A    between atoms: O1_1  and  C1_3 
REMARK    2  A    between atoms: C1_3  and  N1_4 
REMARK    3  A    between atoms: C1_3  and  C18_28 
REMARK    4  A    between atoms: N1_4  and  C2_6 
REMARK       I    between atoms: N2_9  and  C5_10 
REMARK    5  A    between atoms: C5_10  and  O3_12 
REMARK    6  A    between atoms: O3_12  and  C6_13 
REMARK    7  A    between atoms: C10_17  and  N3_18 
REMARK       I    between atoms: N3_18  and  C11_20 
REMARK    8  A    between atoms: C11_20  and  C12_22 
ROOT
HETATM    1  C2  UNL     1      34.439  28.929  19.971  1.00  0.00     0.103 C 
HETATM    2  C3  UNL     1      34.944  28.549  21.367  1.00  0.00     0.047 C 
HETATM    3  C4  UNL     1      35.946  27.419  21.137  1.00  0.00     0.130 C 
HETATM    4  N2  UNL     1      36.289  27.614  19.748  1.00  0.00    -0.326 N 
HETATM    5  C5  UNL     1      37.591  27.543  19.214  1.00  0.00     0.363 C 
HETATM    6  O2  UNL     1      37.806  27.709  17.969  1.00  0.00    -0.238 OA
HETATM    7  C17 UNL     1      35.049  27.896  19.062  1.00  0.00     0.153 C 
ENDROOT
BRANCH   5   8
HETATM    8  O3  UNL     1      38.682  27.297  20.000  1.00  0.00    -0.296 OA
BRANCH   8   9
HETATM    9  C6  UNL     1      39.367  28.182  20.799  1.00  0.00     0.156 C 
HETATM   10  C7  UNL     1      40.850  28.092  20.793  1.00  0.00     0.035 C 
HETATM   11  C8  UNL     1      41.082  26.906  21.736  1.00  0.00     0.005 C 
HETATM   12  C9  UNL     1      39.951  26.981  22.739  1.00  0.00     0.028 C 
HETATM   13  C10 UNL     1      39.035  28.084  22.271  1.00  0.00     0.114 C 
BRANCH  13  14
HETATM   14  N3  UNL     1      39.274  29.350  22.945  1.00  0.00    -0.354 N 
HETATM   15  C11 UNL     1      38.264  30.038  23.650  1.00  0.00     0.222 C 
HETATM   16  O4  UNL     1      37.113  29.560  23.712  1.00  0.00    -0.273 OA
ATOM     17  H3  UNL     1      40.208  29.758  22.906  1.00  0.00     0.163 HD
BRANCH  15  18
HETATM   18  C12 UNL     1      38.548  31.325  24.321  1.00  0.00     0.078 C 
HETATM   19  C13 UNL     1      38.296  32.503  23.439  1.00  0.00     0.014 C 
HETATM   20  C14 UNL     1      37.098  33.245  23.935  1.00  0.00     0.001 C 
HETATM   21  C15 UNL     1      36.647  32.556  25.188  1.00  0.00     0.001 C 
HETATM   22  C16 UNL     1      37.675  31.529  25.529  1.00  0.00     0.014 C 
ENDBRANCH  15  18
ENDBRANCH  13  14
ENDBRANCH   8   9
ENDBRANCH   5   8
BRANCH   1  23
HETATM   23  N1  UNL     1      32.962  28.865  19.966  1.00  0.00    -0.364 N 
ATOM     24  H1  UNL     1      32.463  28.074  19.559  1.00  0.00     0.162 HD
BRANCH  23  25
HETATM   25  C1  UNL     1      32.287  29.935  20.544  1.00  0.00     0.150 C 
BRANCH  25  26
HETATM   26  O1  UNL     1      31.343  29.678  21.404  1.00  0.00    -0.346 OA
ATOM     27  H1  UNL     1      30.580  30.243  21.418  1.00  0.00     0.219 HD
ENDBRANCH  25  26
BRANCH  25  28
HETATM   28  C18 UNL     1      32.491  31.350  20.312  1.00  0.00     0.058 A 
HETATM   29  C19 UNL     1      33.297  32.092  21.195  1.00  0.00     0.050 A 
HETATM   30 CL1  UNL     1      33.995  31.282  22.576  1.00  0.00    -0.083 Cl
HETATM   31  C20 UNL     1      33.569  33.425  21.038  1.00  0.00     0.025 A 
HETATM   32  C21 UNL     1      33.045  34.110  19.971  1.00  0.00     0.003 A 
HETATM   33  C22 UNL     1      32.256  33.428  19.085  1.00  0.00     0.025 A 
HETATM   34  C23 UNL     1      31.987  32.059  19.260  1.00  0.00     0.050 A 
HETATM   35 CL2  UNL     1      30.997  31.315  18.001  1.00  0.00    -0.083 Cl
ENDBRANCH  25  28
ENDBRANCH  23  25
ENDBRANCH   1  23
TORSDOF 8
ENDMDL
MODEL 3
REMARK VINA RESULT: -7.879266202      2.738      3.889
REMARK  8 active torsions:
REMARK  status: ('A' for Active; 'I' for Inactive)
REMARK    1  A    between atoms: O1_1  and  C1_3 
REMARK    2  A    between atoms: C1_3  and  N1_4 
REMARK    3  A    between atoms: C1_3  and  C18_28 
REMARK    4  A    between atoms: N1_4  and  C2_6 
REMARK       I    between atoms: N2_9  and  C5_10 
REMARK    5  A    between atoms: C5_10  and  O3_12 
REMARK    6  A    between atoms: O3_12  and  C6_13 
REMARK    7  A    between atoms: C10_17  and  N3_18 
REMARK       I    between atoms: N3_18  and  C11_20 
REMARK    8  A    between atoms: C11_20  and  C12_22 
ROOT
HETATM    1  C2  UNL     1      34.016  28.438  21.572  1.00  0.00     0.103 C 
HETATM    2  C3  UNL     1      35.503  28.171  21.310  1.00  0.00     0.047 C 
HETATM    3  C4  UNL     1      36.244  28.903  22.428  1.00  0.00     0.130 C 
HETATM    4  N2  UNL     1      35.206  29.043  23.421  1.00  0.00    -0.326 N 
HETATM    5  C5  UNL     1      35.369  28.828  24.805  1.00  0.00     0.363 C 
HETATM    6  O2  UNL     1      34.403  28.993  25.619  1.00  0.00    -0.238 OA
HETATM    7  C17 UNL     1      34.011  29.428  22.705  1.00  0.00     0.153 C 
ENDROOT
BRANCH   5   8
HETATM    8  O3  UNL     1      36.563  28.431  25.337  1.00  0.00    -0.296 OA
BRANCH   8   9
HETATM    9  C6  UNL     1      37.699  29.184  25.526  1.00  0.00     0.156 C 
HETATM   10  C7  UNL     1      38.581  28.808  26.660  1.00  0.00     0.035 C 
HETATM   11  C8  UNL     1      37.840  29.448  27.841  1.00  0.00     0.005 C 
HETATM   12  C9  UNL     1      37.194  30.690  27.265  1.00  0.00     0.028 C 
HETATM   13  C10 UNL     1      37.443  30.653  25.778  1.00  0.00     0.114 C 
BRANCH  13  14
HETATM   14  N3  UNL     1      38.582  31.458  25.368  1.00  0.00    -0.354 N 
HETATM   15  C11 UNL     1      38.488  32.457  24.376  1.00  0.00     0.222 C 
HETATM   16  O4  UNL     1      37.396  32.676  23.815  1.00  0.00    -0.273 OA
ATOM     17  H3  UNL     1      39.484  31.296  25.815  1.00  0.00     0.163 HD
BRANCH  15  18
HETATM   18  C12 UNL     1      39.672  33.254  23.988  1.00  0.00     0.078 C 
HETATM   19  C13 UNL     1      40.874  32.942  24.817  1.00  0.00     0.014 C 
HETATM   20  C14 UNL     1      41.881  32.225  23.978  1.00  0.00     0.001 C 
HETATM   21  C15 UNL     1      41.323  32.160  22.587  1.00  0.00     0.001 C 
HETATM   22  C16 UNL     1      40.082  32.989  22.564  1.00  0.00     0.014 C 
ENDBRANCH  15  18
ENDBRANCH  13  14
ENDBRANCH   8   9
ENDBRANCH   5   8
BRANCH   1  23
HETATM   23  N1  UNL     1      33.412  29.000  20.346  1.00  0.00    -0.364 N 
ATOM     24  H1  UNL     1      33.697  28.688  19.418  1.00  0.00     0.162 HD
BRANCH  23  25
HETATM   25  C1  UNL     1      32.436  29.976  20.519  1.00  0.00     0.150 C 
BRANCH  25  26
HETATM   26  O1  UNL     1      31.353  29.657  21.169  1.00  0.00    -0.346 OA
ATOM     27  H1  UNL     1      30.530  29.642  20.694  1.00  0.00     0.219 HD
ENDBRANCH  25  26
BRANCH  25  28
HETATM   28  C18 UNL     1      32.453  31.348  20.057  1.00  0.00     0.058 A 
HETATM   29  C19 UNL     1      31.641  31.730  18.972  1.00  0.00     0.050 A 
HETATM   30 CL1  UNL     1      30.664  30.514  18.188  1.00  0.00    -0.083 Cl
HETATM   31  C20 UNL     1      31.572  33.008  18.488  1.00  0.00     0.025 A 
HETATM   32  C21 UNL     1      32.320  34.002  19.066  1.00  0.00     0.003 A 
HETATM   33  C22 UNL     1      33.123  33.678  20.126  1.00  0.00     0.025 A 
HETATM   34  C23 UNL     1      33.184  32.359  20.612  1.00  0.00     0.050 A 
HETATM   35 CL2  UNL     1      34.227  32.117  22.017  1.00  0.00    -0.083 Cl
ENDBRANCH  25  28
ENDBRANCH  23  25
ENDBRANCH   1  23
TORSDOF 8
ENDMDL
MODEL 4
REMARK VINA RESULT: -7.678505540      2.768      4.205
REMARK  8 active torsions:
REMARK  status: ('A' for Active; 'I' for Inactive)
REMARK    1  A    between atoms: O1_1  and  C1_3 
REMARK    2  A    between atoms: C1_3  and  N1_4 
REMARK    3  A    between atoms: C1_3  and  C18_28 
REMARK    4  A    between atoms: N1_4  and  C2_6 
REMARK       I    between atoms: N2_9  and  C5_10 
REMARK    5  A    between atoms: C5_10  and  O3_12 
REMARK    6  A    between atoms: O3_12  and  C6_13 
REMARK    7  A    between atoms: C10_17  and  N3_18 
REMARK       I    between atoms: N3_18  and  C11_20 
REMARK    8  A    between atoms: C11_20  and  C12_22 
ROOT
HETATM    1  C2  UNL     1      33.847  28.534  21.565  1.00  0.00     0.103 C 
HETATM    2  C3  UNL     1      35.314  28.175  21.298  1.00  0.00     0.047 C 
HETATM    3  C4  UNL     1      36.107  28.899  22.385  1.00  0.00     0.130 C 
HETATM    4  N2  UNL     1      35.089  29.128  23.383  1.00  0.00    -0.326 N 
HETATM    5  C5  UNL     1      35.256  28.947  24.771  1.00  0.00     0.363 C 
HETATM    6  O2  UNL     1      34.310  29.192  25.588  1.00  0.00    -0.238 OA
HETATM    7  C17 UNL     1      33.910  29.557  22.666  1.00  0.00     0.153 C 
ENDROOT
BRANCH   5   8
HETATM    8  O3  UNL     1      36.432  28.501  25.305  1.00  0.00    -0.296 OA
BRANCH   8   9
HETATM    9  C6  UNL     1      37.600  29.204  25.489  1.00  0.00     0.156 C 
HETATM   10  C7  UNL     1      38.483  28.771  26.602  1.00  0.00     0.035 C 
HETATM   11  C8  UNL     1      37.787  29.417  27.806  1.00  0.00     0.005 C 
HETATM   12  C9  UNL     1      37.183  30.695  27.263  1.00  0.00     0.028 C 
HETATM   13  C10 UNL     1      37.407  30.676  25.772  1.00  0.00     0.114 C 
BRANCH  13  14
HETATM   14  N3  UNL     1      38.571  31.443  25.359  1.00  0.00    -0.354 N 
HETATM   15  C11 UNL     1      38.498  32.483  24.408  1.00  0.00     0.222 C 
HETATM   16  O4  UNL     1      37.402  32.775  23.890  1.00  0.00    -0.273 OA
ATOM     17  H3  UNL     1      39.477  31.221  25.772  1.00  0.00     0.163 HD
BRANCH  15  18
HETATM   18  C12 UNL     1      39.706  33.239  24.016  1.00  0.00     0.078 C 
HETATM   19  C13 UNL     1      40.903  32.879  24.835  1.00  0.00     0.014 C 
HETATM   20  C14 UNL     1      41.877  32.130  23.985  1.00  0.00     0.001 C 
HETATM   21  C15 UNL     1      41.307  32.092  22.599  1.00  0.00     0.001 C 
HETATM   22  C16 UNL     1      40.097  32.965  22.588  1.00  0.00     0.014 C 
ENDBRANCH  15  18
ENDBRANCH  13  14
ENDBRANCH   8   9
ENDBRANCH   5   8
BRANCH   1  23
HETATM   23  N1  UNL     1      33.262  29.090  20.327  1.00  0.00    -0.364 N 
ATOM     24  H1  UNL     1      33.579  28.791  19.405  1.00  0.00     0.162 HD
BRANCH  23  25
HETATM   25  C1  UNL     1      32.258  30.041  20.482  1.00  0.00     0.150 C 
BRANCH  25  26
HETATM   26  O1  UNL     1      31.220  29.731  21.204  1.00  0.00    -0.346 OA
ATOM     27  H1  UNL     1      31.281  29.828  22.147  1.00  0.00     0.219 HD
ENDBRANCH  25  26
BRANCH  25  28
HETATM   28  C18 UNL     1      32.202  31.378  19.928  1.00  0.00     0.058 A 
HETATM   29  C19 UNL     1      33.015  32.392  20.469  1.00  0.00     0.050 A 
HETATM   30 CL1  UNL     1      34.041  32.008  21.829  1.00  0.00    -0.083 Cl
HETATM   31  C20 UNL     1      33.050  33.674  19.991  1.00  0.00     0.025 A 
HETATM   32  C21 UNL     1      32.263  34.031  18.925  1.00  0.00     0.003 A 
HETATM   33  C22 UNL     1      31.457  33.076  18.365  1.00  0.00     0.025 A 
HETATM   34  C23 UNL     1      31.433  31.762  18.867  1.00  0.00     0.050 A 
HETATM   35 CL2  UNL     1      30.381  30.639  18.001  1.00  0.00    -0.083 Cl
ENDBRANCH  25  28
ENDBRANCH  23  25
ENDBRANCH   1  23
TORSDOF 8
ENDMDL
MODEL 5
REMARK VINA RESULT: -7.537565905      2.633      6.534
REMARK  8 active torsions:
REMARK  status: ('A' for Active; 'I' for Inactive)
REMARK    1  A    between atoms: O1_1  and  C1_3 
REMARK    2  A    between atoms: C1_3  and  N1_4 
REMARK    3  A    between atoms: C1_3  and  C18_28 
REMARK    4  A    between atoms: N1_4  and  C2_6 
REMARK       I    between atoms: N2_9  and  C5_10 
REMARK    5  A    between atoms: C5_10  and  O3_12 
REMARK    6  A    between atoms: O3_12  and  C6_13 
REMARK    7  A    between atoms: C10_17  and  N3_18 
REMARK       I    between atoms: N3_18  and  C11_20 
REMARK    8  A    between atoms: C11_20  and  C12_22 
ROOT
HETATM    1  C2  UNL     1      39.674  29.073  24.010  1.00  0.00     0.103 C 
HETATM    2  C3  UNL     1      39.605  29.552  22.556  1.00  0.00     0.047 C 
HETATM    3  C4  UNL     1      39.999  28.339  21.715  1.00  0.00     0.130 C 
HETATM    4  N2  UNL     1      39.749  27.255  22.635  1.00  0.00    -0.326 N 
HETATM    5  C5  UNL     1      39.122  26.036  22.305  1.00  0.00     0.363 C 
HETATM    6  O2  UNL     1      38.957  25.120  23.175  1.00  0.00    -0.238 OA
HETATM    7  C17 UNL     1      40.256  27.688  23.917  1.00  0.00     0.153 C 
ENDROOT
BRANCH   5   8
HETATM    8  O3  UNL     1      38.661  25.780  21.045  1.00  0.00    -0.296 OA
BRANCH   8   9
HETATM    9  C6  UNL     1      37.400  26.001  20.542  1.00  0.00     0.156 C 
HETATM   10  C7  UNL     1      37.038  25.296  19.286  1.00  0.00     0.035 C 
HETATM   11  C8  UNL     1      37.720  26.183  18.237  1.00  0.00     0.005 C 
HETATM   12  C9  UNL     1      37.661  27.581  18.815  1.00  0.00     0.028 C 
HETATM   13  C10 UNL     1      37.102  27.445  20.209  1.00  0.00     0.114 C 
BRANCH  13  14
HETATM   14  N3  UNL     1      35.674  27.713  20.282  1.00  0.00    -0.354 N 
HETATM   15  C11 UNL     1      35.097  28.477  21.318  1.00  0.00     0.222 C 
HETATM   16  O4  UNL     1      35.819  28.952  22.217  1.00  0.00    -0.273 OA
ATOM     17  H3  UNL     1      35.067  27.334  19.556  1.00  0.00     0.163 HD
BRANCH  15  18
HETATM   18  C12 UNL     1      33.640  28.726  21.355  1.00  0.00     0.078 C 
HETATM   19  C13 UNL     1      33.197  29.371  22.627  1.00  0.00     0.014 C 
HETATM   20  C14 UNL     1      32.782  30.779  22.349  1.00  0.00     0.001 C 
HETATM   21  C15 UNL     1      32.898  30.983  20.868  1.00  0.00     0.001 C 
HETATM   22  C16 UNL     1      33.204  29.657  20.256  1.00  0.00     0.014 C 
ENDBRANCH  15  18
ENDBRANCH  13  14
ENDBRANCH   8   9
ENDBRANCH   5   8
BRANCH   1  23
HETATM   23  N1  UNL     1      40.549  29.989  24.771  1.00  0.00    -0.364 N 
ATOM     24  H1  UNL     1      41.544  29.800  24.891  1.00  0.00     0.162 HD
BRANCH  23  25
HETATM   25  C1  UNL     1      39.950  31.120  25.315  1.00  0.00     0.150 C 
BRANCH  25  26
HETATM   26  O1  UNL     1      40.696  32.161  25.551  1.00  0.00    -0.346 OA
ATOM     27  H1  UNL     1      41.452  32.309  24.996  1.00  0.00     0.219 HD
ENDBRANCH  25  26
BRANCH  25  28
HETATM   28  C18 UNL     1      38.560  31.309  25.674  1.00  0.00     0.058 A 
HETATM   29  C19 UNL     1      38.065  30.747  26.867  1.00  0.00     0.050 A 
HETATM   30 CL1  UNL     1      39.145  29.800  27.859  1.00  0.00    -0.083 Cl
HETATM   31  C20 UNL     1      36.775  30.899  27.300  1.00  0.00     0.025 A 
HETATM   32  C21 UNL     1      35.884  31.632  26.558  1.00  0.00     0.003 A 
HETATM   33  C22 UNL     1      36.321  32.198  25.390  1.00  0.00     0.025 A 
HETATM   34  C23 UNL     1      37.650  32.034  24.959  1.00  0.00     0.050 A 
HETATM   35 CL2  UNL     1      38.069  32.871  23.462  1.00  0.00    -0.083 Cl
ENDBRANCH  25  28
ENDBRANCH  23  25
ENDBRANCH   1  23
TORSDOF 8
ENDMDL
