MODEL 1
REMARK VINA RESULT: -7.624502802      0.000      0.000
REMARK  8 active torsions:
REMARK  status: ('A' for Active; 'I' for Inactive)
REMARK    1  A    between atoms: C2_2  and  C3_4 
REMARK    2  A    between atoms: C3_4  and  O2_5 
REMARK    3  A    between atoms: C3_4  and  C4_7 
REMARK    4  A    between atoms: C4_7  and  N1_8 
REMARK    5  A    between atoms: C4_7  and  C16_29 
REMARK       I    between atoms: N1_8  and  C5_10 
REMARK    6  A    between atoms: C5_10  and  C6_12 
REMARK    7  A    between atoms: C7_13  and  C8_14 
REMARK       I    between atoms: C8_14  and  N2_16 
REMARK    8  A    between atoms: N2_16  and  C9_18 
ROOT
HETATM    1  C6  UNL     1      36.641  27.372  22.266  1.00  0.00     0.116 A 
HETATM    2  C7  UNL     1      36.669  28.164  20.980  1.00  0.00     0.117 A 
HETATM    3  C14 UNL     1      37.612  27.059  21.193  1.00  0.00     0.059 A 
HETATM    4  C15 UNL     1      37.348  25.782  20.399  1.00  0.00     0.034 C 
HETATM    5 CL1  UNL     1      39.329  27.431  21.322  1.00  0.00    -0.118 Cl
ENDROOT
BRANCH   1   6
HETATM    6  C5  UNL     1      36.929  28.103  23.488  1.00  0.00     0.225 C 
HETATM    7  N1  UNL     1      36.412  29.374  23.864  1.00  0.00    -0.349 N 
ATOM      8  H1  UNL     1      35.768  29.855  23.235  1.00  0.00     0.163 HD
HETATM    9  O3  UNL     1      37.723  27.580  24.337  1.00  0.00    -0.273 OA
BRANCH   7  10
HETATM   10  C4  UNL     1      36.787  30.022  25.151  1.00  0.00     0.152 C 
BRANCH  10  11
HETATM   11  C3  UNL     1      37.617  31.155  24.853  1.00  0.00     0.112 C 
BRANCH  11  12
HETATM   12  C2  UNL     1      37.498  32.250  23.942  1.00  0.00     0.176 C 
HETATM   13  C1  UNL     1      36.259  33.014  23.642  1.00  0.00     0.099 C 
HETATM   14  O1  UNL     1      38.501  32.642  23.313  1.00  0.00    -0.291 OA
ENDBRANCH  11  12
BRANCH  11  15
HETATM   15  O2  UNL     1      38.721  31.239  25.539  1.00  0.00    -0.359 OA
ATOM     16  H2  UNL     1      38.798  30.513  26.147  1.00  0.00     0.217 HD
ENDBRANCH  11  15
ENDBRANCH  10  11
BRANCH  10  17
HETATM   17  C16 UNL     1      35.564  30.175  25.987  1.00  0.00    -0.025 C 
HETATM   18  C17 UNL     1      35.439  31.330  26.890  1.00  0.00     0.017 C 
HETATM   19  C18 UNL     1      35.417  28.909  26.858  1.00  0.00     0.017 C 
HETATM   20  C19 UNL     1      34.288  30.159  25.126  1.00  0.00     0.017 C 
ENDBRANCH  10  17
ENDBRANCH   7  10
ENDBRANCH   1   6
BRANCH   2  21
HETATM   21  C8  UNL     1      35.522  28.056  20.058  1.00  0.00     0.230 C 
HETATM   22  O4  UNL     1      35.766  27.799  18.837  1.00  0.00    -0.273 OA
HETATM   23  N2  UNL     1      34.200  28.232  20.524  1.00  0.00    -0.313 N 
ATOM     24  H2  UNL     1      33.823  27.563  21.194  1.00  0.00     0.170 HD
BRANCH  23  25
HETATM   25  C9  UNL     1      33.460  29.194  20.139  1.00  0.00     0.107 A 
HETATM   26  C10 UNL     1      33.437  30.381  20.807  1.00  0.00     0.050 A 
HETATM   27  C11 UNL     1      32.629  31.429  20.375  1.00  0.00     0.024 A 
HETATM   28  C12 UNL     1      31.851  31.237  19.258  1.00  0.00     0.026 A 
HETATM   29 BR1  UNL     1      30.710  32.623  18.594  1.00  0.00    -0.050 Br
HETATM   30  C13 UNL     1      31.885  30.030  18.594  1.00  0.00     0.108 A 
HETATM   31  N3  UNL     1      32.692  29.034  19.054  1.00  0.00    -0.351 N 
ATOM     32  H3  UNL     1      32.712  28.143  18.558  1.00  0.00     0.166 HD
ENDBRANCH  23  25
ENDBRANCH   2  21
TORSDOF 8
ENDMDL
MODEL 2
REMARK VINA RESULT: -7.230037193      0.995      1.280
REMARK  8 active torsions:
REMARK  status: ('A' for Active; 'I' for Inactive)
REMARK    1  A    between atoms: C2_2  and  C3_4 
REMARK    2  A    between atoms: C3_4  and  O2_5 
REMARK    3  A    between atoms: C3_4  and  C4_7 
REMARK    4  A    between atoms: C4_7  and  N1_8 
REMARK    5  A    between atoms: C4_7  and  C16_29 
REMARK       I    between atoms: N1_8  and  C5_10 
REMARK    6  A    between atoms: C5_10  and  C6_12 
REMARK    7  A    between atoms: C7_13  and  C8_14 
REMARK       I    between atoms: C8_14  and  N2_16 
REMARK    8  A    between atoms: N2_16  and  C9_18 
ROOT
HETATM    1  C6  UNL     1      36.556  27.417  22.207  1.00  0.00     0.116 A 
HETATM    2  C7  UNL     1      36.603  28.094  20.857  1.00  0.00     0.117 A 
HETATM    3  C14 UNL     1      37.458  26.934  21.138  1.00  0.00     0.059 A 
HETATM    4  C15 UNL     1      37.061  25.622  20.464  1.00  0.00     0.034 C 
HETATM    5 CL1  UNL     1      39.204  27.167  21.185  1.00  0.00    -0.118 Cl
ENDROOT
BRANCH   1   6
HETATM    6  C5  UNL     1      36.946  28.221  23.353  1.00  0.00     0.225 C 
HETATM    7  N1  UNL     1      36.899  29.638  23.457  1.00  0.00    -0.349 N 
ATOM      8  H1  UNL     1      36.560  30.184  22.664  1.00  0.00     0.163 HD
HETATM    9  O3  UNL     1      37.381  27.625  24.393  1.00  0.00    -0.273 OA
BRANCH   7  10
HETATM   10  C4  UNL     1      37.330  30.348  24.693  1.00  0.00     0.152 C 
BRANCH  10  11
HETATM   11  C3  UNL     1      38.681  30.792  24.501  1.00  0.00     0.112 C 
BRANCH  11  12
HETATM   12  C2  UNL     1      39.426  31.212  23.355  1.00  0.00     0.176 C 
HETATM   13  C1  UNL     1      39.723  32.614  22.963  1.00  0.00     0.099 C 
HETATM   14  O1  UNL     1      39.894  30.358  22.576  1.00  0.00    -0.291 OA
ENDBRANCH  11  12
BRANCH  11  15
HETATM   15  O2  UNL     1      39.417  30.840  25.575  1.00  0.00    -0.359 OA
ATOM     16  H2  UNL     1      38.876  30.935  26.351  1.00  0.00     0.217 HD
ENDBRANCH  11  15
ENDBRANCH  10  11
BRANCH  10  17
HETATM   17  C16 UNL     1      36.264  31.306  25.096  1.00  0.00    -0.025 C 
HETATM   18  C17 UNL     1      36.431  32.740  24.814  1.00  0.00     0.017 C 
HETATM   19  C18 UNL     1      36.048  31.171  26.618  1.00  0.00     0.017 C 
HETATM   20  C19 UNL     1      34.898  30.906  24.511  1.00  0.00     0.017 C 
ENDBRANCH  10  17
ENDBRANCH   7  10
ENDBRANCH   1   6
BRANCH   2  21
HETATM   21  C8  UNL     1      35.419  28.008  19.981  1.00  0.00     0.230 C 
HETATM   22  O4  UNL     1      35.607  27.715  18.759  1.00  0.00    -0.273 OA
HETATM   23  N2  UNL     1      34.123  28.243  20.491  1.00  0.00    -0.313 N 
ATOM     24  H2  UNL     1      33.748  27.603  21.191  1.00  0.00     0.170 HD
BRANCH  23  25
HETATM   25  C9  UNL     1      33.403  29.223  20.111  1.00  0.00     0.107 A 
HETATM   26  C10 UNL     1      33.440  30.420  20.760  1.00  0.00     0.050 A 
HETATM   27  C11 UNL     1      32.654  31.488  20.334  1.00  0.00     0.024 A 
HETATM   28  C12 UNL     1      31.838  31.304  19.243  1.00  0.00     0.026 A 
HETATM   29 BR1  UNL     1      30.725  32.716  18.588  1.00  0.00    -0.050 Br
HETATM   30  C13 UNL     1      31.812  30.086  18.599  1.00  0.00     0.108 A 
HETATM   31  N3  UNL     1      32.600  29.071  19.052  1.00  0.00    -0.351 N 
ATOM     32  H3  UNL     1      32.576  28.172  18.571  1.00  0.00     0.166 HD
ENDBRANCH  23  25
ENDBRANCH   2  21
TORSDOF 8
ENDMDL
MODEL 3
REMARK VINA RESULT: -7.206019405      1.707      2.607
REMARK  8 active torsions:
REMARK  status: ('A' for Active; 'I' for Inactive)
REMARK    1  A    between atoms: C2_2  and  C3_4 
REMARK    2  A    between atoms: C3_4  and  O2_5 
REMARK    3  A    between atoms: C3_4  and  C4_7 
REMARK    4  A    between atoms: C4_7  and  N1_8 
REMARK    5  A    between atoms: C4_7  and  C16_29 
REMARK       I    between atoms: N1_8  and  C5_10 
REMARK    6  A    between atoms: C5_10  and  C6_12 
REMARK    7  A    between atoms: C7_13  and  C8_14 
REMARK       I    between atoms: C8_14  and  N2_16 
REMARK    8  A    between atoms: N2_16  and  C9_18 
ROOT
HETATM    1  C6  UNL     1      36.592  27.997  22.578  1.00  0.00     0.116 A 
HETATM    2  C7  UNL     1      36.697  28.505  21.159  1.00  0.00     0.117 A 
HETATM    3  C14 UNL     1      37.576  27.428  21.629  1.00  0.00     0.059 A 
HETATM    4  C15 UNL     1      37.270  26.027  21.104  1.00  0.00     0.034 C 
HETATM    5 CL1  UNL     1      39.305  27.743  21.745  1.00  0.00    -0.118 Cl
ENDROOT
BRANCH   1   6
HETATM    6  C5  UNL     1      36.882  28.952  23.634  1.00  0.00     0.225 C 
HETATM    7  N1  UNL     1      36.615  28.796  25.022  1.00  0.00    -0.349 N 
ATOM      8  H1  UNL     1      36.173  27.937  25.350  1.00  0.00     0.163 HD
HETATM    9  O3  UNL     1      37.438  30.057  23.320  1.00  0.00    -0.273 OA
BRANCH   7  10
HETATM   10  C4  UNL     1      36.962  29.855  26.010  1.00  0.00     0.152 C 
BRANCH  10  11
HETATM   11  C3  UNL     1      35.739  30.391  26.536  1.00  0.00     0.112 C 
BRANCH  11  12
HETATM   12  C2  UNL     1      34.533  29.797  27.024  1.00  0.00     0.176 C 
HETATM   13  C1  UNL     1      33.214  30.468  27.160  1.00  0.00     0.099 C 
HETATM   14  O1  UNL     1      34.535  28.602  27.382  1.00  0.00    -0.291 OA
ENDBRANCH  11  12
BRANCH  11  15
HETATM   15  O2  UNL     1      35.674  31.690  26.600  1.00  0.00    -0.359 OA
ATOM     16  H2  UNL     1      36.015  32.085  25.806  1.00  0.00     0.217 HD
ENDBRANCH  11  15
ENDBRANCH  10  11
BRANCH  10  17
HETATM   17  C16 UNL     1      38.018  29.336  26.922  1.00  0.00    -0.025 C 
HETATM   18  C17 UNL     1      37.989  29.694  28.349  1.00  0.00     0.017 C 
HETATM   19  C18 UNL     1      39.390  29.787  26.375  1.00  0.00     0.017 C 
HETATM   20  C19 UNL     1      38.107  27.800  26.864  1.00  0.00     0.017 C 
ENDBRANCH  10  17
ENDBRANCH   7  10
ENDBRANCH   1   6
BRANCH   2  21
HETATM   21  C8  UNL     1      35.572  28.259  20.235  1.00  0.00     0.230 C 
HETATM   22  O4  UNL     1      35.848  27.940  19.037  1.00  0.00    -0.273 OA
HETATM   23  N2  UNL     1      34.235  28.376  20.677  1.00  0.00    -0.313 N 
ATOM     24  H2  UNL     1      33.895  27.728  21.387  1.00  0.00     0.170 HD
BRANCH  23  25
HETATM   25  C9  UNL     1      33.437  29.258  20.222  1.00  0.00     0.107 A 
HETATM   26  C10 UNL     1      33.324  30.481  20.812  1.00  0.00     0.050 A 
HETATM   27  C11 UNL     1      32.453  31.442  20.304  1.00  0.00     0.024 A 
HETATM   28  C12 UNL     1      31.707  31.126  19.194  1.00  0.00     0.026 A 
HETATM   29 BR1  UNL     1      30.485  32.385  18.429  1.00  0.00    -0.050 Br
HETATM   30  C13 UNL     1      31.832  29.883  18.610  1.00  0.00     0.108 A 
HETATM   31  N3  UNL     1      32.698  28.976  19.142  1.00  0.00    -0.351 N 
ATOM     32  H3  UNL     1      32.786  28.059  18.705  1.00  0.00     0.166 HD
ENDBRANCH  23  25
ENDBRANCH   2  21
TORSDOF 8
ENDMDL
MODEL 4
REMARK VINA RESULT: -7.052925987      0.937      1.069
REMARK  8 active torsions:
REMARK  status: ('A' for Active; 'I' for Inactive)
REMARK    1  A    between atoms: C2_2  and  C3_4 
REMARK    2  A    between atoms: C3_4  and  O2_5 
REMARK    3  A    between atoms: C3_4  and  C4_7 
REMARK    4  A    between atoms: C4_7  and  N1_8 
REMARK    5  A    between atoms: C4_7  and  C16_29 
REMARK       I    between atoms: N1_8  and  C5_10 
REMARK    6  A    between atoms: C5_10  and  C6_12 
REMARK    7  A    between atoms: C7_13  and  C8_14 
REMARK       I    between atoms: C8_14  and  N2_16 
REMARK    8  A    between atoms: N2_16  and  C9_18 
ROOT
HETATM    1  C6  UNL     1      36.598  27.496  22.209  1.00  0.00     0.116 A 
HETATM    2  C7  UNL     1      36.635  28.107  20.827  1.00  0.00     0.117 A 
HETATM    3  C14 UNL     1      37.493  26.962  21.158  1.00  0.00     0.059 A 
HETATM    4  C15 UNL     1      37.091  25.618  20.552  1.00  0.00     0.034 C 
HETATM    5 CL1  UNL     1      39.239  27.197  21.180  1.00  0.00    -0.118 Cl
ENDROOT
BRANCH   1   6
HETATM    6  C5  UNL     1      36.998  28.355  23.310  1.00  0.00     0.225 C 
HETATM    7  N1  UNL     1      36.139  29.069  24.191  1.00  0.00    -0.349 N 
ATOM      8  H1  UNL     1      35.129  28.995  24.069  1.00  0.00     0.163 HD
HETATM    9  O3  UNL     1      38.243  28.507  23.543  1.00  0.00    -0.273 OA
BRANCH   7  10
HETATM   10  C4  UNL     1      36.675  29.921  25.289  1.00  0.00     0.152 C 
BRANCH  10  11
HETATM   11  C3  UNL     1      36.800  31.261  24.789  1.00  0.00     0.112 C 
BRANCH  11  12
HETATM   12  C2  UNL     1      36.077  32.020  23.817  1.00  0.00     0.176 C 
HETATM   13  C1  UNL     1      36.334  33.434  23.436  1.00  0.00     0.099 C 
HETATM   14  O1  UNL     1      35.131  31.492  23.200  1.00  0.00    -0.291 OA
ENDBRANCH  11  12
BRANCH  11  15
HETATM   15  O2  UNL     1      37.762  31.969  25.309  1.00  0.00    -0.359 OA
ATOM     16  H2  UNL     1      38.064  31.583  26.123  1.00  0.00     0.217 HD
ENDBRANCH  11  15
ENDBRANCH  10  11
BRANCH  10  17
HETATM   17  C16 UNL     1      35.909  29.642  26.534  1.00  0.00    -0.025 C 
HETATM   18  C17 UNL     1      34.793  30.522  26.915  1.00  0.00     0.017 C 
HETATM   19  C18 UNL     1      36.901  29.639  27.718  1.00  0.00     0.017 C 
HETATM   20  C19 UNL     1      35.350  28.207  26.541  1.00  0.00     0.017 C 
ENDBRANCH  10  17
ENDBRANCH   7  10
ENDBRANCH   1   6
BRANCH   2  21
HETATM   21  C8  UNL     1      35.444  27.977  19.965  1.00  0.00     0.230 C 
HETATM   22  O4  UNL     1      35.625  27.662  18.748  1.00  0.00    -0.273 OA
HETATM   23  N2  UNL     1      34.148  28.197  20.484  1.00  0.00    -0.313 N 
ATOM     24  H2  UNL     1      33.794  27.565  21.201  1.00  0.00     0.170 HD
BRANCH  23  25
HETATM   25  C9  UNL     1      33.405  29.153  20.091  1.00  0.00     0.107 A 
HETATM   26  C10 UNL     1      33.403  30.356  20.731  1.00  0.00     0.050 A 
HETATM   27  C11 UNL     1      32.591  31.398  20.291  1.00  0.00     0.024 A 
HETATM   28  C12 UNL     1      31.789  31.184  19.195  1.00  0.00     0.026 A 
HETATM   29 BR1  UNL     1      30.643  32.560  18.521  1.00  0.00    -0.050 Br
HETATM   30  C13 UNL     1      31.803  29.961  18.560  1.00  0.00     0.108 A 
HETATM   31  N3  UNL     1      32.614  28.971  19.027  1.00  0.00    -0.351 N 
ATOM     32  H3  UNL     1      32.619  28.068  18.553  1.00  0.00     0.166 HD
ENDBRANCH  23  25
ENDBRANCH   2  21
TORSDOF 8
ENDMDL
MODEL 5
REMARK VINA RESULT: -6.949053951      1.290      1.928
REMARK  8 active torsions:
REMARK  status: ('A' for Active; 'I' for Inactive)
REMARK    1  A    between atoms: C2_2  and  C3_4 
REMARK    2  A    between atoms: C3_4  and  O2_5 
REMARK    3  A    between atoms: C3_4  and  C4_7 
REMARK    4  A    between atoms: C4_7  and  N1_8 
REMARK    5  A    between atoms: C4_7  and  C16_29 
REMARK       I    between atoms: N1_8  and  C5_10 
REMARK    6  A    between atoms: C5_10  and  C6_12 
REMARK    7  A    between atoms: C7_13  and  C8_14 
REMARK       I    between atoms: C8_14  and  N2_16 
REMARK    8  A    between atoms: N2_16  and  C9_18 
ROOT
HETATM    1  C6  UNL     1      36.927  27.234  22.340  1.00  0.00     0.116 A 
HETATM    2  C7  UNL     1      36.729  28.361  21.353  1.00  0.00     0.117 A 
HETATM    3  C14 UNL     1      37.975  27.584  21.355  1.00  0.00     0.059 A 
HETATM    4  C15 UNL     1      38.162  26.605  20.197  1.00  0.00     0.034 C 
HETATM    5 CL1  UNL     1      39.472  28.396  21.802  1.00  0.00    -0.118 Cl
ENDROOT
BRANCH   1   6
HETATM    6  C5  UNL     1      36.928  27.594  23.748  1.00  0.00     0.225 C 
HETATM    7  N1  UNL     1      36.682  28.882  24.299  1.00  0.00    -0.349 N 
ATOM      8  H1  UNL     1      36.479  29.661  23.672  1.00  0.00     0.163 HD
HETATM    9  O3  UNL     1      37.170  26.684  24.608  1.00  0.00    -0.273 OA
BRANCH   7  10
HETATM   10  C4  UNL     1      36.712  29.124  25.769  1.00  0.00     0.152 C 
BRANCH  10  11
HETATM   11  C3  UNL     1      38.011  29.629  26.109  1.00  0.00     0.112 C 
BRANCH  11  12
HETATM   12  C2  UNL     1      38.868  29.461  27.241  1.00  0.00     0.176 C 
HETATM   13  C1  UNL     1      38.439  29.343  28.659  1.00  0.00     0.099 C 
HETATM   14  O1  UNL     1      40.103  29.400  27.078  1.00  0.00    -0.291 OA
ENDBRANCH  11  12
BRANCH  11  15
HETATM   15  O2  UNL     1      38.562  30.408  25.222  1.00  0.00    -0.359 OA
ATOM     16  H2  UNL     1      39.181  29.926  24.686  1.00  0.00     0.217 HD
ENDBRANCH  11  15
ENDBRANCH  10  11
BRANCH  10  17
HETATM   17  C16 UNL     1      35.481  29.864  26.160  1.00  0.00    -0.025 C 
HETATM   18  C17 UNL     1      35.600  31.170  26.829  1.00  0.00     0.017 C 
HETATM   19  C18 UNL     1      34.651  28.958  27.094  1.00  0.00     0.017 C 
HETATM   20  C19 UNL     1      34.546  30.079  24.957  1.00  0.00     0.017 C 
ENDBRANCH  10  17
ENDBRANCH   7  10
ENDBRANCH   1   6
BRANCH   2  21
HETATM   21  C8  UNL     1      35.704  28.207  20.302  1.00  0.00     0.230 C 
HETATM   22  O4  UNL     1      36.102  28.045  19.106  1.00  0.00    -0.273 OA
HETATM   23  N2  UNL     1      34.328  28.241  20.622  1.00  0.00    -0.313 N 
ATOM     24  H2  UNL     1      33.945  27.503  21.212  1.00  0.00     0.170 HD
BRANCH  23  25
HETATM   25  C9  UNL     1      33.549  29.156  20.202  1.00  0.00     0.107 A 
HETATM   26  C10 UNL     1      33.420  30.337  20.868  1.00  0.00     0.050 A 
HETATM   27  C11 UNL     1      32.569  31.334  20.398  1.00  0.00     0.024 A 
HETATM   28  C12 UNL     1      31.859  31.097  19.245  1.00  0.00     0.026 A 
HETATM   29 BR1  UNL     1      30.667  32.411  18.527  1.00  0.00    -0.050 Br
HETATM   30  C13 UNL     1      32.000  29.896  18.584  1.00  0.00     0.108 A 
HETATM   31  N3  UNL     1      32.845  28.951  19.081  1.00  0.00    -0.351 N 
ATOM     32  H3  UNL     1      32.945  28.064  18.587  1.00  0.00     0.166 HD
ENDBRANCH  23  25
ENDBRANCH   2  21
TORSDOF 8
ENDMDL
