MODEL 1
REMARK VINA RESULT: -7.050471658      0.000      0.000
REMARK  6 active torsions:
REMARK  status: ('A' for Active; 'I' for Inactive)
REMARK    1  A    between atoms: C2_2  and  O1_3 
REMARK    2  A    between atoms: O1_3  and  C3_4 
REMARK    3  A    between atoms: C5_6  and  C6_7 
REMARK       I    between atoms: N1_12  and  C9_13 
REMARK    4  A    between atoms: C9_13  and  C10_15 
REMARK    5  A    between atoms: C13_20  and  S1_21 
REMARK    6  A    between atoms: S1_21  and  N3_22 
ROOT
HETATM    1  C3  UNL     1      34.374  29.800  23.456  1.00  0.00     0.226 C 
HETATM    2  C4  UNL     1      33.889  29.787  21.952  1.00  0.00     0.065 C 
HETATM    3  C5  UNL     1      33.250  31.182  22.003  1.00  0.00     0.049 C 
HETATM    4  C8  UNL     1      34.444  31.967  22.448  1.00  0.00     0.139 C 
HETATM    5  N1  UNL     1      35.000  31.097  23.542  1.00  0.00    -0.319 N 
HETATM    6  C9  UNL     1      35.961  31.656  24.394  1.00  0.00     0.274 C 
HETATM    7  O2  UNL     1      36.271  32.878  24.143  1.00  0.00    -0.266 OA
ENDROOT
BRANCH   6   8
HETATM    8  C10 UNL     1      36.617  31.008  25.492  1.00  0.00     0.124 A 
HETATM    9  N2  UNL     1      36.122  30.397  26.581  1.00  0.00    -0.360 N 
HETATM   10  C11 UNL     1      37.094  29.917  27.385  1.00  0.00     0.090 A 
ATOM     11  H2  UNL     1      35.125  30.306  26.778  1.00  0.00     0.165 HD
HETATM   12  C12 UNL     1      38.280  30.226  26.797  1.00  0.00     0.044 A 
HETATM   13  C13 UNL     1      38.013  30.911  25.607  1.00  0.00     0.112 A 
BRANCH  13  14
HETATM   14  S1  UNL     1      39.230  31.482  24.517  1.00  0.00     0.259 S 
HETATM   15  O3  UNL     1      40.612  30.940  24.830  1.00  0.00    -0.201 OA
HETATM   16  O4  UNL     1      38.928  30.917  23.126  1.00  0.00    -0.201 OA
BRANCH  14  17
HETATM   17  N3  UNL     1      39.266  33.214  24.424  1.00  0.00    -0.324 N 
ATOM     18  H32 UNL     1      38.530  33.807  24.808  1.00  0.00     0.169 HD
ATOM     19  H31 UNL     1      40.099  33.557  23.945  1.00  0.00     0.169 HD
ENDBRANCH  14  17
ENDBRANCH  13  14
ENDBRANCH   6   8
BRANCH   1  20
HETATM   20  O1  UNL     1      33.176  29.728  24.142  1.00  0.00    -0.367 OA
BRANCH  20  21
HETATM   21  C2  UNL     1      33.221  29.218  25.405  1.00  0.00     0.166 C 
HETATM   22  C1  UNL     1      32.535  30.092  26.433  1.00  0.00     0.033 C 
ENDBRANCH  20  21
ENDBRANCH   1  20
BRANCH   3  23
HETATM   23  C6  UNL     1      32.701  31.587  20.717  1.00  0.00     0.001 C 
HETATM   24 BR1  UNL     1      32.979  33.346  20.064  1.00  0.00    -0.055 Br
HETATM   25  C7  UNL     1      32.005  30.741  19.987  1.00  0.00     0.071 C 
HETATM   26 BR2  UNL     1      31.271  31.244  18.289  1.00  0.00    -0.062 Br
ENDBRANCH   3  23
TORSDOF 6
ENDMDL
MODEL 2
REMARK VINA RESULT: -7.039682548      2.430      3.069
REMARK  6 active torsions:
REMARK  status: ('A' for Active; 'I' for Inactive)
REMARK    1  A    between atoms: C2_2  and  O1_3 
REMARK    2  A    between atoms: O1_3  and  C3_4 
REMARK    3  A    between atoms: C5_6  and  C6_7 
REMARK       I    between atoms: N1_12  and  C9_13 
REMARK    4  A    between atoms: C9_13  and  C10_15 
REMARK    5  A    between atoms: C13_20  and  S1_21 
REMARK    6  A    between atoms: S1_21  and  N3_22 
ROOT
HETATM    1  C3  UNL     1      33.821  28.967  24.553  1.00  0.00     0.226 C 
HETATM    2  C4  UNL     1      32.974  29.306  23.263  1.00  0.00     0.065 C 
HETATM    3  C5  UNL     1      33.784  30.557  22.894  1.00  0.00     0.049 C 
HETATM    4  C8  UNL     1      35.143  29.937  22.813  1.00  0.00     0.139 C 
HETATM    5  N1  UNL     1      35.167  29.075  24.046  1.00  0.00    -0.319 N 
HETATM    6  C9  UNL     1      36.404  28.563  24.459  1.00  0.00     0.274 C 
HETATM    7  O2  UNL     1      37.406  28.892  23.724  1.00  0.00    -0.266 OA
ENDROOT
BRANCH   6   8
HETATM    8  C10 UNL     1      36.651  27.726  25.597  1.00  0.00     0.124 A 
HETATM    9  N2  UNL     1      36.607  26.390  25.737  1.00  0.00    -0.360 N 
HETATM   10  C11 UNL     1      36.905  25.998  26.994  1.00  0.00     0.090 A 
ATOM     11  H2  UNL     1      36.376  25.747  24.981  1.00  0.00     0.165 HD
HETATM   12  C12 UNL     1      37.156  27.126  27.710  1.00  0.00     0.044 A 
HETATM   13  C13 UNL     1      37.004  28.227  26.860  1.00  0.00     0.112 A 
BRANCH  13  14
HETATM   14  S1  UNL     1      37.246  29.871  27.342  1.00  0.00     0.259 S 
HETATM   15  O3  UNL     1      37.653  30.012  28.797  1.00  0.00    -0.201 OA
HETATM   16  O4  UNL     1      38.455  30.419  26.577  1.00  0.00    -0.201 OA
BRANCH  14  17
HETATM   17  N3  UNL     1      35.867  30.865  26.999  1.00  0.00    -0.324 N 
ATOM     18  H32 UNL     1      34.942  30.484  26.799  1.00  0.00     0.169 HD
ATOM     19  H31 UNL     1      36.093  31.860  27.023  1.00  0.00     0.169 HD
ENDBRANCH  14  17
ENDBRANCH  13  14
ENDBRANCH   6   8
BRANCH   1  20
HETATM   20  O1  UNL     1      33.475  30.001  25.402  1.00  0.00    -0.367 OA
BRANCH  20  21
HETATM   21  C2  UNL     1      32.378  29.810  26.188  1.00  0.00     0.166 C 
HETATM   22  C1  UNL     1      32.443  30.551  27.506  1.00  0.00     0.033 C 
ENDBRANCH  20  21
ENDBRANCH   1  20
BRANCH   3  23
HETATM   23  C6  UNL     1      33.321  31.171  21.658  1.00  0.00     0.001 C 
HETATM   24 BR1  UNL     1      32.602  30.103  20.266  1.00  0.00    -0.055 Br
HETATM   25  C7  UNL     1      33.395  32.474  21.485  1.00  0.00     0.071 C 
HETATM   26 BR2  UNL     1      32.794  33.311  19.870  1.00  0.00    -0.062 Br
ENDBRANCH   3  23
TORSDOF 6
ENDMDL
MODEL 3
REMARK VINA RESULT: -6.845515079      1.052      1.221
REMARK  6 active torsions:
REMARK  status: ('A' for Active; 'I' for Inactive)
REMARK    1  A    between atoms: C2_2  and  O1_3 
REMARK    2  A    between atoms: O1_3  and  C3_4 
REMARK    3  A    between atoms: C5_6  and  C6_7 
REMARK       I    between atoms: N1_12  and  C9_13 
REMARK    4  A    between atoms: C9_13  and  C10_15 
REMARK    5  A    between atoms: C13_20  and  S1_21 
REMARK    6  A    between atoms: S1_21  and  N3_22 
ROOT
HETATM    1  C3  UNL     1      34.445  29.779  23.305  1.00  0.00     0.226 C 
HETATM    2  C4  UNL     1      33.921  29.756  21.814  1.00  0.00     0.065 C 
HETATM    3  C5  UNL     1      33.226  31.123  21.893  1.00  0.00     0.049 C 
HETATM    4  C8  UNL     1      34.398  31.954  22.312  1.00  0.00     0.139 C 
HETATM    5  N1  UNL     1      35.019  31.100  23.385  1.00  0.00    -0.319 N 
HETATM    6  C9  UNL     1      35.979  31.693  24.215  1.00  0.00     0.274 C 
HETATM    7  O2  UNL     1      36.231  32.929  23.965  1.00  0.00    -0.266 OA
ENDROOT
BRANCH   6   8
HETATM    8  C10 UNL     1      36.690  31.066  25.290  1.00  0.00     0.124 A 
HETATM    9  N2  UNL     1      36.387  30.934  26.592  1.00  0.00    -0.360 N 
HETATM   10  C11 UNL     1      37.343  30.272  27.276  1.00  0.00     0.090 A 
ATOM     11  H2  UNL     1      35.532  31.294  27.016  1.00  0.00     0.165 HD
HETATM   12  C12 UNL     1      38.318  29.953  26.383  1.00  0.00     0.044 A 
HETATM   13  C13 UNL     1      37.936  30.439  25.128  1.00  0.00     0.112 A 
BRANCH  13  14
HETATM   14  S1  UNL     1      38.868  30.244  23.683  1.00  0.00     0.259 S 
HETATM   15  O3  UNL     1      39.299  31.563  23.068  1.00  0.00    -0.201 OA
HETATM   16  O4  UNL     1      40.193  29.573  24.057  1.00  0.00    -0.201 OA
BRANCH  14  17
HETATM   17  N3  UNL     1      38.055  29.264  22.506  1.00  0.00    -0.324 N 
ATOM     18  H32 UNL     1      37.969  28.251  22.589  1.00  0.00     0.169 HD
ATOM     19  H31 UNL     1      37.682  29.818  21.734  1.00  0.00     0.169 HD
ENDBRANCH  14  17
ENDBRANCH  13  14
ENDBRANCH   6   8
BRANCH   1  20
HETATM   20  O1  UNL     1      33.270  29.653  24.022  1.00  0.00    -0.367 OA
BRANCH  20  21
HETATM   21  C2  UNL     1      33.383  29.257  25.322  1.00  0.00     0.166 C 
HETATM   22  C1  UNL     1      32.569  30.097  26.282  1.00  0.00     0.033 C 
ENDBRANCH  20  21
ENDBRANCH   1  20
BRANCH   3  23
HETATM   23  C6  UNL     1      32.627  31.513  20.625  1.00  0.00     0.001 C 
HETATM   24 BR1  UNL     1      32.859  33.271  19.953  1.00  0.00    -0.055 Br
HETATM   25  C7  UNL     1      31.916  30.654  19.926  1.00  0.00     0.071 C 
HETATM   26 BR2  UNL     1      31.116  31.137  18.253  1.00  0.00    -0.062 Br
ENDBRANCH   3  23
TORSDOF 6
ENDMDL
MODEL 4
REMARK VINA RESULT: -6.668780733      2.276      2.671
REMARK  6 active torsions:
REMARK  status: ('A' for Active; 'I' for Inactive)
REMARK    1  A    between atoms: C2_2  and  O1_3 
REMARK    2  A    between atoms: O1_3  and  C3_4 
REMARK    3  A    between atoms: C5_6  and  C6_7 
REMARK       I    between atoms: N1_12  and  C9_13 
REMARK    4  A    between atoms: C9_13  and  C10_15 
REMARK    5  A    between atoms: C13_20  and  S1_21 
REMARK    6  A    between atoms: S1_21  and  N3_22 
ROOT
HETATM    1  C3  UNL     1      33.780  29.173  24.082  1.00  0.00     0.226 C 
HETATM    2  C4  UNL     1      33.074  29.241  22.670  1.00  0.00     0.065 C 
HETATM    3  C5  UNL     1      33.283  30.751  22.486  1.00  0.00     0.049 C 
HETATM    4  C8  UNL     1      34.771  30.798  22.635  1.00  0.00     0.139 C 
HETATM    5  N1  UNL     1      34.994  29.910  23.829  1.00  0.00    -0.319 N 
HETATM    6  C9  UNL     1      36.252  29.949  24.445  1.00  0.00     0.274 C 
HETATM    7  O2  UNL     1      37.097  30.758  23.911  1.00  0.00    -0.266 OA
ENDROOT
BRANCH   6   8
HETATM    8  C10 UNL     1      36.674  29.191  25.585  1.00  0.00     0.124 A 
HETATM    9  N2  UNL     1      36.525  29.417  26.901  1.00  0.00    -0.360 N 
HETATM   10  C11 UNL     1      37.084  28.446  27.654  1.00  0.00     0.090 A 
ATOM     11  H2  UNL     1      36.045  30.230  27.288  1.00  0.00     0.165 HD
HETATM   12  C12 UNL     1      37.623  27.542  26.794  1.00  0.00     0.044 A 
HETATM   13  C13 UNL     1      37.382  27.983  25.488  1.00  0.00     0.112 A 
BRANCH  13  14
HETATM   14  S1  UNL     1      37.875  27.130  24.065  1.00  0.00     0.259 S 
HETATM   15  O3  UNL     1      36.795  27.072  23.001  1.00  0.00    -0.201 OA
HETATM   16  O4  UNL     1      38.997  27.928  23.395  1.00  0.00    -0.201 OA
BRANCH  14  17
HETATM   17  N3  UNL     1      38.457  25.536  24.425  1.00  0.00    -0.324 N 
ATOM     18  H32 UNL     1      39.374  25.359  24.836  1.00  0.00     0.169 HD
ATOM     19  H31 UNL     1      37.781  24.814  24.178  1.00  0.00     0.169 HD
ENDBRANCH  14  17
ENDBRANCH  13  14
ENDBRANCH   6   8
BRANCH   1  20
HETATM   20  O1  UNL     1      32.885  29.858  24.882  1.00  0.00    -0.367 OA
BRANCH  20  21
HETATM   21  C2  UNL     1      33.132  29.855  26.222  1.00  0.00     0.166 C 
HETATM   22  C1  UNL     1      31.946  30.296  27.054  1.00  0.00     0.033 C 
ENDBRANCH  20  21
ENDBRANCH   1  20
BRANCH   3  23
HETATM   23  C6  UNL     1      32.785  31.226  21.203  1.00  0.00     0.001 C 
HETATM   24 BR1  UNL     1      33.103  33.012  20.651  1.00  0.00    -0.055 Br
HETATM   25  C7  UNL     1      32.107  30.426  20.407  1.00  0.00     0.071 C 
HETATM   26 BR2  UNL     1      31.439  31.022  18.713  1.00  0.00    -0.062 Br
ENDBRANCH   3  23
TORSDOF 6
ENDMDL
MODEL 5
REMARK VINA RESULT: -6.609082011      1.953      1.986
REMARK  6 active torsions:
REMARK  status: ('A' for Active; 'I' for Inactive)
REMARK    1  A    between atoms: C2_2  and  O1_3 
REMARK    2  A    between atoms: O1_3  and  C3_4 
REMARK    3  A    between atoms: C5_6  and  C6_7 
REMARK       I    between atoms: N1_12  and  C9_13 
REMARK    4  A    between atoms: C9_13  and  C10_15 
REMARK    5  A    between atoms: C13_20  and  S1_21 
REMARK    6  A    between atoms: S1_21  and  N3_22 
ROOT
HETATM    1  C3  UNL     1      34.079  29.528  24.285  1.00  0.00     0.226 C 
HETATM    2  C4  UNL     1      33.412  29.398  22.858  1.00  0.00     0.065 C 
HETATM    3  C5  UNL     1      33.386  30.908  22.582  1.00  0.00     0.049 C 
HETATM    4  C8  UNL     1      34.844  31.199  22.756  1.00  0.00     0.139 C 
HETATM    5  N1  UNL     1      35.169  30.431  24.008  1.00  0.00    -0.319 N 
HETATM    6  C9  UNL     1      36.386  30.706  24.644  1.00  0.00     0.274 C 
HETATM    7  O2  UNL     1      37.110  31.604  24.075  1.00  0.00    -0.266 OA
ENDROOT
BRANCH   6   8
HETATM    8  C10 UNL     1      36.890  30.095  25.839  1.00  0.00     0.124 A 
HETATM    9  N2  UNL     1      36.745  30.430  27.132  1.00  0.00    -0.360 N 
HETATM   10  C11 UNL     1      37.395  29.582  27.956  1.00  0.00     0.090 A 
ATOM     11  H2  UNL     1      36.205  31.234  27.453  1.00  0.00     0.165 HD
HETATM   12  C12 UNL     1      37.992  28.648  27.170  1.00  0.00     0.044 A 
HETATM   13  C13 UNL     1      37.693  28.944  25.835  1.00  0.00     0.112 A 
BRANCH  13  14
HETATM   14  S1  UNL     1      38.231  28.004  24.485  1.00  0.00     0.259 S 
HETATM   15  O3  UNL     1      39.160  26.870  24.880  1.00  0.00    -0.201 OA
HETATM   16  O4  UNL     1      37.017  27.284  23.891  1.00  0.00    -0.201 OA
BRANCH  14  17
HETATM   17  N3  UNL     1      38.960  28.984  23.254  1.00  0.00    -0.324 N 
ATOM     18  H32 UNL     1      38.886  30.001  23.235  1.00  0.00     0.169 HD
ATOM     19  H31 UNL     1      39.463  28.425  22.564  1.00  0.00     0.169 HD
ENDBRANCH  14  17
ENDBRANCH  13  14
ENDBRANCH   6   8
BRANCH   1  20
HETATM   20  O1  UNL     1      33.064  30.110  25.022  1.00  0.00    -0.367 OA
BRANCH  20  21
HETATM   21  C2  UNL     1      33.230  30.145  26.375  1.00  0.00     0.166 C 
HETATM   22  C1  UNL     1      31.925  30.168  27.142  1.00  0.00     0.033 C 
ENDBRANCH  20  21
ENDBRANCH   1  20
BRANCH   3  23
HETATM   23  C6  UNL     1      32.857  31.219  21.262  1.00  0.00     0.001 C 
HETATM   24 BR1  UNL     1      33.027  32.968  20.547  1.00  0.00    -0.055 Br
HETATM   25  C7  UNL     1      32.254  30.296  20.545  1.00  0.00     0.071 C 
HETATM   26 BR2  UNL     1      31.547  30.676  18.804  1.00  0.00    -0.062 Br
ENDBRANCH   3  23
TORSDOF 6
ENDMDL
