MODEL 1
REMARK VINA RESULT: -6.988201661      0.000      0.000
REMARK  7 active torsions:
REMARK  status: ('A' for Active; 'I' for Inactive)
REMARK    1  A    between atoms: C2_2  and  N1_5 
REMARK       I    between atoms: N1_5  and  C5_7 
REMARK    2  A    between atoms: C5_7  and  C6_9 
REMARK    3  A    between atoms: C6_9  and  C16_27 
REMARK       I    between atoms: N2_10  and  C7_12 
REMARK    4  A    between atoms: C7_12  and  C8_14 
REMARK    5  A    between atoms: C10_16  and  C11_17 
REMARK    6  A    between atoms: C11_17  and  N3_18 
REMARK       I    between atoms: N3_18  and  C12_20 
REMARK    7  A    between atoms: C12_20  and  C13_22 
ROOT
HETATM    1  C6  UNL     1      35.304  30.220  23.753  1.00  0.00     0.169 C 
HETATM    2  N2  UNL     1      34.896  30.922  24.747  1.00  0.00    -0.318 N 
ATOM      3  H2  UNL     1      33.902  31.151  24.776  1.00  0.00     0.169 HD
HETATM    4  C7  UNL     1      35.698  31.407  25.808  1.00  0.00     0.226 C 
HETATM    5  O2  UNL     1      36.310  32.502  25.604  1.00  0.00    -0.273 OA
ENDROOT
BRANCH   4   6
HETATM    6  C8  UNL     1      35.851  30.715  27.109  1.00  0.00     0.080 C 
HETATM    7  C9  UNL     1      37.205  30.035  27.285  1.00  0.00     0.032 C 
HETATM    8  C10 UNL     1      36.553  28.727  27.441  1.00  0.00     0.076 C 
HETATM    9  C15 UNL     1      35.265  29.343  27.068  1.00  0.00     0.032 C 
BRANCH   8  10
HETATM   10  C11 UNL     1      37.003  27.557  27.779  1.00  0.00    -0.063 C 
BRANCH  10  11
HETATM   11  N3  UNL     1      37.269  26.413  28.313  1.00  0.00    -0.294 N 
HETATM   12  C12 UNL     1      36.247  25.429  28.309  1.00  0.00     0.258 C 
HETATM   13  O3  UNL     1      35.026  25.671  28.262  1.00  0.00    -0.270 OA
ATOM     14  H3  UNL     1      38.183  26.223  28.723  1.00  0.00     0.178 HD
BRANCH  12  15
HETATM   15  C13 UNL     1      36.695  24.005  28.369  1.00  0.00     0.153 C 
HETATM   16  C14 UNL     1      36.477  23.436  26.971  1.00  0.00     0.051 C 
HETATM   17 BR1  UNL     1      38.604  24.055  28.772  1.00  0.00    -0.063 Br
HETATM   18 BR2  UNL     1      35.713  23.043  29.693  1.00  0.00    -0.063 Br
ENDBRANCH  12  15
ENDBRANCH  10  11
ENDBRANCH   8  10
ENDBRANCH   4   6
BRANCH   1  19
HETATM   19  C5  UNL     1      34.337  29.811  22.758  1.00  0.00     0.274 C 
HETATM   20  N1  UNL     1      33.873  30.688  21.760  1.00  0.00    -0.347 N 
ATOM     21  H1  UNL     1      34.244  31.637  21.758  1.00  0.00     0.163 HD
HETATM   22  O1  UNL     1      33.896  28.638  22.780  1.00  0.00    -0.266 OA
BRANCH  20  23
HETATM   23  C2  UNL     1      32.922  30.350  20.750  1.00  0.00     0.022 C 
HETATM   24  C1  UNL     1      32.546  31.609  19.968  1.00  0.00     0.037 C 
HETATM   25  C3  UNL     1      33.509  29.315  19.819  1.00  0.00     0.037 C 
HETATM   26  C4  UNL     1      31.636  29.787  21.294  1.00  0.00     0.037 C 
ENDBRANCH  20  23
ENDBRANCH   1  19
BRANCH   1  27
HETATM   27  C16 UNL     1      36.695  29.832  23.603  1.00  0.00     0.287 C 
HETATM   28  N4  UNL     1      37.171  28.537  23.945  1.00  0.00    -0.056 NA
HETATM   29  O4  UNL     1      37.543  30.643  23.157  1.00  0.00    -0.269 OA
ENDBRANCH   1  27
TORSDOF 7
ENDMDL
MODEL 2
REMARK VINA RESULT: -6.953389643      0.666      1.035
REMARK  7 active torsions:
REMARK  status: ('A' for Active; 'I' for Inactive)
REMARK    1  A    between atoms: C2_2  and  N1_5 
REMARK       I    between atoms: N1_5  and  C5_7 
REMARK    2  A    between atoms: C5_7  and  C6_9 
REMARK    3  A    between atoms: C6_9  and  C16_27 
REMARK       I    between atoms: N2_10  and  C7_12 
REMARK    4  A    between atoms: C7_12  and  C8_14 
REMARK    5  A    between atoms: C10_16  and  C11_17 
REMARK    6  A    between atoms: C11_17  and  N3_18 
REMARK       I    between atoms: N3_18  and  C12_20 
REMARK    7  A    between atoms: C12_20  and  C13_22 
ROOT
HETATM    1  C6  UNL     1      35.244  30.184  23.777  1.00  0.00     0.169 C 
HETATM    2  N2  UNL     1      34.859  30.899  24.771  1.00  0.00    -0.318 N 
ATOM      3  H2  UNL     1      33.873  31.160  24.799  1.00  0.00     0.169 HD
HETATM    4  C7  UNL     1      35.676  31.359  25.831  1.00  0.00     0.226 C 
HETATM    5  O2  UNL     1      36.324  32.434  25.626  1.00  0.00    -0.273 OA
ENDROOT
BRANCH   4   6
HETATM    6  C8  UNL     1      35.807  30.665  27.132  1.00  0.00     0.080 C 
HETATM    7  C9  UNL     1      37.154  29.975  27.326  1.00  0.00     0.032 C 
HETATM    8  C10 UNL     1      36.490  28.671  27.471  1.00  0.00     0.076 C 
HETATM    9  C15 UNL     1      35.212  29.297  27.081  1.00  0.00     0.032 C 
BRANCH   8  10
HETATM   10  C11 UNL     1      36.927  27.497  27.813  1.00  0.00    -0.063 C 
BRANCH  10  11
HETATM   11  N3  UNL     1      37.229  26.379  28.381  1.00  0.00    -0.294 N 
HETATM   12  C12 UNL     1      36.244  25.358  28.393  1.00  0.00     0.258 C 
HETATM   13  O3  UNL     1      35.015  25.553  28.324  1.00  0.00    -0.270 OA
ATOM     14  H3  UNL     1      38.143  26.234  28.808  1.00  0.00     0.178 HD
BRANCH  12  15
HETATM   15  C13 UNL     1      36.743  23.954  28.497  1.00  0.00     0.153 C 
HETATM   16  C14 UNL     1      38.173  24.053  29.015  1.00  0.00     0.051 C 
HETATM   17 BR1  UNL     1      35.617  23.077  29.828  1.00  0.00    -0.063 Br
HETATM   18 BR2  UNL     1      36.656  23.078  26.803  1.00  0.00    -0.063 Br
ENDBRANCH  12  15
ENDBRANCH  10  11
ENDBRANCH   8  10
ENDBRANCH   4   6
BRANCH   1  19
HETATM   19  C5  UNL     1      34.264  29.805  22.783  1.00  0.00     0.274 C 
HETATM   20  N1  UNL     1      33.848  30.687  21.768  1.00  0.00    -0.347 N 
ATOM     21  H1  UNL     1      34.264  31.617  21.753  1.00  0.00     0.163 HD
HETATM   22  O1  UNL     1      33.766  28.655  22.820  1.00  0.00    -0.266 OA
BRANCH  20  23
HETATM   23  C2  UNL     1      32.887  30.378  20.758  1.00  0.00     0.022 C 
HETATM   24  C1  UNL     1      32.539  31.651  19.986  1.00  0.00     0.037 C 
HETATM   25  C3  UNL     1      33.449  29.338  19.817  1.00  0.00     0.037 C 
HETATM   26  C4  UNL     1      31.590  29.841  21.300  1.00  0.00     0.037 C 
ENDBRANCH  20  23
ENDBRANCH   1  19
BRANCH   1  27
HETATM   27  C16 UNL     1      36.621  29.750  23.628  1.00  0.00     0.287 C 
HETATM   28  N4  UNL     1      37.057  28.445  23.985  1.00  0.00    -0.056 NA
HETATM   29  O4  UNL     1      37.493  30.528  23.168  1.00  0.00    -0.269 OA
ENDBRANCH   1  27
TORSDOF 7
ENDMDL
MODEL 3
REMARK VINA RESULT: -6.920211548      0.782      1.330
REMARK  7 active torsions:
REMARK  status: ('A' for Active; 'I' for Inactive)
REMARK    1  A    between atoms: C2_2  and  N1_5 
REMARK       I    between atoms: N1_5  and  C5_7 
REMARK    2  A    between atoms: C5_7  and  C6_9 
REMARK    3  A    between atoms: C6_9  and  C16_27 
REMARK       I    between atoms: N2_10  and  C7_12 
REMARK    4  A    between atoms: C7_12  and  C8_14 
REMARK    5  A    between atoms: C10_16  and  C11_17 
REMARK    6  A    between atoms: C11_17  and  N3_18 
REMARK       I    between atoms: N3_18  and  C12_20 
REMARK    7  A    between atoms: C12_20  and  C13_22 
ROOT
HETATM    1  C6  UNL     1      35.344  30.048  23.672  1.00  0.00     0.169 C 
HETATM    2  N2  UNL     1      34.841  30.724  24.640  1.00  0.00    -0.318 N 
ATOM      3  H2  UNL     1      33.854  30.972  24.567  1.00  0.00     0.169 HD
HETATM    4  C7  UNL     1      35.528  31.156  25.800  1.00  0.00     0.226 C 
HETATM    5  O2  UNL     1      36.177  32.245  25.704  1.00  0.00    -0.273 OA
ENDROOT
BRANCH   4   6
HETATM    6  C8  UNL     1      35.524  30.418  27.083  1.00  0.00     0.080 C 
HETATM    7  C9  UNL     1      36.834  29.695  27.378  1.00  0.00     0.032 C 
HETATM    8  C10 UNL     1      36.137  28.401  27.417  1.00  0.00     0.076 C 
HETATM    9  C15 UNL     1      34.912  29.065  26.932  1.00  0.00     0.032 C 
BRANCH   8  10
HETATM   10  C11 UNL     1      36.520  27.208  27.759  1.00  0.00    -0.063 C 
BRANCH  10  11
HETATM   11  N3  UNL     1      36.989  26.146  28.321  1.00  0.00    -0.294 N 
HETATM   12  C12 UNL     1      36.100  25.060  28.527  1.00  0.00     0.258 C 
HETATM   13  O3  UNL     1      34.863  25.165  28.641  1.00  0.00    -0.270 OA
ATOM     14  H3  UNL     1      37.966  26.089  28.606  1.00  0.00     0.178 HD
BRANCH  12  15
HETATM   15  C13 UNL     1      36.715  23.702  28.612  1.00  0.00     0.153 C 
HETATM   16  C14 UNL     1      35.802  22.881  29.515  1.00  0.00     0.051 C 
HETATM   17 BR1  UNL     1      36.679  22.978  26.800  1.00  0.00    -0.063 Br
HETATM   18 BR2  UNL     1      38.492  23.808  29.300  1.00  0.00    -0.063 Br
ENDBRANCH  12  15
ENDBRANCH  10  11
ENDBRANCH   8  10
ENDBRANCH   4   6
BRANCH   1  19
HETATM   19  C5  UNL     1      34.487  29.692  22.563  1.00  0.00     0.274 C 
HETATM   20  N1  UNL     1      33.744  30.654  21.853  1.00  0.00    -0.347 N 
ATOM     21  H1  UNL     1      33.829  31.626  22.148  1.00  0.00     0.163 HD
HETATM   22  O1  UNL     1      34.399  28.491  22.217  1.00  0.00    -0.266 OA
BRANCH  20  23
HETATM   23  C2  UNL     1      32.880  30.373  20.751  1.00  0.00     0.022 C 
HETATM   24  C1  UNL     1      31.580  29.759  21.272  1.00  0.00     0.037 C 
HETATM   25  C3  UNL     1      32.587  31.646  19.992  1.00  0.00     0.037 C 
HETATM   26  C4  UNL     1      33.454  29.386  19.770  1.00  0.00     0.037 C 
ENDBRANCH  20  23
ENDBRANCH   1  19
BRANCH   1  27
HETATM   27  C16 UNL     1      36.736  29.636  23.663  1.00  0.00     0.287 C 
HETATM   28  N4  UNL     1      37.155  28.339  24.067  1.00  0.00    -0.056 NA
HETATM   29  O4  UNL     1      37.637  30.426  23.290  1.00  0.00    -0.269 OA
ENDBRANCH   1  27
TORSDOF 7
ENDMDL
MODEL 4
REMARK VINA RESULT: -6.824274211      1.286      1.727
REMARK  7 active torsions:
REMARK  status: ('A' for Active; 'I' for Inactive)
REMARK    1  A    between atoms: C2_2  and  N1_5 
REMARK       I    between atoms: N1_5  and  C5_7 
REMARK    2  A    between atoms: C5_7  and  C6_9 
REMARK    3  A    between atoms: C6_9  and  C16_27 
REMARK       I    between atoms: N2_10  and  C7_12 
REMARK    4  A    between atoms: C7_12  and  C8_14 
REMARK    5  A    between atoms: C10_16  and  C11_17 
REMARK    6  A    between atoms: C11_17  and  N3_18 
REMARK       I    between atoms: N3_18  and  C12_20 
REMARK    7  A    between atoms: C12_20  and  C13_22 
ROOT
HETATM    1  C6  UNL     1      35.208  29.823  23.532  1.00  0.00     0.169 C 
HETATM    2  N2  UNL     1      34.765  30.570  24.476  1.00  0.00    -0.318 N 
ATOM      3  H2  UNL     1      33.818  30.935  24.372  1.00  0.00     0.169 HD
HETATM    4  C7  UNL     1      35.468  30.934  25.650  1.00  0.00     0.226 C 
HETATM    5  O2  UNL     1      36.247  31.934  25.559  1.00  0.00    -0.273 OA
ENDROOT
BRANCH   4   6
HETATM    6  C8  UNL     1      35.340  30.223  26.942  1.00  0.00     0.080 C 
HETATM    7  C9  UNL     1      36.436  29.191  27.185  1.00  0.00     0.032 C 
HETATM    8  C10 UNL     1      35.437  28.116  27.274  1.00  0.00     0.076 C 
HETATM    9  C15 UNL     1      34.398  29.069  26.837  1.00  0.00     0.032 C 
BRANCH   8  10
HETATM   10  C11 UNL     1      35.521  26.865  27.613  1.00  0.00    -0.063 C 
BRANCH  10  11
HETATM   11  N3  UNL     1      35.493  25.707  28.180  1.00  0.00    -0.294 N 
HETATM   12  C12 UNL     1      36.193  24.647  27.549  1.00  0.00     0.258 C 
HETATM   13  O3  UNL     1      36.445  24.586  26.330  1.00  0.00    -0.270 OA
ATOM     14  H3  UNL     1      34.985  25.559  29.051  1.00  0.00     0.178 HD
BRANCH  12  15
HETATM   15  C13 UNL     1      36.649  23.532  28.433  1.00  0.00     0.153 C 
HETATM   16  C14 UNL     1      37.986  23.977  29.015  1.00  0.00     0.051 C 
HETATM   17 BR1  UNL     1      35.322  23.394  29.857  1.00  0.00    -0.063 Br
HETATM   18 BR2  UNL     1      36.805  21.907  27.445  1.00  0.00    -0.063 Br
ENDBRANCH  12  15
ENDBRANCH  10  11
ENDBRANCH   8  10
ENDBRANCH   4   6
BRANCH   1  19
HETATM   19  C5  UNL     1      34.345  29.556  22.403  1.00  0.00     0.274 C 
HETATM   20  N1  UNL     1      33.660  30.582  21.725  1.00  0.00    -0.347 N 
ATOM     21  H1  UNL     1      33.793  31.536  22.059  1.00  0.00     0.163 HD
HETATM   22  O1  UNL     1      34.197  28.375  22.010  1.00  0.00    -0.266 OA
BRANCH  20  23
HETATM   23  C2  UNL     1      32.794  30.390  20.607  1.00  0.00     0.022 C 
HETATM   24  C1  UNL     1      31.474  29.786  21.087  1.00  0.00     0.037 C 
HETATM   25  C3  UNL     1      32.541  31.712  19.921  1.00  0.00     0.037 C 
HETATM   26  C4  UNL     1      33.343  29.445  19.572  1.00  0.00     0.037 C 
ENDBRANCH  20  23
ENDBRANCH   1  19
BRANCH   1  27
HETATM   27  C16 UNL     1      36.540  29.245  23.568  1.00  0.00     0.287 C 
HETATM   28  N4  UNL     1      37.692  29.947  23.121  1.00  0.00    -0.056 NA
HETATM   29  O4  UNL     1      36.724  28.083  24.005  1.00  0.00    -0.269 OA
ENDBRANCH   1  27
TORSDOF 7
ENDMDL
MODEL 5
REMARK VINA RESULT: -6.804112570      0.948      1.279
REMARK  7 active torsions:
REMARK  status: ('A' for Active; 'I' for Inactive)
REMARK    1  A    between atoms: C2_2  and  N1_5 
REMARK       I    between atoms: N1_5  and  C5_7 
REMARK    2  A    between atoms: C5_7  and  C6_9 
REMARK    3  A    between atoms: C6_9  and  C16_27 
REMARK       I    between atoms: N2_10  and  C7_12 
REMARK    4  A    between atoms: C7_12  and  C8_14 
REMARK    5  A    between atoms: C10_16  and  C11_17 
REMARK    6  A    between atoms: C11_17  and  N3_18 
REMARK       I    between atoms: N3_18  and  C12_20 
REMARK    7  A    between atoms: C12_20  and  C13_22 
ROOT
HETATM    1  C6  UNL     1      35.200  29.877  23.479  1.00  0.00     0.169 C 
HETATM    2  N2  UNL     1      34.755  30.618  24.428  1.00  0.00    -0.318 N 
ATOM      3  H2  UNL     1      33.802  30.970  24.333  1.00  0.00     0.169 HD
HETATM    4  C7  UNL     1      35.463  30.992  25.595  1.00  0.00     0.226 C 
HETATM    5  O2  UNL     1      36.228  32.003  25.497  1.00  0.00    -0.273 OA
ENDROOT
BRANCH   4   6
HETATM    6  C8  UNL     1      35.357  30.279  26.888  1.00  0.00     0.080 C 
HETATM    7  C9  UNL     1      36.466  29.256  27.117  1.00  0.00     0.032 C 
HETATM    8  C10 UNL     1      35.477  28.173  27.217  1.00  0.00     0.076 C 
HETATM    9  C15 UNL     1      34.424  29.117  26.794  1.00  0.00     0.032 C 
BRANCH   8  10
HETATM   10  C11 UNL     1      35.575  26.923  27.554  1.00  0.00    -0.063 C 
BRANCH  10  11
HETATM   11  N3  UNL     1      35.497  25.748  28.081  1.00  0.00    -0.294 N 
HETATM   12  C12 UNL     1      36.249  24.705  27.482  1.00  0.00     0.258 C 
HETATM   13  O3  UNL     1      36.607  24.680  26.289  1.00  0.00    -0.270 OA
ATOM     14  H3  UNL     1      34.916  25.575  28.900  1.00  0.00     0.178 HD
BRANCH  12  15
HETATM   15  C13 UNL     1      36.626  23.563  28.368  1.00  0.00     0.153 C 
HETATM   16  C14 UNL     1      36.664  22.330  27.472  1.00  0.00     0.051 C 
HETATM   17 BR1  UNL     1      38.420  23.958  29.027  1.00  0.00    -0.063 Br
HETATM   18 BR2  UNL     1      35.371  23.371  29.793  1.00  0.00    -0.063 Br
ENDBRANCH  12  15
ENDBRANCH  10  11
ENDBRANCH   8  10
ENDBRANCH   4   6
BRANCH   1  19
HETATM   19  C5  UNL     1      34.329  29.599  22.358  1.00  0.00     0.274 C 
HETATM   20  N1  UNL     1      33.635  30.617  21.679  1.00  0.00    -0.347 N 
ATOM     21  H1  UNL     1      33.766  31.574  22.004  1.00  0.00     0.163 HD
HETATM   22  O1  UNL     1      34.185  28.415  21.975  1.00  0.00    -0.266 OA
BRANCH  20  23
HETATM   23  C2  UNL     1      32.762  30.413  20.568  1.00  0.00     0.022 C 
HETATM   24  C1  UNL     1      31.452  29.797  21.060  1.00  0.00     0.037 C 
HETATM   25  C3  UNL     1      32.490  31.731  19.881  1.00  0.00     0.037 C 
HETATM   26  C4  UNL     1      33.312  29.471  19.531  1.00  0.00     0.037 C 
ENDBRANCH  20  23
ENDBRANCH   1  19
BRANCH   1  27
HETATM   27  C16 UNL     1      36.539  29.318  23.503  1.00  0.00     0.287 C 
HETATM   28  N4  UNL     1      36.808  27.989  23.927  1.00  0.00    -0.056 NA
HETATM   29  O4  UNL     1      37.527  30.003  23.141  1.00  0.00    -0.269 OA
ENDBRANCH   1  27
TORSDOF 7
ENDMDL
