MODEL 1
REMARK VINA RESULT: -7.420440627      0.000      0.000
REMARK  5 active torsions:
REMARK  status: ('A' for Active; 'I' for Inactive)
REMARK    1  A    between atoms: C2_2  and  N1_5 
REMARK       I    between atoms: N1_5  and  C5_7 
REMARK    2  A    between atoms: C5_7  and  C6_9 
REMARK    3  A    between atoms: C9_12  and  C10_14 
REMARK    4  A    between atoms: N2_18  and  S1_19 
REMARK    5  A    between atoms: S1_19  and  N3_20 
ROOT
HETATM    1  C6  UNL     1      35.696  28.572  20.787  1.00  0.00     0.096 C 
HETATM    2  C7  UNL     1      35.458  27.986  22.137  1.00  0.00     0.052 C 
HETATM    3  C8  UNL     1      34.456  28.788  22.914  1.00  0.00    -0.048 C 
HETATM    4  C9  UNL     1      34.738  29.182  24.140  1.00  0.00     0.015 C 
HETATM    5 BR1  UNL     1      36.441  28.703  24.873  1.00  0.00    -0.051 Br
HETATM    6  C12 UNL     1      33.193  29.069  22.193  1.00  0.00     0.144 C 
HETATM    7  N2  UNL     1      33.550  29.646  20.914  1.00  0.00    -0.189 NA
HETATM    8  C13 UNL     1      34.357  28.780  20.103  1.00  0.00     0.123 C 
ENDROOT
BRANCH   1   9
HETATM    9  C5  UNL     1      36.495  27.683  19.941  1.00  0.00     0.224 C 
HETATM   10  N1  UNL     1      37.872  27.920  19.736  1.00  0.00    -0.353 N 
ATOM     11  H1  UNL     1      38.302  28.726  20.189  1.00  0.00     0.163 HD
HETATM   12  O1  UNL     1      35.946  26.700  19.395  1.00  0.00    -0.273 OA
BRANCH  10  13
HETATM   13  C2  UNL     1      38.701  27.066  18.908  1.00  0.00     0.022 C 
HETATM   14  C1  UNL     1      38.244  27.080  17.473  1.00  0.00     0.037 C 
HETATM   15  C3  UNL     1      40.124  27.609  18.992  1.00  0.00     0.037 C 
HETATM   16  C4  UNL     1      38.684  25.632  19.395  1.00  0.00     0.037 C 
ENDBRANCH  10  13
ENDBRANCH   1   9
BRANCH   7  17
HETATM   17  S1  UNL     1      32.176  30.132  20.009  1.00  0.00     0.297 S 
HETATM   18  O2  UNL     1      32.221  31.587  19.656  1.00  0.00    -0.189 OA
HETATM   19  O3  UNL     1      30.958  29.892  20.851  1.00  0.00    -0.189 OA
BRANCH  17  20
HETATM   20  N3  UNL     1      31.991  29.216  18.563  1.00  0.00    -0.316 N 
ATOM     21  H32 UNL     1      32.590  28.426  18.325  1.00  0.00     0.170 HD
ATOM     22  H31 UNL     1      31.222  29.556  17.987  1.00  0.00     0.170 HD
ENDBRANCH  17  20
ENDBRANCH   7  17
BRANCH   4  23
HETATM   23  C10 UNL     1      33.839  29.952  24.959  1.00  0.00     0.027 C 
HETATM   24  C11 UNL     1      33.364  29.465  26.083  1.00  0.00     0.057 C 
HETATM   25 BR2  UNL     1      32.174  30.423  27.213  1.00  0.00    -0.064 Br
ENDBRANCH   4  23
TORSDOF 5
ENDMDL
MODEL 2
REMARK VINA RESULT: -7.168649946      0.743      1.123
REMARK  5 active torsions:
REMARK  status: ('A' for Active; 'I' for Inactive)
REMARK    1  A    between atoms: C2_2  and  N1_5 
REMARK       I    between atoms: N1_5  and  C5_7 
REMARK    2  A    between atoms: C5_7  and  C6_9 
REMARK    3  A    between atoms: C9_12  and  C10_14 
REMARK    4  A    between atoms: N2_18  and  S1_19 
REMARK    5  A    between atoms: S1_19  and  N3_20 
ROOT
HETATM    1  C6  UNL     1      35.783  28.522  20.825  1.00  0.00     0.096 C 
HETATM    2  C7  UNL     1      35.522  27.942  22.174  1.00  0.00     0.052 C 
HETATM    3  C8  UNL     1      34.510  28.750  22.932  1.00  0.00    -0.048 C 
HETATM    4  C9  UNL     1      34.774  29.148  24.161  1.00  0.00     0.015 C 
HETATM    5 BR1  UNL     1      36.463  28.667  24.923  1.00  0.00    -0.051 Br
HETATM    6  C12 UNL     1      33.260  29.032  22.190  1.00  0.00     0.144 C 
HETATM    7  N2  UNL     1      33.638  29.603  20.914  1.00  0.00    -0.189 NA
HETATM    8  C13 UNL     1      34.456  28.731  20.120  1.00  0.00     0.123 C 
ENDROOT
BRANCH   1   9
HETATM    9  C5  UNL     1      36.593  27.627  19.997  1.00  0.00     0.224 C 
HETATM   10  N1  UNL     1      37.347  26.583  20.576  1.00  0.00    -0.353 N 
ATOM     11  H1  UNL     1      37.316  26.463  21.589  1.00  0.00     0.163 HD
HETATM   12  O1  UNL     1      36.615  27.794  18.756  1.00  0.00    -0.273 OA
BRANCH  10  13
HETATM   13  C2  UNL     1      38.161  25.674  19.795  1.00  0.00     0.022 C 
HETATM   14  C1  UNL     1      39.219  26.413  19.018  1.00  0.00     0.037 C 
HETATM   15  C3  UNL     1      38.830  24.717  20.776  1.00  0.00     0.037 C 
HETATM   16  C4  UNL     1      37.324  24.880  18.813  1.00  0.00     0.037 C 
ENDBRANCH  10  13
ENDBRANCH   1   9
BRANCH   7  17
HETATM   17  S1  UNL     1      32.281  30.089  19.985  1.00  0.00     0.297 S 
HETATM   18  O2  UNL     1      32.340  31.541  19.620  1.00  0.00    -0.189 OA
HETATM   19  O3  UNL     1      31.050  29.865  20.812  1.00  0.00    -0.189 OA
BRANCH  17  20
HETATM   20  N3  UNL     1      32.111  29.161  18.545  1.00  0.00    -0.316 N 
ATOM     21  H32 UNL     1      32.648  28.314  18.363  1.00  0.00     0.170 HD
ATOM     22  H31 UNL     1      31.418  29.557  17.911  1.00  0.00     0.170 HD
ENDBRANCH  17  20
ENDBRANCH   7  17
BRANCH   4  23
HETATM   23  C10 UNL     1      33.864  29.924  24.962  1.00  0.00     0.027 C 
HETATM   24  C11 UNL     1      33.401  29.459  26.100  1.00  0.00     0.057 C 
HETATM   25 BR2  UNL     1      32.197  30.427  27.209  1.00  0.00    -0.064 Br
ENDBRANCH   4  23
TORSDOF 5
ENDMDL
MODEL 3
REMARK VINA RESULT: -6.570639190      2.665      6.219
REMARK  5 active torsions:
REMARK  status: ('A' for Active; 'I' for Inactive)
REMARK    1  A    between atoms: C2_2  and  N1_5 
REMARK       I    between atoms: N1_5  and  C5_7 
REMARK    2  A    between atoms: C5_7  and  C6_9 
REMARK    3  A    between atoms: C9_12  and  C10_14 
REMARK    4  A    between atoms: N2_18  and  S1_19 
REMARK    5  A    between atoms: S1_19  and  N3_20 
ROOT
HETATM    1  C6  UNL     1      34.149  28.686  23.154  1.00  0.00     0.096 C 
HETATM    2  C7  UNL     1      35.567  28.786  22.702  1.00  0.00     0.052 C 
HETATM    3  C8  UNL     1      35.693  28.526  21.230  1.00  0.00    -0.048 C 
HETATM    4  C9  UNL     1      36.574  27.648  20.791  1.00  0.00     0.015 C 
HETATM    5 BR1  UNL     1      37.659  26.737  22.079  1.00  0.00    -0.051 Br
HETATM    6  C12 UNL     1      34.775  29.318  20.379  1.00  0.00     0.144 C 
HETATM    7  N2  UNL     1      33.438  29.129  20.901  1.00  0.00    -0.189 NA
HETATM    8  C13 UNL     1      33.291  29.563  22.261  1.00  0.00     0.123 C 
ENDROOT
BRANCH   1   9
HETATM    9  C5  UNL     1      33.983  29.153  24.531  1.00  0.00     0.224 C 
HETATM   10  N1  UNL     1      35.103  29.418  25.349  1.00  0.00    -0.353 N 
ATOM     11  H1  UNL     1      36.035  29.276  24.961  1.00  0.00     0.163 HD
HETATM   12  O1  UNL     1      32.828  29.319  24.986  1.00  0.00    -0.273 OA
BRANCH  10  13
HETATM   13  C2  UNL     1      34.985  29.882  26.717  1.00  0.00     0.022 C 
HETATM   14  C1  UNL     1      33.573  29.746  27.224  1.00  0.00     0.037 C 
HETATM   15  C3  UNL     1      35.912  29.016  27.564  1.00  0.00     0.037 C 
HETATM   16  C4  UNL     1      35.396  31.333  26.850  1.00  0.00     0.037 C 
ENDBRANCH  10  13
ENDBRANCH   1   9
BRANCH   7  17
HETATM   17  S1  UNL     1      32.245  29.901  19.940  1.00  0.00     0.297 S 
HETATM   18  O2  UNL     1      32.577  31.337  19.678  1.00  0.00    -0.189 OA
HETATM   19  O3  UNL     1      30.945  29.851  20.687  1.00  0.00    -0.189 OA
BRANCH  17  20
HETATM   20  N3  UNL     1      32.004  29.102  18.434  1.00  0.00    -0.316 N 
ATOM     21  H32 UNL     1      32.337  28.156  18.247  1.00  0.00     0.170 HD
ATOM     22  H31 UNL     1      31.497  29.682  17.767  1.00  0.00     0.170 HD
ENDBRANCH  17  20
ENDBRANCH   7  17
BRANCH   4  23
HETATM   23  C10 UNL     1      36.765  27.336  19.399  1.00  0.00     0.027 C 
HETATM   24  C11 UNL     1      37.957  27.405  18.849  1.00  0.00     0.057 C 
HETATM   25 BR2  UNL     1      38.284  27.008  17.019  1.00  0.00    -0.064 Br
ENDBRANCH   4  23
TORSDOF 5
ENDMDL
MODEL 4
REMARK VINA RESULT: -6.450124773      3.225      5.649
REMARK  5 active torsions:
REMARK  status: ('A' for Active; 'I' for Inactive)
REMARK    1  A    between atoms: C2_2  and  N1_5 
REMARK       I    between atoms: N1_5  and  C5_7 
REMARK    2  A    between atoms: C5_7  and  C6_9 
REMARK    3  A    between atoms: C9_12  and  C10_14 
REMARK    4  A    between atoms: N2_18  and  S1_19 
REMARK    5  A    between atoms: S1_19  and  N3_20 
ROOT
HETATM    1  C6  UNL     1      33.564  29.909  22.149  1.00  0.00     0.096 C 
HETATM    2  C7  UNL     1      34.190  30.269  23.454  1.00  0.00     0.052 C 
HETATM    3  C8  UNL     1      34.895  29.095  24.067  1.00  0.00    -0.048 C 
HETATM    4  C9  UNL     1      34.649  28.760  25.318  1.00  0.00     0.015 C 
HETATM    5 BR1  UNL     1      33.383  29.808  26.300  1.00  0.00    -0.051 Br
HETATM    6  C12 UNL     1      35.840  28.398  23.163  1.00  0.00     0.144 C 
HETATM    7  N2  UNL     1      35.119  28.087  21.947  1.00  0.00    -0.189 NA
HETATM    8  C13 UNL     1      34.612  29.248  21.273  1.00  0.00     0.123 C 
ENDROOT
BRANCH   1   9
HETATM    9  C5  UNL     1      33.069  31.090  21.439  1.00  0.00     0.224 C 
HETATM   10  N1  UNL     1      33.716  32.339  21.566  1.00  0.00    -0.353 N 
ATOM     11  H1  UNL     1      34.539  32.403  22.166  1.00  0.00     0.163 HD
HETATM   12  O1  UNL     1      32.057  30.986  20.709  1.00  0.00    -0.273 OA
BRANCH  10  13
HETATM   13  C2  UNL     1      33.261  33.533  20.882  1.00  0.00     0.022 C 
HETATM   14  C1  UNL     1      32.128  34.193  21.622  1.00  0.00     0.037 C 
HETATM   15  C3  UNL     1      34.448  34.489  20.816  1.00  0.00     0.037 C 
HETATM   16  C4  UNL     1      32.789  33.223  19.476  1.00  0.00     0.037 C 
ENDBRANCH  10  13
ENDBRANCH   1   9
BRANCH   7  17
HETATM   17  S1  UNL     1      36.060  27.171  20.843  1.00  0.00     0.297 S 
HETATM   18  O2  UNL     1      36.975  26.215  21.544  1.00  0.00    -0.189 OA
HETATM   19  O3  UNL     1      36.901  28.125  20.048  1.00  0.00    -0.189 OA
BRANCH  17  20
HETATM   20  N3  UNL     1      35.085  26.292  19.730  1.00  0.00    -0.316 N 
ATOM     21  H32 UNL     1      34.983  26.557  18.750  1.00  0.00     0.170 HD
ATOM     22  H31 UNL     1      34.632  25.488  20.164  1.00  0.00     0.170 HD
ENDBRANCH  17  20
ENDBRANCH   7  17
BRANCH   4  23
HETATM   23  C10 UNL     1      35.278  27.652  25.988  1.00  0.00     0.027 C 
HETATM   24  C11 UNL     1      36.090  27.849  27.001  1.00  0.00     0.057 C 
HETATM   25 BR2  UNL     1      36.956  26.435  27.932  1.00  0.00    -0.064 Br
ENDBRANCH   4  23
TORSDOF 5
ENDMDL
MODEL 5
REMARK VINA RESULT: -6.332753983      3.359      5.813
REMARK  5 active torsions:
REMARK  status: ('A' for Active; 'I' for Inactive)
REMARK    1  A    between atoms: C2_2  and  N1_5 
REMARK       I    between atoms: N1_5  and  C5_7 
REMARK    2  A    between atoms: C5_7  and  C6_9 
REMARK    3  A    between atoms: C9_12  and  C10_14 
REMARK    4  A    between atoms: N2_18  and  S1_19 
REMARK    5  A    between atoms: S1_19  and  N3_20 
ROOT
HETATM    1  C6  UNL     1      35.739  28.910  22.474  1.00  0.00     0.096 C 
HETATM    2  C7  UNL     1      36.703  28.286  21.522  1.00  0.00     0.052 C 
HETATM    3  C8  UNL     1      35.992  27.499  20.460  1.00  0.00    -0.048 C 
HETATM    4  C9  UNL     1      36.351  26.255  20.213  1.00  0.00     0.015 C 
HETATM    5 BR1  UNL     1      37.783  25.508  21.241  1.00  0.00    -0.051 Br
HETATM    6  C12 UNL     1      34.909  28.233  19.765  1.00  0.00     0.144 C 
HETATM    7  N2  UNL     1      34.035  28.775  20.784  1.00  0.00    -0.189 NA
HETATM    8  C13 UNL     1      34.699  29.678  21.681  1.00  0.00     0.123 C 
ENDROOT
BRANCH   1   9
HETATM    9  C5  UNL     1      36.401  29.856  23.375  1.00  0.00     0.224 C 
HETATM   10  N1  UNL     1      35.992  31.206  23.440  1.00  0.00    -0.353 N 
ATOM     11  H1  UNL     1      35.223  31.512  22.844  1.00  0.00     0.163 HD
HETATM   12  O1  UNL     1      37.343  29.457  24.098  1.00  0.00    -0.273 OA
BRANCH  10  13
HETATM   13  C2  UNL     1      36.617  32.175  24.317  1.00  0.00     0.022 C 
HETATM   14  C1  UNL     1      36.229  33.583  23.948  1.00  0.00     0.037 C 
HETATM   15  C3  UNL     1      36.136  31.872  25.733  1.00  0.00     0.037 C 
HETATM   16  C4  UNL     1      38.128  32.076  24.271  1.00  0.00     0.037 C 
ENDBRANCH  10  13
ENDBRANCH   1   9
BRANCH   7  17
HETATM   17  S1  UNL     1      32.662  29.560  20.121  1.00  0.00     0.297 S 
HETATM   18  O2  UNL     1      32.839  31.046  20.059  1.00  0.00    -0.189 OA
HETATM   19  O3  UNL     1      31.488  29.265  21.006  1.00  0.00    -0.189 OA
BRANCH  17  20
HETATM   20  N3  UNL     1      32.278  28.980  18.546  1.00  0.00    -0.316 N 
ATOM     21  H32 UNL     1      32.685  28.132  18.151  1.00  0.00     0.170 HD
ATOM     22  H31 UNL     1      31.606  29.579  18.068  1.00  0.00     0.170 HD
ENDBRANCH  17  20
ENDBRANCH   7  17
BRANCH   4  23
HETATM   23  C10 UNL     1      35.728  25.427  19.214  1.00  0.00     0.027 C 
HETATM   24  C11 UNL     1      35.940  24.130  19.184  1.00  0.00     0.057 C 
HETATM   25 BR2  UNL     1      35.152  22.976  17.895  1.00  0.00    -0.064 Br
ENDBRANCH   4  23
TORSDOF 5
ENDMDL
