MODEL 1
REMARK VINA RESULT: -7.076597200      0.000      0.000
REMARK  5 active torsions:
REMARK  status: ('A' for Active; 'I' for Inactive)
REMARK    1  A    between atoms: C2_2  and  N1_3 
REMARK    2  A    between atoms: C2_2  and  C11_17 
REMARK       I    between atoms: N1_3  and  C3_5 
REMARK    3  A    between atoms: C3_5  and  C4_7 
REMARK       I    between atoms: C11_17  and  N3_19 
REMARK    4  A    between atoms: N3_19  and  C12_21 
REMARK    5  A    between atoms: C12_21  and  C14_23 
ROOT
HETATM    1  N1  UNL     1      34.974  29.471  22.005  1.00  0.00    -0.346 N 
ATOM      2  H1  UNL     1      35.681  30.069  21.577  1.00  0.00     0.163 HD
HETATM    3  C3  UNL     1      34.992  29.270  23.427  1.00  0.00     0.262 C 
HETATM    4  O1  UNL     1      34.120  28.535  23.922  1.00  0.00    -0.270 OA
ENDROOT
BRANCH   1   5
HETATM    5  C2  UNL     1      33.974  28.846  21.162  1.00  0.00     0.172 C 
HETATM    6  C1  UNL     1      34.567  28.411  19.838  1.00  0.00     0.042 C 
BRANCH   5   7
HETATM    7  C11 UNL     1      32.896  29.838  20.930  1.00  0.00     0.240 C 
HETATM    8  O2  UNL     1      32.141  30.215  21.860  1.00  0.00    -0.271 OA
HETATM    9  N3  UNL     1      32.692  30.389  19.642  1.00  0.00    -0.355 N 
ATOM     10  H3  UNL     1      33.291  30.100  18.868  1.00  0.00     0.162 HD
BRANCH   9  11
HETATM   11  C12 UNL     1      31.648  31.353  19.414  1.00  0.00     0.083 C 
HETATM   12  C13 UNL     1      30.710  30.865  18.334  1.00  0.00     0.032 C 
BRANCH  11  13
HETATM   13  C14 UNL     1      32.311  32.661  19.022  1.00  0.00    -0.000 C 
HETATM   14  C15 UNL     1      32.787  33.437  20.212  1.00  0.00     0.011 C 
HETATM   15  C16 UNL     1      31.352  33.507  18.217  1.00  0.00     0.011 C 
ENDBRANCH  11  13
ENDBRANCH   9  11
ENDBRANCH   5   7
ENDBRANCH   1   5
BRANCH   3  16
HETATM   16  C4  UNL     1      36.014  29.924  24.230  1.00  0.00     0.266 C 
HETATM   17  C5  UNL     1      35.492  31.019  25.063  1.00  0.00     0.078 C 
HETATM   18  C6  UNL     1      35.360  30.369  26.447  1.00  0.00     0.101 C 
HETATM   19 BR1  UNL     1      33.637  29.738  26.869  1.00  0.00    -0.085 Br
HETATM   20  C7  UNL     1      36.442  29.350  26.392  1.00  0.00     0.010 C 
HETATM   21 BR2  UNL     1      37.178  28.511  27.952  1.00  0.00    -0.054 Br
HETATM   22  C8  UNL     1      36.835  29.086  25.171  1.00  0.00     0.011 C 
HETATM   23  C9  UNL     1      37.488  28.613  23.893  1.00  0.00     0.312 C 
HETATM   24  N2  UNL     1      37.230  30.036  23.460  1.00  0.00     0.111 N 
HETATM   25  C10 UNL     1      38.215  30.950  23.928  1.00  0.00     0.312 C 
ENDBRANCH   3  16
TORSDOF 5
ENDMDL
MODEL 2
REMARK VINA RESULT: -6.911349028      1.958      2.647
REMARK  5 active torsions:
REMARK  status: ('A' for Active; 'I' for Inactive)
REMARK    1  A    between atoms: C2_2  and  N1_3 
REMARK    2  A    between atoms: C2_2  and  C11_17 
REMARK       I    between atoms: N1_3  and  C3_5 
REMARK    3  A    between atoms: C3_5  and  C4_7 
REMARK       I    between atoms: C11_17  and  N3_19 
REMARK    4  A    between atoms: N3_19  and  C12_21 
REMARK    5  A    between atoms: C12_21  and  C14_23 
ROOT
HETATM    1  N1  UNL     1      35.353  29.346  22.298  1.00  0.00    -0.346 N 
ATOM      2  H1  UNL     1      36.013  30.013  21.901  1.00  0.00     0.163 HD
HETATM    3  C3  UNL     1      35.267  29.209  23.726  1.00  0.00     0.262 C 
HETATM    4  O1  UNL     1      34.455  28.386  24.184  1.00  0.00    -0.270 OA
ENDROOT
BRANCH   1   5
HETATM    5  C2  UNL     1      34.525  28.556  21.408  1.00  0.00     0.172 C 
HETATM    6  C1  UNL     1      35.252  28.241  20.118  1.00  0.00     0.042 C 
BRANCH   5   7
HETATM    7  C11 UNL     1      33.301  29.342  21.118  1.00  0.00     0.240 C 
HETATM    8  O2  UNL     1      32.259  29.210  21.806  1.00  0.00    -0.271 OA
HETATM    9  N3  UNL     1      33.280  30.269  20.048  1.00  0.00    -0.355 N 
ATOM     10  H3  UNL     1      34.112  30.397  19.473  1.00  0.00     0.162 HD
BRANCH   9  11
HETATM   11  C12 UNL     1      32.093  31.034  19.765  1.00  0.00     0.083 C 
HETATM   12  C13 UNL     1      31.323  30.405  18.628  1.00  0.00     0.032 C 
BRANCH  11  13
HETATM   13  C14 UNL     1      32.532  32.447  19.423  1.00  0.00    -0.000 C 
HETATM   14  C15 UNL     1      32.812  33.267  20.644  1.00  0.00     0.011 C 
HETATM   15  C16 UNL     1      31.473  33.129  18.586  1.00  0.00     0.011 C 
ENDBRANCH  11  13
ENDBRANCH   9  11
ENDBRANCH   5   7
ENDBRANCH   1   5
BRANCH   3  16
HETATM   16  C4  UNL     1      36.118  30.028  24.576  1.00  0.00     0.266 C 
HETATM   17  C5  UNL     1      37.169  29.260  25.264  1.00  0.00     0.078 C 
HETATM   18  C6  UNL     1      38.413  29.531  24.408  1.00  0.00     0.101 C 
HETATM   19 BR1  UNL     1      38.809  28.202  23.135  1.00  0.00    -0.085 Br
HETATM   20  C7  UNL     1      38.108  30.886  23.875  1.00  0.00     0.010 C 
HETATM   21 BR2  UNL     1      39.440  32.052  23.136  1.00  0.00    -0.054 Br
HETATM   22  C8  UNL     1      36.838  31.196  23.963  1.00  0.00     0.011 C 
HETATM   23  C9  UNL     1      35.459  31.814  23.962  1.00  0.00     0.312 C 
HETATM   24  N2  UNL     1      35.314  31.025  25.241  1.00  0.00     0.111 N 
HETATM   25  C10 UNL     1      35.886  31.678  26.369  1.00  0.00     0.312 C 
ENDBRANCH   3  16
TORSDOF 5
ENDMDL
MODEL 3
REMARK VINA RESULT: -6.601597987      1.994      2.868
REMARK  5 active torsions:
REMARK  status: ('A' for Active; 'I' for Inactive)
REMARK    1  A    between atoms: C2_2  and  N1_3 
REMARK    2  A    between atoms: C2_2  and  C11_17 
REMARK       I    between atoms: N1_3  and  C3_5 
REMARK    3  A    between atoms: C3_5  and  C4_7 
REMARK       I    between atoms: C11_17  and  N3_19 
REMARK    4  A    between atoms: N3_19  and  C12_21 
REMARK    5  A    between atoms: C12_21  and  C14_23 
ROOT
HETATM    1  N1  UNL     1      33.912  30.447  23.424  1.00  0.00    -0.346 N 
ATOM      2  H1  UNL     1      32.955  30.367  23.766  1.00  0.00     0.163 HD
HETATM    3  C3  UNL     1      34.996  30.035  24.271  1.00  0.00     0.262 C 
HETATM    4  O1  UNL     1      36.153  30.144  23.830  1.00  0.00    -0.270 OA
ENDROOT
BRANCH   1   5
HETATM    5  C2  UNL     1      34.145  30.975  22.094  1.00  0.00     0.172 C 
HETATM    6  C1  UNL     1      34.044  32.486  22.080  1.00  0.00     0.042 C 
BRANCH   5   7
HETATM    7  C11 UNL     1      33.121  30.392  21.193  1.00  0.00     0.240 C 
HETATM    8  O2  UNL     1      32.683  29.229  21.366  1.00  0.00    -0.271 OA
HETATM    9  N3  UNL     1      32.611  31.143  20.106  1.00  0.00    -0.355 N 
ATOM     10  H3  UNL     1      32.950  32.091  19.942  1.00  0.00     0.162 HD
BRANCH   9  11
HETATM   11  C12 UNL     1      31.616  30.580  19.230  1.00  0.00     0.083 C 
HETATM   12  C13 UNL     1      32.197  29.419  18.456  1.00  0.00     0.032 C 
BRANCH  11  13
HETATM   13  C14 UNL     1      31.147  31.686  18.302  1.00  0.00    -0.000 C 
HETATM   14  C15 UNL     1      31.671  33.029  18.707  1.00  0.00     0.011 C 
HETATM   15  C16 UNL     1      29.637  31.722  18.263  1.00  0.00     0.011 C 
ENDBRANCH  11  13
ENDBRANCH   9  11
ENDBRANCH   5   7
ENDBRANCH   1   5
BRANCH   3  16
HETATM   16  C4  UNL     1      34.709  29.507  25.596  1.00  0.00     0.266 C 
HETATM   17  C5  UNL     1      34.493  28.051  25.612  1.00  0.00     0.078 C 
HETATM   18  C6  UNL     1      35.841  27.506  26.103  1.00  0.00     0.101 C 
HETATM   19 BR1  UNL     1      37.011  26.932  24.743  1.00  0.00    -0.085 Br
HETATM   20  C7  UNL     1      36.316  28.631  26.952  1.00  0.00     0.010 C 
HETATM   21 BR2  UNL     1      37.693  28.443  28.275  1.00  0.00    -0.054 Br
HETATM   22  C8  UNL     1      35.699  29.758  26.700  1.00  0.00     0.011 C 
HETATM   23  C9  UNL     1      35.143  31.161  26.634  1.00  0.00     0.312 C 
HETATM   24  N2  UNL     1      33.862  30.433  26.308  1.00  0.00     0.111 N 
HETATM   25  C10 UNL     1      33.187  29.944  27.462  1.00  0.00     0.312 C 
ENDBRANCH   3  16
TORSDOF 5
ENDMDL
MODEL 4
REMARK VINA RESULT: -6.555129982      1.061      1.192
REMARK  5 active torsions:
REMARK  status: ('A' for Active; 'I' for Inactive)
REMARK    1  A    between atoms: C2_2  and  N1_3 
REMARK    2  A    between atoms: C2_2  and  C11_17 
REMARK       I    between atoms: N1_3  and  C3_5 
REMARK    3  A    between atoms: C3_5  and  C4_7 
REMARK       I    between atoms: C11_17  and  N3_19 
REMARK    4  A    between atoms: N3_19  and  C12_21 
REMARK    5  A    between atoms: C12_21  and  C14_23 
ROOT
HETATM    1  N1  UNL     1      34.937  29.725  22.665  1.00  0.00    -0.346 N 
ATOM      2  H1  UNL     1      34.995  30.742  22.627  1.00  0.00     0.163 HD
HETATM    3  C3  UNL     1      35.760  29.011  23.601  1.00  0.00     0.262 C 
HETATM    4  O1  UNL     1      35.671  27.771  23.625  1.00  0.00    -0.270 OA
ENDROOT
BRANCH   1   5
HETATM    5  C2  UNL     1      34.026  29.035  21.773  1.00  0.00     0.172 C 
HETATM    6  C1  UNL     1      34.739  28.559  20.524  1.00  0.00     0.042 C 
BRANCH   5   7
HETATM    7  C11 UNL     1      32.949  29.986  21.407  1.00  0.00     0.240 C 
HETATM    8  O2  UNL     1      32.152  30.436  22.267  1.00  0.00    -0.271 OA
HETATM    9  N3  UNL     1      32.793  30.413  20.066  1.00  0.00    -0.355 N 
ATOM     10  H3  UNL     1      33.427  30.064  19.347  1.00  0.00     0.162 HD
BRANCH   9  11
HETATM   11  C12 UNL     1      31.748  31.337  19.708  1.00  0.00     0.083 C 
HETATM   12  C13 UNL     1      30.884  30.753  18.615  1.00  0.00     0.032 C 
BRANCH  11  13
HETATM   13  C14 UNL     1      32.413  32.626  19.259  1.00  0.00    -0.000 C 
HETATM   14  C15 UNL     1      32.789  33.504  20.413  1.00  0.00     0.011 C 
HETATM   15  C16 UNL     1      31.497  33.383  18.325  1.00  0.00     0.011 C 
ENDBRANCH  11  13
ENDBRANCH   9  11
ENDBRANCH   5   7
ENDBRANCH   1   5
BRANCH   3  16
HETATM   16  C4  UNL     1      36.656  29.750  24.478  1.00  0.00     0.266 C 
HETATM   17  C5  UNL     1      36.043  30.114  25.766  1.00  0.00     0.078 C 
HETATM   18  C6  UNL     1      36.596  29.051  26.725  1.00  0.00     0.101 C 
HETATM   19 BR1  UNL     1      35.456  27.585  27.033  1.00  0.00    -0.085 Br
HETATM   20  C7  UNL     1      37.908  28.747  26.094  1.00  0.00     0.010 C 
HETATM   21 BR2  UNL     1      39.346  27.878  27.020  1.00  0.00    -0.054 Br
HETATM   22  C8  UNL     1      37.976  29.131  24.844  1.00  0.00     0.011 C 
HETATM   23  C9  UNL     1      38.332  29.487  23.419  1.00  0.00     0.312 C 
HETATM   24  N2  UNL     1      37.440  30.673  23.694  1.00  0.00     0.111 N 
HETATM   25  C10 UNL     1      38.103  31.721  24.393  1.00  0.00     0.312 C 
ENDBRANCH   3  16
TORSDOF 5
ENDMDL
MODEL 5
REMARK VINA RESULT: -6.527487250      2.273      3.184
REMARK  5 active torsions:
REMARK  status: ('A' for Active; 'I' for Inactive)
REMARK    1  A    between atoms: C2_2  and  N1_3 
REMARK    2  A    between atoms: C2_2  and  C11_17 
REMARK       I    between atoms: N1_3  and  C3_5 
REMARK    3  A    between atoms: C3_5  and  C4_7 
REMARK       I    between atoms: C11_17  and  N3_19 
REMARK    4  A    between atoms: N3_19  and  C12_21 
REMARK    5  A    between atoms: C12_21  and  C14_23 
ROOT
HETATM    1  N1  UNL     1      34.724  29.202  22.884  1.00  0.00    -0.346 N 
ATOM      2  H1  UNL     1      35.667  29.406  22.555  1.00  0.00     0.163 HD
HETATM    3  C3  UNL     1      34.525  28.838  24.260  1.00  0.00     0.262 C 
HETATM    4  O1  UNL     1      33.365  28.592  24.635  1.00  0.00    -0.270 OA
ENDROOT
BRANCH   1   5
HETATM    5  C2  UNL     1      33.616  29.286  21.953  1.00  0.00     0.172 C 
HETATM    6  C1  UNL     1      34.046  28.895  20.554  1.00  0.00     0.042 C 
BRANCH   5   7
HETATM    7  C11 UNL     1      33.130  30.687  21.958  1.00  0.00     0.240 C 
HETATM    8  O2  UNL     1      32.037  31.000  22.492  1.00  0.00    -0.271 OA
HETATM    9  N3  UNL     1      33.895  31.715  21.355  1.00  0.00    -0.355 N 
ATOM     10  H3  UNL     1      34.786  31.489  20.914  1.00  0.00     0.162 HD
BRANCH   9  11
HETATM   11  C12 UNL     1      33.425  33.076  21.359  1.00  0.00     0.083 C 
HETATM   12  C13 UNL     1      32.753  33.402  20.046  1.00  0.00     0.032 C 
BRANCH  11  13
HETATM   13  C14 UNL     1      34.626  33.972  21.604  1.00  0.00    -0.000 C 
HETATM   14  C15 UNL     1      35.513  33.450  22.692  1.00  0.00     0.011 C 
HETATM   15  C16 UNL     1      34.167  35.369  21.953  1.00  0.00     0.011 C 
ENDBRANCH  11  13
ENDBRANCH   9  11
ENDBRANCH   5   7
ENDBRANCH   1   5
BRANCH   3  16
HETATM   16  C4  UNL     1      35.669  28.771  25.156  1.00  0.00     0.266 C 
HETATM   17  C5  UNL     1      36.324  27.453  25.171  1.00  0.00     0.078 C 
HETATM   18  C6  UNL     1      37.537  27.659  24.254  1.00  0.00     0.101 C 
HETATM   19 BR1  UNL     1      37.296  27.093  22.475  1.00  0.00    -0.085 Br
HETATM   20  C7  UNL     1      37.809  29.107  24.455  1.00  0.00     0.010 C 
HETATM   21 BR2  UNL     1      39.481  29.936  24.010  1.00  0.00    -0.054 Br
HETATM   22  C8  UNL     1      36.791  29.754  24.965  1.00  0.00     0.011 C 
HETATM   23  C9  UNL     1      35.799  30.726  25.558  1.00  0.00     0.312 C 
HETATM   24  N2  UNL     1      35.380  29.516  26.357  1.00  0.00     0.111 N 
HETATM   25  C10 UNL     1      36.212  29.278  27.488  1.00  0.00     0.312 C 
ENDBRANCH   3  16
TORSDOF 5
ENDMDL
