MODEL 1
REMARK VINA RESULT: -8.078765480      0.000      0.000
REMARK  5 active torsions:
REMARK  status: ('A' for Active; 'I' for Inactive)
REMARK    1  A    between atoms: N1_8  and  C8_9 
REMARK    2  A    between atoms: C8_9  and  C9_10 
REMARK    3  A    between atoms: C8_9  and  C21_26 
REMARK       I    between atoms: C9_10  and  N2_12 
REMARK    4  A    between atoms: N2_12  and  C10_14 
REMARK    5  A    between atoms: C10_14  and  C11_15 
ROOT
HETATM    1  C1  UNL     1      33.629  31.481  21.893  1.00  0.00     0.023 C 
HETATM    2  C2  UNL     1      34.195  30.221  22.464  1.00  0.00     0.014 C 
HETATM    3  C3  UNL     1      33.163  29.095  22.276  1.00  0.00     0.023 C 
HETATM    4  C4  UNL     1      35.461  29.759  21.926  1.00  0.00     0.047 C 
HETATM    5  C5  UNL     1      36.382  29.436  23.102  1.00  0.00     0.029 C 
HETATM    6  C6  UNL     1      36.278  27.914  23.273  1.00  0.00     0.038 C 
HETATM    7  C7  UNL     1      37.728  29.844  22.626  1.00  0.00     0.038 C 
HETATM    8  N1  UNL     1      35.818  30.091  24.233  1.00  0.00    -0.342 N 
HETATM    9  C22 UNL     1      34.422  30.284  23.942  1.00  0.00     0.098 C 
HETATM   10  N3  UNL     1      33.389  30.486  24.658  1.00  0.00    -0.282 N 
ATOM     11  H3  UNL     1      32.549  30.575  24.086  1.00  0.00     0.179 HD
HETATM   12  C23 UNL     1      33.110  30.612  25.957  1.00  0.00     0.183 C 
HETATM   13  N4  UNL     1      32.845  30.728  27.075  1.00  0.00    -0.172 NA
ENDROOT
BRANCH   8  14
HETATM   14  C8  UNL     1      36.290  30.550  25.491  1.00  0.00     0.235 C 
BRANCH  14  15
HETATM   15  C9  UNL     1      36.943  31.884  25.356  1.00  0.00     0.246 C 
HETATM   16  O1  UNL     1      36.329  32.880  25.820  1.00  0.00    -0.271 OA
HETATM   17  N2  UNL     1      38.202  32.089  24.742  1.00  0.00    -0.358 N 
ATOM     18  H2  UNL     1      38.712  31.290  24.363  1.00  0.00     0.162 HD
BRANCH  17  19
HETATM   19  C10 UNL     1      38.775  33.411  24.644  1.00  0.00     0.132 C 
BRANCH  19  20
HETATM   20  C11 UNL     1      40.168  33.403  24.112  1.00  0.00    -0.022 C 
HETATM   21  C12 UNL     1      40.128  33.139  22.620  1.00  0.00     0.016 C 
HETATM   22  C13 UNL     1      41.535  32.983  22.134  1.00  0.00    -0.012 C 
HETATM   23  C14 UNL     1      42.294  31.902  22.851  1.00  0.00     0.009 C 
HETATM   24  C18 UNL     1      42.267  34.301  22.355  1.00  0.00     0.030 C 
HETATM   25  C15 UNL     1      42.347  32.221  24.321  1.00  0.00    -0.012 C 
HETATM   26  C16 UNL     1      43.067  33.544  24.536  1.00  0.00     0.030 C 
HETATM   27  C20 UNL     1      40.949  32.327  24.844  1.00  0.00     0.016 C 
HETATM   28  C17 UNL     1      42.272  34.615  23.821  1.00  0.00     0.038 C 
HETATM   29 CL1  UNL     1      43.083  36.161  24.084  1.00  0.00    -0.119 Cl
HETATM   30  C19 UNL     1      40.867  34.710  24.352  1.00  0.00     0.036 C 
ENDBRANCH  19  20
ENDBRANCH  17  19
ENDBRANCH  14  15
BRANCH  14  31
HETATM   31  C21 UNL     1      37.237  29.745  26.279  1.00  0.00     0.113 C 
HETATM   32 CL2  UNL     1      38.253  30.617  27.433  1.00  0.00    -0.073 Cl
HETATM   33 CL3  UNL     1      36.737  28.145  26.780  1.00  0.00    -0.073 Cl
ENDBRANCH  14  31
ENDBRANCH   8  14
TORSDOF 5
ENDMDL
MODEL 2
REMARK VINA RESULT: -8.024349877      0.937      1.631
REMARK  5 active torsions:
REMARK  status: ('A' for Active; 'I' for Inactive)
REMARK    1  A    between atoms: N1_8  and  C8_9 
REMARK    2  A    between atoms: C8_9  and  C9_10 
REMARK    3  A    between atoms: C8_9  and  C21_26 
REMARK       I    between atoms: C9_10  and  N2_12 
REMARK    4  A    between atoms: N2_12  and  C10_14 
REMARK    5  A    between atoms: C10_14  and  C11_15 
ROOT
HETATM    1  C1  UNL     1      33.612  31.482  21.894  1.00  0.00     0.023 C 
HETATM    2  C2  UNL     1      34.181  30.224  22.467  1.00  0.00     0.014 C 
HETATM    3  C3  UNL     1      33.151  29.096  22.282  1.00  0.00     0.023 C 
HETATM    4  C4  UNL     1      35.447  29.763  21.928  1.00  0.00     0.047 C 
HETATM    5  C5  UNL     1      36.370  29.444  23.103  1.00  0.00     0.029 C 
HETATM    6  C6  UNL     1      36.269  27.922  23.277  1.00  0.00     0.038 C 
HETATM    7  C7  UNL     1      37.714  29.853  22.625  1.00  0.00     0.038 C 
HETATM    8  N1  UNL     1      35.806  30.100  24.234  1.00  0.00    -0.342 N 
HETATM    9  C22 UNL     1      34.410  30.290  23.944  1.00  0.00     0.098 C 
HETATM   10  N3  UNL     1      33.377  30.492  24.662  1.00  0.00    -0.282 N 
ATOM     11  H3  UNL     1      32.536  30.578  24.091  1.00  0.00     0.179 HD
HETATM   12  C23 UNL     1      33.100  30.620  25.961  1.00  0.00     0.183 C 
HETATM   13  N4  UNL     1      32.837  30.737  27.078  1.00  0.00    -0.172 NA
ENDROOT
BRANCH   8  14
HETATM   14  C8  UNL     1      36.280  30.562  25.491  1.00  0.00     0.235 C 
BRANCH  14  15
HETATM   15  C9  UNL     1      36.937  31.894  25.351  1.00  0.00     0.246 C 
HETATM   16  O1  UNL     1      36.313  32.897  25.784  1.00  0.00    -0.271 OA
HETATM   17  N2  UNL     1      38.211  32.087  24.765  1.00  0.00    -0.358 N 
ATOM     18  H2  UNL     1      38.729  31.282  24.411  1.00  0.00     0.162 HD
BRANCH  17  19
HETATM   19  C10 UNL     1      38.788  33.407  24.661  1.00  0.00     0.132 C 
BRANCH  19  20
HETATM   20  C11 UNL     1      40.171  33.396  24.104  1.00  0.00    -0.022 C 
HETATM   21  C12 UNL     1      40.835  34.726  24.396  1.00  0.00     0.016 C 
HETATM   22  C13 UNL     1      42.159  34.752  23.699  1.00  0.00    -0.012 C 
HETATM   23  C14 UNL     1      42.054  34.518  22.218  1.00  0.00     0.009 C 
HETATM   24  C18 UNL     1      43.035  33.653  24.291  1.00  0.00     0.030 C 
HETATM   25  C15 UNL     1      41.429  33.172  21.969  1.00  0.00    -0.012 C 
HETATM   26  C16 UNL     1      42.298  32.079  22.573  1.00  0.00     0.030 C 
HETATM   27  C20 UNL     1      40.077  33.141  22.611  1.00  0.00     0.016 C 
HETATM   28  C17 UNL     1      42.370  32.328  24.063  1.00  0.00     0.038 C 
HETATM   29 CL1  UNL     1      43.356  31.051  24.781  1.00  0.00    -0.119 Cl
HETATM   30  C19 UNL     1      41.006  32.298  24.697  1.00  0.00     0.036 C 
ENDBRANCH  19  20
ENDBRANCH  17  19
ENDBRANCH  14  15
BRANCH  14  31
HETATM   31  C21 UNL     1      37.224  29.757  26.282  1.00  0.00     0.113 C 
HETATM   32 CL2  UNL     1      38.245  30.630  27.431  1.00  0.00    -0.073 Cl
HETATM   33 CL3  UNL     1      36.716  28.162  26.792  1.00  0.00    -0.073 Cl
ENDBRANCH  14  31
ENDBRANCH   8  14
TORSDOF 5
ENDMDL
MODEL 3
REMARK VINA RESULT: -7.976539879      0.960      1.627
REMARK  5 active torsions:
REMARK  status: ('A' for Active; 'I' for Inactive)
REMARK    1  A    between atoms: N1_8  and  C8_9 
REMARK    2  A    between atoms: C8_9  and  C9_10 
REMARK    3  A    between atoms: C8_9  and  C21_26 
REMARK       I    between atoms: C9_10  and  N2_12 
REMARK    4  A    between atoms: N2_12  and  C10_14 
REMARK    5  A    between atoms: C10_14  and  C11_15 
ROOT
HETATM    1  C1  UNL     1      33.896  31.354  21.919  1.00  0.00     0.023 C 
HETATM    2  C2  UNL     1      34.477  30.107  22.502  1.00  0.00     0.014 C 
HETATM    3  C3  UNL     1      33.448  28.974  22.352  1.00  0.00     0.023 C 
HETATM    4  C4  UNL     1      35.736  29.640  21.950  1.00  0.00     0.047 C 
HETATM    5  C5  UNL     1      36.679  29.343  23.115  1.00  0.00     0.029 C 
HETATM    6  C6  UNL     1      36.585  27.823  23.315  1.00  0.00     0.038 C 
HETATM    7  C7  UNL     1      38.014  29.748  22.608  1.00  0.00     0.038 C 
HETATM    8  N1  UNL     1      36.132  30.016  24.244  1.00  0.00    -0.342 N 
HETATM    9  C22 UNL     1      34.731  30.197  23.974  1.00  0.00     0.098 C 
HETATM   10  N3  UNL     1      33.709  30.408  24.705  1.00  0.00    -0.282 N 
ATOM     11  H3  UNL     1      32.859  30.483  24.146  1.00  0.00     0.179 HD
HETATM   12  C23 UNL     1      33.453  30.557  26.006  1.00  0.00     0.183 C 
HETATM   13  N4  UNL     1      33.207  30.691  27.126  1.00  0.00    -0.172 NA
ENDROOT
BRANCH   8  14
HETATM   14  C8  UNL     1      36.624  30.499  25.485  1.00  0.00     0.235 C 
BRANCH  14  15
HETATM   15  C9  UNL     1      37.215  31.859  25.326  1.00  0.00     0.246 C 
HETATM   16  O1  UNL     1      36.534  32.838  25.727  1.00  0.00    -0.271 OA
HETATM   17  N2  UNL     1      38.488  32.105  24.754  1.00  0.00    -0.358 N 
ATOM     18  H2  UNL     1      39.051  31.320  24.426  1.00  0.00     0.162 HD
BRANCH  17  19
HETATM   19  C10 UNL     1      38.998  33.450  24.630  1.00  0.00     0.132 C 
BRANCH  19  20
HETATM   20  C11 UNL     1      40.380  33.499  24.073  1.00  0.00    -0.022 C 
HETATM   21  C12 UNL     1      41.213  32.408  24.714  1.00  0.00     0.016 C 
HETATM   22  C13 UNL     1      42.629  32.570  24.258  1.00  0.00    -0.012 C 
HETATM   23  C14 UNL     1      43.198  33.927  24.561  1.00  0.00     0.009 C 
HETATM   24  C18 UNL     1      42.674  32.364  22.748  1.00  0.00     0.030 C 
HETATM   25  C15 UNL     1      42.370  34.980  23.874  1.00  0.00    -0.012 C 
HETATM   26  C16 UNL     1      42.405  34.763  22.369  1.00  0.00     0.030 C 
HETATM   27  C20 UNL     1      40.957  34.874  24.356  1.00  0.00     0.016 C 
HETATM   28  C17 UNL     1      41.810  33.400  22.092  1.00  0.00     0.038 C 
HETATM   29 CL1  UNL     1      41.822  33.146  20.345  1.00  0.00    -0.119 Cl
HETATM   30  C19 UNL     1      40.392  33.303  22.584  1.00  0.00     0.036 C 
ENDBRANCH  19  20
ENDBRANCH  17  19
ENDBRANCH  14  15
BRANCH  14  31
HETATM   31  C21 UNL     1      37.629  29.738  26.244  1.00  0.00     0.113 C 
HETATM   32 CL2  UNL     1      38.463  30.599  27.544  1.00  0.00    -0.073 Cl
HETATM   33 CL3  UNL     1      37.320  28.042  26.545  1.00  0.00    -0.073 Cl
ENDBRANCH  14  31
ENDBRANCH   8  14
TORSDOF 5
ENDMDL
MODEL 4
REMARK VINA RESULT: -7.626768035      3.423      7.138
REMARK  5 active torsions:
REMARK  status: ('A' for Active; 'I' for Inactive)
REMARK    1  A    between atoms: N1_8  and  C8_9 
REMARK    2  A    between atoms: C8_9  and  C9_10 
REMARK    3  A    between atoms: C8_9  and  C21_26 
REMARK       I    between atoms: C9_10  and  N2_12 
REMARK    4  A    between atoms: N2_12  and  C10_14 
REMARK    5  A    between atoms: C10_14  and  C11_15 
ROOT
HETATM    1  C1  UNL     1      35.087  30.986  25.455  1.00  0.00     0.023 C 
HETATM    2  C2  UNL     1      36.355  30.439  26.027  1.00  0.00     0.014 C 
HETATM    3  C3  UNL     1      36.801  31.353  27.182  1.00  0.00     0.023 C 
HETATM    4  C4  UNL     1      36.324  29.076  26.525  1.00  0.00     0.047 C 
HETATM    5  C5  UNL     1      37.529  28.336  25.944  1.00  0.00     0.029 C 
HETATM    6  C6  UNL     1      38.581  28.367  27.062  1.00  0.00     0.038 C 
HETATM    7  C7  UNL     1      37.024  26.961  25.705  1.00  0.00     0.038 C 
HETATM    8  N1  UNL     1      37.971  29.115  24.838  1.00  0.00    -0.342 N 
HETATM    9  C22 UNL     1      37.501  30.455  25.066  1.00  0.00     0.098 C 
HETATM   10  N3  UNL     1      37.852  31.601  24.633  1.00  0.00    -0.282 N 
ATOM     11  H3  UNL     1      37.273  32.343  25.028  1.00  0.00     0.179 HD
HETATM   12  C23 UNL     1      38.774  32.091  23.802  1.00  0.00     0.183 C 
HETATM   13  N4  UNL     1      39.561  32.538  23.086  1.00  0.00    -0.172 NA
ENDROOT
BRANCH   8  14
HETATM   14  C8  UNL     1      38.724  28.880  23.657  1.00  0.00     0.235 C 
BRANCH  14  15
HETATM   15  C9  UNL     1      37.826  28.744  22.475  1.00  0.00     0.246 C 
HETATM   16  O1  UNL     1      38.351  28.825  21.335  1.00  0.00    -0.271 OA
HETATM   17  N2  UNL     1      36.429  28.532  22.565  1.00  0.00    -0.358 N 
ATOM     18  H2  UNL     1      35.989  28.463  23.484  1.00  0.00     0.162 HD
BRANCH  17  19
HETATM   19  C10 UNL     1      35.617  28.411  21.377  1.00  0.00     0.132 C 
BRANCH  19  20
HETATM   20  C11 UNL     1      34.455  29.344  21.368  1.00  0.00    -0.022 C 
HETATM   21  C12 UNL     1      34.900  30.697  21.886  1.00  0.00     0.016 C 
HETATM   22  C13 UNL     1      33.693  31.571  22.014  1.00  0.00    -0.012 C 
HETATM   23  C14 UNL     1      32.626  30.983  22.895  1.00  0.00     0.009 C 
HETATM   24  C18 UNL     1      33.100  31.776  20.625  1.00  0.00     0.030 C 
HETATM   25  C15 UNL     1      32.181  29.663  22.325  1.00  0.00    -0.012 C 
HETATM   26  C16 UNL     1      31.603  29.870  20.933  1.00  0.00     0.030 C 
HETATM   27  C20 UNL     1      33.364  28.750  22.239  1.00  0.00     0.016 C 
HETATM   28  C17 UNL     1      32.701  30.443  20.066  1.00  0.00     0.038 C 
HETATM   29 CL1  UNL     1      32.050  30.664  18.439  1.00  0.00    -0.119 Cl
HETATM   30  C19 UNL     1      33.887  29.519  19.989  1.00  0.00     0.036 C 
ENDBRANCH  19  20
ENDBRANCH  17  19
ENDBRANCH  14  15
BRANCH  14  31
HETATM   31  C21 UNL     1      39.644  27.735  23.566  1.00  0.00     0.113 C 
HETATM   32 CL2  UNL     1      41.016  27.726  24.681  1.00  0.00    -0.073 Cl
HETATM   33 CL3  UNL     1      38.965  26.164  23.200  1.00  0.00    -0.073 Cl
ENDBRANCH  14  31
ENDBRANCH   8  14
TORSDOF 5
ENDMDL
MODEL 5
REMARK VINA RESULT: -7.576241204      3.214      7.373
REMARK  5 active torsions:
REMARK  status: ('A' for Active; 'I' for Inactive)
REMARK    1  A    between atoms: N1_8  and  C8_9 
REMARK    2  A    between atoms: C8_9  and  C9_10 
REMARK    3  A    between atoms: C8_9  and  C21_26 
REMARK       I    between atoms: C9_10  and  N2_12 
REMARK    4  A    between atoms: N2_12  and  C10_14 
REMARK    5  A    between atoms: C10_14  and  C11_15 
ROOT
HETATM    1  C1  UNL     1      39.735  32.127  23.066  1.00  0.00     0.023 C 
HETATM    2  C2  UNL     1      39.623  31.645  24.476  1.00  0.00     0.014 C 
HETATM    3  C3  UNL     1      40.833  32.169  25.268  1.00  0.00     0.023 C 
HETATM    4  C4  UNL     1      38.422  32.007  25.207  1.00  0.00     0.047 C 
HETATM    5  C5  UNL     1      37.873  30.741  25.865  1.00  0.00     0.029 C 
HETATM    6  C6  UNL     1      38.375  30.805  27.314  1.00  0.00     0.038 C 
HETATM    7  C7  UNL     1      36.400  30.907  25.787  1.00  0.00     0.038 C 
HETATM    8  N1  UNL     1      38.485  29.649  25.187  1.00  0.00    -0.342 N 
HETATM    9  C22 UNL     1      39.700  30.156  24.607  1.00  0.00     0.098 C 
HETATM   10  N3  UNL     1      40.780  29.615  24.203  1.00  0.00    -0.282 N 
ATOM     11  H3  UNL     1      41.435  30.310  23.845  1.00  0.00     0.179 HD
HETATM   12  C23 UNL     1      41.284  28.382  24.123  1.00  0.00     0.183 C 
HETATM   13  N4  UNL     1      41.741  27.325  24.041  1.00  0.00    -0.172 NA
ENDROOT
BRANCH   8  14
HETATM   14  C8  UNL     1      38.189  28.276  24.982  1.00  0.00     0.235 C 
BRANCH  14  15
HETATM   15  C9  UNL     1      37.455  28.078  23.699  1.00  0.00     0.246 C 
HETATM   16  O1  UNL     1      37.358  26.903  23.261  1.00  0.00    -0.271 OA
HETATM   17  N2  UNL     1      36.868  29.131  22.955  1.00  0.00    -0.358 N 
ATOM     18  H2  UNL     1      36.938  30.089  23.299  1.00  0.00     0.162 HD
BRANCH  17  19
HETATM   19  C10 UNL     1      36.173  28.867  21.717  1.00  0.00     0.132 C 
BRANCH  19  20
HETATM   20  C11 UNL     1      34.848  29.546  21.638  1.00  0.00    -0.022 C 
HETATM   21  C12 UNL     1      35.016  31.007  22.004  1.00  0.00     0.016 C 
HETATM   22  C13 UNL     1      33.659  31.634  22.068  1.00  0.00    -0.012 C 
HETATM   23  C14 UNL     1      32.732  30.943  23.028  1.00  0.00     0.009 C 
HETATM   24  C18 UNL     1      33.035  31.570  20.679  1.00  0.00     0.030 C 
HETATM   25  C15 UNL     1      32.557  29.508  22.608  1.00  0.00    -0.012 C 
HETATM   26  C16 UNL     1      31.948  29.449  21.215  1.00  0.00     0.030 C 
HETATM   27  C20 UNL     1      33.898  28.843  22.590  1.00  0.00     0.016 C 
HETATM   28  C17 UNL     1      32.909  30.133  20.269  1.00  0.00     0.038 C 
HETATM   29 CL1  UNL     1      32.225  30.049  18.643  1.00  0.00    -0.119 Cl
HETATM   30  C19 UNL     1      34.254  29.459  20.262  1.00  0.00     0.036 C 
ENDBRANCH  19  20
ENDBRANCH  17  19
ENDBRANCH  14  15
BRANCH  14  31
HETATM   31  C21 UNL     1      37.417  27.516  25.979  1.00  0.00     0.113 C 
HETATM   32 CL2  UNL     1      38.215  27.191  27.523  1.00  0.00    -0.073 Cl
HETATM   33 CL3  UNL     1      35.692  27.797  26.070  1.00  0.00    -0.073 Cl
ENDBRANCH  14  31
ENDBRANCH   8  14
TORSDOF 5
ENDMDL
