MODEL 1
REMARK VINA RESULT: -9.814163602      0.000      0.000
REMARK  6 active torsions:
REMARK  status: ('A' for Active; 'I' for Inactive)
REMARK       I    between atoms: C1_2  and  N1_3 
REMARK    1  A    between atoms: C1_2  and  C12_15 
REMARK    2  A    between atoms: N1_3  and  C2_5 
REMARK       I    between atoms: N2_18  and  C15_19 
REMARK    3  A    between atoms: C15_19  and  O3_21 
REMARK    4  A    between atoms: O3_21  and  C16_22 
REMARK    5  A    between atoms: C16_22  and  C17_23 
REMARK    6  A    between atoms: C20_26  and  C21_27 
ROOT
HETATM    1  C12 UNL     1      36.887  28.309  26.685  1.00  0.00     0.081 C 
HETATM    2  C13 UNL     1      37.844  29.443  27.083  1.00  0.00     0.034 C 
HETATM    3  C14 UNL     1      37.875  30.400  25.917  1.00  0.00     0.129 C 
HETATM    4  N2  UNL     1      36.482  30.638  25.569  1.00  0.00    -0.328 N 
HETATM    5  C15 UNL     1      36.162  31.072  24.277  1.00  0.00     0.363 C 
HETATM    6  O2  UNL     1      37.049  31.227  23.391  1.00  0.00    -0.238 OA
HETATM    7  C26 UNL     1      35.504  30.357  26.593  1.00  0.00     0.129 C 
HETATM    8  C27 UNL     1      35.500  28.813  26.767  1.00  0.00     0.034 C 
ENDROOT
BRANCH   5   9
HETATM    9  O3  UNL     1      34.852  31.328  23.958  1.00  0.00    -0.288 OA
BRANCH   9  10
HETATM   10  C16 UNL     1      34.069  30.538  23.141  1.00  0.00     0.100 A 
HETATM   11  C24 UNL     1      33.310  29.448  23.884  1.00  0.00     0.047 A 
HETATM   12  C25 UNL     1      34.505  29.080  23.099  1.00  0.00     0.047 A 
BRANCH  10  13
HETATM   13  C17 UNL     1      33.406  31.066  21.920  1.00  0.00    -0.023 A 
HETATM   14  C18 UNL     1      32.441  30.288  21.276  1.00  0.00     0.011 A 
HETATM   15  C19 UNL     1      31.774  30.742  20.158  1.00  0.00     0.017 A 
HETATM   16  C20 UNL     1      32.044  32.005  19.645  1.00  0.00     0.047 A 
HETATM   17  C22 UNL     1      32.980  32.774  20.264  1.00  0.00     0.017 A 
HETATM   18  C23 UNL     1      33.659  32.302  21.392  1.00  0.00     0.011 A 
BRANCH  16  19
HETATM   19  C21 UNL     1      31.276  32.502  18.448  1.00  0.00     0.417 C 
HETATM   20  F1  UNL     1      31.369  31.544  17.476  1.00  0.00    -0.166 F 
HETATM   21  F2  UNL     1      31.776  33.715  17.992  1.00  0.00    -0.166 F 
HETATM   22  F3  UNL     1      29.968  32.607  18.822  1.00  0.00    -0.166 F 
ENDBRANCH  16  19
ENDBRANCH  10  13
ENDBRANCH   9  10
ENDBRANCH   5   9
BRANCH   1  23
HETATM   23  C1  UNL     1      37.239  27.056  27.373  1.00  0.00     0.226 C 
HETATM   24  O1  UNL     1      38.294  27.022  28.034  1.00  0.00    -0.273 OA
HETATM   25  N1  UNL     1      36.413  25.932  27.287  1.00  0.00    -0.333 N 
ATOM     26  H1  UNL     1      35.599  26.089  26.693  1.00  0.00     0.168 HD
BRANCH  25  27
HETATM   27  C2  UNL     1      36.444  24.643  27.826  1.00  0.00    -0.002 C 
HETATM   28  C3  UNL     1      37.467  23.636  27.446  1.00  0.00     0.032 C 
HETATM   29  C4  UNL     1      38.673  23.541  28.338  1.00  0.00     0.015 C 
HETATM   30  C8  UNL     1      36.769  22.243  27.587  1.00  0.00     0.015 C 
HETATM   31  C5  UNL     1      38.335  23.348  29.771  1.00  0.00    -0.013 C 
HETATM   32  C6  UNL     1      37.573  22.042  29.957  1.00  0.00     0.009 C 
HETATM   33  C11 UNL     1      37.379  24.450  30.181  1.00  0.00     0.015 C 
HETATM   34  C7  UNL     1      36.371  22.072  29.030  1.00  0.00    -0.013 C 
HETATM   35  C9  UNL     1      35.450  23.198  29.473  1.00  0.00     0.015 C 
HETATM   36  C10 UNL     1      36.181  24.548  29.308  1.00  0.00     0.032 C 
ENDBRANCH  25  27
ENDBRANCH   1  23
TORSDOF 6
ENDMDL
MODEL 2
REMARK VINA RESULT: -9.793358670      4.218      7.326
REMARK  6 active torsions:
REMARK  status: ('A' for Active; 'I' for Inactive)
REMARK       I    between atoms: C1_2  and  N1_3 
REMARK    1  A    between atoms: C1_2  and  C12_15 
REMARK    2  A    between atoms: N1_3  and  C2_5 
REMARK       I    between atoms: N2_18  and  C15_19 
REMARK    3  A    between atoms: C15_19  and  O3_21 
REMARK    4  A    between atoms: O3_21  and  C16_22 
REMARK    5  A    between atoms: C16_22  and  C17_23 
REMARK    6  A    between atoms: C20_26  and  C21_27 
ROOT
HETATM    1  C12 UNL     1      37.387  30.542  25.576  1.00  0.00     0.081 C 
HETATM    2  C13 UNL     1      36.864  30.055  26.936  1.00  0.00     0.034 C 
HETATM    3  C14 UNL     1      35.358  30.083  26.845  1.00  0.00     0.129 C 
HETATM    4  N2  UNL     1      35.029  29.413  25.595  1.00  0.00    -0.328 N 
HETATM    5  C15 UNL     1      33.802  29.679  24.977  1.00  0.00     0.363 C 
HETATM    6  O2  UNL     1      32.985  30.515  25.457  1.00  0.00    -0.238 OA
HETATM    7  C26 UNL     1      36.038  28.538  25.048  1.00  0.00     0.129 C 
HETATM    8  C27 UNL     1      37.199  29.461  24.585  1.00  0.00     0.034 C 
ENDROOT
BRANCH   5   9
HETATM    9  O3  UNL     1      33.477  29.024  23.816  1.00  0.00    -0.288 OA
BRANCH   9  10
HETATM   10  C16 UNL     1      33.822  29.444  22.548  1.00  0.00     0.100 A 
HETATM   11  C24 UNL     1      33.224  28.596  21.434  1.00  0.00     0.047 A 
HETATM   12  C25 UNL     1      34.652  28.430  21.772  1.00  0.00     0.047 A 
BRANCH  10  13
HETATM   13  C17 UNL     1      34.047  30.875  22.216  1.00  0.00    -0.023 A 
HETATM   14  C18 UNL     1      33.161  31.525  21.353  1.00  0.00     0.011 A 
HETATM   15  C19 UNL     1      33.307  32.858  21.036  1.00  0.00     0.017 A 
HETATM   16  C20 UNL     1      34.347  33.600  21.583  1.00  0.00     0.047 A 
HETATM   17  C22 UNL     1      35.216  32.981  22.427  1.00  0.00     0.017 A 
HETATM   18  C23 UNL     1      35.067  31.625  22.736  1.00  0.00     0.011 A 
BRANCH  16  19
HETATM   19  C21 UNL     1      34.467  35.066  21.260  1.00  0.00     0.417 C 
HETATM   20  F1  UNL     1      35.428  35.195  20.295  1.00  0.00    -0.166 F 
HETATM   21  F2  UNL     1      34.798  35.809  22.386  1.00  0.00    -0.166 F 
HETATM   22  F3  UNL     1      33.274  35.463  20.731  1.00  0.00    -0.166 F 
ENDBRANCH  16  19
ENDBRANCH  10  13
ENDBRANCH   9  10
ENDBRANCH   5   9
BRANCH   1  23
HETATM   23  C1  UNL     1      38.712  31.168  25.714  1.00  0.00     0.226 C 
HETATM   24  O1  UNL     1      39.344  30.986  26.772  1.00  0.00    -0.273 OA
HETATM   25  N1  UNL     1      39.249  31.948  24.687  1.00  0.00    -0.333 N 
ATOM     26  H1  UNL     1      38.617  32.038  23.891  1.00  0.00     0.168 HD
BRANCH  25  27
HETATM   27  C2  UNL     1      40.452  32.636  24.497  1.00  0.00    -0.002 C 
HETATM   28  C3  UNL     1      41.757  31.945  24.335  1.00  0.00     0.032 C 
HETATM   29  C4  UNL     1      42.207  31.695  22.923  1.00  0.00     0.015 C 
HETATM   30  C8  UNL     1      42.831  32.919  24.921  1.00  0.00     0.015 C 
HETATM   31  C5  UNL     1      42.217  32.918  22.080  1.00  0.00    -0.013 C 
HETATM   32  C6  UNL     1      43.186  33.943  22.656  1.00  0.00     0.009 C 
HETATM   33  C11 UNL     1      40.844  33.554  22.160  1.00  0.00     0.015 C 
HETATM   34  C7  UNL     1      42.799  34.184  24.103  1.00  0.00    -0.013 C 
HETATM   35  C9  UNL     1      41.414  34.810  24.132  1.00  0.00     0.015 C 
HETATM   36  C10 UNL     1      40.391  33.809  23.553  1.00  0.00     0.032 C 
ENDBRANCH  25  27
ENDBRANCH   1  23
TORSDOF 6
ENDMDL
MODEL 3
REMARK VINA RESULT: -9.596938729      0.568      1.284
REMARK  6 active torsions:
REMARK  status: ('A' for Active; 'I' for Inactive)
REMARK       I    between atoms: C1_2  and  N1_3 
REMARK    1  A    between atoms: C1_2  and  C12_15 
REMARK    2  A    between atoms: N1_3  and  C2_5 
REMARK       I    between atoms: N2_18  and  C15_19 
REMARK    3  A    between atoms: C15_19  and  O3_21 
REMARK    4  A    between atoms: O3_21  and  C16_22 
REMARK    5  A    between atoms: C16_22  and  C17_23 
REMARK    6  A    between atoms: C20_26  and  C21_27 
ROOT
HETATM    1  C12 UNL     1      37.214  28.505  26.626  1.00  0.00     0.081 C 
HETATM    2  C13 UNL     1      37.932  29.757  27.153  1.00  0.00     0.034 C 
HETATM    3  C14 UNL     1      37.793  30.808  26.080  1.00  0.00     0.129 C 
HETATM    4  N2  UNL     1      36.385  30.810  25.713  1.00  0.00    -0.328 N 
HETATM    5  C15 UNL     1      36.004  31.296  24.456  1.00  0.00     0.363 C 
HETATM    6  O2  UNL     1      36.856  31.699  23.615  1.00  0.00    -0.238 OA
HETATM    7  C26 UNL     1      35.467  30.254  26.678  1.00  0.00     0.129 C 
HETATM    8  C27 UNL     1      35.755  28.728  26.712  1.00  0.00     0.034 C 
ENDROOT
BRANCH   5   9
HETATM    9  O3  UNL     1      34.673  31.328  24.123  1.00  0.00    -0.288 OA
BRANCH   9  10
HETATM   10  C16 UNL     1      34.066  30.488  23.213  1.00  0.00     0.100 A 
HETATM   11  C24 UNL     1      33.425  29.259  23.842  1.00  0.00     0.047 A 
HETATM   12  C25 UNL     1      34.709  29.110  23.127  1.00  0.00     0.047 A 
BRANCH  10  13
HETATM   13  C17 UNL     1      33.413  30.991  21.975  1.00  0.00    -0.023 A 
HETATM   14  C18 UNL     1      32.442  30.208  21.348  1.00  0.00     0.011 A 
HETATM   15  C19 UNL     1      31.785  30.639  20.216  1.00  0.00     0.017 A 
HETATM   16  C20 UNL     1      32.071  31.885  19.671  1.00  0.00     0.047 A 
HETATM   17  C22 UNL     1      33.013  32.660  20.273  1.00  0.00     0.017 A 
HETATM   18  C23 UNL     1      33.683  32.210  21.416  1.00  0.00     0.011 A 
BRANCH  16  19
HETATM   19  C21 UNL     1      31.313  32.360  18.458  1.00  0.00     0.417 C 
HETATM   20  F1  UNL     1      30.027  32.609  18.852  1.00  0.00    -0.166 F 
HETATM   21  F2  UNL     1      31.341  31.415  17.441  1.00  0.00    -0.166 F 
HETATM   22  F3  UNL     1      31.876  33.538  18.064  1.00  0.00    -0.166 F 
ENDBRANCH  16  19
ENDBRANCH  10  13
ENDBRANCH   9  10
ENDBRANCH   5   9
BRANCH   1  23
HETATM   23  C1  UNL     1      37.790  27.282  27.209  1.00  0.00     0.226 C 
HETATM   24  O1  UNL     1      39.007  27.271  27.474  1.00  0.00    -0.273 OA
HETATM   25  N1  UNL     1      36.995  26.161  27.457  1.00  0.00    -0.333 N 
ATOM     26  H1  UNL     1      36.026  26.295  27.168  1.00  0.00     0.168 HD
BRANCH  25  27
HETATM   27  C2  UNL     1      37.218  24.896  28.010  1.00  0.00    -0.002 C 
HETATM   28  C3  UNL     1      38.046  24.684  29.225  1.00  0.00     0.032 C 
HETATM   29  C4  UNL     1      37.306  24.619  30.531  1.00  0.00     0.015 C 
HETATM   30  C8  UNL     1      38.682  23.264  29.066  1.00  0.00     0.015 C 
HETATM   31  C5  UNL     1      36.201  23.625  30.536  1.00  0.00    -0.013 C 
HETATM   32  C6  UNL     1      36.755  22.226  30.298  1.00  0.00     0.009 C 
HETATM   33  C11 UNL     1      35.297  23.922  29.358  1.00  0.00     0.015 C 
HETATM   34  C7  UNL     1      37.559  22.261  29.011  1.00  0.00    -0.013 C 
HETATM   35  C9  UNL     1      36.613  22.573  27.862  1.00  0.00     0.015 C 
HETATM   36  C10 UNL     1      36.019  23.984  28.060  1.00  0.00     0.032 C 
ENDBRANCH  25  27
ENDBRANCH   1  23
TORSDOF 6
ENDMDL
MODEL 4
REMARK VINA RESULT: -9.514012826      4.413      7.821
REMARK  6 active torsions:
REMARK  status: ('A' for Active; 'I' for Inactive)
REMARK       I    between atoms: C1_2  and  N1_3 
REMARK    1  A    between atoms: C1_2  and  C12_15 
REMARK    2  A    between atoms: N1_3  and  C2_5 
REMARK       I    between atoms: N2_18  and  C15_19 
REMARK    3  A    between atoms: C15_19  and  O3_21 
REMARK    4  A    between atoms: O3_21  and  C16_22 
REMARK    5  A    between atoms: C16_22  and  C17_23 
REMARK    6  A    between atoms: C20_26  and  C21_27 
ROOT
HETATM    1  C12 UNL     1      38.088  31.093  25.000  1.00  0.00     0.081 C 
HETATM    2  C13 UNL     1      37.913  30.668  26.467  1.00  0.00     0.034 C 
HETATM    3  C14 UNL     1      36.426  30.573  26.705  1.00  0.00     0.129 C 
HETATM    4  N2  UNL     1      35.901  29.791  25.596  1.00  0.00    -0.328 N 
HETATM    5  C15 UNL     1      34.551  29.916  25.247  1.00  0.00     0.363 C 
HETATM    6  O2  UNL     1      33.783  30.720  25.847  1.00  0.00    -0.238 OA
HETATM    7  C26 UNL     1      36.845  28.958  24.890  1.00  0.00     0.129 C 
HETATM    8  C27 UNL     1      37.792  29.930  24.136  1.00  0.00     0.034 C 
ENDROOT
BRANCH   5   9
HETATM    9  O3  UNL     1      34.047  29.155  24.223  1.00  0.00    -0.288 OA
BRANCH   9  10
HETATM   10  C16 UNL     1      34.070  29.508  22.890  1.00  0.00     0.100 A 
HETATM   11  C24 UNL     1      33.204  28.624  22.003  1.00  0.00     0.047 A 
HETATM   12  C25 UNL     1      34.669  28.440  21.984  1.00  0.00     0.047 A 
BRANCH  10  13
HETATM   13  C17 UNL     1      34.223  30.917  22.441  1.00  0.00    -0.023 A 
HETATM   14  C18 UNL     1      33.268  31.468  21.583  1.00  0.00     0.011 A 
HETATM   15  C19 UNL     1      33.345  32.778  21.161  1.00  0.00     0.017 A 
HETATM   16  C20 UNL     1      34.384  33.594  21.593  1.00  0.00     0.047 A 
HETATM   17  C22 UNL     1      35.319  33.071  22.430  1.00  0.00     0.017 A 
HETATM   18  C23 UNL     1      35.239  31.738  22.846  1.00  0.00     0.011 A 
BRANCH  16  19
HETATM   19  C21 UNL     1      34.430  35.035  21.156  1.00  0.00     0.417 C 
HETATM   20  F1  UNL     1      35.354  35.128  20.151  1.00  0.00    -0.166 F 
HETATM   21  F2  UNL     1      34.764  35.875  22.210  1.00  0.00    -0.166 F 
HETATM   22  F3  UNL     1      33.205  35.341  20.640  1.00  0.00    -0.166 F 
ENDBRANCH  16  19
ENDBRANCH  10  13
ENDBRANCH   9  10
ENDBRANCH   5   9
BRANCH   1  23
HETATM   23  C1  UNL     1      39.350  31.827  24.811  1.00  0.00     0.226 C 
HETATM   24  O1  UNL     1      40.237  31.708  25.677  1.00  0.00    -0.273 OA
HETATM   25  N1  UNL     1      39.549  32.637  23.691  1.00  0.00    -0.333 N 
ATOM     26  H1  UNL     1      38.734  32.666  23.078  1.00  0.00     0.168 HD
BRANCH  25  27
HETATM   27  C2  UNL     1      40.606  33.419  23.214  1.00  0.00    -0.002 C 
HETATM   28  C3  UNL     1      41.469  34.235  24.106  1.00  0.00     0.032 C 
HETATM   29  C4  UNL     1      42.751  33.595  24.559  1.00  0.00     0.015 C 
HETATM   30  C8  UNL     1      41.927  35.462  23.251  1.00  0.00     0.015 C 
HETATM   31  C5  UNL     1      43.584  33.082  23.441  1.00  0.00    -0.013 C 
HETATM   32  C6  UNL     1      43.989  34.228  22.522  1.00  0.00     0.009 C 
HETATM   33  C11 UNL     1      42.725  32.158  22.601  1.00  0.00     0.015 C 
HETATM   34  C7  UNL     1      42.721  34.938  22.083  1.00  0.00    -0.013 C 
HETATM   35  C9  UNL     1      41.890  33.970  21.256  1.00  0.00     0.015 C 
HETATM   36  C10 UNL     1      41.457  32.784  22.144  1.00  0.00     0.032 C 
ENDBRANCH  25  27
ENDBRANCH   1  23
TORSDOF 6
ENDMDL
MODEL 5
REMARK VINA RESULT: -9.430728206      1.011      1.842
REMARK  6 active torsions:
REMARK  status: ('A' for Active; 'I' for Inactive)
REMARK       I    between atoms: C1_2  and  N1_3 
REMARK    1  A    between atoms: C1_2  and  C12_15 
REMARK    2  A    between atoms: N1_3  and  C2_5 
REMARK       I    between atoms: N2_18  and  C15_19 
REMARK    3  A    between atoms: C15_19  and  O3_21 
REMARK    4  A    between atoms: O3_21  and  C16_22 
REMARK    5  A    between atoms: C16_22  and  C17_23 
REMARK    6  A    between atoms: C20_26  and  C21_27 
ROOT
HETATM    1  C12 UNL     1      36.426  27.557  26.451  1.00  0.00     0.081 C 
HETATM    2  C13 UNL     1      37.850  28.132  26.403  1.00  0.00     0.034 C 
HETATM    3  C14 UNL     1      37.957  28.886  25.100  1.00  0.00     0.129 C 
HETATM    4  N2  UNL     1      36.772  29.727  25.035  1.00  0.00    -0.328 N 
HETATM    5  C15 UNL     1      36.316  30.176  23.790  1.00  0.00     0.363 C 
HETATM    6  O2  UNL     1      36.888  29.840  22.715  1.00  0.00    -0.238 OA
HETATM    7  C26 UNL     1      36.108  30.003  26.287  1.00  0.00     0.129 C 
HETATM    8  C27 UNL     1      35.484  28.657  26.746  1.00  0.00     0.034 C 
ENDROOT
BRANCH   5   9
HETATM    9  O3  UNL     1      35.218  30.996  23.730  1.00  0.00    -0.288 OA
BRANCH   9  10
HETATM   10  C16 UNL     1      33.960  30.603  23.321  1.00  0.00     0.100 A 
HETATM   11  C24 UNL     1      32.991  30.351  24.468  1.00  0.00     0.047 A 
HETATM   12  C25 UNL     1      33.583  29.196  23.766  1.00  0.00     0.047 A 
BRANCH  10  13
HETATM   13  C17 UNL     1      33.347  31.082  22.055  1.00  0.00    -0.023 A 
HETATM   14  C18 UNL     1      32.377  30.299  21.426  1.00  0.00     0.011 A 
HETATM   15  C19 UNL     1      31.755  30.710  20.266  1.00  0.00     0.017 A 
HETATM   16  C20 UNL     1      32.078  31.935  19.694  1.00  0.00     0.047 A 
HETATM   17  C22 UNL     1      33.019  32.709  20.298  1.00  0.00     0.017 A 
HETATM   18  C23 UNL     1      33.652  32.280  21.469  1.00  0.00     0.011 A 
BRANCH  16  19
HETATM   19  C21 UNL     1      31.358  32.388  18.450  1.00  0.00     0.417 C 
HETATM   20  F1  UNL     1      30.056  32.624  18.795  1.00  0.00    -0.166 F 
HETATM   21  F2  UNL     1      31.435  31.435  17.444  1.00  0.00    -0.166 F 
HETATM   22  F3  UNL     1      31.920  33.570  18.066  1.00  0.00    -0.166 F 
ENDBRANCH  16  19
ENDBRANCH  10  13
ENDBRANCH   9  10
ENDBRANCH   5   9
BRANCH   1  23
HETATM   23  C1  UNL     1      36.379  26.332  27.267  1.00  0.00     0.226 C 
HETATM   24  O1  UNL     1      35.281  25.762  27.415  1.00  0.00    -0.273 OA
HETATM   25  N1  UNL     1      37.534  25.822  27.864  1.00  0.00    -0.333 N 
ATOM     26  H1  UNL     1      38.356  26.400  27.686  1.00  0.00     0.168 HD
BRANCH  25  27
HETATM   27  C2  UNL     1      37.827  24.702  28.649  1.00  0.00    -0.002 C 
HETATM   28  C3  UNL     1      37.278  24.513  30.017  1.00  0.00     0.032 C 
HETATM   29  C4  UNL     1      36.026  23.690  30.124  1.00  0.00     0.015 C 
HETATM   30  C8  UNL     1      38.354  23.689  30.797  1.00  0.00     0.015 C 
HETATM   31  C5  UNL     1      36.135  22.359  29.474  1.00  0.00    -0.013 C 
HETATM   32  C6  UNL     1      37.233  21.540  30.140  1.00  0.00     0.009 C 
HETATM   33  C11 UNL     1      36.584  22.571  28.042  1.00  0.00     0.015 C 
HETATM   34  C7  UNL     1      38.509  22.361  30.103  1.00  0.00    -0.013 C 
HETATM   35  C9  UNL     1      38.912  22.556  28.650  1.00  0.00     0.015 C 
HETATM   36  C10 UNL     1      37.826  23.380  27.926  1.00  0.00     0.032 C 
ENDBRANCH  25  27
ENDBRANCH   1  23
TORSDOF 6
ENDMDL
