MODEL 1
REMARK VINA RESULT: -7.603701831      0.000      0.000
REMARK  4 active torsions:
REMARK  status: ('A' for Active; 'I' for Inactive)
REMARK    1  A    between atoms: C1_2  and  C2_4 
REMARK    2  A    between atoms: N2_7  and  C5_8 
REMARK       I    between atoms: N3_11  and  C8_12 
REMARK    3  A    between atoms: C8_12  and  C9_14 
REMARK    4  A    between atoms: C18_23  and  C19_24 
ROOT
HETATM    1  C5  UNL     1      35.621  29.749  24.683  1.00  0.00     0.086 C 
HETATM    2  C6  UNL     1      35.897  29.994  23.240  1.00  0.00     0.045 C 
HETATM    3  C7  UNL     1      34.878  30.993  22.713  1.00  0.00     0.127 C 
HETATM    4  N3  UNL     1      33.532  30.479  22.958  1.00  0.00    -0.352 N 
HETATM    5  C8  UNL     1      32.550  30.528  21.930  1.00  0.00     0.224 C 
HETATM    6  O2  UNL     1      31.394  30.042  22.171  1.00  0.00    -0.273 OA
HETATM    7  C15 UNL     1      33.168  29.926  24.231  1.00  0.00     0.127 C 
HETATM    8  C16 UNL     1      34.263  29.077  24.831  1.00  0.00     0.045 C 
ENDROOT
BRANCH   1   9
HETATM    9  N2  UNL     1      36.578  28.995  25.374  1.00  0.00    -0.388 N 
HETATM   10  C4  UNL     1      37.937  29.103  25.042  1.00  0.00     0.123 C 
HETATM   11  C3  UNL     1      38.431  27.700  24.661  1.00  0.00     0.034 C 
HETATM   12  C2  UNL     1      38.215  26.802  25.888  1.00  0.00     0.090 C 
HETATM   13  C18 UNL     1      36.756  26.761  26.160  1.00  0.00     0.101 C 
HETATM   14  C17 UNL     1      36.184  28.136  26.416  1.00  0.00     0.069 C 
BRANCH  12  15
HETATM   15  C1  UNL     1      39.056  27.293  26.977  1.00  0.00     0.236 C 
HETATM   16  N1  UNL     1      40.479  27.275  26.738  1.00  0.00    -0.062 NA
HETATM   17  O1  UNL     1      38.692  27.725  28.082  1.00  0.00    -0.276 OA
ENDBRANCH  12  15
BRANCH  13  18
HETATM   18  C19 UNL     1      36.353  25.763  27.208  1.00  0.00     0.362 C 
HETATM   19  F1  UNL     1      36.859  24.525  26.793  1.00  0.00    -0.214 F 
HETATM   20  F2  UNL     1      34.979  25.641  27.202  1.00  0.00    -0.214 F 
ENDBRANCH  13  18
ENDBRANCH   1   9
BRANCH   5  21
HETATM   21  C9  UNL     1      32.768  31.110  20.581  1.00  0.00     0.078 C 
HETATM   22  C10 UNL     1      31.591  30.708  19.702  1.00  0.00     0.014 C 
HETATM   23  C11 UNL     1      31.633  31.415  18.363  1.00  0.00     0.001 C 
HETATM   24  C12 UNL     1      31.420  32.901  18.673  1.00  0.00     0.000 C 
HETATM   25  C13 UNL     1      32.620  33.349  19.458  1.00  0.00     0.001 C 
HETATM   26  C14 UNL     1      32.799  32.616  20.762  1.00  0.00     0.014 C 
ENDBRANCH   5  21
TORSDOF 4
ENDMDL
MODEL 2
REMARK VINA RESULT: -7.478130602      1.207      1.378
REMARK  4 active torsions:
REMARK  status: ('A' for Active; 'I' for Inactive)
REMARK    1  A    between atoms: C1_2  and  C2_4 
REMARK    2  A    between atoms: N2_7  and  C5_8 
REMARK       I    between atoms: N3_11  and  C8_12 
REMARK    3  A    between atoms: C8_12  and  C9_14 
REMARK    4  A    between atoms: C18_23  and  C19_24 
ROOT
HETATM    1  C5  UNL     1      36.288  29.104  25.361  1.00  0.00     0.086 C 
HETATM    2  C6  UNL     1      36.305  28.871  23.891  1.00  0.00     0.045 C 
HETATM    3  C7  UNL     1      35.685  30.076  23.200  1.00  0.00     0.127 C 
HETATM    4  N3  UNL     1      34.340  30.292  23.729  1.00  0.00    -0.352 N 
HETATM    5  C8  UNL     1      33.256  30.548  22.845  1.00  0.00     0.224 C 
HETATM    6  O2  UNL     1      32.090  30.702  23.342  1.00  0.00    -0.273 OA
HETATM    7  C15 UNL     1      34.083  30.261  25.140  1.00  0.00     0.127 C 
HETATM    8  C16 UNL     1      34.848  29.167  25.847  1.00  0.00     0.045 C 
ENDROOT
BRANCH   1   9
HETATM    9  N2  UNL     1      36.989  28.175  26.141  1.00  0.00    -0.388 N 
HETATM   10  C4  UNL     1      38.389  28.099  26.062  1.00  0.00     0.123 C 
HETATM   11  C3  UNL     1      38.750  26.665  25.652  1.00  0.00     0.034 C 
HETATM   12  C2  UNL     1      38.191  25.735  26.738  1.00  0.00     0.090 C 
HETATM   13  C18 UNL     1      36.715  25.895  26.747  1.00  0.00     0.101 C 
HETATM   14  C17 UNL     1      36.297  27.322  27.019  1.00  0.00     0.069 C 
BRANCH  12  15
HETATM   15  C1  UNL     1      38.874  26.028  27.997  1.00  0.00     0.236 C 
HETATM   16  N1  UNL     1      40.290  25.748  28.030  1.00  0.00    -0.062 NA
HETATM   17  O1  UNL     1      38.382  26.489  29.038  1.00  0.00    -0.276 OA
ENDBRANCH  12  15
BRANCH  13  18
HETATM   18  C19 UNL     1      35.994  24.906  27.618  1.00  0.00     0.362 C 
HETATM   19  F1  UNL     1      35.910  23.717  26.883  1.00  0.00    -0.214 F 
HETATM   20  F2  UNL     1      34.696  25.339  27.803  1.00  0.00    -0.214 F 
ENDBRANCH  13  18
ENDBRANCH   1   9
BRANCH   5  21
HETATM   21  C9  UNL     1      33.378  30.653  21.368  1.00  0.00     0.078 C 
HETATM   22  C10 UNL     1      32.504  29.571  20.748  1.00  0.00     0.014 C 
HETATM   23  C11 UNL     1      32.417  29.724  19.243  1.00  0.00     0.001 C 
HETATM   24  C12 UNL     1      31.667  31.040  19.004  1.00  0.00     0.000 C 
HETATM   25  C13 UNL     1      32.555  32.136  19.518  1.00  0.00     0.001 C 
HETATM   26  C14 UNL     1      32.860  32.029  20.990  1.00  0.00     0.014 C 
ENDBRANCH   5  21
TORSDOF 4
ENDMDL
MODEL 3
REMARK VINA RESULT: -7.303570041      3.402      8.927
REMARK  4 active torsions:
REMARK  status: ('A' for Active; 'I' for Inactive)
REMARK    1  A    between atoms: C1_2  and  C2_4 
REMARK    2  A    between atoms: N2_7  and  C5_8 
REMARK       I    between atoms: N3_11  and  C8_12 
REMARK    3  A    between atoms: C8_12  and  C9_14 
REMARK    4  A    between atoms: C18_23  and  C19_24 
ROOT
HETATM    1  C5  UNL     1      34.852  29.324  23.481  1.00  0.00     0.086 C 
HETATM    2  C6  UNL     1      34.308  28.728  24.732  1.00  0.00     0.045 C 
HETATM    3  C7  UNL     1      35.449  28.548  25.721  1.00  0.00     0.127 C 
HETATM    4  N3  UNL     1      36.492  27.730  25.106  1.00  0.00    -0.352 N 
HETATM    5  C8  UNL     1      37.087  26.662  25.833  1.00  0.00     0.224 C 
HETATM    6  O2  UNL     1      37.973  25.951  25.252  1.00  0.00    -0.273 OA
HETATM    7  C15 UNL     1      36.944  27.986  23.768  1.00  0.00     0.127 C 
HETATM    8  C16 UNL     1      35.816  28.342  22.830  1.00  0.00     0.045 C 
ENDROOT
BRANCH   1   9
HETATM    9  N2  UNL     1      33.907  29.730  22.529  1.00  0.00    -0.388 N 
HETATM   10  C4  UNL     1      33.405  28.810  21.595  1.00  0.00     0.123 C 
HETATM   11  C3  UNL     1      33.711  29.361  20.195  1.00  0.00     0.034 C 
HETATM   12  C2  UNL     1      33.009  30.722  20.088  1.00  0.00     0.090 C 
HETATM   13  C18 UNL     1      33.602  31.614  21.115  1.00  0.00     0.101 C 
HETATM   14  C17 UNL     1      33.446  31.059  22.512  1.00  0.00     0.069 C 
BRANCH  12  15
HETATM   15  C1  UNL     1      31.566  30.510  20.181  1.00  0.00     0.236 C 
HETATM   16  N1  UNL     1      30.772  31.066  19.110  1.00  0.00    -0.062 NA
HETATM   17  O1  UNL     1      30.943  29.909  21.069  1.00  0.00    -0.276 OA
ENDBRANCH  12  15
BRANCH  13  18
HETATM   18  C19 UNL     1      33.167  33.048  21.012  1.00  0.00     0.362 C 
HETATM   19  F1  UNL     1      33.130  33.354  19.646  1.00  0.00    -0.214 F 
HETATM   20  F2  UNL     1      34.145  33.851  21.562  1.00  0.00    -0.214 F 
ENDBRANCH  13  18
ENDBRANCH   1   9
BRANCH   5  21
HETATM   21  C9  UNL     1      36.753  26.307  27.236  1.00  0.00     0.078 C 
HETATM   22  C10 UNL     1      35.778  25.138  27.205  1.00  0.00     0.014 C 
HETATM   23  C11 UNL     1      35.529  24.586  28.593  1.00  0.00     0.001 C 
HETATM   24  C12 UNL     1      36.867  23.988  29.046  1.00  0.00     0.000 C 
HETATM   25  C13 UNL     1      37.823  25.139  29.182  1.00  0.00     0.001 C 
HETATM   26  C14 UNL     1      38.054  25.890  27.896  1.00  0.00     0.014 C 
ENDBRANCH   5  21
TORSDOF 4
ENDMDL
MODEL 4
REMARK VINA RESULT: -7.271786735      1.814      2.569
REMARK  4 active torsions:
REMARK  status: ('A' for Active; 'I' for Inactive)
REMARK    1  A    between atoms: C1_2  and  C2_4 
REMARK    2  A    between atoms: N2_7  and  C5_8 
REMARK       I    between atoms: N3_11  and  C8_12 
REMARK    3  A    between atoms: C8_12  and  C9_14 
REMARK    4  A    between atoms: C18_23  and  C19_24 
ROOT
HETATM    1  C5  UNL     1      36.602  28.532  26.442  1.00  0.00     0.086 C 
HETATM    2  C6  UNL     1      36.717  28.352  24.968  1.00  0.00     0.045 C 
HETATM    3  C7  UNL     1      36.193  29.604  24.282  1.00  0.00     0.127 C 
HETATM    4  N3  UNL     1      34.822  29.854  24.722  1.00  0.00    -0.352 N 
HETATM    5  C8  UNL     1      33.814  30.182  23.773  1.00  0.00     0.224 C 
HETATM    6  O2  UNL     1      32.622  30.364  24.192  1.00  0.00    -0.273 OA
HETATM    7  C15 UNL     1      34.462  29.782  26.109  1.00  0.00     0.127 C 
HETATM    8  C16 UNL     1      35.133  28.634  26.826  1.00  0.00     0.045 C 
ENDROOT
BRANCH   1   9
HETATM    9  N2  UNL     1      37.211  27.550  27.233  1.00  0.00    -0.388 N 
HETATM   10  C4  UNL     1      38.555  27.681  27.613  1.00  0.00     0.123 C 
HETATM   11  C3  UNL     1      39.303  26.443  27.100  1.00  0.00     0.034 C 
HETATM   12  C2  UNL     1      38.644  25.220  27.755  1.00  0.00     0.090 C 
HETATM   13  C18 UNL     1      37.233  25.175  27.298  1.00  0.00     0.101 C 
HETATM   14  C17 UNL     1      36.474  26.431  27.663  1.00  0.00     0.069 C 
BRANCH  12  15
HETATM   15  C1  UNL     1      38.848  25.300  29.200  1.00  0.00     0.236 C 
HETATM   16  N1  UNL     1      40.214  25.202  29.654  1.00  0.00    -0.062 NA
HETATM   17  O1  UNL     1      37.986  25.443  30.081  1.00  0.00    -0.276 OA
ENDBRANCH  12  15
BRANCH  13  18
HETATM   18  C19 UNL     1      36.499  23.924  27.688  1.00  0.00     0.362 C 
HETATM   19  F1  UNL     1      36.078  23.322  26.495  1.00  0.00    -0.214 F 
HETATM   20  F2  UNL     1      35.351  24.275  28.370  1.00  0.00    -0.214 F 
ENDBRANCH  13  18
ENDBRANCH   1   9
BRANCH   5  21
HETATM   21  C9  UNL     1      34.047  30.336  22.314  1.00  0.00     0.078 C 
HETATM   22  C10 UNL     1      33.779  28.990  21.653  1.00  0.00     0.014 C 
HETATM   23  C11 UNL     1      33.807  29.099  20.143  1.00  0.00     0.001 C 
HETATM   24  C12 UNL     1      32.609  29.982  19.770  1.00  0.00     0.000 C 
HETATM   25  C13 UNL     1      32.896  31.347  20.327  1.00  0.00     0.001 C 
HETATM   26  C14 UNL     1      33.050  31.370  21.825  1.00  0.00     0.014 C 
ENDBRANCH   5  21
TORSDOF 4
ENDMDL
MODEL 5
REMARK VINA RESULT: -7.249918328      3.118      3.847
REMARK  4 active torsions:
REMARK  status: ('A' for Active; 'I' for Inactive)
REMARK    1  A    between atoms: C1_2  and  C2_4 
REMARK    2  A    between atoms: N2_7  and  C5_8 
REMARK       I    between atoms: N3_11  and  C8_12 
REMARK    3  A    between atoms: C8_12  and  C9_14 
REMARK    4  A    between atoms: C18_23  and  C19_24 
ROOT
HETATM    1  C5  UNL     1      35.894  28.878  22.817  1.00  0.00     0.086 C 
HETATM    2  C6  UNL     1      35.317  30.244  22.684  1.00  0.00     0.045 C 
HETATM    3  C7  UNL     1      33.855  30.118  22.282  1.00  0.00     0.127 C 
HETATM    4  N3  UNL     1      33.763  29.336  21.051  1.00  0.00    -0.352 N 
HETATM    5  C8  UNL     1      32.929  29.776  19.985  1.00  0.00     0.224 C 
HETATM    6  O2  UNL     1      32.898  29.083  18.913  1.00  0.00    -0.273 OA
HETATM    7  C15 UNL     1      34.497  28.114  20.890  1.00  0.00     0.127 C 
HETATM    8  C16 UNL     1      35.894  28.194  21.457  1.00  0.00     0.045 C 
ENDROOT
BRANCH   1   9
HETATM    9  N2  UNL     1      37.182  28.803  23.362  1.00  0.00    -0.388 N 
HETATM   10  C4  UNL     1      37.492  27.818  24.312  1.00  0.00     0.123 C 
HETATM   11  C3  UNL     1      37.980  28.535  25.578  1.00  0.00     0.034 C 
HETATM   12  C2  UNL     1      39.220  29.350  25.180  1.00  0.00     0.090 C 
HETATM   13  C18 UNL     1      38.791  30.352  24.172  1.00  0.00     0.101 C 
HETATM   14  C17 UNL     1      38.179  29.707  22.950  1.00  0.00     0.069 C 
BRANCH  12  15
HETATM   15  C1  UNL     1      40.268  28.424  24.755  1.00  0.00     0.236 C 
HETATM   16  N1  UNL     1      40.718  27.477  25.748  1.00  0.00    -0.062 NA
HETATM   17  O1  UNL     1      40.816  28.355  23.644  1.00  0.00    -0.276 OA
ENDBRANCH  12  15
BRANCH  13  18
HETATM   18  C19 UNL     1      39.844  31.365  23.824  1.00  0.00     0.362 C 
HETATM   19  F1  UNL     1      40.169  32.025  25.016  1.00  0.00    -0.214 F 
HETATM   20  F2  UNL     1      39.289  32.317  22.993  1.00  0.00    -0.214 F 
ENDBRANCH  13  18
ENDBRANCH   1   9
BRANCH   5  21
HETATM   21  C9  UNL     1      32.080  30.994  20.025  1.00  0.00     0.078 C 
HETATM   22  C10 UNL     1      32.995  32.206  19.916  1.00  0.00     0.014 C 
HETATM   23  C11 UNL     1      32.201  33.487  19.758  1.00  0.00     0.001 C 
HETATM   24  C12 UNL     1      31.508  33.376  18.394  1.00  0.00     0.000 C 
HETATM   25  C13 UNL     1      30.524  32.247  18.506  1.00  0.00     0.001 C 
HETATM   26  C14 UNL     1      31.161  30.918  18.819  1.00  0.00     0.014 C 
ENDBRANCH   5  21
TORSDOF 4
ENDMDL
