MODEL 1
REMARK VINA RESULT: -6.845668283      0.000      0.000
REMARK  5 active torsions:
REMARK  status: ('A' for Active; 'I' for Inactive)
REMARK    1  A    between atoms: C3_3  and  O1_4 
REMARK    2  A    between atoms: O1_4  and  C4_5 
REMARK       I    between atoms: C4_5  and  N1_7 
REMARK    3  A    between atoms: N1_7  and  N2_8 
REMARK    4  A    between atoms: N1_7  and  C11_18 
REMARK       I    between atoms: N2_8  and  C5_10 
REMARK    5  A    between atoms: C5_10  and  C6_12 
ROOT
HETATM    1  C1  UNL     1      31.341  31.457  18.483  1.00  0.00     0.099 C 
HETATM    2  C2  UNL     1      31.903  30.681  19.243  1.00  0.00    -0.161 C 
HETATM    3  C3  UNL     1      32.554  29.734  20.155  1.00  0.00     0.260 C 
ENDROOT
BRANCH   3   4
HETATM    4  O1  UNL     1      33.549  30.430  20.868  1.00  0.00    -0.292 OA
BRANCH   4   5
HETATM    5  C4  UNL     1      33.543  30.604  22.241  1.00  0.00     0.383 C 
HETATM    6  O2  UNL     1      32.475  31.042  22.746  1.00  0.00    -0.236 OA
HETATM    7  N1  UNL     1      34.705  30.298  23.073  1.00  0.00    -0.226 N 
BRANCH   7   8
HETATM    8  N2  UNL     1      35.786  29.813  22.355  1.00  0.00    -0.262 N 
HETATM    9  C5  UNL     1      35.976  28.545  21.787  1.00  0.00     0.246 C 
HETATM   10  O3  UNL     1      35.115  27.662  21.882  1.00  0.00    -0.271 OA
ATOM     11  H2  UNL     1      36.552  30.472  22.221  1.00  0.00     0.190 HD
BRANCH   9  12
HETATM   12  C6  UNL     1      37.226  28.181  21.032  1.00  0.00     0.057 A 
HETATM   13  C7  UNL     1      36.962  27.958  19.536  1.00  0.00     0.027 C 
HETATM   14  C8  UNL     1      38.522  28.700  21.457  1.00  0.00     0.042 A 
HETATM   15  C9  UNL     1      38.197  27.217  21.584  1.00  0.00     0.032 A 
HETATM   16  C10 UNL     1      38.198  26.699  22.979  1.00  0.00     0.029 C 
HETATM   17 BR1  UNL     1      39.154  26.030  20.349  1.00  0.00    -0.085 Br
ENDBRANCH   9  12
ENDBRANCH   7   8
BRANCH   7  18
HETATM   18  C11 UNL     1      34.533  30.500  24.448  1.00  0.00     0.147 C 
HETATM   19  C12 UNL     1      34.261  29.276  25.296  1.00  0.00     0.030 C 
HETATM   20  C13 UNL     1      34.031  29.956  26.655  1.00  0.00     0.005 C 
HETATM   21  C14 UNL     1      35.054  31.037  26.669  1.00  0.00     0.039 C 
HETATM   22  C15 UNL     1      35.660  31.111  25.243  1.00  0.00     0.195 C 
HETATM   23  F1  UNL     1      35.927  32.410  24.959  1.00  0.00    -0.247 F 
ENDBRANCH   7  18
ENDBRANCH   4   5
ENDBRANCH   3   4
TORSDOF 5
ENDMDL
MODEL 2
REMARK VINA RESULT: -6.786022165      2.869      4.409
REMARK  5 active torsions:
REMARK  status: ('A' for Active; 'I' for Inactive)
REMARK    1  A    between atoms: C3_3  and  O1_4 
REMARK    2  A    between atoms: O1_4  and  C4_5 
REMARK       I    between atoms: C4_5  and  N1_7 
REMARK    3  A    between atoms: N1_7  and  N2_8 
REMARK    4  A    between atoms: N1_7  and  C11_18 
REMARK       I    between atoms: N2_8  and  C5_10 
REMARK    5  A    between atoms: C5_10  and  C6_12 
ROOT
HETATM    1  C1  UNL     1      40.252  30.648  24.793  1.00  0.00     0.099 C 
HETATM    2  C2  UNL     1      39.715  31.694  24.456  1.00  0.00    -0.161 C 
HETATM    3  C3  UNL     1      39.087  32.962  24.070  1.00  0.00     0.260 C 
ENDROOT
BRANCH   3   4
HETATM    4  O1  UNL     1      37.804  32.677  23.566  1.00  0.00    -0.292 OA
BRANCH   4   5
HETATM    5  C4  UNL     1      36.713  32.352  24.355  1.00  0.00     0.383 C 
HETATM    6  O2  UNL     1      36.333  33.232  25.172  1.00  0.00    -0.236 OA
HETATM    7  N1  UNL     1      36.030  31.065  24.254  1.00  0.00    -0.226 N 
BRANCH   7   8
HETATM    8  N2  UNL     1      36.572  30.226  23.293  1.00  0.00    -0.262 N 
HETATM    9  C5  UNL     1      37.230  28.999  23.456  1.00  0.00     0.246 C 
HETATM   10  O3  UNL     1      37.403  28.506  24.578  1.00  0.00    -0.271 OA
ATOM     11  H2  UNL     1      36.478  30.547  22.330  1.00  0.00     0.190 HD
BRANCH   9  12
HETATM   12  C6  UNL     1      37.763  28.211  22.291  1.00  0.00     0.057 A 
HETATM   13  C7  UNL     1      39.062  28.804  21.727  1.00  0.00     0.027 C 
HETATM   14  C8  UNL     1      37.547  26.769  22.215  1.00  0.00     0.042 A 
HETATM   15  C9  UNL     1      36.864  27.712  21.232  1.00  0.00     0.032 A 
HETATM   16  C10 UNL     1      35.378  27.706  21.297  1.00  0.00     0.029 C 
HETATM   17 BR1  UNL     1      37.529  27.640  19.387  1.00  0.00    -0.085 Br
ENDBRANCH   9  12
ENDBRANCH   7   8
BRANCH   7  18
HETATM   18  C11 UNL     1      34.927  30.898  25.100  1.00  0.00     0.147 C 
HETATM   19  C12 UNL     1      33.837  29.956  24.634  1.00  0.00     0.030 C 
HETATM   20  C13 UNL     1      32.820  30.168  25.767  1.00  0.00     0.005 C 
HETATM   21  C14 UNL     1      33.679  30.262  26.979  1.00  0.00     0.039 C 
HETATM   22  C15 UNL     1      35.148  30.358  26.490  1.00  0.00     0.195 C 
HETATM   23  F1  UNL     1      35.824  31.183  27.329  1.00  0.00    -0.247 F 
ENDBRANCH   7  18
ENDBRANCH   4   5
ENDBRANCH   3   4
TORSDOF 5
ENDMDL
MODEL 3
REMARK VINA RESULT: -6.784905925      2.901      4.818
REMARK  5 active torsions:
REMARK  status: ('A' for Active; 'I' for Inactive)
REMARK    1  A    between atoms: C3_3  and  O1_4 
REMARK    2  A    between atoms: O1_4  and  C4_5 
REMARK       I    between atoms: C4_5  and  N1_7 
REMARK    3  A    between atoms: N1_7  and  N2_8 
REMARK    4  A    between atoms: N1_7  and  C11_18 
REMARK       I    between atoms: N2_8  and  C5_10 
REMARK    5  A    between atoms: C5_10  and  C6_12 
ROOT
HETATM    1  C1  UNL     1      33.712  34.572  21.061  1.00  0.00     0.099 C 
HETATM    2  C2  UNL     1      33.236  33.496  20.729  1.00  0.00    -0.161 C 
HETATM    3  C3  UNL     1      32.645  32.218  20.315  1.00  0.00     0.260 C 
ENDROOT
BRANCH   3   4
HETATM    4  O1  UNL     1      32.931  31.264  21.310  1.00  0.00    -0.292 OA
BRANCH   4   5
HETATM    5  C4  UNL     1      33.406  29.990  21.051  1.00  0.00     0.383 C 
HETATM    6  O2  UNL     1      32.632  29.222  20.420  1.00  0.00    -0.236 OA
HETATM    7  N1  UNL     1      34.731  29.547  21.478  1.00  0.00    -0.226 N 
BRANCH   7   8
HETATM    8  N2  UNL     1      35.452  30.524  22.144  1.00  0.00    -0.262 N 
HETATM    9  C5  UNL     1      35.461  30.843  23.510  1.00  0.00     0.246 C 
HETATM   10  O3  UNL     1      34.762  30.222  24.320  1.00  0.00    -0.271 OA
ATOM     11  H2  UNL     1      36.063  31.093  21.558  1.00  0.00     0.190 HD
BRANCH   9  12
HETATM   12  C6  UNL     1      36.312  31.949  24.072  1.00  0.00     0.057 A 
HETATM   13  C7  UNL     1      36.119  33.276  23.323  1.00  0.00     0.027 C 
HETATM   14  C8  UNL     1      36.643  31.975  25.493  1.00  0.00     0.042 A 
HETATM   15  C9  UNL     1      37.720  31.713  24.448  1.00  0.00     0.032 A 
HETATM   16  C10 UNL     1      38.371  30.379  24.549  1.00  0.00     0.029 C 
HETATM   17 BR1  UNL     1      39.021  33.159  24.188  1.00  0.00    -0.085 Br
ENDBRANCH   9  12
ENDBRANCH   7   8
BRANCH   7  18
HETATM   18  C11 UNL     1      35.076  28.239  21.116  1.00  0.00     0.147 C 
HETATM   19  C12 UNL     1      35.351  27.979  19.650  1.00  0.00     0.030 C 
HETATM   20  C13 UNL     1      35.561  26.457  19.699  1.00  0.00     0.005 C 
HETATM   21  C14 UNL     1      36.325  26.262  20.961  1.00  0.00     0.039 C 
HETATM   22  C15 UNL     1      36.311  27.616  21.717  1.00  0.00     0.195 C 
HETATM   23  F1  UNL     1      36.239  27.362  23.047  1.00  0.00    -0.247 F 
ENDBRANCH   7  18
ENDBRANCH   4   5
ENDBRANCH   3   4
TORSDOF 5
ENDMDL
MODEL 4
REMARK VINA RESULT: -6.753475273      1.158      1.695
REMARK  5 active torsions:
REMARK  status: ('A' for Active; 'I' for Inactive)
REMARK    1  A    between atoms: C3_3  and  O1_4 
REMARK    2  A    between atoms: O1_4  and  C4_5 
REMARK       I    between atoms: C4_5  and  N1_7 
REMARK    3  A    between atoms: N1_7  and  N2_8 
REMARK    4  A    between atoms: N1_7  and  C11_18 
REMARK       I    between atoms: N2_8  and  C5_10 
REMARK    5  A    between atoms: C5_10  and  C6_12 
ROOT
HETATM    1  C1  UNL     1      31.222  31.400  18.469  1.00  0.00     0.099 C 
HETATM    2  C2  UNL     1      31.878  30.617  19.140  1.00  0.00    -0.161 C 
HETATM    3  C3  UNL     1      32.645  29.658  19.944  1.00  0.00     0.260 C 
ENDROOT
BRANCH   3   4
HETATM    4  O1  UNL     1      33.569  30.383  20.721  1.00  0.00    -0.292 OA
BRANCH   4   5
HETATM    5  C4  UNL     1      33.404  30.660  22.068  1.00  0.00     0.383 C 
HETATM    6  O2  UNL     1      32.485  31.468  22.365  1.00  0.00    -0.236 OA
HETATM    7  N1  UNL     1      34.242  30.052  23.099  1.00  0.00    -0.226 N 
BRANCH   7   8
HETATM    8  N2  UNL     1      35.191  29.177  22.595  1.00  0.00    -0.262 N 
HETATM    9  C5  UNL     1      36.570  29.364  22.430  1.00  0.00     0.246 C 
HETATM   10  O3  UNL     1      37.118  30.427  22.750  1.00  0.00    -0.271 OA
ATOM     11  H2  UNL     1      34.834  28.268  22.303  1.00  0.00     0.190 HD
BRANCH   9  12
HETATM   12  C6  UNL     1      37.464  28.297  21.859  1.00  0.00     0.057 A 
HETATM   13  C7  UNL     1      38.939  28.508  22.230  1.00  0.00     0.027 C 
HETATM   14  C8  UNL     1      36.964  26.939  21.671  1.00  0.00     0.042 A 
HETATM   15  C9  UNL     1      37.294  27.820  20.473  1.00  0.00     0.032 A 
HETATM   16  C10 UNL     1      36.135  28.129  19.592  1.00  0.00     0.029 C 
HETATM   17 BR1  UNL     1      38.887  27.302  19.451  1.00  0.00    -0.085 Br
ENDBRANCH   9  12
ENDBRANCH   7   8
BRANCH   7  18
HETATM   18  C11 UNL     1      33.934  30.411  24.416  1.00  0.00     0.147 C 
HETATM   19  C12 UNL     1      32.882  29.586  25.127  1.00  0.00     0.030 C 
HETATM   20  C13 UNL     1      32.785  30.378  26.441  1.00  0.00     0.005 C 
HETATM   21  C14 UNL     1      34.201  30.741  26.721  1.00  0.00     0.039 C 
HETATM   22  C15 UNL     1      35.024  30.379  25.457  1.00  0.00     0.195 C 
HETATM   23  F1  UNL     1      35.998  31.309  25.301  1.00  0.00    -0.247 F 
ENDBRANCH   7  18
ENDBRANCH   4   5
ENDBRANCH   3   4
TORSDOF 5
ENDMDL
MODEL 5
REMARK VINA RESULT: -6.730784401      3.072      5.337
REMARK  5 active torsions:
REMARK  status: ('A' for Active; 'I' for Inactive)
REMARK    1  A    between atoms: C3_3  and  O1_4 
REMARK    2  A    between atoms: O1_4  and  C4_5 
REMARK       I    between atoms: C4_5  and  N1_7 
REMARK    3  A    between atoms: N1_7  and  N2_8 
REMARK    4  A    between atoms: N1_7  and  C11_18 
REMARK       I    between atoms: N2_8  and  C5_10 
REMARK    5  A    between atoms: C5_10  and  C6_12 
ROOT
HETATM    1  C1  UNL     1      32.253  31.158  27.841  1.00  0.00     0.099 C 
HETATM    2  C2  UNL     1      32.503  30.583  26.792  1.00  0.00    -0.161 C 
HETATM    3  C3  UNL     1      32.777  29.891  25.527  1.00  0.00     0.260 C 
ENDROOT
BRANCH   3   4
HETATM    4  O1  UNL     1      34.061  29.322  25.612  1.00  0.00    -0.292 OA
BRANCH   4   5
HETATM    5  C4  UNL     1      35.238  30.033  25.451  1.00  0.00     0.383 C 
HETATM    6  O2  UNL     1      36.064  29.969  26.400  1.00  0.00    -0.236 OA
HETATM    7  N1  UNL     1      35.522  30.817  24.252  1.00  0.00    -0.226 N 
BRANCH   7   8
HETATM    8  N2  UNL     1      34.511  30.763  23.305  1.00  0.00    -0.262 N 
HETATM    9  C5  UNL     1      34.491  30.108  22.066  1.00  0.00     0.246 C 
HETATM   10  O3  UNL     1      35.465  29.456  21.667  1.00  0.00    -0.271 OA
ATOM     11  H2  UNL     1      33.660  31.272  23.545  1.00  0.00     0.190 HD
BRANCH   9  12
HETATM   12  C6  UNL     1      33.298  30.153  21.150  1.00  0.00     0.057 A 
HETATM   13  C7  UNL     1      33.389  29.121  20.018  1.00  0.00     0.027 C 
HETATM   14  C8  UNL     1      31.986  30.530  21.667  1.00  0.00     0.042 A 
HETATM   15  C9  UNL     1      32.732  31.439  20.698  1.00  0.00     0.032 A 
HETATM   16  C10 UNL     1      33.085  32.776  21.248  1.00  0.00     0.029 C 
HETATM   17 BR1  UNL     1      31.977  31.554  18.890  1.00  0.00    -0.085 Br
ENDBRANCH   9  12
ENDBRANCH   7   8
BRANCH   7  18
HETATM   18  C11 UNL     1      36.766  31.458  24.228  1.00  0.00     0.147 C 
HETATM   19  C12 UNL     1      37.923  30.693  23.620  1.00  0.00     0.030 C 
HETATM   20  C13 UNL     1      39.060  31.687  23.907  1.00  0.00     0.005 C 
HETATM   21  C14 UNL     1      38.426  33.009  23.653  1.00  0.00     0.039 C 
HETATM   22  C15 UNL     1      36.905  32.760  23.481  1.00  0.00     0.195 C 
HETATM   23  F1  UNL     1      36.236  33.809  24.022  1.00  0.00    -0.247 F 
ENDBRANCH   7  18
ENDBRANCH   4   5
ENDBRANCH   3   4
TORSDOF 5
ENDMDL
