MODEL 1
REMARK VINA RESULT: -6.001615033      0.000      0.000
REMARK  2 active torsions:
REMARK  status: ('A' for Active; 'I' for Inactive)
REMARK    1  A    between atoms: C11_11  and  C12_12 
REMARK    2  A    between atoms: C12_12  and  O1_13 
ROOT
HETATM    1  C1  UNL     1      -7.277  25.922   4.014  1.00  0.00     0.015 C 
HETATM    2  C2  UNL     1      -7.829  26.116   2.592  1.00  0.00    -0.044 C 
HETATM    3  C3  UNL     1      -6.685  26.568   1.749  1.00  0.00     0.015 C 
HETATM    4  C4  UNL     1      -8.252  24.745   2.122  1.00  0.00     0.014 C 
HETATM    5  C5  UNL     1      -9.610  24.815   1.471  1.00  0.00    -0.008 C 
HETATM    6  C6  UNL     1     -10.640  25.240   2.478  1.00  0.00     0.005 C 
HETATM    7  C7  UNL     1     -10.205  26.462   3.207  1.00  0.00     0.006 C 
HETATM    8  C8  UNL     1      -8.951  27.089   2.691  1.00  0.00    -0.007 C 
HETATM    9  C9  UNL     1      -9.258  27.825   1.428  1.00  0.00     0.006 C 
HETATM   10  C10 UNL     1     -10.005  27.055   0.409  1.00  0.00     0.007 C 
HETATM   11  C11 UNL     1      -9.598  25.634   0.228  1.00  0.00     0.013 C 
ENDROOT
BRANCH  11  12
HETATM   12  C12 UNL     1     -10.616  25.002  -0.736  1.00  0.00     0.169 C 
BRANCH  12  13
HETATM   13  O1  UNL     1     -10.506  25.629  -1.974  1.00  0.00    -0.400 OA
ATOM     14  H1  UNL     1     -11.313  26.099  -2.150  1.00  0.00     0.209 HD
ENDBRANCH  12  13
ENDBRANCH  11  12
TORSDOF 2
ENDMDL
MODEL 2
REMARK VINA RESULT: -5.789490317      1.214      2.596
REMARK  2 active torsions:
REMARK  status: ('A' for Active; 'I' for Inactive)
REMARK    1  A    between atoms: C11_11  and  C12_12 
REMARK    2  A    between atoms: C12_12  and  O1_13 
ROOT
HETATM    1  C1  UNL     1      -8.730  27.312   4.180  1.00  0.00     0.015 C 
HETATM    2  C2  UNL     1      -9.678  26.609   3.195  1.00  0.00    -0.044 C 
HETATM    3  C3  UNL     1     -11.054  27.092   3.509  1.00  0.00     0.015 C 
HETATM    4  C4  UNL     1      -9.300  27.116   1.823  1.00  0.00     0.014 C 
HETATM    5  C5  UNL     1      -9.218  25.967   0.850  1.00  0.00    -0.008 C 
HETATM    6  C6  UNL     1      -8.121  25.026   1.259  1.00  0.00     0.005 C 
HETATM    7  C7  UNL     1      -8.240  24.655   2.694  1.00  0.00     0.006 C 
HETATM    8  C8  UNL     1      -9.479  25.145   3.370  1.00  0.00    -0.007 C 
HETATM    9  C9  UNL     1     -10.632  24.297   2.946  1.00  0.00     0.006 C 
HETATM   10  C10 UNL     1     -10.782  24.111   1.487  1.00  0.00     0.007 C 
HETATM   11  C11 UNL     1     -10.537  25.311   0.641  1.00  0.00     0.013 C 
ENDROOT
BRANCH  11  12
HETATM   12  C12 UNL     1     -10.574  24.835  -0.822  1.00  0.00     0.169 C 
BRANCH  12  13
HETATM   13  O1  UNL     1     -10.078  25.852  -1.634  1.00  0.00    -0.400 OA
ATOM     14  H1  UNL     1      -9.260  25.561  -2.019  1.00  0.00     0.209 HD
ENDBRANCH  12  13
ENDBRANCH  11  12
TORSDOF 2
ENDMDL
MODEL 3
REMARK VINA RESULT: -5.722134027      1.901      3.562
REMARK  2 active torsions:
REMARK  status: ('A' for Active; 'I' for Inactive)
REMARK    1  A    between atoms: C11_11  and  C12_12 
REMARK    2  A    between atoms: C12_12  and  O1_13 
ROOT
HETATM    1  C1  UNL     1     -10.846  23.556   2.445  1.00  0.00     0.015 C 
HETATM    2  C2  UNL     1     -10.109  24.781   1.883  1.00  0.00    -0.044 C 
HETATM    3  C3  UNL     1     -10.467  24.868   0.437  1.00  0.00     0.015 C 
HETATM    4  C4  UNL     1     -10.699  25.979   2.590  1.00  0.00     0.014 C 
HETATM    5  C5  UNL     1      -9.600  26.904   3.047  1.00  0.00    -0.008 C 
HETATM    6  C6  UNL     1      -8.735  26.212   4.061  1.00  0.00     0.005 C 
HETATM    7  C7  UNL     1      -8.298  24.877   3.572  1.00  0.00     0.006 C 
HETATM    8  C8  UNL     1      -8.660  24.579   2.153  1.00  0.00    -0.007 C 
HETATM    9  C9  UNL     1      -7.740  25.328   1.248  1.00  0.00     0.006 C 
HETATM   10  C10 UNL     1      -7.600  26.772   1.537  1.00  0.00     0.007 C 
HETATM   11  C11 UNL     1      -8.848  27.494   1.905  1.00  0.00     0.013 C 
ENDROOT
BRANCH  11  12
HETATM   12  C12 UNL     1      -8.430  28.913   2.329  1.00  0.00     0.169 C 
BRANCH  12  13
HETATM   13  O1  UNL     1      -8.628  29.775   1.253  1.00  0.00    -0.400 OA
ATOM     14  H1  UNL     1      -9.375  30.331   1.443  1.00  0.00     0.209 HD
ENDBRANCH  12  13
ENDBRANCH  11  12
TORSDOF 2
ENDMDL
MODEL 4
REMARK VINA RESULT: -5.666337871      2.024      3.673
REMARK  2 active torsions:
REMARK  status: ('A' for Active; 'I' for Inactive)
REMARK    1  A    between atoms: C11_11  and  C12_12 
REMARK    2  A    between atoms: C12_12  and  O1_13 
ROOT
HETATM    1  C1  UNL     1     -11.095  23.658   2.003  1.00  0.00     0.015 C 
HETATM    2  C2  UNL     1     -10.331  24.923   2.424  1.00  0.00    -0.044 C 
HETATM    3  C3  UNL     1     -11.034  25.466   3.622  1.00  0.00     0.015 C 
HETATM    4  C4  UNL     1      -8.960  24.456   2.852  1.00  0.00     0.014 C 
HETATM    5  C5  UNL     1      -7.899  25.347   2.257  1.00  0.00    -0.008 C 
HETATM    6  C6  UNL     1      -7.922  25.242   0.759  1.00  0.00     0.005 C 
HETATM    7  C7  UNL     1      -9.299  25.429   0.229  1.00  0.00     0.006 C 
HETATM    8  C8  UNL     1     -10.315  25.833   1.247  1.00  0.00    -0.007 C 
HETATM    9  C9  UNL     1     -10.131  27.279   1.571  1.00  0.00     0.006 C 
HETATM   10  C10 UNL     1      -8.750  27.683   1.913  1.00  0.00     0.007 C 
HETATM   11  C11 UNL     1      -7.981  26.741   2.772  1.00  0.00     0.013 C 
ENDROOT
BRANCH  11  12
HETATM   12  C12 UNL     1      -6.541  27.280   2.840  1.00  0.00     0.169 C 
BRANCH  12  13
HETATM   13  O1  UNL     1      -6.380  28.245   1.850  1.00  0.00    -0.400 OA
ATOM     14  H1  UNL     1      -6.004  29.024   2.243  1.00  0.00     0.209 HD
ENDBRANCH  12  13
ENDBRANCH  11  12
TORSDOF 2
ENDMDL
MODEL 5
REMARK VINA RESULT: -5.636707576      1.162      1.615
REMARK  2 active torsions:
REMARK  status: ('A' for Active; 'I' for Inactive)
REMARK    1  A    between atoms: C11_11  and  C12_12 
REMARK    2  A    between atoms: C12_12  and  O1_13 
ROOT
HETATM    1  C1  UNL     1      -6.236  27.160   3.785  1.00  0.00     0.015 C 
HETATM    2  C2  UNL     1      -7.405  27.176   2.788  1.00  0.00    -0.044 C 
HETATM    3  C3  UNL     1      -7.515  28.575   2.282  1.00  0.00     0.015 C 
HETATM    4  C4  UNL     1      -6.983  26.289   1.640  1.00  0.00     0.014 C 
HETATM    5  C5  UNL     1      -8.111  25.366   1.255  1.00  0.00    -0.008 C 
HETATM    6  C6  UNL     1      -8.428  24.441   2.395  1.00  0.00     0.005 C 
HETATM    7  C7  UNL     1      -8.611  25.196   3.664  1.00  0.00     0.006 C 
HETATM    8  C8  UNL     1      -8.605  26.683   3.516  1.00  0.00    -0.007 C 
HETATM    9  C9  UNL     1      -9.913  27.121   2.945  1.00  0.00     0.006 C 
HETATM   10  C10 UNL     1     -10.347  26.402   1.727  1.00  0.00     0.007 C 
HETATM   11  C11 UNL     1      -9.288  26.105   0.724  1.00  0.00     0.013 C 
ENDROOT
BRANCH  11  12
HETATM   12  C12 UNL     1      -9.934  25.211  -0.349  1.00  0.00     0.169 C 
BRANCH  12  13
HETATM   13  O1  UNL     1     -10.045  25.941  -1.529  1.00  0.00    -0.400 OA
ATOM     14  H1  UNL     1     -10.494  26.757  -1.341  1.00  0.00     0.209 HD
ENDBRANCH  12  13
ENDBRANCH  11  12
TORSDOF 2
ENDMDL
