MODEL 1
REMARK VINA RESULT: -5.155995530      0.000      0.000
REMARK  3 active torsions:
REMARK  status: ('A' for Active; 'I' for Inactive)
REMARK    1  A    between atoms: N1_2  and  C2_4 
REMARK    2  A    between atoms: C2_4  and  C8_12 
REMARK    3  A    between atoms: N2_5  and  C3_7 
ROOT
HETATM    1  C2  UNL     1     -13.979  26.154   5.353  1.00  0.00     0.080 C 
HETATM    2  N2  UNL     1     -14.410  27.014   4.509  1.00  0.00    -0.375 N 
ATOM      3  H2  UNL     1     -13.937  27.052   3.607  1.00  0.00     0.161 HD
ENDROOT
BRANCH   1   4
HETATM    4  N1  UNL     1     -14.609  26.069   6.614  1.00  0.00    -0.384 N 
HETATM    5  C1  UNL     1     -15.643  25.108   6.929  1.00  0.00     0.147 C 
ATOM      6  H1  UNL     1     -14.319  26.722   7.342  1.00  0.00     0.160 HD
ENDBRANCH   1   4
BRANCH   1   7
HETATM    7  C8  UNL     1     -12.850  25.278   4.999  1.00  0.00     0.007 C 
HETATM    8  C9  UNL     1     -13.291  24.149   4.093  1.00  0.00     0.022 C 
HETATM    9  C10 UNL     1     -11.786  26.078   4.247  1.00  0.00     0.022 C 
HETATM   10  C11 UNL     1     -12.163  24.703   6.217  1.00  0.00     0.022 C 
ENDBRANCH   1   7
BRANCH   2  11
HETATM   11  C3  UNL     1     -15.491  27.925   4.708  1.00  0.00     0.082 C 
HETATM   12  C4  UNL     1     -15.185  29.324   4.255  1.00  0.00     0.025 C 
HETATM   13  C5  UNL     1     -16.350  29.829   3.469  1.00  0.00     0.002 C 
HETATM   14  C6  UNL     1     -17.357  28.711   3.385  1.00  0.00     0.002 C 
HETATM   15  C7  UNL     1     -16.638  27.470   3.808  1.00  0.00     0.025 C 
ENDBRANCH   2  11
TORSDOF 3
ENDMDL
MODEL 2
REMARK VINA RESULT: -5.129438543      0.130      1.195
REMARK  3 active torsions:
REMARK  status: ('A' for Active; 'I' for Inactive)
REMARK    1  A    between atoms: N1_2  and  C2_4 
REMARK    2  A    between atoms: C2_4  and  C8_12 
REMARK    3  A    between atoms: N2_5  and  C3_7 
ROOT
HETATM    1  C2  UNL     1     -13.873  26.136   5.392  1.00  0.00     0.080 C 
HETATM    2  N2  UNL     1     -14.305  27.013   4.566  1.00  0.00    -0.375 N 
ATOM      3  H2  UNL     1     -13.799  27.107   3.686  1.00  0.00     0.161 HD
ENDROOT
BRANCH   1   4
HETATM    4  N1  UNL     1     -14.547  25.975   6.622  1.00  0.00    -0.384 N 
HETATM    5  C1  UNL     1     -15.631  25.040   6.825  1.00  0.00     0.147 C 
ATOM      6  H1  UNL     1     -14.253  26.551   7.411  1.00  0.00     0.160 HD
ENDBRANCH   1   4
BRANCH   1   7
HETATM    7  C8  UNL     1     -12.696  25.320   5.050  1.00  0.00     0.007 C 
HETATM    8  C9  UNL     1     -12.033  24.761   6.290  1.00  0.00     0.022 C 
HETATM    9  C10 UNL     1     -13.122  24.132   4.185  1.00  0.00     0.022 C 
HETATM   10  C11 UNL     1     -11.678  26.088   4.239  1.00  0.00     0.022 C 
ENDBRANCH   1   7
BRANCH   2  11
HETATM   11  C3  UNL     1     -15.428  27.873   4.758  1.00  0.00     0.082 C 
HETATM   12  C4  UNL     1     -15.177  29.290   4.331  1.00  0.00     0.025 C 
HETATM   13  C5  UNL     1     -16.348  29.755   3.530  1.00  0.00     0.002 C 
HETATM   14  C6  UNL     1     -17.304  28.595   3.412  1.00  0.00     0.002 C 
HETATM   15  C7  UNL     1     -16.538  27.381   3.830  1.00  0.00     0.025 C 
ENDBRANCH   2  11
TORSDOF 3
ENDMDL
MODEL 3
REMARK VINA RESULT: -5.110760230      0.162      1.166
REMARK  3 active torsions:
REMARK  status: ('A' for Active; 'I' for Inactive)
REMARK    1  A    between atoms: N1_2  and  C2_4 
REMARK    2  A    between atoms: C2_4  and  C8_12 
REMARK    3  A    between atoms: N2_5  and  C3_7 
ROOT
HETATM    1  C2  UNL     1     -13.845  26.113   5.376  1.00  0.00     0.080 C 
HETATM    2  N2  UNL     1     -14.283  26.990   4.554  1.00  0.00    -0.375 N 
ATOM      3  H2  UNL     1     -13.787  27.080   3.668  1.00  0.00     0.161 HD
ENDROOT
BRANCH   1   4
HETATM    4  N1  UNL     1     -14.505  25.957   6.614  1.00  0.00    -0.384 N 
HETATM    5  C1  UNL     1     -15.597  25.033   6.829  1.00  0.00     0.147 C 
ATOM      6  H1  UNL     1     -14.195  26.527   7.401  1.00  0.00     0.160 HD
ENDBRANCH   1   4
BRANCH   1   7
HETATM    7  C8  UNL     1     -12.676  25.291   5.021  1.00  0.00     0.007 C 
HETATM    8  C9  UNL     1     -11.657  26.090   4.239  1.00  0.00     0.022 C 
HETATM    9  C10 UNL     1     -11.986  24.791   6.291  1.00  0.00     0.022 C 
HETATM   10  C11 UNL     1     -13.056  24.057   4.235  1.00  0.00     0.022 C 
ENDBRANCH   1   7
BRANCH   2  11
HETATM   11  C3  UNL     1     -15.401  27.855   4.757  1.00  0.00     0.082 C 
HETATM   12  C4  UNL     1     -15.147  29.271   4.329  1.00  0.00     0.025 C 
HETATM   13  C5  UNL     1     -16.323  29.743   3.540  1.00  0.00     0.002 C 
HETATM   14  C6  UNL     1     -17.285  28.587   3.429  1.00  0.00     0.002 C 
HETATM   15  C7  UNL     1     -16.521  27.368   3.839  1.00  0.00     0.025 C 
ENDBRANCH   2  11
TORSDOF 3
ENDMDL
MODEL 4
REMARK VINA RESULT: -5.019159260      1.481      4.817
REMARK  3 active torsions:
REMARK  status: ('A' for Active; 'I' for Inactive)
REMARK    1  A    between atoms: N1_2  and  C2_4 
REMARK    2  A    between atoms: C2_4  and  C8_12 
REMARK    3  A    between atoms: N2_5  and  C3_7 
ROOT
HETATM    1  C2  UNL     1     -15.007  25.621   5.197  1.00  0.00     0.080 C 
HETATM    2  N2  UNL     1     -13.980  25.649   4.434  1.00  0.00    -0.375 N 
ATOM      3  H2  UNL     1     -13.996  26.317   3.664  1.00  0.00     0.161 HD
ENDROOT
BRANCH   1   4
HETATM    4  N1  UNL     1     -15.024  24.710   6.275  1.00  0.00    -0.384 N 
HETATM    5  C1  UNL     1     -14.521  25.021   7.595  1.00  0.00     0.147 C 
ATOM      6  H1  UNL     1     -15.412  23.781   6.115  1.00  0.00     0.160 HD
ENDBRANCH   1   4
BRANCH   1   7
HETATM    7  C8  UNL     1     -16.139  26.529   4.942  1.00  0.00     0.007 C 
HETATM    8  C9  UNL     1     -15.721  27.978   5.068  1.00  0.00     0.022 C 
HETATM    9  C10 UNL     1     -16.658  26.326   3.518  1.00  0.00     0.022 C 
HETATM   10  C11 UNL     1     -17.310  26.262   5.860  1.00  0.00     0.022 C 
ENDBRANCH   1   7
BRANCH   2  11
HETATM   11  C3  UNL     1     -12.814  24.835   4.556  1.00  0.00     0.082 C 
HETATM   12  C4  UNL     1     -12.786  23.682   3.595  1.00  0.00     0.025 C 
HETATM   13  C5  UNL     1     -11.427  23.616   2.979  1.00  0.00     0.002 C 
HETATM   14  C6  UNL     1     -10.630  24.775   3.519  1.00  0.00     0.002 C 
HETATM   15  C7  UNL     1     -11.617  25.698   4.160  1.00  0.00     0.025 C 
ENDBRANCH   2  11
TORSDOF 3
ENDMDL
MODEL 5
REMARK VINA RESULT: -4.935789059      1.223      2.908
REMARK  3 active torsions:
REMARK  status: ('A' for Active; 'I' for Inactive)
REMARK    1  A    between atoms: N1_2  and  C2_4 
REMARK    2  A    between atoms: C2_4  and  C8_12 
REMARK    3  A    between atoms: N2_5  and  C3_7 
ROOT
HETATM    1  C2  UNL     1     -15.041  25.614   5.734  1.00  0.00     0.080 C 
HETATM    2  N2  UNL     1     -15.615  26.737   5.518  1.00  0.00    -0.375 N 
ATOM      3  H2  UNL     1     -16.033  27.204   6.323  1.00  0.00     0.161 HD
ENDROOT
BRANCH   1   4
HETATM    4  N1  UNL     1     -14.450  24.937   4.645  1.00  0.00    -0.384 N 
HETATM    5  C1  UNL     1     -13.040  25.006   4.329  1.00  0.00     0.147 C 
ATOM      6  H1  UNL     1     -15.050  24.368   4.049  1.00  0.00     0.160 HD
ENDBRANCH   1   4
BRANCH   1   7
HETATM    7  C8  UNL     1     -15.007  25.054   7.095  1.00  0.00     0.007 C 
HETATM    8  C9  UNL     1     -14.168  25.909   8.021  1.00  0.00     0.022 C 
HETATM    9  C10 UNL     1     -16.421  25.007   7.675  1.00  0.00     0.022 C 
HETATM   10  C11 UNL     1     -14.492  23.633   7.121  1.00  0.00     0.022 C 
ENDBRANCH   1   7
BRANCH   2  11
HETATM   11  C3  UNL     1     -15.727  27.401   4.260  1.00  0.00     0.082 C 
HETATM   12  C4  UNL     1     -17.097  27.308   3.653  1.00  0.00     0.025 C 
HETATM   13  C5  UNL     1     -17.487  28.663   3.162  1.00  0.00     0.002 C 
HETATM   14  C6  UNL     1     -16.373  29.612   3.522  1.00  0.00     0.002 C 
HETATM   15  C7  UNL     1     -15.518  28.894   4.516  1.00  0.00     0.025 C 
ENDBRANCH   2  11
TORSDOF 3
ENDMDL
