MODEL 1
REMARK VINA RESULT: -6.238064101      0.000      0.000
REMARK  2 active torsions:
REMARK  status: ('A' for Active; 'I' for Inactive)
REMARK    1  A    between atoms: C2_2  and  C3_3 
REMARK    2  A    between atoms: C9_9  and  O1_11 
ROOT
HETATM    1  C3  UNL     1     -14.921  29.626   4.898  1.00  0.00     0.012 C 
HETATM    2  C4  UNL     1     -15.958  28.797   4.133  1.00  0.00     0.016 C 
HETATM    3  C5  UNL     1     -15.369  27.422   4.231  1.00  0.00     0.025 C 
HETATM    4  C6  UNL     1     -14.780  27.321   5.642  1.00  0.00    -0.003 C 
HETATM    5  C7  UNL     1     -15.862  26.775   6.508  1.00  0.00     0.008 C 
HETATM    6  C8  UNL     1     -17.059  26.520   5.584  1.00  0.00     0.038 C 
HETATM    7  C9  UNL     1     -16.390  26.324   4.266  1.00  0.00     0.058 C 
HETATM    8  C10 UNL     1     -17.312  26.440   3.088  1.00  0.00     0.046 C 
HETATM    9  C11 UNL     1     -14.365  28.714   5.955  1.00  0.00    -0.007 C 
HETATM   10  C12 UNL     1     -14.690  29.158   7.350  1.00  0.00     0.011 C 
ENDROOT
BRANCH   7  11
HETATM   11  O1  UNL     1     -15.693  25.119   4.293  1.00  0.00    -0.390 OA
ATOM     12  H1  UNL     1     -15.541  24.906   5.206  1.00  0.00     0.210 HD
ENDBRANCH   7  11
BRANCH   1  13
HETATM   13  C2  UNL     1     -13.877  30.017   3.911  1.00  0.00    -0.032 C 
HETATM   14  C1  UNL     1     -12.587  29.884   4.157  1.00  0.00     0.007 C 
ENDBRANCH   1  13
TORSDOF 2
ENDMDL
MODEL 2
REMARK VINA RESULT: -5.883272380      1.651      3.766
REMARK  2 active torsions:
REMARK  status: ('A' for Active; 'I' for Inactive)
REMARK    1  A    between atoms: C2_2  and  C3_3 
REMARK    2  A    between atoms: C9_9  and  O1_11 
ROOT
HETATM    1  C3  UNL     1     -16.951  27.459   4.201  1.00  0.00     0.012 C 
HETATM    2  C4  UNL     1     -16.731  26.874   5.600  1.00  0.00     0.016 C 
HETATM    3  C5  UNL     1     -15.237  26.769   5.646  1.00  0.00     0.025 C 
HETATM    4  C6  UNL     1     -14.709  28.020   4.939  1.00  0.00    -0.003 C 
HETATM    5  C7  UNL     1     -14.535  29.056   5.997  1.00  0.00     0.008 C 
HETATM    6  C8  UNL     1     -14.921  28.382   7.319  1.00  0.00     0.038 C 
HETATM    7  C9  UNL     1     -14.657  26.946   7.018  1.00  0.00     0.058 C 
HETATM    8  C10 UNL     1     -15.302  25.989   7.977  1.00  0.00     0.046 C 
HETATM    9  C11 UNL     1     -15.753  28.325   3.925  1.00  0.00    -0.007 C 
HETATM   10  C12 UNL     1     -16.091  29.781   3.802  1.00  0.00     0.011 C 
ENDROOT
BRANCH   7  11
HETATM   11  O1  UNL     1     -13.282  26.759   6.907  1.00  0.00    -0.390 OA
ATOM     12  H1  UNL     1     -13.143  26.114   6.223  1.00  0.00     0.210 HD
ENDBRANCH   7  11
BRANCH   1  13
HETATM   13  C2  UNL     1     -17.017  26.305   3.263  1.00  0.00    -0.032 C 
HETATM   14  C1  UNL     1     -18.066  26.078   2.494  1.00  0.00     0.007 C 
ENDBRANCH   1  13
TORSDOF 2
ENDMDL
MODEL 3
REMARK VINA RESULT: -5.866333127      1.473      2.409
REMARK  2 active torsions:
REMARK  status: ('A' for Active; 'I' for Inactive)
REMARK    1  A    between atoms: C2_2  and  C3_3 
REMARK    2  A    between atoms: C9_9  and  O1_11 
ROOT
HETATM    1  C3  UNL     1     -13.921  29.062   4.534  1.00  0.00     0.012 C 
HETATM    2  C4  UNL     1     -13.556  27.574   4.511  1.00  0.00     0.016 C 
HETATM    3  C5  UNL     1     -14.569  27.006   5.458  1.00  0.00     0.025 C 
HETATM    4  C6  UNL     1     -15.869  27.770   5.186  1.00  0.00    -0.003 C 
HETATM    5  C7  UNL     1     -16.600  26.992   4.145  1.00  0.00     0.008 C 
HETATM    6  C8  UNL     1     -15.740  25.757   3.854  1.00  0.00     0.038 C 
HETATM    7  C9  UNL     1     -14.986  25.602   5.131  1.00  0.00     0.058 C 
HETATM    8  C10 UNL     1     -13.779  24.717   5.028  1.00  0.00     0.046 C 
HETATM    9  C11 UNL     1     -15.407  29.116   4.757  1.00  0.00    -0.007 C 
HETATM   10  C12 UNL     1     -16.159  29.687   3.592  1.00  0.00     0.011 C 
ENDROOT
BRANCH   7  11
HETATM   11  O1  UNL     1     -15.872  25.197   6.126  1.00  0.00    -0.390 OA
ATOM     12  H1  UNL     1     -16.740  25.193   5.742  1.00  0.00     0.210 HD
ENDBRANCH   7  11
BRANCH   1  13
HETATM   13  C2  UNL     1     -13.177  29.666   5.673  1.00  0.00    -0.032 C 
HETATM   14  C1  UNL     1     -12.160  30.489   5.496  1.00  0.00     0.007 C 
ENDBRANCH   1  13
TORSDOF 2
ENDMDL
MODEL 4
REMARK VINA RESULT: -5.833248124      6.703      8.173
REMARK  2 active torsions:
REMARK  status: ('A' for Active; 'I' for Inactive)
REMARK    1  A    between atoms: C2_2  and  C3_3 
REMARK    2  A    between atoms: C9_9  and  O1_11 
ROOT
HETATM    1  C3  UNL     1      -9.977  24.850   0.364  1.00  0.00     0.012 C 
HETATM    2  C4  UNL     1      -8.571  25.407   0.613  1.00  0.00     0.016 C 
HETATM    3  C5  UNL     1      -8.838  26.413   1.691  1.00  0.00     0.025 C 
HETATM    4  C6  UNL     1      -9.890  25.777   2.605  1.00  0.00    -0.003 C 
HETATM    5  C7  UNL     1      -9.136  25.042   3.660  1.00  0.00     0.008 C 
HETATM    6  C8  UNL     1      -7.651  25.296   3.377  1.00  0.00     0.038 C 
HETATM    7  C9  UNL     1      -7.697  26.595   2.648  1.00  0.00     0.058 C 
HETATM    8  C10 UNL     1      -6.441  26.921   1.896  1.00  0.00     0.046 C 
HETATM    9  C11 UNL     1     -10.687  24.920   1.688  1.00  0.00    -0.007 C 
HETATM   10  C12 UNL     1     -11.032  23.571   2.245  1.00  0.00     0.011 C 
ENDROOT
BRANCH   7  11
HETATM   11  O1  UNL     1      -8.069  27.596   3.541  1.00  0.00    -0.390 OA
ATOM     12  H1  UNL     1      -7.815  27.304   4.409  1.00  0.00     0.210 HD
ENDBRANCH   7  11
BRANCH   1  13
HETATM   13  C2  UNL     1     -10.616  25.742  -0.643  1.00  0.00    -0.032 C 
HETATM   14  C1  UNL     1     -11.397  25.280  -1.602  1.00  0.00     0.007 C 
ENDBRANCH   1  13
TORSDOF 2
ENDMDL
MODEL 5
REMARK VINA RESULT: -5.692254096      6.303      7.607
REMARK  2 active torsions:
REMARK  status: ('A' for Active; 'I' for Inactive)
REMARK    1  A    between atoms: C2_2  and  C3_3 
REMARK    2  A    between atoms: C9_9  and  O1_11 
ROOT
HETATM    1  C3  UNL     1     -10.540  24.007   3.027  1.00  0.00     0.012 C 
HETATM    2  C4  UNL     1     -10.845  23.922   1.528  1.00  0.00     0.016 C 
HETATM    3  C5  UNL     1     -10.742  25.362   1.122  1.00  0.00     0.025 C 
HETATM    4  C6  UNL     1      -9.569  25.937   1.922  1.00  0.00    -0.003 C 
HETATM    5  C7  UNL     1      -8.356  25.750   1.076  1.00  0.00     0.008 C 
HETATM    6  C8  UNL     1      -8.842  25.108  -0.228  1.00  0.00     0.038 C 
HETATM    7  C9  UNL     1     -10.259  25.564  -0.284  1.00  0.00     0.058 C 
HETATM    8  C10 UNL     1     -11.117  24.787  -1.239  1.00  0.00     0.046 C 
HETATM    9  C11 UNL     1      -9.582  25.156   3.186  1.00  0.00    -0.007 C 
HETATM   10  C12 UNL     1      -8.227  24.732   3.667  1.00  0.00     0.011 C 
ENDROOT
BRANCH   7  11
HETATM   11  O1  UNL     1     -10.279  26.934  -0.529  1.00  0.00    -0.390 OA
ATOM     12  H1  UNL     1     -11.190  27.191  -0.603  1.00  0.00     0.210 HD
ENDBRANCH   7  11
BRANCH   1  13
HETATM   13  C2  UNL     1     -11.835  24.279   3.710  1.00  0.00    -0.032 C 
HETATM   14  C1  UNL     1     -12.602  23.314   4.182  1.00  0.00     0.007 C 
ENDBRANCH   1  13
TORSDOF 2
ENDMDL
