MODEL 1
REMARK VINA RESULT: -6.683998574      0.000      0.000
REMARK  2 active torsions:
REMARK  status: ('A' for Active; 'I' for Inactive)
REMARK    1  A    between atoms: C10_10  and  C11_11 
REMARK    2  A    between atoms: C11_11  and  O1_12 
ROOT
HETATM    1  C1  UNL     1     -14.524  28.372   6.512  1.00  0.00     0.015 C 
HETATM    2  C2  UNL     1     -14.338  27.731   5.172  1.00  0.00    -0.043 C 
HETATM    3  C3  UNL     1     -13.103  28.409   4.551  1.00  0.00     0.015 C 
HETATM    4  C4  UNL     1     -13.969  26.256   5.270  1.00  0.00     0.010 C 
HETATM    5  C5  UNL     1     -15.143  25.484   4.647  1.00  0.00     0.010 C 
HETATM    6  C6  UNL     1     -16.213  26.458   4.503  1.00  0.00    -0.039 C 
HETATM    7  C7  UNL     1     -17.164  26.593   5.640  1.00  0.00     0.015 C 
HETATM    8  C8  UNL     1     -17.006  26.491   3.241  1.00  0.00     0.010 C 
HETATM    9  C9  UNL     1     -17.462  27.961   3.232  1.00  0.00     0.008 C 
HETATM   10  C10 UNL     1     -16.487  28.698   4.172  1.00  0.00     0.015 C 
HETATM   11  C12 UNL     1     -15.409  27.742   4.239  1.00  0.00     0.007 C 
ENDROOT
BRANCH  10  12
HETATM   12  C11 UNL     1     -16.165  30.005   3.472  1.00  0.00     0.169 C 
BRANCH  12  13
HETATM   13  O1  UNL     1     -17.170  30.404   2.608  1.00  0.00    -0.400 OA
ATOM     14  H1  UNL     1     -16.891  31.099   2.023  1.00  0.00     0.209 HD
ENDBRANCH  12  13
ENDBRANCH  10  12
TORSDOF 2
ENDMDL
MODEL 2
REMARK VINA RESULT: -6.609058351      2.158      4.173
REMARK  2 active torsions:
REMARK  status: ('A' for Active; 'I' for Inactive)
REMARK    1  A    between atoms: C10_10  and  C11_11 
REMARK    2  A    between atoms: C11_11  and  O1_12 
ROOT
HETATM    1  C1  UNL     1     -17.117  26.648   5.544  1.00  0.00     0.015 C 
HETATM    2  C2  UNL     1     -16.475  27.156   4.291  1.00  0.00    -0.043 C 
HETATM    3  C3  UNL     1     -16.847  26.146   3.189  1.00  0.00     0.015 C 
HETATM    4  C4  UNL     1     -17.060  28.483   3.824  1.00  0.00     0.010 C 
HETATM    5  C5  UNL     1     -15.923  29.510   3.938  1.00  0.00     0.010 C 
HETATM    6  C6  UNL     1     -14.881  28.850   4.708  1.00  0.00    -0.039 C 
HETATM    7  C7  UNL     1     -14.918  29.023   6.186  1.00  0.00     0.015 C 
HETATM    8  C8  UNL     1     -13.461  28.973   4.271  1.00  0.00     0.010 C 
HETATM    9  C9  UNL     1     -12.872  27.678   4.859  1.00  0.00     0.008 C 
HETATM   10  C10 UNL     1     -14.079  26.752   5.100  1.00  0.00     0.015 C 
HETATM   11  C12 UNL     1     -15.073  27.389   4.271  1.00  0.00     0.007 C 
ENDROOT
BRANCH  10  12
HETATM   12  C11 UNL     1     -13.628  25.376   4.647  1.00  0.00     0.169 C 
BRANCH  12  13
HETATM   13  O1  UNL     1     -14.223  24.358   5.371  1.00  0.00    -0.400 OA
ATOM     14  H1  UNL     1     -14.230  24.532   6.305  1.00  0.00     0.209 HD
ENDBRANCH  12  13
ENDBRANCH  10  12
TORSDOF 2
ENDMDL
MODEL 3
REMARK VINA RESULT: -6.391172374      0.972      1.079
REMARK  2 active torsions:
REMARK  status: ('A' for Active; 'I' for Inactive)
REMARK    1  A    between atoms: C10_10  and  C11_11 
REMARK    2  A    between atoms: C11_11  and  O1_12 
ROOT
HETATM    1  C1  UNL     1     -14.882  28.919   6.359  1.00  0.00     0.015 C 
HETATM    2  C2  UNL     1     -14.435  28.264   5.091  1.00  0.00    -0.043 C 
HETATM    3  C3  UNL     1     -13.686  29.351   4.298  1.00  0.00     0.015 C 
HETATM    4  C4  UNL     1     -13.403  27.167   5.325  1.00  0.00     0.010 C 
HETATM    5  C5  UNL     1     -14.075  25.855   4.891  1.00  0.00     0.010 C 
HETATM    6  C6  UNL     1     -15.483  26.178   4.725  1.00  0.00    -0.039 C 
HETATM    7  C7  UNL     1     -16.363  26.003   5.912  1.00  0.00     0.015 C 
HETATM    8  C8  UNL     1     -16.216  25.657   3.536  1.00  0.00     0.010 C 
HETATM    9  C9  UNL     1     -17.321  26.720   3.398  1.00  0.00     0.008 C 
HETATM   10  C10 UNL     1     -16.801  27.952   4.165  1.00  0.00     0.015 C 
HETATM   11  C12 UNL     1     -15.397  27.638   4.252  1.00  0.00     0.007 C 
ENDROOT
BRANCH  10  12
HETATM   12  C11 UNL     1     -17.156  29.145   3.298  1.00  0.00     0.169 C 
BRANCH  12  13
HETATM   13  O1  UNL     1     -18.280  28.919   2.521  1.00  0.00    -0.400 OA
ATOM     14  H1  UNL     1     -18.505  27.998   2.466  1.00  0.00     0.209 HD
ENDBRANCH  12  13
ENDBRANCH  10  12
TORSDOF 2
ENDMDL
MODEL 4
REMARK VINA RESULT: -5.643652183      1.577      2.170
REMARK  2 active torsions:
REMARK  status: ('A' for Active; 'I' for Inactive)
REMARK    1  A    between atoms: C10_10  and  C11_11 
REMARK    2  A    between atoms: C11_11  and  O1_12 
ROOT
HETATM    1  C1  UNL     1     -12.960  26.443   6.529  1.00  0.00     0.015 C 
HETATM    2  C2  UNL     1     -13.333  26.473   5.080  1.00  0.00    -0.043 C 
HETATM    3  C3  UNL     1     -12.003  26.458   4.304  1.00  0.00     0.015 C 
HETATM    4  C4  UNL     1     -14.064  25.213   4.633  1.00  0.00     0.010 C 
HETATM    5  C5  UNL     1     -15.481  25.662   4.240  1.00  0.00     0.010 C 
HETATM    6  C6  UNL     1     -15.605  27.023   4.736  1.00  0.00    -0.039 C 
HETATM    7  C7  UNL     1     -16.146  27.197   6.112  1.00  0.00     0.015 C 
HETATM    8  C8  UNL     1     -16.230  28.062   3.868  1.00  0.00     0.010 C 
HETATM    9  C9  UNL     1     -15.562  29.333   4.423  1.00  0.00     0.008 C 
HETATM   10  C10 UNL     1     -14.297  28.843   5.156  1.00  0.00     0.015 C 
HETATM   11  C12 UNL     1     -14.158  27.523   4.594  1.00  0.00     0.007 C 
ENDROOT
BRANCH  10  12
HETATM   12  C11 UNL     1     -13.210  29.834   4.786  1.00  0.00     0.169 C 
BRANCH  12  13
HETATM   13  O1  UNL     1     -13.444  30.447   3.567  1.00  0.00    -0.400 OA
ATOM     14  H1  UNL     1     -13.112  29.940   2.836  1.00  0.00     0.209 HD
ENDBRANCH  12  13
ENDBRANCH  10  12
TORSDOF 2
ENDMDL
MODEL 5
REMARK VINA RESULT: -5.521222496      5.930      7.354
REMARK  2 active torsions:
REMARK  status: ('A' for Active; 'I' for Inactive)
REMARK    1  A    between atoms: C10_10  and  C11_11 
REMARK    2  A    between atoms: C11_11  and  O1_12 
ROOT
HETATM    1  C1  UNL     1      -8.703  27.650   1.911  1.00  0.00     0.015 C 
HETATM    2  C2  UNL     1      -8.304  26.225   2.132  1.00  0.00    -0.043 C 
HETATM    3  C3  UNL     1      -7.030  26.011   1.294  1.00  0.00     0.015 C 
HETATM    4  C4  UNL     1      -7.882  25.946   3.569  1.00  0.00     0.010 C 
HETATM    5  C5  UNL     1      -8.921  24.963   4.132  1.00  0.00     0.010 C 
HETATM    6  C6  UNL     1     -10.006  24.952   3.165  1.00  0.00    -0.039 C 
HETATM    7  C7  UNL     1     -11.110  25.928   3.373  1.00  0.00     0.015 C 
HETATM    8  C8  UNL     1     -10.619  23.652   2.770  1.00  0.00     0.010 C 
HETATM    9  C9  UNL     1     -11.140  24.001   1.364  1.00  0.00     0.008 C 
HETATM   10  C10 UNL     1     -10.340  25.244   0.928  1.00  0.00     0.015 C 
HETATM   11  C12 UNL     1      -9.237  25.189   1.855  1.00  0.00     0.007 C 
ENDROOT
BRANCH  10  12
HETATM   12  C11 UNL     1      -9.988  25.005  -0.528  1.00  0.00     0.169 C 
BRANCH  12  13
HETATM   13  O1  UNL     1     -10.009  26.171  -1.276  1.00  0.00    -0.400 OA
ATOM     14  H1  UNL     1     -10.727  26.192  -1.897  1.00  0.00     0.209 HD
ENDBRANCH  12  13
ENDBRANCH  10  12
TORSDOF 2
ENDMDL
