MODEL 1
REMARK VINA RESULT: -6.140426727      0.000      0.000
REMARK  1 active torsions:
REMARK  status: ('A' for Active; 'I' for Inactive)
REMARK    1  A    between atoms: N1_2  and  C2_4 
ROOT
HETATM    1  C2  UNL     1     -12.974  29.587   4.364  1.00  0.00     0.076 C 
HETATM    2  C3  UNL     1     -12.910  28.099   4.628  1.00  0.00     0.029 C 
HETATM    3  C4  UNL     1     -13.804  27.760   5.802  1.00  0.00    -0.012 C 
HETATM    4  C5  UNL     1     -14.796  28.892   6.103  1.00  0.00     0.009 C 
HETATM    5  C6  UNL     1     -15.401  29.244   4.761  1.00  0.00    -0.012 C 
HETATM    6  C7  UNL     1     -14.386  29.984   3.958  1.00  0.00     0.029 C 
HETATM    7  C8  UNL     1     -15.901  28.045   4.027  1.00  0.00     0.013 C 
HETATM    8  C9  UNL     1     -15.893  26.774   4.807  1.00  0.00    -0.047 C 
HETATM    9  C10 UNL     1     -17.148  26.663   5.645  1.00  0.00     0.015 C 
HETATM   10  C11 UNL     1     -15.984  25.630   3.784  1.00  0.00     0.015 C 
HETATM   11  C12 UNL     1     -14.636  26.531   5.589  1.00  0.00     0.013 C 
ENDROOT
BRANCH   1  12
HETATM   12  N1  UNL     1     -12.007  30.002   3.411  1.00  0.00    -0.421 N 
HETATM   13  C1  UNL     1     -10.643  29.733   3.699  1.00  0.00     0.140 C 
ATOM     14  H1  UNL     1     -12.283  30.477   2.552  1.00  0.00     0.153 HD
ENDBRANCH   1  12
TORSDOF 1
ENDMDL
MODEL 2
REMARK VINA RESULT: -5.707404482      4.979      6.334
REMARK  1 active torsions:
REMARK  status: ('A' for Active; 'I' for Inactive)
REMARK    1  A    between atoms: N1_2  and  C2_4 
ROOT
HETATM    1  C2  UNL     1      -9.695  25.344   0.173  1.00  0.00     0.076 C 
HETATM    2  C3  UNL     1     -10.790  24.529   0.825  1.00  0.00     0.029 C 
HETATM    3  C4  UNL     1     -10.241  23.854   2.063  1.00  0.00    -0.012 C 
HETATM    4  C5  UNL     1      -8.921  24.491   2.519  1.00  0.00     0.009 C 
HETATM    5  C6  UNL     1      -9.192  25.981   2.521  1.00  0.00    -0.012 C 
HETATM    6  C7  UNL     1      -9.247  26.458   1.109  1.00  0.00     0.029 C 
HETATM    7  C8  UNL     1     -10.439  26.335   3.259  1.00  0.00     0.013 C 
HETATM    8  C9  UNL     1     -11.074  25.213   4.009  1.00  0.00    -0.047 C 
HETATM    9  C10 UNL     1     -10.429  25.057   5.369  1.00  0.00     0.015 C 
HETATM   10  C11 UNL     1     -12.524  25.638   4.291  1.00  0.00     0.015 C 
HETATM   11  C12 UNL     1     -11.162  23.925   3.245  1.00  0.00     0.013 C 
ENDROOT
BRANCH   1  12
HETATM   12  N1  UNL     1     -10.082  25.839  -1.100  1.00  0.00    -0.421 N 
HETATM   13  C1  UNL     1     -11.295  25.352  -1.653  1.00  0.00     0.140 C 
ATOM     14  H1  UNL     1      -9.509  26.519  -1.598  1.00  0.00     0.153 HD
ENDBRANCH   1  12
TORSDOF 1
ENDMDL
MODEL 3
REMARK VINA RESULT: -5.677784744      5.093      6.849
REMARK  1 active torsions:
REMARK  status: ('A' for Active; 'I' for Inactive)
REMARK    1  A    between atoms: N1_2  and  C2_4 
ROOT
HETATM    1  C2  UNL     1     -10.528  24.752  -0.359  1.00  0.00     0.076 C 
HETATM    2  C3  UNL     1     -10.853  24.280   1.041  1.00  0.00     0.029 C 
HETATM    3  C4  UNL     1      -9.638  24.463   1.925  1.00  0.00    -0.012 C 
HETATM    4  C5  UNL     1      -8.615  25.417   1.293  1.00  0.00     0.009 C 
HETATM    5  C6  UNL     1      -9.426  26.618   0.856  1.00  0.00    -0.012 C 
HETATM    6  C7  UNL     1     -10.224  26.244  -0.348  1.00  0.00     0.029 C 
HETATM    7  C8  UNL     1     -10.304  27.142   1.942  1.00  0.00     0.013 C 
HETATM    8  C9  UNL     1     -10.087  26.531   3.285  1.00  0.00    -0.047 C 
HETATM    9  C10 UNL     1      -8.949  27.224   4.002  1.00  0.00     0.015 C 
HETATM   10  C11 UNL     1     -11.342  26.840   4.117  1.00  0.00     0.015 C 
HETATM   11  C12 UNL     1      -9.956  25.036   3.273  1.00  0.00     0.013 C 
ENDROOT
BRANCH   1  12
HETATM   12  N1  UNL     1     -11.552  24.422  -1.285  1.00  0.00    -0.421 N 
HETATM   13  C1  UNL     1     -12.119  25.481  -2.042  1.00  0.00     0.140 C 
ATOM     14  H1  UNL     1     -11.868  23.460  -1.402  1.00  0.00     0.153 HD
ENDBRANCH   1  12
TORSDOF 1
ENDMDL
MODEL 4
REMARK VINA RESULT: -5.584560575      6.065      7.913
REMARK  1 active torsions:
REMARK  status: ('A' for Active; 'I' for Inactive)
REMARK    1  A    between atoms: N1_2  and  C2_4 
ROOT
HETATM    1  C2  UNL     1     -10.472  26.042  -0.016  1.00  0.00     0.076 C 
HETATM    2  C3  UNL     1      -9.963  27.358   0.530  1.00  0.00     0.029 C 
HETATM    3  C4  UNL     1      -9.699  27.215   2.014  1.00  0.00    -0.012 C 
HETATM    4  C5  UNL     1      -9.621  25.741   2.436  1.00  0.00     0.009 C 
HETATM    5  C6  UNL     1      -8.687  25.100   1.432  1.00  0.00    -0.012 C 
HETATM    6  C7  UNL     1      -9.402  24.968   0.130  1.00  0.00     0.029 C 
HETATM    7  C8  UNL     1      -7.411  25.858   1.272  1.00  0.00     0.013 C 
HETATM    8  C9  UNL     1      -7.206  26.969   2.245  1.00  0.00    -0.047 C 
HETATM    9  C10 UNL     1      -6.616  26.440   3.534  1.00  0.00     0.015 C 
HETATM   10  C11 UNL     1      -6.124  27.883   1.646  1.00  0.00     0.015 C 
HETATM   11  C12 UNL     1      -8.410  27.839   2.458  1.00  0.00     0.013 C 
ENDROOT
BRANCH   1  12
HETATM   12  N1  UNL     1     -10.931  26.160  -1.353  1.00  0.00    -0.421 N 
HETATM   13  C1  UNL     1     -11.842  25.179  -1.825  1.00  0.00     0.140 C 
ATOM     14  H1  UNL     1     -10.617  26.923  -1.954  1.00  0.00     0.153 HD
ENDBRANCH   1  12
TORSDOF 1
ENDMDL
MODEL 5
REMARK VINA RESULT: -5.539509402      5.651      7.667
REMARK  1 active torsions:
REMARK  status: ('A' for Active; 'I' for Inactive)
REMARK    1  A    between atoms: N1_2  and  C2_4 
ROOT
HETATM    1  C2  UNL     1     -10.594  25.098   0.775  1.00  0.00     0.076 C 
HETATM    2  C3  UNL     1      -9.863  26.352   0.348  1.00  0.00     0.029 C 
HETATM    3  C4  UNL     1      -9.822  27.326   1.506  1.00  0.00    -0.012 C 
HETATM    4  C5  UNL     1     -10.141  26.636   2.839  1.00  0.00     0.009 C 
HETATM    5  C6  UNL     1      -9.266  25.400   2.853  1.00  0.00    -0.012 C 
HETATM    6  C7  UNL     1      -9.829  24.405   1.894  1.00  0.00     0.029 C 
HETATM    7  C8  UNL     1      -7.840  25.704   2.538  1.00  0.00     0.013 C 
HETATM    8  C9  UNL     1      -7.502  27.154   2.462  1.00  0.00    -0.047 C 
HETATM    9  C10 UNL     1      -7.213  27.702   3.843  1.00  0.00     0.015 C 
HETATM   10  C11 UNL     1      -6.173  27.256   1.696  1.00  0.00     0.015 C 
HETATM   11  C12 UNL     1      -8.487  27.983   1.691  1.00  0.00     0.013 C 
ENDROOT
BRANCH   1  12
HETATM   12  N1  UNL     1     -10.847  24.228  -0.317  1.00  0.00    -0.421 N 
HETATM   13  C1  UNL     1     -11.408  24.794  -1.492  1.00  0.00     0.140 C 
ATOM     14  H1  UNL     1     -10.633  23.233  -0.260  1.00  0.00     0.153 HD
ENDBRANCH   1  12
TORSDOF 1
ENDMDL
