MODEL 1
REMARK VINA RESULT: -5.830119080      0.000      0.000
REMARK  2 active torsions:
REMARK  status: ('A' for Active; 'I' for Inactive)
REMARK    1  A    between atoms: C2_2  and  C3_3 
REMARK    2  A    between atoms: C7_7  and  N1_9 
ROOT
HETATM    1  C3  UNL     1     -16.363  26.881   4.560  1.00  0.00    -0.023 C 
HETATM    2  C4  UNL     1     -17.247  26.500   5.689  1.00  0.00     0.013 C 
HETATM    3  C5  UNL     1     -16.663  25.513   6.649  1.00  0.00     0.004 C 
HETATM    4  C6  UNL     1     -15.361  25.939   7.240  1.00  0.00     0.038 C 
HETATM    5  C7  UNL     1     -14.161  25.615   6.431  1.00  0.00     0.123 C 
HETATM    6  C8  UNL     1     -13.882  24.125   6.576  1.00  0.00     0.046 C 
HETATM    7  C9  UNL     1     -14.194  26.051   5.016  1.00  0.00     0.022 C 
HETATM    8  C10 UNL     1     -14.055  27.538   4.890  1.00  0.00     0.008 C 
HETATM    9  C11 UNL     1     -15.464  28.056   4.861  1.00  0.00     0.014 C 
HETATM   10  C12 UNL     1     -15.420  25.743   4.252  1.00  0.00     0.020 C 
ENDROOT
BRANCH   5  11
HETATM   11  N1  UNL     1     -13.015  26.296   7.053  1.00  0.00    -0.070 N 
ATOM     12  H13 UNL     1     -13.251  27.217   7.422  1.00  0.00     0.275 HD
ATOM     13  H12 UNL     1     -12.729  25.870   7.934  1.00  0.00     0.275 HD
ATOM     14  H11 UNL     1     -12.265  26.323   6.362  1.00  0.00     0.275 HD
ENDBRANCH   5  11
BRANCH   1  15
HETATM   15  C2  UNL     1     -17.196  27.250   3.391  1.00  0.00    -0.027 C 
HETATM   16  C1  UNL     1     -17.547  28.510   3.192  1.00  0.00     0.007 C 
ENDBRANCH   1  15
TORSDOF 2
ENDMDL
MODEL 2
REMARK VINA RESULT: -5.803576726      6.386      7.313
REMARK  2 active torsions:
REMARK  status: ('A' for Active; 'I' for Inactive)
REMARK    1  A    between atoms: C2_2  and  C3_3 
REMARK    2  A    between atoms: C7_7  and  N1_9 
ROOT
HETATM    1  C3  UNL     1      -9.824  25.540   0.483  1.00  0.00    -0.023 C 
HETATM    2  C4  UNL     1     -10.625  24.568   1.267  1.00  0.00     0.013 C 
HETATM    3  C5  UNL     1     -10.066  24.218   2.609  1.00  0.00     0.004 C 
HETATM    4  C6  UNL     1      -9.826  25.394   3.492  1.00  0.00     0.038 C 
HETATM    5  C7  UNL     1      -8.519  26.071   3.306  1.00  0.00     0.123 C 
HETATM    6  C8  UNL     1      -7.444  25.209   3.953  1.00  0.00     0.046 C 
HETATM    7  C9  UNL     1      -8.178  26.455   1.917  1.00  0.00     0.022 C 
HETATM    8  C10 UNL     1      -9.007  27.610   1.441  1.00  0.00     0.008 C 
HETATM    9  C11 UNL     1     -10.184  26.982   0.752  1.00  0.00     0.014 C 
HETATM   10  C12 UNL     1      -8.370  25.426   0.874  1.00  0.00     0.020 C 
ENDROOT
BRANCH   5  11
HETATM   11  N1  UNL     1      -8.553  27.316   4.089  1.00  0.00    -0.070 N 
ATOM     12  H13 UNL     1      -8.129  28.105   3.602  1.00  0.00     0.275 HD
ATOM     13  H12 UNL     1      -9.492  27.706   4.178  1.00  0.00     0.275 HD
ATOM     14  H11 UNL     1      -8.116  27.121   4.990  1.00  0.00     0.275 HD
ENDBRANCH   5  11
BRANCH   1  15
HETATM   15  C2  UNL     1     -10.036  25.295  -0.963  1.00  0.00    -0.027 C 
HETATM   16  C1  UNL     1     -11.200  24.841  -1.400  1.00  0.00     0.007 C 
ENDBRANCH   1  15
TORSDOF 2
ENDMDL
MODEL 3
REMARK VINA RESULT: -5.620624033      5.605      6.975
REMARK  2 active torsions:
REMARK  status: ('A' for Active; 'I' for Inactive)
REMARK    1  A    between atoms: C2_2  and  C3_3 
REMARK    2  A    between atoms: C7_7  and  N1_9 
ROOT
HETATM    1  C3  UNL     1      -9.632  25.751   0.886  1.00  0.00    -0.023 C 
HETATM    2  C4  UNL     1      -9.902  27.192   1.113  1.00  0.00     0.013 C 
HETATM    3  C5  UNL     1     -10.427  27.536   2.470  1.00  0.00     0.004 C 
HETATM    4  C6  UNL     1      -9.558  27.076   3.591  1.00  0.00     0.038 C 
HETATM    5  C7  UNL     1      -9.785  25.679   4.036  1.00  0.00     0.123 C 
HETATM    6  C8  UNL     1     -11.070  25.646   4.853  1.00  0.00     0.046 C 
HETATM    7  C9  UNL     1      -9.761  24.646   2.975  1.00  0.00     0.022 C 
HETATM    8  C10 UNL     1      -8.373  24.409   2.462  1.00  0.00     0.008 C 
HETATM    9  C11 UNL     1      -8.238  25.324   1.279  1.00  0.00     0.014 C 
HETATM   10  C12 UNL     1     -10.548  24.925   1.756  1.00  0.00     0.020 C 
ENDROOT
BRANCH   5  11
HETATM   11  N1  UNL     1      -8.708  25.337   4.978  1.00  0.00    -0.070 N 
ATOM     12  H13 UNL     1      -7.779  25.392   4.559  1.00  0.00     0.275 HD
ATOM     13  H12 UNL     1      -8.569  26.045   5.699  1.00  0.00     0.275 HD
ATOM     14  H11 UNL     1      -8.919  24.416   5.361  1.00  0.00     0.275 HD
ENDBRANCH   5  11
BRANCH   1  15
HETATM   15  C2  UNL     1      -9.799  25.443  -0.554  1.00  0.00    -0.027 C 
HETATM   16  C1  UNL     1     -10.859  24.771  -0.975  1.00  0.00     0.007 C 
ENDBRANCH   1  15
TORSDOF 2
ENDMDL
MODEL 4
REMARK VINA RESULT: -5.583280898      2.433      3.388
REMARK  2 active torsions:
REMARK  status: ('A' for Active; 'I' for Inactive)
REMARK    1  A    between atoms: C2_2  and  C3_3 
REMARK    2  A    between atoms: C7_7  and  N1_9 
ROOT
HETATM    1  C3  UNL     1     -15.068  28.171   4.929  1.00  0.00    -0.023 C 
HETATM    2  C4  UNL     1     -15.217  28.081   6.403  1.00  0.00     0.013 C 
HETATM    3  C5  UNL     1     -13.959  28.289   7.183  1.00  0.00     0.004 C 
HETATM    4  C6  UNL     1     -13.271  29.581   6.894  1.00  0.00     0.038 C 
HETATM    5  C7  UNL     1     -12.353  29.563   5.730  1.00  0.00     0.123 C 
HETATM    6  C8  UNL     1     -11.080  28.835   6.142  1.00  0.00     0.046 C 
HETATM    7  C9  UNL     1     -12.918  29.043   4.463  1.00  0.00     0.022 C 
HETATM    8  C10 UNL     1     -13.898  30.002   3.858  1.00  0.00     0.008 C 
HETATM    9  C11 UNL     1     -15.236  29.570   4.385  1.00  0.00     0.014 C 
HETATM   10  C12 UNL     1     -13.666  27.771   4.539  1.00  0.00     0.020 C 
ENDROOT
BRANCH   5  11
HETATM   11  N1  UNL     1     -11.947  30.953   5.469  1.00  0.00    -0.070 N 
ATOM     12  H13 UNL     1     -11.916  31.179   4.474  1.00  0.00     0.275 HD
ATOM     13  H12 UNL     1     -12.658  31.633   5.737  1.00  0.00     0.275 HD
ATOM     14  H11 UNL     1     -11.055  31.103   5.940  1.00  0.00     0.275 HD
ENDBRANCH   5  11
BRANCH   1  15
HETATM   15  C2  UNL     1     -16.094  27.319   4.282  1.00  0.00    -0.027 C 
HETATM   16  C1  UNL     1     -17.073  27.869   3.581  1.00  0.00     0.007 C 
ENDBRANCH   1  15
TORSDOF 2
ENDMDL
MODEL 5
REMARK VINA RESULT: -5.526597914      6.069      7.415
REMARK  2 active torsions:
REMARK  status: ('A' for Active; 'I' for Inactive)
REMARK    1  A    between atoms: C2_2  and  C3_3 
REMARK    2  A    between atoms: C7_7  and  N1_9 
ROOT
HETATM    1  C3  UNL     1     -10.176  24.851   2.403  1.00  0.00    -0.023 C 
HETATM    2  C4  UNL     1     -10.619  25.773   3.478  1.00  0.00     0.013 C 
HETATM    3  C5  UNL     1      -9.517  26.456   4.224  1.00  0.00     0.004 C 
HETATM    4  C6  UNL     1      -8.578  27.221   3.355  1.00  0.00     0.038 C 
HETATM    5  C7  UNL     1      -7.470  26.430   2.768  1.00  0.00     0.123 C 
HETATM    6  C8  UNL     1      -6.443  26.172   3.862  1.00  0.00     0.046 C 
HETATM    7  C9  UNL     1      -7.861  25.193   2.054  1.00  0.00     0.022 C 
HETATM    8  C10 UNL     1      -8.529  25.494   0.747  1.00  0.00     0.008 C 
HETATM    9  C11 UNL     1      -9.997  25.522   1.062  1.00  0.00     0.014 C 
HETATM   10  C12 UNL     1      -8.814  24.298   2.743  1.00  0.00     0.020 C 
ENDROOT
BRANCH   5  11
HETATM   11  N1  UNL     1      -6.792  27.286   1.782  1.00  0.00    -0.070 N 
ATOM     12  H13 UNL     1      -6.345  28.101   2.202  1.00  0.00     0.275 HD
ATOM     13  H12 UNL     1      -5.951  26.859   1.395  1.00  0.00     0.275 HD
ATOM     14  H11 UNL     1      -7.479  27.532   1.069  1.00  0.00     0.275 HD
ENDBRANCH   5  11
BRANCH   1  15
HETATM   15  C2  UNL     1     -11.188  23.782   2.230  1.00  0.00    -0.027 C 
HETATM   16  C1  UNL     1     -12.067  23.533   3.187  1.00  0.00     0.007 C 
ENDBRANCH   1  15
TORSDOF 2
ENDMDL
