MODEL 1
REMARK VINA RESULT: -5.480397176      0.000      0.000
REMARK  2 active torsions:
REMARK  status: ('A' for Active; 'I' for Inactive)
REMARK    1  A    between atoms: C2_2  and  C3_3 
REMARK    2  A    between atoms: C3_3  and  N1_4 
ROOT
HETATM    1  C1  UNL     1     -10.432  24.693   1.270  1.00  0.00     0.017 C 
HETATM    2  C2  UNL     1      -9.487  25.926   1.357  1.00  0.00    -0.020 C 
HETATM    3  C4  UNL     1      -8.150  25.417   1.052  1.00  0.00     0.011 C 
HETATM    4  C5  UNL     1      -6.952  26.167   1.381  1.00  0.00     0.006 C 
HETATM    5  C6  UNL     1      -6.861  26.965   2.599  1.00  0.00    -0.006 C 
HETATM    6  C7  UNL     1      -7.836  28.146   2.632  1.00  0.00     0.011 C 
HETATM    7  C8  UNL     1      -8.724  27.234   3.395  1.00  0.00    -0.005 C 
HETATM    8  C9  UNL     1      -9.774  26.531   2.653  1.00  0.00     0.016 C 
HETATM    9  C10 UNL     1      -7.536  26.472   3.826  1.00  0.00    -0.040 C 
HETATM   10  C11 UNL     1      -6.881  27.131   5.055  1.00  0.00     0.015 C 
HETATM   11  C12 UNL     1      -7.622  25.020   4.072  1.00  0.00     0.015 C 
ENDROOT
BRANCH   2  12
HETATM   12  C3  UNL     1     -10.025  26.740   0.164  1.00  0.00     0.238 C 
BRANCH  12  13
HETATM   13  N1  UNL     1     -10.015  25.962  -1.047  1.00  0.00    -0.079 N 
ATOM     14  H13 UNL     1      -9.580  25.051  -0.903  1.00  0.00     0.274 HD
ATOM     15  H12 UNL     1     -10.952  25.650  -1.301  1.00  0.00     0.274 HD
ATOM     16  H11 UNL     1      -9.571  26.472  -1.811  1.00  0.00     0.274 HD
ENDBRANCH  12  13
ENDBRANCH   2  12
TORSDOF 2
ENDMDL
MODEL 2
REMARK VINA RESULT: -5.398663235      1.775      3.927
REMARK  2 active torsions:
REMARK  status: ('A' for Active; 'I' for Inactive)
REMARK    1  A    between atoms: C2_2  and  C3_3 
REMARK    2  A    between atoms: C3_3  and  N1_4 
ROOT
HETATM    1  C1  UNL     1      -6.420  26.287   3.506  1.00  0.00     0.017 C 
HETATM    2  C2  UNL     1      -7.489  26.822   2.510  1.00  0.00    -0.020 C 
HETATM    3  C4  UNL     1      -8.675  27.098   3.318  1.00  0.00     0.011 C 
HETATM    4  C5  UNL     1      -9.988  27.264   2.721  1.00  0.00     0.006 C 
HETATM    5  C6  UNL     1     -10.405  26.476   1.566  1.00  0.00    -0.006 C 
HETATM    6  C7  UNL     1      -9.587  26.759   0.303  1.00  0.00     0.011 C 
HETATM    7  C8  UNL     1      -8.779  25.582   0.710  1.00  0.00    -0.005 C 
HETATM    8  C9  UNL     1      -7.534  25.832   1.438  1.00  0.00     0.016 C 
HETATM    9  C10 UNL     1      -9.943  25.069   1.459  1.00  0.00    -0.040 C 
HETATM   10  C11 UNL     1     -10.898  24.301   0.525  1.00  0.00     0.015 C 
HETATM   11  C12 UNL     1      -9.756  24.273   2.686  1.00  0.00     0.015 C 
ENDROOT
BRANCH   2  12
HETATM   12  C3  UNL     1      -6.810  28.144   2.100  1.00  0.00     0.238 C 
BRANCH  12  13
HETATM   13  N1  UNL     1      -5.671  27.906   1.253  1.00  0.00    -0.079 N 
ATOM     14  H13 UNL     1      -4.795  28.076   1.748  1.00  0.00     0.274 HD
ATOM     15  H12 UNL     1      -5.550  26.912   1.057  1.00  0.00     0.274 HD
ATOM     16  H11 UNL     1      -5.727  28.453   0.394  1.00  0.00     0.274 HD
ENDBRANCH  12  13
ENDBRANCH   2  12
TORSDOF 2
ENDMDL
MODEL 3
REMARK VINA RESULT: -5.345620283      1.780      3.826
REMARK  2 active torsions:
REMARK  status: ('A' for Active; 'I' for Inactive)
REMARK    1  A    between atoms: C2_2  and  C3_3 
REMARK    2  A    between atoms: C3_3  and  N1_4 
ROOT
HETATM    1  C1  UNL     1      -7.080  27.200   4.360  1.00  0.00     0.017 C 
HETATM    2  C2  UNL     1      -7.753  26.885   2.992  1.00  0.00    -0.020 C 
HETATM    3  C4  UNL     1      -9.021  27.613   3.002  1.00  0.00     0.011 C 
HETATM    4  C5  UNL     1     -10.093  27.296   2.076  1.00  0.00     0.006 C 
HETATM    5  C6  UNL     1     -10.367  25.922   1.668  1.00  0.00    -0.006 C 
HETATM    6  C7  UNL     1      -9.231  25.283   0.865  1.00  0.00     0.011 C 
HETATM    7  C8  UNL     1      -8.790  24.721   2.166  1.00  0.00    -0.005 C 
HETATM    8  C9  UNL     1      -7.732  25.430   2.889  1.00  0.00     0.016 C 
HETATM    9  C10 UNL     1     -10.177  24.833   2.660  1.00  0.00    -0.040 C 
HETATM   10  C11 UNL     1     -11.011  23.612   2.225  1.00  0.00     0.015 C 
HETATM   11  C12 UNL     1     -10.449  25.095   4.085  1.00  0.00     0.015 C 
ENDROOT
BRANCH   2  12
HETATM   12  C3  UNL     1      -6.751  27.585   2.053  1.00  0.00     0.238 C 
BRANCH  12  13
HETATM   13  N1  UNL     1      -5.897  26.630   1.395  1.00  0.00    -0.079 N 
ATOM     14  H13 UNL     1      -5.334  26.107   2.065  1.00  0.00     0.274 HD
ATOM     15  H12 UNL     1      -6.433  25.856   1.002  1.00  0.00     0.274 HD
ATOM     16  H11 UNL     1      -5.315  27.080   0.688  1.00  0.00     0.274 HD
ENDBRANCH  12  13
ENDBRANCH   2  12
TORSDOF 2
ENDMDL
MODEL 4
REMARK VINA RESULT: -5.322467061      1.058      2.542
REMARK  2 active torsions:
REMARK  status: ('A' for Active; 'I' for Inactive)
REMARK    1  A    between atoms: C2_2  and  C3_3 
REMARK    2  A    between atoms: C3_3  and  N1_4 
ROOT
HETATM    1  C1  UNL     1     -10.360  26.547  -0.152  1.00  0.00     0.017 C 
HETATM    2  C2  UNL     1      -9.953  25.645   1.049  1.00  0.00    -0.020 C 
HETATM    3  C4  UNL     1     -10.550  26.271   2.229  1.00  0.00     0.011 C 
HETATM    4  C5  UNL     1     -10.110  25.946   3.573  1.00  0.00     0.006 C 
HETATM    5  C6  UNL     1      -8.708  25.672   3.871  1.00  0.00    -0.006 C 
HETATM    6  C7  UNL     1      -8.171  24.411   3.189  1.00  0.00     0.011 C 
HETATM    7  C8  UNL     1      -7.681  25.336   2.137  1.00  0.00    -0.005 C 
HETATM    8  C9  UNL     1      -8.506  25.500   0.938  1.00  0.00     0.016 C 
HETATM    9  C10 UNL     1      -7.663  26.425   3.133  1.00  0.00    -0.040 C 
HETATM   10  C11 UNL     1      -6.357  26.395   3.951  1.00  0.00     0.015 C 
HETATM   11  C12 UNL     1      -7.923  27.819   2.729  1.00  0.00     0.015 C 
ENDROOT
BRANCH   2  12
HETATM   12  C3  UNL     1     -10.732  24.368   0.679  1.00  0.00     0.238 C 
BRANCH  12  13
HETATM   13  N1  UNL     1     -11.061  24.344  -0.723  1.00  0.00    -0.079 N 
ATOM     14  H13 UNL     1     -11.830  23.702  -0.916  1.00  0.00     0.274 HD
ATOM     15  H12 UNL     1     -11.505  25.214  -1.018  1.00  0.00     0.274 HD
ATOM     16  H11 UNL     1     -10.243  24.130  -1.292  1.00  0.00     0.274 HD
ENDBRANCH  12  13
ENDBRANCH   2  12
TORSDOF 2
ENDMDL
MODEL 5
REMARK VINA RESULT: -5.302175977      2.131      3.820
REMARK  2 active torsions:
REMARK  status: ('A' for Active; 'I' for Inactive)
REMARK    1  A    between atoms: C2_2  and  C3_3 
REMARK    2  A    between atoms: C3_3  and  N1_4 
ROOT
HETATM    1  C1  UNL     1      -8.715  28.681   1.448  1.00  0.00     0.017 C 
HETATM    2  C2  UNL     1      -8.670  27.451   2.400  1.00  0.00    -0.020 C 
HETATM    3  C4  UNL     1      -7.805  26.475   1.739  1.00  0.00     0.011 C 
HETATM    4  C5  UNL     1      -7.798  25.074   2.121  1.00  0.00     0.006 C 
HETATM    5  C6  UNL     1      -9.020  24.389   2.527  1.00  0.00    -0.006 C 
HETATM    6  C7  UNL     1      -9.628  24.933   3.823  1.00  0.00     0.011 C 
HETATM    7  C8  UNL     1     -10.484  25.756   2.932  1.00  0.00    -0.005 C 
HETATM    8  C9  UNL     1     -10.068  27.137   2.677  1.00  0.00     0.016 C 
HETATM    9  C10 UNL     1     -10.297  24.756   1.864  1.00  0.00    -0.040 C 
HETATM   10  C11 UNL     1     -11.295  23.592   2.025  1.00  0.00     0.015 C 
HETATM   11  C12 UNL     1     -10.286  25.162   0.446  1.00  0.00     0.015 C 
ENDROOT
BRANCH   2  12
HETATM   12  C3  UNL     1      -7.932  28.085   3.595  1.00  0.00     0.238 C 
BRANCH  12  13
HETATM   13  N1  UNL     1      -6.506  28.065   3.400  1.00  0.00    -0.079 N 
ATOM     14  H13 UNL     1      -6.156  27.113   3.298  1.00  0.00     0.274 HD
ATOM     15  H12 UNL     1      -6.248  28.426   2.481  1.00  0.00     0.274 HD
ATOM     16  H11 UNL     1      -6.023  28.564   4.147  1.00  0.00     0.274 HD
ENDBRANCH  12  13
ENDBRANCH   2  12
TORSDOF 2
ENDMDL
