MODEL 1
REMARK VINA RESULT: -6.805175019      0.000      0.000
REMARK  3 active torsions:
REMARK  status: ('A' for Active; 'I' for Inactive)
REMARK    1  A    between atoms: C9_10  and  C10_11 
REMARK    2  A    between atoms: C10_11  and  O3_13 
REMARK    3  A    between atoms: O3_13  and  C11_14 
ROOT
HETATM    1  C1  UNL     1     -17.202  25.201   3.100  1.00  0.00     0.044 C 
HETATM    2  C2  UNL     1     -16.438  26.356   3.610  1.00  0.00    -0.066 C 
HETATM    3  C3  UNL     1     -16.931  27.569   3.408  1.00  0.00     0.053 C 
HETATM    4  C4  UNL     1     -16.160  28.699   3.918  1.00  0.00     0.150 C 
HETATM    5  O1  UNL     1     -16.199  29.796   3.330  1.00  0.00    -0.293 OA
HETATM    6  C5  UNL     1     -15.327  28.559   5.139  1.00  0.00     0.093 C 
HETATM    7  C6  UNL     1     -15.254  27.095   5.575  1.00  0.00    -0.025 C 
HETATM    8  C7  UNL     1     -14.115  26.925   6.528  1.00  0.00     0.016 C 
HETATM    9  C8  UNL     1     -16.529  26.705   6.331  1.00  0.00     0.016 C 
HETATM   10  C9  UNL     1     -15.164  26.287   4.325  1.00  0.00     0.122 C 
ENDROOT
BRANCH  10  11
HETATM   11  C10 UNL     1     -14.630  24.941   4.518  1.00  0.00     0.268 C 
HETATM   12  O2  UNL     1     -15.164  24.221   5.398  1.00  0.00    -0.264 OA
BRANCH  11  13
HETATM   13  O3  UNL     1     -13.581  24.377   3.814  1.00  0.00    -0.311 OA
BRANCH  13  14
HETATM   14  C11 UNL     1     -12.256  24.441   4.268  1.00  0.00     0.060 C 
HETATM   15  C12 UNL     1     -11.397  23.733   3.218  1.00  0.00     0.045 C 
HETATM   16  C13 UNL     1     -11.767  25.888   4.315  1.00  0.00     0.045 C 
HETATM   17  C14 UNL     1     -12.028  23.744   5.568  1.00  0.00     0.045 C 
ENDBRANCH  13  14
ENDBRANCH  11  13
ENDBRANCH  10  11
TORSDOF 3
ENDMDL
MODEL 2
REMARK VINA RESULT: -6.664708923      0.103      1.024
REMARK  3 active torsions:
REMARK  status: ('A' for Active; 'I' for Inactive)
REMARK    1  A    between atoms: C9_10  and  C10_11 
REMARK    2  A    between atoms: C10_11  and  O3_13 
REMARK    3  A    between atoms: O3_13  and  C11_14 
ROOT
HETATM    1  C1  UNL     1     -17.127  25.191   3.139  1.00  0.00     0.044 C 
HETATM    2  C2  UNL     1     -16.363  26.338   3.667  1.00  0.00    -0.066 C 
HETATM    3  C3  UNL     1     -16.849  27.555   3.470  1.00  0.00     0.053 C 
HETATM    4  C4  UNL     1     -16.079  28.677   4.000  1.00  0.00     0.150 C 
HETATM    5  O1  UNL     1     -16.106  29.780   3.421  1.00  0.00    -0.293 OA
HETATM    6  C5  UNL     1     -15.261  28.523   5.229  1.00  0.00     0.093 C 
HETATM    7  C6  UNL     1     -15.199  27.054   5.653  1.00  0.00    -0.025 C 
HETATM    8  C7  UNL     1     -14.073  26.872   6.617  1.00  0.00     0.016 C 
HETATM    9  C8  UNL     1     -16.486  26.664   6.390  1.00  0.00     0.016 C 
HETATM   10  C9  UNL     1     -15.099  26.258   4.397  1.00  0.00     0.122 C 
ENDROOT
BRANCH  10  11
HETATM   11  C10 UNL     1     -14.573  24.908   4.584  1.00  0.00     0.268 C 
HETATM   12  O2  UNL     1     -15.077  24.206   5.496  1.00  0.00    -0.264 OA
BRANCH  11  13
HETATM   13  O3  UNL     1     -13.563  24.321   3.843  1.00  0.00    -0.311 OA
BRANCH  13  14
HETATM   14  C11 UNL     1     -12.208  24.475   4.172  1.00  0.00     0.060 C 
HETATM   15  C12 UNL     1     -11.992  23.740   5.497  1.00  0.00     0.045 C 
HETATM   16  C13 UNL     1     -11.317  23.776   3.146  1.00  0.00     0.045 C 
HETATM   17  C14 UNL     1     -11.794  25.893   4.381  1.00  0.00     0.045 C 
ENDBRANCH  13  14
ENDBRANCH  11  13
ENDBRANCH  10  11
TORSDOF 3
ENDMDL
MODEL 3
REMARK VINA RESULT: -6.447153817      4.807      6.895
REMARK  3 active torsions:
REMARK  status: ('A' for Active; 'I' for Inactive)
REMARK    1  A    between atoms: C9_10  and  C10_11 
REMARK    2  A    between atoms: C10_11  and  O3_13 
REMARK    3  A    between atoms: O3_13  and  C11_14 
ROOT
HETATM    1  C1  UNL     1      -9.790  25.269   0.022  1.00  0.00     0.044 C 
HETATM    2  C2  UNL     1     -10.264  25.151   1.414  1.00  0.00    -0.066 C 
HETATM    3  C3  UNL     1     -10.892  24.039   1.768  1.00  0.00     0.053 C 
HETATM    4  C4  UNL     1     -11.354  23.941   3.150  1.00  0.00     0.150 C 
HETATM    5  O1  UNL     1     -12.377  23.284   3.420  1.00  0.00    -0.293 OA
HETATM    6  C5  UNL     1     -10.614  24.616   4.246  1.00  0.00     0.093 C 
HETATM    7  C6  UNL     1      -9.528  25.530   3.678  1.00  0.00    -0.025 C 
HETATM    8  C7  UNL     1      -9.086  26.482   4.743  1.00  0.00     0.016 C 
HETATM    9  C8  UNL     1      -8.299  24.705   3.279  1.00  0.00     0.016 C 
HETATM   10  C9  UNL     1     -10.105  26.163   2.458  1.00  0.00     0.122 C 
ENDROOT
BRANCH  10  11
HETATM   11  C10 UNL     1      -9.428  27.387   2.040  1.00  0.00     0.268 C 
HETATM   12  O2  UNL     1     -10.057  28.469   2.148  1.00  0.00    -0.264 OA
BRANCH  11  13
HETATM   13  O3  UNL     1      -8.144  27.471   1.531  1.00  0.00    -0.311 OA
BRANCH  13  14
HETATM   14  C11 UNL     1      -7.203  28.387   2.021  1.00  0.00     0.060 C 
HETATM   15  C12 UNL     1      -5.841  27.955   1.471  1.00  0.00     0.045 C 
HETATM   16  C13 UNL     1      -7.464  29.785   1.465  1.00  0.00     0.045 C 
HETATM   17  C14 UNL     1      -7.092  28.402   3.509  1.00  0.00     0.045 C 
ENDBRANCH  13  14
ENDBRANCH  11  13
ENDBRANCH  10  11
TORSDOF 3
ENDMDL
MODEL 4
REMARK VINA RESULT: -6.186917326      5.710      7.533
REMARK  3 active torsions:
REMARK  status: ('A' for Active; 'I' for Inactive)
REMARK    1  A    between atoms: C9_10  and  C10_11 
REMARK    2  A    between atoms: C10_11  and  O3_13 
REMARK    3  A    between atoms: O3_13  and  C11_14 
ROOT
HETATM    1  C1  UNL     1     -10.236  27.204   3.469  1.00  0.00     0.044 C 
HETATM    2  C2  UNL     1      -9.352  28.103   2.703  1.00  0.00    -0.066 C 
HETATM    3  C3  UNL     1      -9.479  29.410   2.885  1.00  0.00     0.053 C 
HETATM    4  C4  UNL     1      -8.596  30.283   2.118  1.00  0.00     0.150 C 
HETATM    5  O1  UNL     1      -8.983  31.417   1.778  1.00  0.00    -0.293 OA
HETATM    6  C5  UNL     1      -7.233  29.836   1.736  1.00  0.00     0.093 C 
HETATM    7  C6  UNL     1      -7.042  28.354   2.063  1.00  0.00    -0.025 C 
HETATM    8  C7  UNL     1      -5.852  27.840   1.318  1.00  0.00     0.016 C 
HETATM    9  C8  UNL     1      -6.744  28.178   3.556  1.00  0.00     0.016 C 
HETATM   10  C9  UNL     1      -8.333  27.682   1.742  1.00  0.00     0.122 C 
ENDROOT
BRANCH  10  11
HETATM   11  C10 UNL     1      -8.224  26.239   1.543  1.00  0.00     0.268 C 
HETATM   12  O2  UNL     1      -7.788  25.549   2.496  1.00  0.00    -0.264 OA
BRANCH  11  13
HETATM   13  O3  UNL     1      -8.562  25.553   0.390  1.00  0.00    -0.311 OA
BRANCH  13  14
HETATM   14  C11 UNL     1      -9.894  25.367  -0.007  1.00  0.00     0.060 C 
HETATM   15  C12 UNL     1      -9.858  24.518  -1.280  1.00  0.00     0.045 C 
HETATM   16  C13 UNL     1     -10.662  24.550   1.030  1.00  0.00     0.045 C 
HETATM   17  C14 UNL     1     -10.607  26.634  -0.342  1.00  0.00     0.045 C 
ENDBRANCH  13  14
ENDBRANCH  11  13
ENDBRANCH  10  11
TORSDOF 3
ENDMDL
MODEL 5
REMARK VINA RESULT: -6.177205905      4.870      7.095
REMARK  3 active torsions:
REMARK  status: ('A' for Active; 'I' for Inactive)
REMARK    1  A    between atoms: C9_10  and  C10_11 
REMARK    2  A    between atoms: C10_11  and  O3_13 
REMARK    3  A    between atoms: O3_13  and  C11_14 
ROOT
HETATM    1  C1  UNL     1      -9.585  25.287  -0.285  1.00  0.00     0.044 C 
HETATM    2  C2  UNL     1     -10.024  25.228   1.122  1.00  0.00    -0.066 C 
HETATM    3  C3  UNL     1     -10.822  24.234   1.486  1.00  0.00     0.053 C 
HETATM    4  C4  UNL     1     -11.247  24.192   2.882  1.00  0.00     0.150 C 
HETATM    5  O1  UNL     1     -12.357  23.715   3.182  1.00  0.00    -0.293 OA
HETATM    6  C5  UNL     1     -10.366  24.712   3.959  1.00  0.00     0.093 C 
HETATM    7  C6  UNL     1      -9.159  25.438   3.362  1.00  0.00    -0.025 C 
HETATM    8  C7  UNL     1      -8.525  26.282   4.421  1.00  0.00     0.016 C 
HETATM    9  C8  UNL     1      -8.104  24.422   2.910  1.00  0.00     0.016 C 
HETATM   10  C9  UNL     1      -9.660  26.180   2.171  1.00  0.00     0.122 C 
ENDROOT
BRANCH  10  11
HETATM   11  C10 UNL     1      -8.797  27.278   1.742  1.00  0.00     0.268 C 
HETATM   12  O2  UNL     1      -7.611  27.003   1.437  1.00  0.00    -0.264 OA
BRANCH  11  13
HETATM   13  O3  UNL     1      -9.168  28.606   1.637  1.00  0.00    -0.311 OA
BRANCH  13  14
HETATM   14  C11 UNL     1      -8.868  29.547   2.633  1.00  0.00     0.060 C 
HETATM   15  C12 UNL     1      -8.768  30.907   1.938  1.00  0.00     0.045 C 
HETATM   16  C13 UNL     1     -10.016  29.663   3.635  1.00  0.00     0.045 C 
HETATM   17  C14 UNL     1      -7.565  29.306   3.319  1.00  0.00     0.045 C 
ENDBRANCH  13  14
ENDBRANCH  11  13
ENDBRANCH  10  11
TORSDOF 3
ENDMDL
