MODEL 1
REMARK VINA RESULT: -7.605215131      0.000      0.000
REMARK  3 active torsions:
REMARK  status: ('A' for Active; 'I' for Inactive)
REMARK    1  A    between atoms: C2_3  and  C3_4 
REMARK    2  A    between atoms: C4_5  and  C5_6 
REMARK    3  A    between atoms: C9_14  and  C10_15 
ROOT
HETATM    1  N1  UNL     1      -9.494  28.535   1.020  1.00  0.00    -0.191 NA
HETATM    2  C1  UNL     1      -9.611  27.391   0.827  1.00  0.00     0.108 C 
HETATM    3  C2  UNL     1      -9.788  25.973   0.589  1.00  0.00     0.099 C 
HETATM    4  C9  UNL     1      -9.099  25.109   1.259  1.00  0.00     0.043 C 
ENDROOT
BRANCH   3   5
HETATM    5  C3  UNL     1     -10.730  25.512  -0.416  1.00  0.00    -0.049 C 
HETATM    6  C4  UNL     1     -11.543  25.139  -1.243  1.00  0.00    -0.041 C 
BRANCH   6   7
HETATM    7  C5  UNL     1     -12.519  24.705  -2.186  1.00  0.00     0.102 A 
HETATM    8  C6  UNL     1     -13.304  25.579  -2.938  1.00  0.00     0.126 A 
HETATM    9  N2  UNL     1     -14.208  25.130  -3.832  1.00  0.00    -0.371 N 
HETATM   10  C7  UNL     1     -14.380  23.798  -4.025  1.00  0.00     0.104 A 
ATOM     11  H2  UNL     1     -14.767  25.795  -4.366  1.00  0.00     0.164 HD
HETATM   12  C8  UNL     1     -13.605  22.900  -3.282  1.00  0.00     0.106 A 
HETATM   13  N3  UNL     1     -12.722  23.398  -2.407  1.00  0.00    -0.357 N 
ATOM     14  H3  UNL     1     -12.162  22.735  -1.871  1.00  0.00     0.166 HD
ENDBRANCH   6   7
ENDBRANCH   3   5
BRANCH   4  15
HETATM   15  C10 UNL     1      -8.098  25.402   2.287  1.00  0.00    -0.034 A 
HETATM   16  C11 UNL     1      -8.176  24.767   3.508  1.00  0.00     0.011 A 
HETATM   17  C12 UNL     1      -7.239  24.986   4.526  1.00  0.00     0.001 A 
HETATM   18  C13 UNL     1      -6.194  25.863   4.322  1.00  0.00     0.000 A 
HETATM   19  C14 UNL     1      -6.108  26.505   3.097  1.00  0.00     0.001 A 
HETATM   20  C15 UNL     1      -7.057  26.266   2.100  1.00  0.00     0.011 A 
ENDBRANCH   4  15
TORSDOF 3
ENDMDL
MODEL 2
REMARK VINA RESULT: -7.420754655      1.956      2.615
REMARK  3 active torsions:
REMARK  status: ('A' for Active; 'I' for Inactive)
REMARK    1  A    between atoms: C2_3  and  C3_4 
REMARK    2  A    between atoms: C4_5  and  C5_6 
REMARK    3  A    between atoms: C9_14  and  C10_15 
ROOT
HETATM    1  N1  UNL     1      -7.417  25.142   0.621  1.00  0.00    -0.191 NA
HETATM    2  C1  UNL     1      -8.437  25.683   0.465  1.00  0.00     0.108 C 
HETATM    3  C2  UNL     1      -9.702  26.353   0.238  1.00  0.00     0.099 C 
HETATM    4  C9  UNL     1      -9.975  27.456   0.855  1.00  0.00     0.043 C 
ENDROOT
BRANCH   3   5
HETATM    5  C3  UNL     1     -10.679  25.783  -0.672  1.00  0.00    -0.049 C 
HETATM    6  C4  UNL     1     -11.520  25.323  -1.424  1.00  0.00    -0.041 C 
BRANCH   6   7
HETATM    7  C5  UNL     1     -12.529  24.797  -2.282  1.00  0.00     0.102 A 
HETATM    8  C6  UNL     1     -13.378  25.594  -3.050  1.00  0.00     0.126 A 
HETATM    9  N2  UNL     1     -14.312  25.058  -3.862  1.00  0.00    -0.371 N 
HETATM   10  C7  UNL     1     -14.453  23.712  -3.952  1.00  0.00     0.104 A 
ATOM     11  H2  UNL     1     -14.917  25.669  -4.410  1.00  0.00     0.164 HD
HETATM   12  C8  UNL     1     -13.614  22.890  -3.191  1.00  0.00     0.106 A 
HETATM   13  N3  UNL     1     -12.703  23.473  -2.401  1.00  0.00    -0.357 N 
ATOM     14  H3  UNL     1     -12.097  22.865  -1.850  1.00  0.00     0.166 HD
ENDBRANCH   6   7
ENDBRANCH   3   5
BRANCH   4  15
HETATM   15  C10 UNL     1      -9.115  28.151   1.816  1.00  0.00    -0.034 A 
HETATM   16  C11 UNL     1      -8.410  29.264   1.411  1.00  0.00     0.011 A 
HETATM   17  C12 UNL     1      -7.588  29.988   2.285  1.00  0.00     0.001 A 
HETATM   18  C13 UNL     1      -7.464  29.591   3.600  1.00  0.00     0.000 A 
HETATM   19  C14 UNL     1      -8.170  28.472   4.015  1.00  0.00     0.001 A 
HETATM   20  C15 UNL     1      -8.983  27.771   3.121  1.00  0.00     0.011 A 
ENDBRANCH   4  15
TORSDOF 3
ENDMDL
MODEL 3
REMARK VINA RESULT: -7.205587873      1.682      2.029
REMARK  3 active torsions:
REMARK  status: ('A' for Active; 'I' for Inactive)
REMARK    1  A    between atoms: C2_3  and  C3_4 
REMARK    2  A    between atoms: C4_5  and  C5_6 
REMARK    3  A    between atoms: C9_14  and  C10_15 
ROOT
HETATM    1  N1  UNL     1     -10.012  24.044   2.710  1.00  0.00    -0.191 NA
HETATM    2  C1  UNL     1     -10.042  24.688   1.739  1.00  0.00     0.108 C 
HETATM    3  C2  UNL     1     -10.078  25.461   0.515  1.00  0.00     0.099 C 
HETATM    4  C9  UNL     1      -9.283  26.468   0.356  1.00  0.00     0.043 C 
ENDROOT
BRANCH   3   5
HETATM    5  C3  UNL     1     -11.019  25.120  -0.538  1.00  0.00    -0.049 C 
HETATM    6  C4  UNL     1     -11.829  24.850  -1.406  1.00  0.00    -0.041 C 
BRANCH   6   7
HETATM    7  C5  UNL     1     -12.804  24.540  -2.399  1.00  0.00     0.102 A 
HETATM    8  C6  UNL     1     -13.493  25.509  -3.129  1.00  0.00     0.126 A 
HETATM    9  N2  UNL     1     -14.399  25.175  -4.071  1.00  0.00    -0.371 N 
HETATM   10  C7  UNL     1     -14.667  23.872  -4.336  1.00  0.00     0.104 A 
ATOM     11  H2  UNL     1     -14.886  25.908  -4.587  1.00  0.00     0.164 HD
HETATM   12  C8  UNL     1     -13.989  22.881  -3.617  1.00  0.00     0.106 A 
HETATM   13  N3  UNL     1     -13.099  23.265  -2.692  1.00  0.00    -0.357 N 
ATOM     14  H3  UNL     1     -12.611  22.535  -2.173  1.00  0.00     0.166 HD
ENDBRANCH   6   7
ENDBRANCH   3   5
BRANCH   4  15
HETATM   15  C10 UNL     1      -8.295  26.957   1.321  1.00  0.00    -0.034 A 
HETATM   16  C11 UNL     1      -8.595  28.055   2.098  1.00  0.00     0.011 A 
HETATM   17  C12 UNL     1      -7.704  28.560   3.055  1.00  0.00     0.001 A 
HETATM   18  C13 UNL     1      -6.480  27.954   3.242  1.00  0.00     0.000 A 
HETATM   19  C14 UNL     1      -6.171  26.848   2.464  1.00  0.00     0.001 A 
HETATM   20  C15 UNL     1      -7.080  26.367   1.519  1.00  0.00     0.011 A 
ENDBRANCH   4  15
TORSDOF 3
ENDMDL
MODEL 4
REMARK VINA RESULT: -7.188080472      6.528      9.217
REMARK  3 active torsions:
REMARK  status: ('A' for Active; 'I' for Inactive)
REMARK    1  A    between atoms: C2_3  and  C3_4 
REMARK    2  A    between atoms: C4_5  and  C5_6 
REMARK    3  A    between atoms: C9_14  and  C10_15 
ROOT
HETATM    1  N1  UNL     1     -16.036  30.058   3.635  1.00  0.00    -0.191 NA
HETATM    2  C1  UNL     1     -15.108  29.438   3.970  1.00  0.00     0.108 C 
HETATM    3  C2  UNL     1     -13.940  28.673   4.357  1.00  0.00     0.099 C 
HETATM    4  C9  UNL     1     -14.073  27.491   4.864  1.00  0.00     0.043 C 
ENDROOT
BRANCH   3   5
HETATM    5  C3  UNL     1     -12.610  29.235   4.194  1.00  0.00    -0.049 C 
HETATM    6  C4  UNL     1     -11.494  29.692   4.030  1.00  0.00    -0.041 C 
BRANCH   6   7
HETATM    7  C5  UNL     1     -10.180  30.201   3.815  1.00  0.00     0.102 A 
HETATM    8  C6  UNL     1      -9.211  30.277   4.816  1.00  0.00     0.126 A 
HETATM    9  N2  UNL     1      -7.973  30.753   4.570  1.00  0.00    -0.371 N 
HETATM   10  C7  UNL     1      -7.634  31.175   3.326  1.00  0.00     0.104 A 
ATOM     11  H2  UNL     1      -7.288  30.795   5.324  1.00  0.00     0.164 HD
HETATM   12  C8  UNL     1      -8.588  31.110   2.304  1.00  0.00     0.106 A 
HETATM   13  N3  UNL     1      -9.803  30.630   2.601  1.00  0.00    -0.357 N 
ATOM     14  H3  UNL     1     -10.491  30.587   1.850  1.00  0.00     0.166 HD
ENDBRANCH   6   7
ENDBRANCH   3   5
BRANCH   4  15
HETATM   15  C10 UNL     1     -15.334  26.790   5.115  1.00  0.00    -0.034 A 
HETATM   16  C11 UNL     1     -15.901  26.037   4.109  1.00  0.00     0.011 A 
HETATM   17  C12 UNL     1     -17.094  25.324   4.289  1.00  0.00     0.001 A 
HETATM   18  C13 UNL     1     -17.740  25.361   5.507  1.00  0.00     0.000 A 
HETATM   19  C14 UNL     1     -17.175  26.115   6.525  1.00  0.00     0.001 A 
HETATM   20  C15 UNL     1     -15.984  26.815   6.316  1.00  0.00     0.011 A 
ENDBRANCH   4  15
TORSDOF 3
ENDMDL
MODEL 5
REMARK VINA RESULT: -7.114639718      7.611     11.109
REMARK  3 active torsions:
REMARK  status: ('A' for Active; 'I' for Inactive)
REMARK    1  A    between atoms: C2_3  and  C3_4 
REMARK    2  A    between atoms: C4_5  and  C5_6 
REMARK    3  A    between atoms: C9_14  and  C10_15 
ROOT
HETATM    1  N1  UNL     1     -13.620  30.701   2.230  1.00  0.00    -0.191 NA
HETATM    2  C1  UNL     1     -13.670  30.453   3.367  1.00  0.00     0.108 C 
HETATM    3  C2  UNL     1     -13.700  30.141   4.781  1.00  0.00     0.099 C 
HETATM    4  C9  UNL     1     -14.513  29.244   5.234  1.00  0.00     0.043 C 
ENDROOT
BRANCH   3   5
HETATM    5  C3  UNL     1     -12.828  30.845   5.705  1.00  0.00    -0.049 C 
HETATM    6  C4  UNL     1     -12.120  31.453   6.488  1.00  0.00    -0.041 C 
BRANCH   6   7
HETATM    7  C5  UNL     1     -11.315  32.190   7.404  1.00  0.00     0.102 A 
HETATM    8  C6  UNL     1     -11.519  32.183   8.785  1.00  0.00     0.126 A 
HETATM    9  N2  UNL     1     -10.727  32.883   9.622  1.00  0.00    -0.371 N 
HETATM   10  C7  UNL     1      -9.698  33.622   9.136  1.00  0.00     0.104 A 
ATOM     11  H2  UNL     1     -10.902  32.857  10.626  1.00  0.00     0.164 HD
HETATM   12  C8  UNL     1      -9.473  33.647   7.755  1.00  0.00     0.106 A 
HETATM   13  N3  UNL     1     -10.289  32.934   6.968  1.00  0.00    -0.357 N 
ATOM     14  H3  UNL     1     -10.117  32.959   5.963  1.00  0.00     0.166 HD
ENDBRANCH   6   7
ENDBRANCH   3   5
BRANCH   4  15
HETATM   15  C10 UNL     1     -15.469  28.460   4.448  1.00  0.00    -0.034 A 
HETATM   16  C11 UNL     1     -15.365  27.086   4.431  1.00  0.00     0.011 A 
HETATM   17  C12 UNL     1     -16.259  26.276   3.717  1.00  0.00     0.001 A 
HETATM   18  C13 UNL     1     -17.287  26.852   3.001  1.00  0.00     0.000 A 
HETATM   19  C14 UNL     1     -17.399  28.234   3.014  1.00  0.00     0.001 A 
HETATM   20  C15 UNL     1     -16.493  29.016   3.735  1.00  0.00     0.011 A 
ENDBRANCH   4  15
TORSDOF 3
ENDMDL
