MODEL 1
REMARK VINA RESULT: -5.546158588      0.000      0.000
REMARK  3 active torsions:
REMARK  status: ('A' for Active; 'I' for Inactive)
REMARK    1  A    between atoms: C4_5  and  C5_6 
REMARK       I    between atoms: N1_7  and  C6_9 
REMARK    2  A    between atoms: C6_9  and  O2_11 
REMARK    3  A    between atoms: O2_11  and  C7_12 
ROOT
HETATM    1  C5  UNL     1     -12.242  26.017   5.298  1.00  0.00     0.130 C 
HETATM    2  N1  UNL     1     -13.487  26.004   5.467  1.00  0.00    -0.310 N 
ATOM      3  H1  UNL     1     -13.796  26.490   6.309  1.00  0.00     0.170 HD
HETATM    4  C6  UNL     1     -14.526  25.452   4.719  1.00  0.00     0.365 C 
HETATM    5  O1  UNL     1     -14.827  24.220   4.674  1.00  0.00    -0.238 OA
ENDROOT
BRANCH   1   6
HETATM    6  C4  UNL     1     -11.588  25.381   4.158  1.00  0.00     0.091 A 
HETATM    7  S1  UNL     1     -11.649  23.750   3.680  1.00  0.00    -0.081 SA
HETATM    8  C3  UNL     1     -10.648  23.849   2.305  1.00  0.00     0.076 A 
HETATM    9  C2  UNL     1     -10.314  25.177   2.292  1.00  0.00     0.014 A 
HETATM   10  C1  UNL     1      -9.403  25.694   1.188  1.00  0.00     0.069 C 
HETATM   11  N2  UNL     1     -10.794  25.939   3.232  1.00  0.00    -0.348 N 
HETATM   12  C11 UNL     1     -10.499  27.401   3.323  1.00  0.00     0.156 C 
ENDBRANCH   1   6
BRANCH   4  13
HETATM   13  O2  UNL     1     -15.309  26.294   3.957  1.00  0.00    -0.294 OA
BRANCH  13  14
HETATM   14  C7  UNL     1     -16.686  26.463   4.026  1.00  0.00     0.061 C 
HETATM   15  C8  UNL     1     -17.507  25.545   3.185  1.00  0.00     0.046 C 
HETATM   16  C9  UNL     1     -17.176  26.425   5.466  1.00  0.00     0.046 C 
HETATM   17  C10 UNL     1     -16.977  27.893   3.542  1.00  0.00     0.046 C 
ENDBRANCH  13  14
ENDBRANCH   4  13
TORSDOF 3
ENDMDL
MODEL 2
REMARK VINA RESULT: -5.519272160      1.209      1.610
REMARK  3 active torsions:
REMARK  status: ('A' for Active; 'I' for Inactive)
REMARK    1  A    between atoms: C4_5  and  C5_6 
REMARK       I    between atoms: N1_7  and  C6_9 
REMARK    2  A    between atoms: C6_9  and  O2_11 
REMARK    3  A    between atoms: O2_11  and  C7_12 
ROOT
HETATM    1  C5  UNL     1     -12.950  26.512   5.942  1.00  0.00     0.130 C 
HETATM    2  N1  UNL     1     -14.077  25.979   5.792  1.00  0.00    -0.310 N 
ATOM      3  H1  UNL     1     -14.759  26.246   6.501  1.00  0.00     0.170 HD
HETATM    4  C6  UNL     1     -14.572  25.091   4.837  1.00  0.00     0.365 C 
HETATM    5  O1  UNL     1     -14.316  23.849   4.785  1.00  0.00    -0.238 OA
ENDROOT
BRANCH   1   6
HETATM    6  C4  UNL     1     -11.828  26.268   5.039  1.00  0.00     0.091 A 
HETATM    7  S1  UNL     1     -10.918  24.843   4.847  1.00  0.00    -0.081 SA
HETATM    8  C3  UNL     1      -9.845  25.387   3.641  1.00  0.00     0.076 A 
HETATM    9  C2  UNL     1     -10.263  26.677   3.448  1.00  0.00     0.014 A 
HETATM   10  C1  UNL     1      -9.543  27.538   2.420  1.00  0.00     0.069 C 
HETATM   11  N2  UNL     1     -11.264  27.109   4.161  1.00  0.00    -0.348 N 
HETATM   12  C11 UNL     1     -11.807  28.496   4.041  1.00  0.00     0.156 C 
ENDBRANCH   1   6
BRANCH   4  13
HETATM   13  O2  UNL     1     -15.412  25.577   3.859  1.00  0.00    -0.294 OA
BRANCH  13  14
HETATM   14  C7  UNL     1     -16.743  25.951   3.994  1.00  0.00     0.061 C 
HETATM   15  C8  UNL     1     -17.459  25.419   5.189  1.00  0.00     0.046 C 
HETATM   16  C9  UNL     1     -16.902  27.463   3.925  1.00  0.00     0.046 C 
HETATM   17  C10 UNL     1     -17.478  25.415   2.756  1.00  0.00     0.046 C 
ENDBRANCH  13  14
ENDBRANCH   4  13
TORSDOF 3
ENDMDL
MODEL 3
REMARK VINA RESULT: -5.517148532      0.245      1.028
REMARK  3 active torsions:
REMARK  status: ('A' for Active; 'I' for Inactive)
REMARK    1  A    between atoms: C4_5  and  C5_6 
REMARK       I    between atoms: N1_7  and  C6_9 
REMARK    2  A    between atoms: C6_9  and  O2_11 
REMARK    3  A    between atoms: O2_11  and  C7_12 
ROOT
HETATM    1  C5  UNL     1     -12.403  26.122   5.194  1.00  0.00     0.130 C 
HETATM    2  N1  UNL     1     -13.646  26.009   5.336  1.00  0.00    -0.310 N 
ATOM      3  H1  UNL     1     -14.025  26.559   6.107  1.00  0.00     0.170 HD
HETATM    4  C6  UNL     1     -14.604  25.274   4.640  1.00  0.00     0.365 C 
HETATM    5  O1  UNL     1     -14.787  24.022   4.739  1.00  0.00    -0.238 OA
ENDROOT
BRANCH   1   6
HETATM    6  C4  UNL     1     -11.655  25.421   4.153  1.00  0.00     0.091 A 
HETATM    7  S1  UNL     1     -11.675  23.763   3.773  1.00  0.00    -0.081 SA
HETATM    8  C3  UNL     1     -10.564  23.784   2.482  1.00  0.00     0.076 A 
HETATM    9  C2  UNL     1     -10.231  25.111   2.414  1.00  0.00     0.014 A 
HETATM   10  C1  UNL     1      -9.232  25.565   1.360  1.00  0.00     0.069 C 
HETATM   11  N2  UNL     1     -10.788  25.926   3.263  1.00  0.00    -0.348 N 
HETATM   12  C11 UNL     1     -10.503  27.392   3.288  1.00  0.00     0.156 C 
ENDBRANCH   1   6
BRANCH   4  13
HETATM   13  O2  UNL     1     -15.437  25.939   3.765  1.00  0.00    -0.294 OA
BRANCH  13  14
HETATM   14  C7  UNL     1     -16.770  26.278   3.958  1.00  0.00     0.061 C 
HETATM   15  C8  UNL     1     -17.347  25.955   5.295  1.00  0.00     0.046 C 
HETATM   16  C9  UNL     1     -17.022  27.741   3.624  1.00  0.00     0.046 C 
HETATM   17  C10 UNL     1     -17.579  25.485   2.919  1.00  0.00     0.046 C 
ENDBRANCH  13  14
ENDBRANCH   4  13
TORSDOF 3
ENDMDL
MODEL 4
REMARK VINA RESULT: -5.502966621      5.515      6.963
REMARK  3 active torsions:
REMARK  status: ('A' for Active; 'I' for Inactive)
REMARK    1  A    between atoms: C4_5  and  C5_6 
REMARK       I    between atoms: N1_7  and  C6_9 
REMARK    2  A    between atoms: C6_9  and  O2_11 
REMARK    3  A    between atoms: O2_11  and  C7_12 
ROOT
HETATM    1  C5  UNL     1      -7.817  29.385   1.580  1.00  0.00     0.130 C 
HETATM    2  N1  UNL     1      -8.856  28.769   1.239  1.00  0.00    -0.310 N 
ATOM      3  H1  UNL     1      -9.017  28.755   0.232  1.00  0.00     0.170 HD
HETATM    4  C6  UNL     1      -9.831  28.099   1.977  1.00  0.00     0.365 C 
HETATM    5  O1  UNL     1     -10.750  28.653   2.655  1.00  0.00    -0.238 OA
ENDROOT
BRANCH   1   6
HETATM    6  C4  UNL     1      -7.398  29.527   2.973  1.00  0.00     0.091 A 
HETATM    7  S1  UNL     1      -7.666  30.834   4.028  1.00  0.00    -0.081 SA
HETATM    8  C3  UNL     1      -6.880  30.214   5.407  1.00  0.00     0.076 A 
HETATM    9  C2  UNL     1      -6.442  28.995   4.960  1.00  0.00     0.014 A 
HETATM   10  C1  UNL     1      -5.669  28.098   5.916  1.00  0.00     0.069 C 
HETATM   11  N2  UNL     1      -6.710  28.662   3.730  1.00  0.00    -0.348 N 
HETATM   12  C11 UNL     1      -6.283  27.361   3.131  1.00  0.00     0.156 C 
ENDBRANCH   1   6
BRANCH   4  13
HETATM   13  O2  UNL     1      -9.820  26.721   1.986  1.00  0.00    -0.294 OA
BRANCH  13  14
HETATM   14  C7  UNL     1      -9.723  25.867   0.894  1.00  0.00     0.061 C 
HETATM   15  C8  UNL     1     -10.354  26.341  -0.371  1.00  0.00     0.046 C 
HETATM   16  C9  UNL     1      -8.279  25.464   0.635  1.00  0.00     0.046 C 
HETATM   17  C10 UNL     1     -10.438  24.566   1.290  1.00  0.00     0.046 C 
ENDBRANCH  13  14
ENDBRANCH   4  13
TORSDOF 3
ENDMDL
MODEL 5
REMARK VINA RESULT: -5.434858981      4.506      5.466
REMARK  3 active torsions:
REMARK  status: ('A' for Active; 'I' for Inactive)
REMARK    1  A    between atoms: C4_5  and  C5_6 
REMARK       I    between atoms: N1_7  and  C6_9 
REMARK    2  A    between atoms: C6_9  and  O2_11 
REMARK    3  A    between atoms: O2_11  and  C7_12 
ROOT
HETATM    1  C5  UNL     1      -8.878  30.184   2.216  1.00  0.00     0.130 C 
HETATM    2  N1  UNL     1      -9.715  30.588   3.062  1.00  0.00    -0.310 N 
ATOM      3  H1  UNL     1     -10.119  31.497   2.841  1.00  0.00     0.170 HD
HETATM    4  C6  UNL     1     -10.195  30.026   4.244  1.00  0.00     0.365 C 
HETATM    5  O1  UNL     1      -9.564  29.976   5.344  1.00  0.00    -0.238 OA
ENDROOT
BRANCH   1   6
HETATM    6  C4  UNL     1      -8.178  28.908   2.337  1.00  0.00     0.091 A 
HETATM    7  S1  UNL     1      -6.786  28.548   3.246  1.00  0.00    -0.081 SA
HETATM    8  C3  UNL     1      -6.640  26.899   2.848  1.00  0.00     0.076 A 
HETATM    9  C2  UNL     1      -7.707  26.713   2.010  1.00  0.00     0.014 A 
HETATM   10  C1  UNL     1      -7.942  25.332   1.414  1.00  0.00     0.069 C 
HETATM   11  N2  UNL     1      -8.475  27.735   1.760  1.00  0.00    -0.348 N 
HETATM   12  C11 UNL     1      -9.666  27.655   0.862  1.00  0.00     0.156 C 
ENDBRANCH   1   6
BRANCH   4  13
HETATM   13  O2  UNL     1     -11.457  29.473   4.245  1.00  0.00    -0.294 OA
BRANCH  13  14
HETATM   14  C7  UNL     1     -12.601  29.974   4.855  1.00  0.00     0.061 C 
HETATM   15  C8  UNL     1     -12.411  31.158   5.741  1.00  0.00     0.046 C 
HETATM   16  C9  UNL     1     -13.691  30.261   3.833  1.00  0.00     0.046 C 
HETATM   17  C10 UNL     1     -13.162  28.844   5.732  1.00  0.00     0.046 C 
ENDBRANCH  13  14
ENDBRANCH   4  13
TORSDOF 3
ENDMDL
