MODEL 1
REMARK VINA RESULT: -7.742313371      0.000      0.000
REMARK  3 active torsions:
REMARK  status: ('A' for Active; 'I' for Inactive)
REMARK    1  A    between atoms: C2_3  and  C3_4 
REMARK    2  A    between atoms: C4_5  and  C5_6 
REMARK    3  A    between atoms: C9_11  and  C10_12 
ROOT
HETATM    1  N1  UNL     1      -9.520  28.556   1.255  1.00  0.00    -0.191 NA
HETATM    2  C1  UNL     1      -9.647  27.438   0.921  1.00  0.00     0.108 C 
HETATM    3  C2  UNL     1      -9.830  26.075   0.531  1.00  0.00     0.099 C 
HETATM    4  C9  UNL     1      -9.116  25.135   1.100  1.00  0.00     0.043 C 
ENDROOT
BRANCH   3   5
HETATM    5  C3  UNL     1     -10.794  25.714  -0.495  1.00  0.00    -0.048 C 
HETATM    6  C4  UNL     1     -11.613  25.415  -1.336  1.00  0.00    -0.035 C 
BRANCH   6   7
HETATM    7  C5  UNL     1     -12.594  25.065  -2.316  1.00  0.00     0.128 A 
HETATM    8  C6  UNL     1     -13.101  23.814  -2.573  1.00  0.00     0.048 A 
HETATM    9  C7  UNL     1     -14.022  23.959  -3.604  1.00  0.00     0.028 A 
HETATM   10  C8  UNL     1     -14.022  25.310  -3.919  1.00  0.00     0.143 A 
HETATM   11  O1  UNL     1     -13.179  25.924  -3.151  1.00  0.00    -0.314 OA
ENDBRANCH   6   7
ENDBRANCH   3   5
BRANCH   4  12
HETATM   12  C10 UNL     1      -8.124  25.402   2.126  1.00  0.00    -0.034 A 
HETATM   13  C11 UNL     1      -7.070  26.271   1.923  1.00  0.00     0.013 A 
HETATM   14  C12 UNL     1      -6.171  26.504   2.946  1.00  0.00     0.023 A 
HETATM   15  C13 UNL     1      -6.280  25.899   4.189  1.00  0.00     0.044 A 
HETATM   16  C14 UNL     1      -5.303  26.178   5.233  1.00  0.00     0.099 C 
HETATM   17  C15 UNL     1      -7.326  25.039   4.396  1.00  0.00     0.023 A 
HETATM   18  N2  UNL     1      -4.524  26.408   6.043  1.00  0.00    -0.191 NA
HETATM   19  C16 UNL     1      -8.228  24.802   3.371  1.00  0.00     0.013 A 
ENDBRANCH   4  12
TORSDOF 3
ENDMDL
MODEL 2
REMARK VINA RESULT: -7.738408202      1.795      2.179
REMARK  3 active torsions:
REMARK  status: ('A' for Active; 'I' for Inactive)
REMARK    1  A    between atoms: C2_3  and  C3_4 
REMARK    2  A    between atoms: C4_5  and  C5_6 
REMARK    3  A    between atoms: C9_11  and  C10_12 
ROOT
HETATM    1  N1  UNL     1     -10.620  23.679   2.066  1.00  0.00    -0.191 NA
HETATM    2  C1  UNL     1     -10.647  24.397   1.138  1.00  0.00     0.108 C 
HETATM    3  C2  UNL     1     -10.667  25.247  -0.012  1.00  0.00     0.099 C 
HETATM    4  C9  UNL     1      -9.832  26.254  -0.088  1.00  0.00     0.043 C 
ENDROOT
BRANCH   3   5
HETATM    5  C3  UNL     1     -11.606  25.018  -1.097  1.00  0.00    -0.048 C 
HETATM    6  C4  UNL     1     -12.403  24.838  -1.991  1.00  0.00    -0.035 C 
BRANCH   6   7
HETATM    7  C5  UNL     1     -13.358  24.638  -3.036  1.00  0.00     0.128 A 
HETATM    8  C6  UNL     1     -13.869  23.440  -3.476  1.00  0.00     0.048 A 
HETATM    9  C7  UNL     1     -14.757  23.737  -4.504  1.00  0.00     0.028 A 
HETATM   10  C8  UNL     1     -14.733  25.118  -4.631  1.00  0.00     0.143 A 
HETATM   11  O1  UNL     1     -13.909  25.611  -3.763  1.00  0.00    -0.314 OA
ENDBRANCH   6   7
ENDBRANCH   3   5
BRANCH   4  12
HETATM   12  C10 UNL     1      -8.866  26.566   0.951  1.00  0.00    -0.034 A 
HETATM   13  C11 UNL     1      -7.650  25.919   1.045  1.00  0.00     0.013 A 
HETATM   14  C12 UNL     1      -6.761  26.276   2.040  1.00  0.00     0.023 A 
HETATM   15  C13 UNL     1      -7.036  27.272   2.965  1.00  0.00     0.044 A 
HETATM   16  C14 UNL     1      -6.065  27.609   3.998  1.00  0.00     0.099 C 
HETATM   17  C15 UNL     1      -8.241  27.918   2.875  1.00  0.00     0.023 A 
HETATM   18  N2  UNL     1      -5.290  27.860   4.805  1.00  0.00    -0.191 NA
HETATM   19  C16 UNL     1      -9.134  27.561   1.877  1.00  0.00     0.013 A 
ENDBRANCH   4  12
TORSDOF 3
ENDMDL
MODEL 3
REMARK VINA RESULT: -7.196607798      8.049     10.997
REMARK  3 active torsions:
REMARK  status: ('A' for Active; 'I' for Inactive)
REMARK    1  A    between atoms: C2_3  and  C3_4 
REMARK    2  A    between atoms: C4_5  and  C5_6 
REMARK    3  A    between atoms: C9_11  and  C10_12 
ROOT
HETATM    1  N1  UNL     1     -15.138  28.129   7.875  1.00  0.00    -0.191 NA
HETATM    2  C1  UNL     1     -14.544  28.724   7.056  1.00  0.00     0.108 C 
HETATM    3  C2  UNL     1     -13.836  29.478   6.068  1.00  0.00     0.099 C 
HETATM    4  C9  UNL     1     -14.124  29.317   4.800  1.00  0.00     0.043 C 
ENDROOT
BRANCH   3   5
HETATM    5  C3  UNL     1     -12.795  30.418   6.447  1.00  0.00    -0.048 C 
HETATM    6  C4  UNL     1     -11.919  31.186   6.777  1.00  0.00    -0.035 C 
BRANCH   6   7
HETATM    7  C5  UNL     1     -10.877  32.080   7.179  1.00  0.00     0.128 A 
HETATM    8  C6  UNL     1     -11.022  33.310   7.775  1.00  0.00     0.048 A 
HETATM    9  C7  UNL     1      -9.740  33.809   7.979  1.00  0.00     0.028 A 
HETATM   10  C8  UNL     1      -8.879  32.840   7.489  1.00  0.00     0.143 A 
HETATM   11  O1  UNL     1      -9.572  31.847   7.030  1.00  0.00    -0.314 OA
ENDBRANCH   6   7
ENDBRANCH   3   5
BRANCH   4  12
HETATM   12  C10 UNL     1     -15.141  28.394   4.327  1.00  0.00    -0.034 A 
HETATM   13  C11 UNL     1     -16.301  28.826   3.714  1.00  0.00     0.013 A 
HETATM   14  C12 UNL     1     -17.221  27.900   3.263  1.00  0.00     0.023 A 
HETATM   15  C13 UNL     1     -17.032  26.532   3.397  1.00  0.00     0.044 A 
HETATM   16  C14 UNL     1     -18.036  25.598   2.906  1.00  0.00     0.099 C 
HETATM   17  C15 UNL     1     -15.882  26.099   4.003  1.00  0.00     0.023 A 
HETATM   18  N2  UNL     1     -18.836  24.876   2.515  1.00  0.00    -0.191 NA
HETATM   19  C16 UNL     1     -14.958  27.026   4.457  1.00  0.00     0.013 A 
ENDBRANCH   4  12
TORSDOF 3
ENDMDL
MODEL 4
REMARK VINA RESULT: -7.161873623      2.189      2.404
REMARK  3 active torsions:
REMARK  status: ('A' for Active; 'I' for Inactive)
REMARK    1  A    between atoms: C2_3  and  C3_4 
REMARK    2  A    between atoms: C4_5  and  C5_6 
REMARK    3  A    between atoms: C9_11  and  C10_12 
ROOT
HETATM    1  N1  UNL     1      -7.702  25.012   0.321  1.00  0.00    -0.191 NA
HETATM    2  C1  UNL     1      -8.736  25.559   0.220  1.00  0.00     0.108 C 
HETATM    3  C2  UNL     1      -9.985  26.238   0.067  1.00  0.00     0.099 C 
HETATM    4  C9  UNL     1     -10.241  27.298   0.793  1.00  0.00     0.043 C 
ENDROOT
BRANCH   3   5
HETATM    5  C3  UNL     1     -10.982  25.766  -0.879  1.00  0.00    -0.048 C 
HETATM    6  C4  UNL     1     -11.829  25.380  -1.654  1.00  0.00    -0.035 C 
BRANCH   6   7
HETATM    7  C5  UNL     1     -12.843  24.931  -2.557  1.00  0.00     0.128 A 
HETATM    8  C6  UNL     1     -13.264  23.639  -2.757  1.00  0.00     0.048 A 
HETATM    9  C7  UNL     1     -14.261  23.688  -3.726  1.00  0.00     0.028 A 
HETATM   10  C8  UNL     1     -14.390  25.027  -4.062  1.00  0.00     0.143 A 
HETATM   11  O1  UNL     1     -13.550  25.723  -3.365  1.00  0.00    -0.314 OA
ENDBRANCH   6   7
ENDBRANCH   3   5
BRANCH   4  12
HETATM   12  C10 UNL     1      -9.310  27.836   1.770  1.00  0.00    -0.034 A 
HETATM   13  C11 UNL     1      -8.392  28.817   1.451  1.00  0.00     0.013 A 
HETATM   14  C12 UNL     1      -7.548  29.307   2.428  1.00  0.00     0.023 A 
HETATM   15  C13 UNL     1      -7.581  28.854   3.739  1.00  0.00     0.044 A 
HETATM   16  C14 UNL     1      -6.667  29.403   4.732  1.00  0.00     0.099 C 
HETATM   17  C15 UNL     1      -8.491  27.882   4.061  1.00  0.00     0.023 A 
HETATM   18  N2  UNL     1      -5.939  29.845   5.500  1.00  0.00    -0.191 NA
HETATM   19  C16 UNL     1      -9.338  27.389   3.081  1.00  0.00     0.013 A 
ENDBRANCH   4  12
TORSDOF 3
ENDMDL
MODEL 5
REMARK VINA RESULT: -7.152700777      1.091      1.223
REMARK  3 active torsions:
REMARK  status: ('A' for Active; 'I' for Inactive)
REMARK    1  A    between atoms: C2_3  and  C3_4 
REMARK    2  A    between atoms: C4_5  and  C5_6 
REMARK    3  A    between atoms: C9_11  and  C10_12 
ROOT
HETATM    1  N1  UNL     1      -9.422  27.827   0.475  1.00  0.00    -0.191 NA
HETATM    2  C1  UNL     1      -9.881  26.749   0.398  1.00  0.00     0.108 C 
HETATM    3  C2  UNL     1     -10.470  25.448   0.313  1.00  0.00     0.099 C 
HETATM    4  C9  UNL     1     -10.175  24.543   1.213  1.00  0.00     0.043 C 
ENDROOT
BRANCH   3   5
HETATM    5  C3  UNL     1     -11.388  25.111  -0.762  1.00  0.00    -0.048 C 
HETATM    6  C4  UNL     1     -12.167  24.822  -1.643  1.00  0.00    -0.035 C 
BRANCH   6   7
HETATM    7  C5  UNL     1     -13.099  24.474  -2.670  1.00  0.00     0.128 A 
HETATM    8  C6  UNL     1     -13.539  23.215  -3.000  1.00  0.00     0.048 A 
HETATM    9  C7  UNL     1     -14.433  23.367  -4.055  1.00  0.00     0.028 A 
HETATM   10  C8  UNL     1     -14.485  24.729  -4.308  1.00  0.00     0.143 A 
HETATM   11  O1  UNL     1     -13.696  25.344  -3.485  1.00  0.00    -0.314 OA
ENDBRANCH   6   7
ENDBRANCH   3   5
BRANCH   4  12
HETATM   12  C10 UNL     1      -9.261  24.787   2.316  1.00  0.00    -0.034 A 
HETATM   13  C11 UNL     1      -7.901  24.930   2.128  1.00  0.00     0.013 A 
HETATM   14  C12 UNL     1      -7.084  25.185   3.212  1.00  0.00     0.023 A 
HETATM   15  C13 UNL     1      -7.575  25.309   4.504  1.00  0.00     0.044 A 
HETATM   16  C14 UNL     1      -6.670  25.576   5.614  1.00  0.00     0.099 C 
HETATM   17  C15 UNL     1      -8.924  25.170   4.695  1.00  0.00     0.023 A 
HETATM   18  N2  UNL     1      -5.944  25.785   6.476  1.00  0.00    -0.191 NA
HETATM   19  C16 UNL     1      -9.745  24.913   3.608  1.00  0.00     0.013 A 
ENDBRANCH   4  12
TORSDOF 3
ENDMDL
