MODEL 1
REMARK VINA RESULT: -6.568428407      0.000      0.000
REMARK  5 active torsions:
REMARK  status: ('A' for Active; 'I' for Inactive)
REMARK    1  A    between atoms: C2_2  and  C4_4 
REMARK    2  A    between atoms: C4_4  and  C5_5 
REMARK    3  A    between atoms: C6_6  and  N1_7 
REMARK       I    between atoms: N1_7  and  C7_9 
REMARK    4  A    between atoms: C7_9  and  C8_11 
REMARK    5  A    between atoms: N2_18  and  C13_19 
ROOT
HETATM    1  C5  UNL     1      -8.228  28.748   3.261  1.00  0.00     0.139 C 
HETATM    2  C6  UNL     1      -8.738  28.662   1.883  1.00  0.00     0.257 C 
HETATM    3  O2  UNL     1      -7.558  29.220   1.183  1.00  0.00    -0.276 OA
HETATM    4  C12 UNL     1      -6.531  28.509   1.787  1.00  0.00     0.365 C 
HETATM    5  O3  UNL     1      -5.452  28.224   1.186  1.00  0.00    -0.238 OA
HETATM    6  N2  UNL     1      -6.899  28.173   3.149  1.00  0.00    -0.314 N 
ENDROOT
BRANCH   2   7
HETATM    7  N1  UNL     1      -8.741  27.250   1.458  1.00  0.00    -0.332 N 
HETATM    8  C7  UNL     1      -9.872  26.764   0.737  1.00  0.00     0.227 C 
HETATM    9  O1  UNL     1     -10.838  27.509   0.468  1.00  0.00    -0.273 OA
ATOM     10  H1  UNL     1      -7.956  26.636   1.675  1.00  0.00     0.165 HD
BRANCH   8  11
HETATM   11  C8  UNL     1      -9.915  25.347   0.291  1.00  0.00     0.030 C 
HETATM   12  C9  UNL     1     -10.507  24.471   1.364  1.00  0.00     0.024 C 
HETATM   13  C10 UNL     1      -8.504  24.884   0.020  1.00  0.00     0.024 C 
HETATM   14  C11 UNL     1     -10.788  25.189  -0.943  1.00  0.00     0.024 C 
ENDBRANCH   8  11
ENDBRANCH   2   7
BRANCH   1  15
HETATM   15  C4  UNL     1      -9.061  28.205   4.320  1.00  0.00     0.033 C 
BRANCH  15  16
HETATM   16  C2  UNL     1     -10.531  28.307   4.125  1.00  0.00    -0.021 C 
HETATM   17  C1  UNL     1     -11.122  29.266   5.194  1.00  0.00     0.009 C 
HETATM   18  C3  UNL     1     -11.308  27.059   4.253  1.00  0.00     0.009 C 
ENDBRANCH  15  16
ENDBRANCH   1  15
BRANCH   6  19
HETATM   19  C13 UNL     1      -6.026  27.468   4.016  1.00  0.00     0.090 C 
HETATM   20  C14 UNL     1      -5.615  28.251   5.246  1.00  0.00     0.025 C 
HETATM   21  C15 UNL     1      -4.337  27.574   5.765  1.00  0.00     0.002 C 
HETATM   22  C16 UNL     1      -4.558  26.130   6.084  1.00  0.00     0.000 C 
HETATM   23  C17 UNL     1      -5.255  25.371   4.978  1.00  0.00     0.002 C 
HETATM   24  C18 UNL     1      -6.486  26.115   4.485  1.00  0.00     0.025 C 
ENDBRANCH   6  19
TORSDOF 5
ENDMDL
MODEL 2
REMARK VINA RESULT: -6.516585740      2.762      5.144
REMARK  5 active torsions:
REMARK  status: ('A' for Active; 'I' for Inactive)
REMARK    1  A    between atoms: C2_2  and  C4_4 
REMARK    2  A    between atoms: C4_4  and  C5_5 
REMARK    3  A    between atoms: C6_6  and  N1_7 
REMARK       I    between atoms: N1_7  and  C7_9 
REMARK    4  A    between atoms: C7_9  and  C8_11 
REMARK    5  A    between atoms: N2_18  and  C13_19 
ROOT
HETATM    1  C5  UNL     1      -9.456  25.381   1.381  1.00  0.00     0.139 C 
HETATM    2  C6  UNL     1      -9.824  24.321   2.335  1.00  0.00     0.257 C 
HETATM    3  O2  UNL     1      -8.501  24.145   2.978  1.00  0.00    -0.276 OA
HETATM    4  C12 UNL     1      -8.147  25.464   3.222  1.00  0.00     0.365 C 
HETATM    5  O3  UNL     1      -7.417  25.805   4.200  1.00  0.00    -0.238 OA
HETATM    6  N2  UNL     1      -8.732  26.326   2.213  1.00  0.00    -0.314 N 
ENDROOT
BRANCH   2   7
HETATM    7  N1  UNL     1     -10.643  24.906   3.412  1.00  0.00    -0.332 N 
HETATM    8  C7  UNL     1     -11.854  24.244   3.776  1.00  0.00     0.227 C 
HETATM    9  O1  UNL     1     -12.216  23.196   3.201  1.00  0.00    -0.273 OA
ATOM     10  H1  UNL     1     -10.353  25.762   3.885  1.00  0.00     0.165 HD
BRANCH   8  11
HETATM   11  C8  UNL     1     -12.709  24.801   4.856  1.00  0.00     0.030 C 
HETATM   12  C9  UNL     1     -12.524  26.293   4.964  1.00  0.00     0.024 C 
HETATM   13  C10 UNL     1     -12.300  24.173   6.166  1.00  0.00     0.024 C 
HETATM   14  C11 UNL     1     -14.181  24.555   4.568  1.00  0.00     0.024 C 
ENDBRANCH   8  11
ENDBRANCH   2   7
BRANCH   1  15
HETATM   15  C4  UNL     1     -10.516  25.945   0.565  1.00  0.00     0.033 C 
BRANCH  15  16
HETATM   16  C2  UNL     1     -10.435  25.688  -0.897  1.00  0.00    -0.021 C 
HETATM   17  C1  UNL     1     -11.751  26.165  -1.572  1.00  0.00     0.009 C 
HETATM   18  C3  UNL     1     -10.272  24.283  -1.319  1.00  0.00     0.009 C 
ENDBRANCH  15  16
ENDBRANCH   1  15
BRANCH   6  19
HETATM   19  C13 UNL     1      -8.515  27.727   2.197  1.00  0.00     0.090 C 
HETATM   20  C14 UNL     1      -8.969  28.435   3.457  1.00  0.00     0.025 C 
HETATM   21  C15 UNL     1      -9.130  29.913   3.071  1.00  0.00     0.002 C 
HETATM   22  C16 UNL     1      -7.858  30.496   2.544  1.00  0.00     0.000 C 
HETATM   23  C17 UNL     1      -7.205  29.646   1.477  1.00  0.00     0.002 C 
HETATM   24  C18 UNL     1      -7.114  28.191   1.907  1.00  0.00     0.025 C 
ENDBRANCH   6  19
TORSDOF 5
ENDMDL
MODEL 3
REMARK VINA RESULT: -6.435319785      2.172      5.719
REMARK  5 active torsions:
REMARK  status: ('A' for Active; 'I' for Inactive)
REMARK    1  A    between atoms: C2_2  and  C4_4 
REMARK    2  A    between atoms: C4_4  and  C5_5 
REMARK    3  A    between atoms: C6_6  and  N1_7 
REMARK       I    between atoms: N1_7  and  C7_9 
REMARK    4  A    between atoms: C7_9  and  C8_11 
REMARK    5  A    between atoms: N2_18  and  C13_19 
ROOT
HETATM    1  C5  UNL     1      -8.076  24.975   3.412  1.00  0.00     0.139 C 
HETATM    2  C6  UNL     1      -7.557  25.971   2.460  1.00  0.00     0.257 C 
HETATM    3  O2  UNL     1      -8.224  25.465   1.238  1.00  0.00    -0.276 OA
HETATM    4  C12 UNL     1      -9.520  25.282   1.700  1.00  0.00     0.365 C 
HETATM    5  O3  UNL     1     -10.535  25.399   0.950  1.00  0.00    -0.238 OA
HETATM    6  N2  UNL     1      -9.497  24.953   3.112  1.00  0.00    -0.314 N 
ENDROOT
BRANCH   2   7
HETATM    7  N1  UNL     1      -8.229  27.261   2.698  1.00  0.00    -0.332 N 
HETATM    8  C7  UNL     1      -7.420  28.426   2.855  1.00  0.00     0.227 C 
HETATM    9  O1  UNL     1      -6.173  28.362   2.793  1.00  0.00    -0.273 OA
ATOM     10  H1  UNL     1      -9.246  27.320   2.751  1.00  0.00     0.165 HD
BRANCH   8  11
HETATM   11  C8  UNL     1      -8.057  29.746   3.097  1.00  0.00     0.030 C 
HETATM   12  C9  UNL     1      -7.468  30.403   4.318  1.00  0.00     0.024 C 
HETATM   13  C10 UNL     1      -9.533  29.532   3.334  1.00  0.00     0.024 C 
HETATM   14  C11 UNL     1      -7.823  30.688   1.928  1.00  0.00     0.024 C 
ENDBRANCH   8  11
ENDBRANCH   2   7
BRANCH   1  15
HETATM   15  C4  UNL     1      -7.732  25.143   4.813  1.00  0.00     0.033 C 
BRANCH  15  16
HETATM   16  C2  UNL     1      -6.300  25.405   5.117  1.00  0.00    -0.021 C 
HETATM   17  C1  UNL     1      -5.770  24.296   6.067  1.00  0.00     0.009 C 
HETATM   18  C3  UNL     1      -5.984  26.677   5.795  1.00  0.00     0.009 C 
ENDBRANCH  15  16
ENDBRANCH   1  15
BRANCH   6  19
HETATM   19  C13 UNL     1     -10.681  24.685   3.845  1.00  0.00     0.090 C 
HETATM   20  C14 UNL     1     -11.512  25.916   4.143  1.00  0.00     0.025 C 
HETATM   21  C15 UNL     1     -12.422  25.532   5.320  1.00  0.00     0.002 C 
HETATM   22  C16 UNL     1     -13.284  24.353   5.000  1.00  0.00     0.000 C 
HETATM   23  C17 UNL     1     -12.518  23.192   4.406  1.00  0.00     0.002 C 
HETATM   24  C18 UNL     1     -11.610  23.648   3.275  1.00  0.00     0.025 C 
ENDBRANCH   6  19
TORSDOF 5
ENDMDL
MODEL 4
REMARK VINA RESULT: -6.412497504      0.662      1.351
REMARK  5 active torsions:
REMARK  status: ('A' for Active; 'I' for Inactive)
REMARK    1  A    between atoms: C2_2  and  C4_4 
REMARK    2  A    between atoms: C4_4  and  C5_5 
REMARK    3  A    between atoms: C6_6  and  N1_7 
REMARK       I    between atoms: N1_7  and  C7_9 
REMARK    4  A    between atoms: C7_9  and  C8_11 
REMARK    5  A    between atoms: N2_18  and  C13_19 
ROOT
HETATM    1  C5  UNL     1      -8.274  28.779   3.331  1.00  0.00     0.139 C 
HETATM    2  C6  UNL     1      -8.827  28.653   1.972  1.00  0.00     0.257 C 
HETATM    3  O2  UNL     1      -7.679  29.215   1.223  1.00  0.00    -0.276 OA
HETATM    4  C12 UNL     1      -6.621  28.534   1.808  1.00  0.00     0.365 C 
HETATM    5  O3  UNL     1      -5.558  28.253   1.178  1.00  0.00    -0.238 OA
HETATM    6  N2  UNL     1      -6.940  28.223   3.188  1.00  0.00    -0.314 N 
ENDROOT
BRANCH   2   7
HETATM    7  N1  UNL     1      -8.820  27.233   1.578  1.00  0.00    -0.332 N 
HETATM    8  C7  UNL     1      -9.873  26.758   0.741  1.00  0.00     0.227 C 
HETATM    9  O1  UNL     1     -10.781  27.521   0.347  1.00  0.00    -0.273 OA
ATOM     10  H1  UNL     1      -8.082  26.604   1.897  1.00  0.00     0.165 HD
BRANCH   8  11
HETATM   11  C8  UNL     1      -9.904  25.333   0.322  1.00  0.00     0.030 C 
HETATM   12  C9  UNL     1     -10.784  25.155  -0.888  1.00  0.00     0.024 C 
HETATM   13  C10 UNL     1     -10.474  24.511   1.453  1.00  0.00     0.024 C 
HETATM   14  C11 UNL     1      -8.516  24.846  -0.061  1.00  0.00     0.024 C 
ENDBRANCH   8  11
ENDBRANCH   2   7
BRANCH   1  15
HETATM   15  C4  UNL     1      -9.063  28.247   4.428  1.00  0.00     0.033 C 
BRANCH  15  16
HETATM   16  C2  UNL     1      -9.574  29.232   5.417  1.00  0.00    -0.021 C 
HETATM   17  C1  UNL     1     -10.879  29.873   4.871  1.00  0.00     0.009 C 
HETATM   18  C3  UNL     1      -8.691  30.369   5.741  1.00  0.00     0.009 C 
ENDBRANCH  15  16
ENDBRANCH   1  15
BRANCH   6  19
HETATM   19  C13 UNL     1      -6.028  27.551   4.042  1.00  0.00     0.090 C 
HETATM   20  C14 UNL     1      -5.604  28.361   5.249  1.00  0.00     0.025 C 
HETATM   21  C15 UNL     1      -4.297  27.723   5.744  1.00  0.00     0.002 C 
HETATM   22  C16 UNL     1      -4.475  26.279   6.088  1.00  0.00     0.000 C 
HETATM   23  C17 UNL     1      -5.181  25.487   5.011  1.00  0.00     0.002 C 
HETATM   24  C18 UNL     1      -6.442  26.194   4.540  1.00  0.00     0.025 C 
ENDBRANCH   6  19
TORSDOF 5
ENDMDL
MODEL 5
REMARK VINA RESULT: -6.355212988      1.715      5.759
REMARK  5 active torsions:
REMARK  status: ('A' for Active; 'I' for Inactive)
REMARK    1  A    between atoms: C2_2  and  C4_4 
REMARK    2  A    between atoms: C4_4  and  C5_5 
REMARK    3  A    between atoms: C6_6  and  N1_7 
REMARK       I    between atoms: N1_7  and  C7_9 
REMARK    4  A    between atoms: C7_9  and  C8_11 
REMARK    5  A    between atoms: N2_18  and  C13_19 
ROOT
HETATM    1  C5  UNL     1      -8.651  27.695   2.673  1.00  0.00     0.139 C 
HETATM    2  C6  UNL     1      -7.193  27.833   2.525  1.00  0.00     0.257 C 
HETATM    3  O2  UNL     1      -7.179  29.062   1.697  1.00  0.00    -0.276 OA
HETATM    4  C12 UNL     1      -8.072  29.862   2.396  1.00  0.00     0.365 C 
HETATM    5  O3  UNL     1      -7.981  31.126   2.420  1.00  0.00    -0.238 OA
HETATM    6  N2  UNL     1      -9.064  29.034   3.054  1.00  0.00    -0.314 N 
ENDROOT
BRANCH   2   7
HETATM    7  N1  UNL     1      -6.619  28.286   3.805  1.00  0.00    -0.332 N 
HETATM    8  C7  UNL     1      -5.893  27.342   4.591  1.00  0.00     0.227 C 
HETATM    9  O1  UNL     1      -5.744  26.161   4.211  1.00  0.00    -0.273 OA
ATOM     10  H1  UNL     1      -6.737  29.248   4.121  1.00  0.00     0.165 HD
BRANCH   8  11
HETATM   11  C8  UNL     1      -5.299  27.757   5.888  1.00  0.00     0.030 C 
HETATM   12  C9  UNL     1      -4.041  26.977   6.170  1.00  0.00     0.024 C 
HETATM   13  C10 UNL     1      -6.294  27.471   6.987  1.00  0.00     0.024 C 
HETATM   14  C11 UNL     1      -4.916  29.227   5.868  1.00  0.00     0.024 C 
ENDBRANCH   8  11
ENDBRANCH   2   7
BRANCH   1  15
HETATM   15  C4  UNL     1      -9.140  26.622   3.521  1.00  0.00     0.033 C 
BRANCH  15  16
HETATM   16  C2  UNL     1      -9.703  25.433   2.828  1.00  0.00    -0.021 C 
HETATM   17  C1  UNL     1      -8.683  24.264   2.912  1.00  0.00     0.009 C 
HETATM   18  C3  UNL     1     -10.005  25.580   1.391  1.00  0.00     0.009 C 
ENDBRANCH  15  16
ENDBRANCH   1  15
BRANCH   6  19
HETATM   19  C13 UNL     1     -10.122  29.587   3.820  1.00  0.00     0.090 C 
HETATM   20  C14 UNL     1     -11.475  28.966   3.540  1.00  0.00     0.025 C 
HETATM   21  C15 UNL     1     -12.513  29.983   4.041  1.00  0.00     0.002 C 
HETATM   22  C16 UNL     1     -12.341  30.288   5.494  1.00  0.00     0.000 C 
HETATM   23  C17 UNL     1     -10.916  30.622   5.873  1.00  0.00     0.002 C 
HETATM   24  C18 UNL     1      -9.939  29.600   5.313  1.00  0.00     0.025 C 
ENDBRANCH   6  19
TORSDOF 5
ENDMDL
