MODEL 1
REMARK VINA RESULT: -5.586105595      0.000      0.000
REMARK  8 active torsions:
REMARK  status: ('A' for Active; 'I' for Inactive)
REMARK    1  A    between atoms: C2_2  and  S1_3 
REMARK    2  A    between atoms: S1_3  and  C3_4 
REMARK    3  A    between atoms: C3_4  and  N4_15 
REMARK    4  A    between atoms: N1_5  and  C4_7 
REMARK    5  A    between atoms: C4_7  and  N2_9 
REMARK    6  A    between atoms: N2_9  and  C6_11 
REMARK    7  A    between atoms: C6_11  and  C7_12 
REMARK    8  A    between atoms: N4_15  and  C9_17 
ROOT
HETATM    1  C7  UNL     1     -10.780  24.967  -1.134  1.00  0.00     0.143 C 
HETATM    2  C8  UNL     1     -11.938  25.351  -1.888  1.00  0.00     0.060 C 
HETATM    3  N3  UNL     1     -12.864  25.641  -2.511  1.00  0.00    -0.197 NA
ENDROOT
BRANCH   1   4
HETATM    4  C6  UNL     1      -9.894  26.068  -0.662  1.00  0.00     0.139 C 
BRANCH   4   5
HETATM    5  N2  UNL     1      -9.201  25.846   0.572  1.00  0.00    -0.361 N 
HETATM    6  C5  UNL     1      -7.879  25.231   0.504  1.00  0.00     0.152 C 
BRANCH   5   7
HETATM    7  C4  UNL     1      -9.719  26.241   1.838  1.00  0.00     0.175 C 
HETATM    8  S2  UNL     1     -10.332  25.024   2.777  1.00  0.00    -0.041 SA
BRANCH   7   9
HETATM    9  N1  UNL     1      -9.748  27.512   2.299  1.00  0.00    -0.314 N 
HETATM   10  C3  UNL     1      -9.175  28.601   2.320  1.00  0.00     0.142 C 
ATOM     11  H1  UNL     1     -10.595  27.608   2.859  1.00  0.00     0.170 HD
BRANCH  10  12
HETATM   12  S1  UNL     1      -7.668  29.106   1.558  1.00  0.00    -0.095 SA
BRANCH  12  13
HETATM   13  C2  UNL     1      -6.289  28.041   1.924  1.00  0.00     0.078 C 
HETATM   14  C1  UNL     1      -6.315  27.604   3.376  1.00  0.00     0.016 C 
ENDBRANCH  12  13
ENDBRANCH  10  12
BRANCH  10  15
HETATM   15  N4  UNL     1      -9.853  29.644   3.090  1.00  0.00    -0.366 N 
ATOM     16  H4  UNL     1      -9.843  30.590   2.711  1.00  0.00     0.162 HD
BRANCH  15  17
HETATM   17  C9  UNL     1     -10.523  29.444   4.321  1.00  0.00     0.083 C 
HETATM   18  C10 UNL     1     -11.983  29.714   4.127  1.00  0.00     0.025 C 
HETATM   19  C11 UNL     1     -12.631  30.415   5.285  1.00  0.00     0.002 C 
HETATM   20  C12 UNL     1     -12.114  29.962   6.615  1.00  0.00     0.000 C 
HETATM   21  C13 UNL     1     -10.636  30.012   6.761  1.00  0.00     0.002 C 
HETATM   22  C14 UNL     1      -9.862  30.083   5.473  1.00  0.00     0.025 C 
ENDBRANCH  15  17
ENDBRANCH  10  15
ENDBRANCH   7   9
ENDBRANCH   5   7
ENDBRANCH   4   5
ENDBRANCH   1   4
TORSDOF 8
ENDMDL
MODEL 2
REMARK VINA RESULT: -5.523269944      1.351      1.702
REMARK  8 active torsions:
REMARK  status: ('A' for Active; 'I' for Inactive)
REMARK    1  A    between atoms: C2_2  and  S1_3 
REMARK    2  A    between atoms: S1_3  and  C3_4 
REMARK    3  A    between atoms: C3_4  and  N4_15 
REMARK    4  A    between atoms: N1_5  and  C4_7 
REMARK    5  A    between atoms: C4_7  and  N2_9 
REMARK    6  A    between atoms: N2_9  and  C6_11 
REMARK    7  A    between atoms: C6_11  and  C7_12 
REMARK    8  A    between atoms: N4_15  and  C9_17 
ROOT
HETATM    1  C7  UNL     1     -10.755  24.890  -0.774  1.00  0.00     0.143 C 
HETATM    2  C8  UNL     1     -11.768  25.391  -1.658  1.00  0.00     0.060 C 
HETATM    3  N3  UNL     1     -12.583  25.770  -2.380  1.00  0.00    -0.197 NA
ENDROOT
BRANCH   1   4
HETATM    4  C6  UNL     1      -9.576  25.770  -0.542  1.00  0.00     0.139 C 
BRANCH   4   5
HETATM    5  N2  UNL     1      -9.045  25.789   0.789  1.00  0.00    -0.361 N 
HETATM    6  C5  UNL     1      -7.593  25.749   0.938  1.00  0.00     0.152 C 
BRANCH   5   7
HETATM    7  C4  UNL     1      -9.860  25.895   1.952  1.00  0.00     0.175 C 
HETATM    8  S2  UNL     1     -10.137  24.482   2.767  1.00  0.00    -0.041 SA
BRANCH   7   9
HETATM    9  N1  UNL     1     -10.411  27.043   2.407  1.00  0.00    -0.314 N 
HETATM   10  C3  UNL     1     -10.198  28.141   2.920  1.00  0.00     0.142 C 
ATOM     11  H1  UNL     1     -11.418  26.967   2.268  1.00  0.00     0.170 HD
BRANCH  10  12
HETATM   12  S1  UNL     1      -8.680  28.889   3.413  1.00  0.00    -0.095 SA
BRANCH  12  13
HETATM   13  C2  UNL     1      -7.777  29.629   2.070  1.00  0.00     0.078 C 
HETATM   14  C1  UNL     1      -8.083  31.112   1.966  1.00  0.00     0.016 C 
ENDBRANCH  12  13
ENDBRANCH  10  12
BRANCH  10  15
HETATM   15  N4  UNL     1     -11.389  28.960   3.148  1.00  0.00    -0.366 N 
ATOM     16  H4  UNL     1     -11.675  29.592   2.401  1.00  0.00     0.162 HD
BRANCH  15  17
HETATM   17  C9  UNL     1     -12.177  28.945   4.324  1.00  0.00     0.083 C 
HETATM   18  C10 UNL     1     -12.201  30.323   4.908  1.00  0.00     0.025 C 
HETATM   19  C11 UNL     1     -12.147  30.350   6.407  1.00  0.00     0.002 C 
HETATM   20  C12 UNL     1     -12.923  29.242   7.047  1.00  0.00     0.000 C 
HETATM   21  C13 UNL     1     -12.589  27.880   6.556  1.00  0.00     0.002 C 
HETATM   22  C14 UNL     1     -11.871  27.827   5.235  1.00  0.00     0.025 C 
ENDBRANCH  15  17
ENDBRANCH  10  15
ENDBRANCH   7   9
ENDBRANCH   5   7
ENDBRANCH   4   5
ENDBRANCH   1   4
TORSDOF 8
ENDMDL
MODEL 3
REMARK VINA RESULT: -5.495439894      2.425      4.708
REMARK  8 active torsions:
REMARK  status: ('A' for Active; 'I' for Inactive)
REMARK    1  A    between atoms: C2_2  and  S1_3 
REMARK    2  A    between atoms: S1_3  and  C3_4 
REMARK    3  A    between atoms: C3_4  and  N4_15 
REMARK    4  A    between atoms: N1_5  and  C4_7 
REMARK    5  A    between atoms: C4_7  and  N2_9 
REMARK    6  A    between atoms: N2_9  and  C6_11 
REMARK    7  A    between atoms: C6_11  and  C7_12 
REMARK    8  A    between atoms: N4_15  and  C9_17 
ROOT
HETATM    1  C7  UNL     1     -11.669  25.251  -1.677  1.00  0.00     0.143 C 
HETATM    2  C8  UNL     1     -12.702  24.415  -2.221  1.00  0.00     0.060 C 
HETATM    3  N3  UNL     1     -13.548  23.764  -2.655  1.00  0.00    -0.197 NA
ENDROOT
BRANCH   1   4
HETATM    4  C6  UNL     1     -10.783  24.634  -0.651  1.00  0.00     0.139 C 
BRANCH   4   5
HETATM    5  N2  UNL     1     -10.272  25.510   0.362  1.00  0.00    -0.361 N 
HETATM    6  C5  UNL     1     -10.018  26.899  -0.011  1.00  0.00     0.152 C 
BRANCH   5   7
HETATM    7  C4  UNL     1     -10.054  25.101   1.708  1.00  0.00     0.175 C 
HETATM    8  S2  UNL     1     -10.954  23.812   2.224  1.00  0.00    -0.041 SA
BRANCH   7   9
HETATM    9  N1  UNL     1      -9.191  25.693   2.564  1.00  0.00    -0.314 N 
HETATM   10  C3  UNL     1      -9.066  26.477   3.504  1.00  0.00     0.142 C 
ATOM     11  H1  UNL     1      -8.259  25.346   2.338  1.00  0.00     0.170 HD
BRANCH  10  12
HETATM   12  S1  UNL     1     -10.282  27.417   4.368  1.00  0.00    -0.095 SA
BRANCH  12  13
HETATM   13  C2  UNL     1     -10.809  28.877   3.497  1.00  0.00     0.078 C 
HETATM   14  C1  UNL     1     -12.186  29.315   3.962  1.00  0.00     0.016 C 
ENDBRANCH  12  13
ENDBRANCH  10  12
BRANCH  10  15
HETATM   15  N4  UNL     1      -7.697  26.651   3.989  1.00  0.00    -0.366 N 
ATOM     16  H4  UNL     1      -7.281  27.578   3.901  1.00  0.00     0.162 HD
BRANCH  15  17
HETATM   17  C9  UNL     1      -6.902  25.635   4.571  1.00  0.00     0.083 C 
HETATM   18  C10 UNL     1      -7.606  25.104   5.782  1.00  0.00     0.025 C 
HETATM   19  C11 UNL     1      -6.689  24.785   6.927  1.00  0.00     0.002 C 
HETATM   20  C12 UNL     1      -5.382  24.199   6.491  1.00  0.00     0.000 C 
HETATM   21  C13 UNL     1      -4.651  24.992   5.469  1.00  0.00     0.002 C 
HETATM   22  C14 UNL     1      -5.481  25.996   4.716  1.00  0.00     0.025 C 
ENDBRANCH  15  17
ENDBRANCH  10  15
ENDBRANCH   7   9
ENDBRANCH   5   7
ENDBRANCH   4   5
ENDBRANCH   1   4
TORSDOF 8
ENDMDL
MODEL 4
REMARK VINA RESULT: -5.463043182      1.728      2.253
REMARK  8 active torsions:
REMARK  status: ('A' for Active; 'I' for Inactive)
REMARK    1  A    between atoms: C2_2  and  S1_3 
REMARK    2  A    between atoms: S1_3  and  C3_4 
REMARK    3  A    between atoms: C3_4  and  N4_15 
REMARK    4  A    between atoms: N1_5  and  C4_7 
REMARK    5  A    between atoms: C4_7  and  N2_9 
REMARK    6  A    between atoms: N2_9  and  C6_11 
REMARK    7  A    between atoms: C6_11  and  C7_12 
REMARK    8  A    between atoms: N4_15  and  C9_17 
ROOT
HETATM    1  C7  UNL     1     -10.124  25.553  -0.571  1.00  0.00     0.143 C 
HETATM    2  C8  UNL     1     -11.283  25.357  -1.394  1.00  0.00     0.060 C 
HETATM    3  N3  UNL     1     -12.198  25.190  -2.074  1.00  0.00    -0.197 NA
ENDROOT
BRANCH   1   4
HETATM    4  C6  UNL     1     -10.047  26.838   0.178  1.00  0.00     0.139 C 
BRANCH   4   5
HETATM    5  N2  UNL     1      -8.863  27.055   0.955  1.00  0.00    -0.361 N 
HETATM    6  C5  UNL     1      -7.913  25.952   1.062  1.00  0.00     0.152 C 
BRANCH   5   7
HETATM    7  C4  UNL     1      -8.554  28.299   1.574  1.00  0.00     0.175 C 
HETATM    8  S2  UNL     1      -7.020  28.867   1.323  1.00  0.00    -0.041 SA
BRANCH   7   9
HETATM    9  N1  UNL     1      -9.409  29.014   2.340  1.00  0.00    -0.314 N 
HETATM   10  C3  UNL     1      -9.542  29.686   3.362  1.00  0.00     0.142 C 
ATOM     11  H1  UNL     1     -10.319  28.985   1.880  1.00  0.00     0.170 HD
BRANCH  10  12
HETATM   12  S1  UNL     1      -8.361  30.121   4.597  1.00  0.00    -0.095 SA
BRANCH  12  13
HETATM   13  C2  UNL     1      -7.596  28.718   5.380  1.00  0.00     0.078 C 
HETATM   14  C1  UNL     1      -6.130  28.619   4.999  1.00  0.00     0.016 C 
ENDBRANCH  12  13
ENDBRANCH  10  12
BRANCH  10  15
HETATM   15  N4  UNL     1     -10.887  30.217   3.585  1.00  0.00    -0.366 N 
ATOM     16  H4  UNL     1     -11.174  31.020   3.026  1.00  0.00     0.162 HD
BRANCH  15  17
HETATM   17  C9  UNL     1     -11.822  29.704   4.516  1.00  0.00     0.083 C 
HETATM   18  C10 UNL     1     -11.952  30.670   5.653  1.00  0.00     0.025 C 
HETATM   19  C11 UNL     1     -12.095  30.013   6.995  1.00  0.00     0.002 C 
HETATM   20  C12 UNL     1     -12.927  28.769   6.958  1.00  0.00     0.000 C 
HETATM   21  C13 UNL     1     -12.503  27.763   5.950  1.00  0.00     0.002 C 
HETATM   22  C14 UNL     1     -11.616  28.284   4.851  1.00  0.00     0.025 C 
ENDBRANCH  15  17
ENDBRANCH  10  15
ENDBRANCH   7   9
ENDBRANCH   5   7
ENDBRANCH   4   5
ENDBRANCH   1   4
TORSDOF 8
ENDMDL
MODEL 5
REMARK VINA RESULT: -5.456212115      2.592      5.696
REMARK  8 active torsions:
REMARK  status: ('A' for Active; 'I' for Inactive)
REMARK    1  A    between atoms: C2_2  and  S1_3 
REMARK    2  A    between atoms: S1_3  and  C3_4 
REMARK    3  A    between atoms: C3_4  and  N4_15 
REMARK    4  A    between atoms: N1_5  and  C4_7 
REMARK    5  A    between atoms: C4_7  and  N2_9 
REMARK    6  A    between atoms: N2_9  and  C6_11 
REMARK    7  A    between atoms: C6_11  and  C7_12 
REMARK    8  A    between atoms: N4_15  and  C9_17 
ROOT
HETATM    1  C7  UNL     1     -11.328  28.609   3.544  1.00  0.00     0.143 C 
HETATM    2  C8  UNL     1     -11.282  27.475   4.422  1.00  0.00     0.060 C 
HETATM    3  N3  UNL     1     -11.272  26.560   5.123  1.00  0.00    -0.197 NA
ENDROOT
BRANCH   1   4
HETATM    4  C6  UNL     1     -10.600  29.829   3.992  1.00  0.00     0.139 C 
BRANCH   4   5
HETATM    5  N2  UNL     1      -9.170  29.745   4.024  1.00  0.00    -0.361 N 
HETATM    6  C5  UNL     1      -8.520  29.784   5.330  1.00  0.00     0.152 C 
BRANCH   5   7
HETATM    7  C4  UNL     1      -8.373  29.576   2.856  1.00  0.00     0.175 C 
HETATM    8  S2  UNL     1      -8.029  30.958   2.014  1.00  0.00    -0.041 SA
BRANCH   7   9
HETATM    9  N1  UNL     1      -7.907  28.390   2.404  1.00  0.00    -0.314 N 
HETATM   10  C3  UNL     1      -7.156  27.440   2.625  1.00  0.00     0.142 C 
ATOM     11  H1  UNL     1      -8.367  28.207   1.513  1.00  0.00     0.170 HD
BRANCH  10  12
HETATM   12  S1  UNL     1      -6.080  27.137   3.988  1.00  0.00    -0.095 SA
BRANCH  12  13
HETATM   13  C2  UNL     1      -6.864  26.293   5.345  1.00  0.00     0.078 C 
HETATM   14  C1  UNL     1      -6.402  24.850   5.423  1.00  0.00     0.016 C 
ENDBRANCH  12  13
ENDBRANCH  10  12
BRANCH  10  15
HETATM   15  N4  UNL     1      -7.163  26.393   1.603  1.00  0.00    -0.366 N 
ATOM     16  H4  UNL     1      -6.383  26.372   0.947  1.00  0.00     0.162 HD
BRANCH  15  17
HETATM   17  C9  UNL     1      -8.168  25.408   1.451  1.00  0.00     0.083 C 
HETATM   18  C10 UNL     1      -8.936  25.689   0.198  1.00  0.00     0.025 C 
HETATM   19  C11 UNL     1     -10.409  25.428   0.315  1.00  0.00     0.002 C 
HETATM   20  C12 UNL     1     -10.732  24.227   1.149  1.00  0.00     0.000 C 
HETATM   21  C13 UNL     1     -10.111  24.219   2.499  1.00  0.00     0.002 C 
HETATM   22  C14 UNL     1      -8.942  25.149   2.678  1.00  0.00     0.025 C 
ENDBRANCH  15  17
ENDBRANCH  10  15
ENDBRANCH   7   9
ENDBRANCH   5   7
ENDBRANCH   4   5
ENDBRANCH   1   4
TORSDOF 8
ENDMDL
