MODEL 1
REMARK VINA RESULT: -6.750855588      0.000      0.000
REMARK  5 active torsions:
REMARK  status: ('A' for Active; 'I' for Inactive)
REMARK    1  A    between atoms: C2_2  and  O1_4 
REMARK    2  A    between atoms: C2_2  and  C4_6 
REMARK    3  A    between atoms: C4_6  and  C5_7 
REMARK    4  A    between atoms: C4_6  and  N1_14 
REMARK    5  A    between atoms: C5_7  and  C6_8 
ROOT
HETATM    1  C4  UNL     1      -9.248  28.268   2.922  1.00  0.00     0.113 C 
ENDROOT
BRANCH   1   2
HETATM    2  C2  UNL     1      -9.937  29.468   3.561  1.00  0.00     0.071 C 
HETATM    3  C1  UNL     1     -11.420  29.076   3.673  1.00  0.00     0.047 C 
HETATM    4  C3  UNL     1      -9.448  29.790   4.924  1.00  0.00     0.047 C 
BRANCH   2   5
HETATM    5  O1  UNL     1      -9.900  30.571   2.741  1.00  0.00    -0.389 OA
ATOM      6  H1  UNL     1      -9.260  31.159   3.125  1.00  0.00     0.210 HD
ENDBRANCH   2   5
ENDBRANCH   1   2
BRANCH   1   7
HETATM    7  C5  UNL     1     -10.228  27.279   2.416  1.00  0.00     0.032 C 
BRANCH   7   8
HETATM    8  C6  UNL     1      -9.719  26.364   1.331  1.00  0.00    -0.013 C 
HETATM    9  C7  UNL     1      -9.909  26.890  -0.024  1.00  0.00     0.005 C 
HETATM   10  C8  UNL     1     -10.980  26.235  -0.848  1.00  0.00     0.000 C 
HETATM   11  C9  UNL     1     -10.649  24.748  -0.875  1.00  0.00     0.000 C 
HETATM   12  C10 UNL     1     -10.906  24.267   0.517  1.00  0.00     0.000 C 
HETATM   13  C11 UNL     1     -10.194  24.976   1.598  1.00  0.00     0.005 C 
ENDBRANCH   7   8
ENDBRANCH   1   7
BRANCH   1  14
HETATM   14  N1  UNL     1      -8.148  27.754   3.630  1.00  0.00    -0.405 N 
HETATM   15  C12 UNL     1      -8.386  26.533   4.342  1.00  0.00     0.122 C 
HETATM   16  C13 UNL     1      -7.438  26.345   5.500  1.00  0.00     0.088 C 
HETATM   17  C14 UNL     1      -6.033  26.742   5.199  1.00  0.00     0.167 C 
HETATM   18  C15 UNL     1      -5.844  27.711   4.100  1.00  0.00     0.088 C 
HETATM   19  O2  UNL     1      -5.255  25.617   4.929  1.00  0.00    -0.353 OA
HETATM   20  O3  UNL     1      -5.498  27.329   6.367  1.00  0.00    -0.353 OA
HETATM   21  C16 UNL     1      -6.884  27.688   3.004  1.00  0.00     0.122 C 
HETATM   22  C17 UNL     1      -4.920  25.158   6.182  1.00  0.00     0.197 C 
HETATM   23  C18 UNL     1      -4.634  26.430   6.930  1.00  0.00     0.197 C 
ENDBRANCH   1  14
TORSDOF 5
ENDMDL
MODEL 2
REMARK VINA RESULT: -6.607916218      1.198      1.333
REMARK  5 active torsions:
REMARK  status: ('A' for Active; 'I' for Inactive)
REMARK    1  A    between atoms: C2_2  and  O1_4 
REMARK    2  A    between atoms: C2_2  and  C4_6 
REMARK    3  A    between atoms: C4_6  and  C5_7 
REMARK    4  A    between atoms: C4_6  and  N1_14 
REMARK    5  A    between atoms: C5_7  and  C6_8 
ROOT
HETATM    1  C4  UNL     1      -9.063  26.704   3.212  1.00  0.00     0.113 C 
ENDROOT
BRANCH   1   2
HETATM    2  C2  UNL     1      -9.916  27.839   3.767  1.00  0.00     0.071 C 
HETATM    3  C1  UNL     1     -11.216  27.175   4.248  1.00  0.00     0.047 C 
HETATM    4  C3  UNL     1      -9.308  28.540   4.925  1.00  0.00     0.047 C 
BRANCH   2   5
HETATM    5  O1  UNL     1     -10.287  28.724   2.783  1.00  0.00    -0.389 OA
ATOM      6  H1  UNL     1     -11.187  28.963   2.974  1.00  0.00     0.210 HD
ENDBRANCH   2   5
ENDBRANCH   1   2
BRANCH   1   7
HETATM    7  C5  UNL     1      -9.888  25.541   2.816  1.00  0.00     0.032 C 
BRANCH   7   8
HETATM    8  C6  UNL     1      -9.590  24.972   1.452  1.00  0.00    -0.013 C 
HETATM    9  C7  UNL     1      -8.992  25.938   0.526  1.00  0.00     0.005 C 
HETATM   10  C8  UNL     1      -9.880  26.443  -0.575  1.00  0.00     0.000 C 
HETATM   11  C9  UNL     1     -10.387  25.211  -1.313  1.00  0.00     0.000 C 
HETATM   12  C10 UNL     1     -11.324  24.542  -0.359  1.00  0.00     0.000 C 
HETATM   13  C11 UNL     1     -10.776  24.207   0.971  1.00  0.00     0.005 C 
ENDBRANCH   7   8
ENDBRANCH   1   7
BRANCH   1  14
HETATM   14  N1  UNL     1      -7.888  26.423   3.931  1.00  0.00    -0.405 N 
HETATM   15  C12 UNL     1      -7.796  25.099   4.472  1.00  0.00     0.122 C 
HETATM   16  C13 UNL     1      -6.875  25.025   5.665  1.00  0.00     0.088 C 
HETATM   17  C14 UNL     1      -5.630  25.832   5.516  1.00  0.00     0.167 C 
HETATM   18  C15 UNL     1      -5.685  26.955   4.558  1.00  0.00     0.088 C 
HETATM   19  O2  UNL     1      -4.556  25.014   5.170  1.00  0.00    -0.353 OA
HETATM   20  O3  UNL     1      -5.325  26.380   6.782  1.00  0.00    -0.353 OA
HETATM   21  C16 UNL     1      -6.636  26.795   3.395  1.00  0.00     0.122 C 
HETATM   22  C17 UNL     1      -4.149  24.499   6.379  1.00  0.00     0.197 C 
HETATM   23  C18 UNL     1      -4.263  25.687   7.293  1.00  0.00     0.197 C 
ENDBRANCH   1  14
TORSDOF 5
ENDMDL
MODEL 3
REMARK VINA RESULT: -6.451652251      4.314      6.010
REMARK  5 active torsions:
REMARK  status: ('A' for Active; 'I' for Inactive)
REMARK    1  A    between atoms: C2_2  and  O1_4 
REMARK    2  A    between atoms: C2_2  and  C4_6 
REMARK    3  A    between atoms: C4_6  and  C5_7 
REMARK    4  A    between atoms: C4_6  and  N1_14 
REMARK    5  A    between atoms: C5_7  and  C6_8 
ROOT
HETATM    1  C4  UNL     1     -10.141  25.131   4.072  1.00  0.00     0.113 C 
ENDROOT
BRANCH   1   2
HETATM    2  C2  UNL     1      -8.997  25.518   5.002  1.00  0.00     0.071 C 
HETATM    3  C1  UNL     1      -7.776  24.733   4.495  1.00  0.00     0.047 C 
HETATM    4  C3  UNL     1      -8.654  26.962   4.968  1.00  0.00     0.047 C 
BRANCH   2   5
HETATM    5  O1  UNL     1      -9.216  25.084   6.287  1.00  0.00    -0.389 OA
ATOM      6  H1  UNL     1      -9.429  25.861   6.791  1.00  0.00     0.210 HD
ENDBRANCH   2   5
ENDBRANCH   1   2
BRANCH   1   7
HETATM    7  C5  UNL     1     -10.192  25.999   2.873  1.00  0.00     0.032 C 
BRANCH   7   8
HETATM    8  C6  UNL     1      -9.671  25.376   1.603  1.00  0.00    -0.013 C 
HETATM    9  C7  UNL     1      -9.175  26.349   0.626  1.00  0.00     0.005 C 
HETATM   10  C8  UNL     1     -10.034  26.575  -0.584  1.00  0.00     0.000 C 
HETATM   11  C9  UNL     1     -10.240  25.207  -1.223  1.00  0.00     0.000 C 
HETATM   12  C10 UNL     1     -11.125  24.464  -0.275  1.00  0.00     0.000 C 
HETATM   13  C11 UNL     1     -10.650  24.360   1.120  1.00  0.00     0.005 C 
ENDBRANCH   7   8
ENDBRANCH   1   7
BRANCH   1  14
HETATM   14  N1  UNL     1     -11.368  24.862   4.703  1.00  0.00    -0.405 N 
HETATM   15  C12 UNL     1     -12.290  25.958   4.756  1.00  0.00     0.122 C 
HETATM   16  C13 UNL     1     -13.276  25.830   5.890  1.00  0.00     0.088 C 
HETATM   17  C14 UNL     1     -13.791  24.445   6.087  1.00  0.00     0.167 C 
HETATM   18  C15 UNL     1     -12.943  23.349   5.576  1.00  0.00     0.088 C 
HETATM   19  O2  UNL     1     -15.061  24.312   5.530  1.00  0.00    -0.353 OA
HETATM   20  O3  UNL     1     -13.940  24.241   7.477  1.00  0.00    -0.353 OA
HETATM   21  C16 UNL     1     -12.071  23.679   4.387  1.00  0.00     0.122 C 
HETATM   22  C17 UNL     1     -15.889  24.822   6.504  1.00  0.00     0.197 C 
HETATM   23  C18 UNL     1     -15.276  24.282   7.766  1.00  0.00     0.197 C 
ENDBRANCH   1  14
TORSDOF 5
ENDMDL
MODEL 4
REMARK VINA RESULT: -6.415846849      2.185      6.383
REMARK  5 active torsions:
REMARK  status: ('A' for Active; 'I' for Inactive)
REMARK    1  A    between atoms: C2_2  and  O1_4 
REMARK    2  A    between atoms: C2_2  and  C4_6 
REMARK    3  A    between atoms: C4_6  and  C5_7 
REMARK    4  A    between atoms: C4_6  and  N1_14 
REMARK    5  A    between atoms: C5_7  and  C6_8 
ROOT
HETATM    1  C4  UNL     1      -7.324  26.943   4.297  1.00  0.00     0.113 C 
ENDROOT
BRANCH   1   2
HETATM    2  C2  UNL     1      -7.240  28.432   4.614  1.00  0.00     0.071 C 
HETATM    3  C1  UNL     1      -5.837  28.644   5.206  1.00  0.00     0.047 C 
HETATM    4  C3  UNL     1      -7.370  29.310   3.425  1.00  0.00     0.047 C 
BRANCH   2   5
HETATM    5  O1  UNL     1      -8.124  28.792   5.603  1.00  0.00    -0.389 OA
ATOM      6  H1  UNL     1      -8.022  29.730   5.714  1.00  0.00     0.210 HD
ENDBRANCH   2   5
ENDBRANCH   1   2
BRANCH   1   7
HETATM    7  C5  UNL     1      -5.986  26.310   4.275  1.00  0.00     0.032 C 
BRANCH   7   8
HETATM    8  C6  UNL     1      -5.837  25.084   5.140  1.00  0.00    -0.013 C 
HETATM    9  C7  UNL     1      -6.854  24.974   6.190  1.00  0.00     0.005 C 
HETATM   10  C8  UNL     1      -6.394  25.245   7.593  1.00  0.00     0.000 C 
HETATM   11  C9  UNL     1      -5.229  24.297   7.851  1.00  0.00     0.000 C 
HETATM   12  C10 UNL     1      -4.116  24.806   6.992  1.00  0.00     0.000 C 
HETATM   13  C11 UNL     1      -4.411  24.946   5.551  1.00  0.00     0.005 C 
ENDBRANCH   7   8
ENDBRANCH   1   7
BRANCH   1  14
HETATM   14  N1  UNL     1      -8.198  26.595   3.253  1.00  0.00    -0.405 N 
HETATM   15  C12 UNL     1      -7.636  25.772   2.223  1.00  0.00     0.122 C 
HETATM   16  C13 UNL     1      -8.363  25.912   0.909  1.00  0.00     0.088 C 
HETATM   17  C14 UNL     1      -9.847  25.982   1.047  1.00  0.00     0.167 C 
HETATM   18  C15 UNL     1     -10.365  26.435   2.353  1.00  0.00     0.088 C 
HETATM   19  O2  UNL     1     -10.424  24.748   0.750  1.00  0.00    -0.353 OA
HETATM   20  O3  UNL     1     -10.321  26.890   0.074  1.00  0.00    -0.353 OA
HETATM   21  C16 UNL     1      -9.499  26.137   3.555  1.00  0.00     0.122 C 
HETATM   22  C17 UNL     1     -10.491  24.753  -0.624  1.00  0.00     0.197 C 
HETATM   23  C18 UNL     1     -10.911  26.165  -0.924  1.00  0.00     0.197 C 
ENDBRANCH   1  14
TORSDOF 5
ENDMDL
MODEL 5
REMARK VINA RESULT: -6.412060958      3.728      6.532
REMARK  5 active torsions:
REMARK  status: ('A' for Active; 'I' for Inactive)
REMARK    1  A    between atoms: C2_2  and  O1_4 
REMARK    2  A    between atoms: C2_2  and  C4_6 
REMARK    3  A    between atoms: C4_6  and  C5_7 
REMARK    4  A    between atoms: C4_6  and  N1_14 
REMARK    5  A    between atoms: C5_7  and  C6_8 
ROOT
HETATM    1  C4  UNL     1      -9.468  25.774   3.374  1.00  0.00     0.113 C 
ENDROOT
BRANCH   1   2
HETATM    2  C2  UNL     1      -9.492  25.711   1.851  1.00  0.00     0.071 C 
HETATM    3  C1  UNL     1      -9.942  27.108   1.392  1.00  0.00     0.047 C 
HETATM    4  C3  UNL     1      -8.169  25.436   1.237  1.00  0.00     0.047 C 
BRANCH   2   5
HETATM    5  O1  UNL     1     -10.449  24.838   1.392  1.00  0.00    -0.389 OA
ATOM      6  H1  UNL     1     -10.283  24.014   1.836  1.00  0.00     0.210 HD
ENDBRANCH   2   5
ENDBRANCH   1   2
BRANCH   1   7
HETATM    7  C5  UNL     1      -8.390  24.932   3.941  1.00  0.00     0.032 C 
BRANCH   7   8
HETATM    8  C6  UNL     1      -7.561  25.584   5.017  1.00  0.00    -0.013 C 
HETATM    9  C7  UNL     1      -7.307  27.009   4.788  1.00  0.00     0.005 C 
HETATM   10  C8  UNL     1      -5.913  27.379   4.372  1.00  0.00     0.000 C 
HETATM   11  C9  UNL     1      -4.985  26.819   5.443  1.00  0.00     0.000 C 
HETATM   12  C10 UNL     1      -5.042  25.335   5.269  1.00  0.00     0.000 C 
HETATM   13  C11 UNL     1      -6.383  24.720   5.319  1.00  0.00     0.005 C 
ENDBRANCH   7   8
ENDBRANCH   1   7
BRANCH   1  14
HETATM   14  N1  UNL     1     -10.723  25.692   4.002  1.00  0.00    -0.405 N 
HETATM   15  C12 UNL     1     -11.022  24.436   4.624  1.00  0.00     0.122 C 
HETATM   16  C13 UNL     1     -12.505  24.192   4.750  1.00  0.00     0.088 C 
HETATM   17  C14 UNL     1     -13.282  25.400   5.152  1.00  0.00     0.167 C 
HETATM   18  C15 UNL     1     -12.662  26.708   4.860  1.00  0.00     0.088 C 
HETATM   19  O2  UNL     1     -13.589  25.353   6.510  1.00  0.00    -0.353 OA
HETATM   20  O3  UNL     1     -14.514  25.360   4.461  1.00  0.00    -0.353 OA
HETATM   21  C16 UNL     1     -11.152  26.741   4.843  1.00  0.00     0.122 C 
HETATM   22  C17 UNL     1     -14.704  24.547   6.555  1.00  0.00     0.197 C 
HETATM   23  C18 UNL     1     -15.486  25.006   5.356  1.00  0.00     0.197 C 
ENDBRANCH   1  14
TORSDOF 5
ENDMDL
