MODEL 1
REMARK VINA RESULT: -7.841969323      0.000      0.000
REMARK  5 active torsions:
REMARK  status: ('A' for Active; 'I' for Inactive)
REMARK    1  A    between atoms: C3_3  and  C4_4 
REMARK    2  A    between atoms: C4_4  and  C5_5 
REMARK    3  A    between atoms: C5_5  and  C6_6 
REMARK    4  A    between atoms: C6_6  and  O1_7 
REMARK    5  A    between atoms: C14_15  and  O2_16 
ROOT
HETATM    1  C6  UNL     1      -9.881  25.210   1.102  1.00  0.00     0.121 C 
HETATM    2  C8  UNL     1     -10.415  26.664   1.372  1.00  0.00     0.056 C 
HETATM    3  C9  UNL     1     -10.092  27.127   2.751  1.00  0.00    -0.029 C 
HETATM    4  C10 UNL     1     -10.837  28.444   2.965  1.00  0.00     0.011 C 
HETATM    5  C11 UNL     1      -9.893  29.373   3.687  1.00  0.00     0.006 C 
HETATM    6  C12 UNL     1      -8.623  28.636   3.920  1.00  0.00    -0.007 C 
HETATM    7  C13 UNL     1      -7.429  29.520   3.590  1.00  0.00     0.036 C 
HETATM    8  C14 UNL     1      -7.381  29.509   2.104  1.00  0.00     0.118 C 
HETATM    9  C15 UNL     1      -8.435  28.504   1.626  1.00  0.00     0.037 C 
HETATM   10  C16 UNL     1      -8.678  27.577   2.821  1.00  0.00     0.001 C 
HETATM   11  C17 UNL     1     -10.594  26.188   3.757  1.00  0.00    -0.003 C 
HETATM   12  C18 UNL     1     -10.444  26.514   5.190  1.00  0.00     0.011 C 
HETATM   13  C19 UNL     1     -10.141  24.733   3.571  1.00  0.00     0.086 C 
HETATM   14  C20 UNL     1     -10.523  24.413   2.198  1.00  0.00     0.161 C 
HETATM   15  O3  UNL     1     -11.302  23.569   1.946  1.00  0.00    -0.295 OA
ENDROOT
BRANCH   1  16
HETATM   16  C5  UNL     1     -10.458  24.885  -0.230  1.00  0.00     0.050 C 
BRANCH  16  17
HETATM   17  C4  UNL     1     -10.987  25.945  -1.089  1.00  0.00     0.030 C 
BRANCH  17  18
HETATM   18  C3  UNL     1     -12.138  25.460  -1.949  1.00  0.00    -0.031 C 
HETATM   19  C2  UNL     1     -12.542  24.211  -1.950  1.00  0.00    -0.035 C 
HETATM   20  C1  UNL     1     -13.668  23.798  -2.808  1.00  0.00     0.036 C 
ENDBRANCH  17  18
ENDBRANCH  16  17
ENDBRANCH   1  16
BRANCH   1  21
HETATM   21  O1  UNL     1      -8.558  25.235   1.169  1.00  0.00    -0.377 OA
HETATM   22  C7  UNL     1      -7.667  25.217   0.204  1.00  0.00     0.203 C 
ENDBRANCH   1  21
BRANCH   8  23
HETATM   23  O2  UNL     1      -7.634  30.724   1.506  1.00  0.00    -0.396 OA
ATOM     24  H2  UNL     1      -7.939  30.672   0.608  1.00  0.00     0.210 HD
ENDBRANCH   8  23
TORSDOF 5
ENDMDL
MODEL 2
REMARK VINA RESULT: -7.017573016      1.851      3.557
REMARK  5 active torsions:
REMARK  status: ('A' for Active; 'I' for Inactive)
REMARK    1  A    between atoms: C3_3  and  C4_4 
REMARK    2  A    between atoms: C4_4  and  C5_5 
REMARK    3  A    between atoms: C5_5  and  C6_6 
REMARK    4  A    between atoms: C6_6  and  O1_7 
REMARK    5  A    between atoms: C14_15  and  O2_16 
ROOT
HETATM    1  C6  UNL     1      -9.304  26.457   1.069  1.00  0.00     0.121 C 
HETATM    2  C8  UNL     1     -10.192  25.527   1.974  1.00  0.00     0.056 C 
HETATM    3  C9  UNL     1      -9.633  25.390   3.347  1.00  0.00    -0.029 C 
HETATM    4  C10 UNL     1     -10.450  24.310   4.056  1.00  0.00     0.011 C 
HETATM    5  C11 UNL     1     -10.695  24.794   5.463  1.00  0.00     0.006 C 
HETATM    6  C12 UNL     1     -10.031  26.116   5.609  1.00  0.00    -0.007 C 
HETATM    7  C13 UNL     1     -10.948  27.094   6.328  1.00  0.00     0.036 C 
HETATM    8  C14 UNL     1     -11.929  27.492   5.284  1.00  0.00     0.118 C 
HETATM    9  C15 UNL     1     -11.462  26.867   3.965  1.00  0.00     0.037 C 
HETATM   10  C16 UNL     1      -9.968  26.588   4.158  1.00  0.00     0.001 C 
HETATM   11  C17 UNL     1      -8.247  24.915   3.311  1.00  0.00    -0.003 C 
HETATM   12  C18 UNL     1      -7.544  24.637   4.579  1.00  0.00     0.011 C 
HETATM   13  C19 UNL     1      -7.299  25.749   2.438  1.00  0.00     0.086 C 
HETATM   14  C20 UNL     1      -7.959  25.794   1.136  1.00  0.00     0.161 C 
HETATM   15  O3  UNL     1      -7.471  25.333   0.170  1.00  0.00    -0.295 OA
ENDROOT
BRANCH   1  16
HETATM   16  C5  UNL     1      -9.926  26.310  -0.274  1.00  0.00     0.050 C 
BRANCH  16  17
HETATM   17  C4  UNL     1     -10.724  25.126  -0.597  1.00  0.00     0.030 C 
BRANCH  17  18
HETATM   18  C3  UNL     1     -11.792  25.424  -1.630  1.00  0.00    -0.031 C 
HETATM   19  C2  UNL     1     -12.653  24.521  -2.038  1.00  0.00    -0.035 C 
HETATM   20  C1  UNL     1     -13.671  24.870  -3.046  1.00  0.00     0.036 C 
ENDBRANCH  17  18
ENDBRANCH  16  17
ENDBRANCH   1  16
BRANCH   1  21
HETATM   21  O1  UNL     1      -9.320  27.677   1.584  1.00  0.00    -0.377 OA
HETATM   22  C7  UNL     1      -8.587  28.725   1.287  1.00  0.00     0.203 C 
ENDBRANCH   1  21
BRANCH   8  23
HETATM   23  O2  UNL     1     -13.225  27.092   5.522  1.00  0.00    -0.396 OA
ATOM     24  H2  UNL     1     -13.312  26.259   5.970  1.00  0.00     0.210 HD
ENDBRANCH   8  23
TORSDOF 5
ENDMDL
MODEL 3
REMARK VINA RESULT: -6.925132013      1.927      2.826
REMARK  5 active torsions:
REMARK  status: ('A' for Active; 'I' for Inactive)
REMARK    1  A    between atoms: C3_3  and  C4_4 
REMARK    2  A    between atoms: C4_4  and  C5_5 
REMARK    3  A    between atoms: C5_5  and  C6_6 
REMARK    4  A    between atoms: C6_6  and  O1_7 
REMARK    5  A    between atoms: C14_15  and  O2_16 
ROOT
HETATM    1  C6  UNL     1      -8.789  25.720   2.490  1.00  0.00     0.121 C 
HETATM    2  C8  UNL     1     -10.323  25.910   2.778  1.00  0.00     0.056 C 
HETATM    3  C9  UNL     1     -10.579  26.289   4.195  1.00  0.00    -0.029 C 
HETATM    4  C10 UNL     1     -12.091  26.235   4.405  1.00  0.00     0.011 C 
HETATM    5  C11 UNL     1     -12.465  27.437   5.236  1.00  0.00     0.006 C 
HETATM    6  C12 UNL     1     -11.216  28.185   5.537  1.00  0.00    -0.007 C 
HETATM    7  C13 UNL     1     -11.432  29.678   5.338  1.00  0.00     0.036 C 
HETATM    8  C14 UNL     1     -11.399  29.847   3.862  1.00  0.00     0.118 C 
HETATM    9  C15 UNL     1     -11.010  28.492   3.261  1.00  0.00     0.037 C 
HETATM   10  C16 UNL     1     -10.309  27.736   4.394  1.00  0.00     0.001 C 
HETATM   11  C17 UNL     1      -9.989  25.318   5.120  1.00  0.00    -0.003 C 
HETATM   12  C18 UNL     1     -10.206  25.476   6.572  1.00  0.00     0.011 C 
HETATM   13  C19 UNL     1      -8.492  25.049   4.909  1.00  0.00     0.086 C 
HETATM   14  C20 UNL     1      -8.390  24.683   3.499  1.00  0.00     0.161 C 
HETATM   15  O3  UNL     1      -8.013  23.625   3.152  1.00  0.00    -0.295 OA
ENDROOT
BRANCH   1  16
HETATM   16  C5  UNL     1      -8.774  25.177   1.105  1.00  0.00     0.050 C 
BRANCH  16  17
HETATM   17  C4  UNL     1      -9.422  25.908   0.015  1.00  0.00     0.030 C 
BRANCH  17  18
HETATM   18  C3  UNL     1     -10.385  25.032  -0.763  1.00  0.00    -0.031 C 
HETATM   19  C2  UNL     1     -11.473  25.505  -1.326  1.00  0.00    -0.035 C 
HETATM   20  C1  UNL     1     -12.372  24.604  -2.070  1.00  0.00     0.036 C 
ENDBRANCH  17  18
ENDBRANCH  16  17
ENDBRANCH   1  16
BRANCH   1  21
HETATM   21  O1  UNL     1      -8.186  26.887   2.661  1.00  0.00    -0.377 OA
HETATM   22  C7  UNL     1      -6.940  27.231   2.431  1.00  0.00     0.203 C 
ENDBRANCH   1  21
BRANCH   8  23
HETATM   23  O2  UNL     1     -12.589  30.249   3.297  1.00  0.00    -0.396 OA
ATOM     24  H2  UNL     1     -13.196  29.546   3.097  1.00  0.00     0.210 HD
ENDBRANCH   8  23
TORSDOF 5
ENDMDL
MODEL 4
REMARK VINA RESULT: -6.863819726      2.939      6.386
REMARK  5 active torsions:
REMARK  status: ('A' for Active; 'I' for Inactive)
REMARK    1  A    between atoms: C3_3  and  C4_4 
REMARK    2  A    between atoms: C4_4  and  C5_5 
REMARK    3  A    between atoms: C5_5  and  C6_6 
REMARK    4  A    between atoms: C6_6  and  O1_7 
REMARK    5  A    between atoms: C14_15  and  O2_16 
ROOT
HETATM    1  C6  UNL     1      -9.321  25.842   3.127  1.00  0.00     0.121 C 
HETATM    2  C8  UNL     1      -9.879  25.687   4.589  1.00  0.00     0.056 C 
HETATM    3  C9  UNL     1     -11.191  26.372   4.758  1.00  0.00    -0.029 C 
HETATM    4  C10 UNL     1     -11.523  26.337   6.249  1.00  0.00     0.011 C 
HETATM    5  C11 UNL     1     -12.992  26.018   6.367  1.00  0.00     0.006 C 
HETATM    6  C12 UNL     1     -13.538  25.883   4.991  1.00  0.00    -0.007 C 
HETATM    7  C13 UNL     1     -14.444  24.665   4.897  1.00  0.00     0.036 C 
HETATM    8  C14 UNL     1     -13.496  23.522   4.835  1.00  0.00     0.118 C 
HETATM    9  C15 UNL     1     -12.085  24.111   4.733  1.00  0.00     0.037 C 
HETATM   10  C16 UNL     1     -12.281  25.533   4.197  1.00  0.00     0.001 C 
HETATM   11  C17 UNL     1     -11.106  27.784   4.376  1.00  0.00    -0.003 C 
HETATM   12  C18 UNL     1     -12.287  28.653   4.553  1.00  0.00     0.011 C 
HETATM   13  C19 UNL     1     -10.556  28.043   2.967  1.00  0.00     0.086 C 
HETATM   14  C20 UNL     1      -9.281  27.331   2.945  1.00  0.00     0.161 C 
HETATM   15  O3  UNL     1      -8.255  27.887   2.794  1.00  0.00    -0.295 OA
ENDROOT
BRANCH   1  16
HETATM   16  C5  UNL     1      -7.956  25.260   3.226  1.00  0.00     0.050 C 
BRANCH  16  17
HETATM   17  C4  UNL     1      -7.458  24.751   4.505  1.00  0.00     0.030 C 
BRANCH  17  18
HETATM   18  C3  UNL     1      -6.173  25.436   4.928  1.00  0.00    -0.031 C 
HETATM   19  C2  UNL     1      -5.235  24.820   5.610  1.00  0.00    -0.035 C 
HETATM   20  C1  UNL     1      -4.006  25.539   5.994  1.00  0.00     0.036 C 
ENDBRANCH  17  18
ENDBRANCH  16  17
ENDBRANCH   1  16
BRANCH   1  21
HETATM   21  O1  UNL     1     -10.153  25.229   2.298  1.00  0.00    -0.377 OA
HETATM   22  C7  UNL     1     -10.036  24.994   1.011  1.00  0.00     0.203 C 
ENDBRANCH   1  21
BRANCH   8  23
HETATM   23  O2  UNL     1     -13.537  22.673   5.918  1.00  0.00    -0.396 OA
ATOM     24  H2  UNL     1     -12.725  22.608   6.408  1.00  0.00     0.210 HD
ENDBRANCH   8  23
TORSDOF 5
ENDMDL
MODEL 5
REMARK VINA RESULT: -6.805936812      2.122      3.418
REMARK  5 active torsions:
REMARK  status: ('A' for Active; 'I' for Inactive)
REMARK    1  A    between atoms: C3_3  and  C4_4 
REMARK    2  A    between atoms: C4_4  and  C5_5 
REMARK    3  A    between atoms: C5_5  and  C6_6 
REMARK    4  A    between atoms: C6_6  and  O1_7 
REMARK    5  A    between atoms: C14_15  and  O2_16 
ROOT
HETATM    1  C6  UNL     1      -7.495  25.968   3.427  1.00  0.00     0.121 C 
HETATM    2  C8  UNL     1      -8.539  27.034   3.923  1.00  0.00     0.056 C 
HETATM    3  C9  UNL     1      -7.883  28.160   4.643  1.00  0.00    -0.029 C 
HETATM    4  C10 UNL     1      -8.997  29.008   5.255  1.00  0.00     0.011 C 
HETATM    5  C11 UNL     1      -8.617  30.452   5.049  1.00  0.00     0.006 C 
HETATM    6  C12 UNL     1      -7.304  30.480   4.352  1.00  0.00    -0.007 C 
HETATM    7  C13 UNL     1      -7.321  31.509   3.231  1.00  0.00     0.036 C 
HETATM    8  C14 UNL     1      -8.093  30.840   2.150  1.00  0.00     0.118 C 
HETATM    9  C15 UNL     1      -8.359  29.402   2.608  1.00  0.00     0.037 C 
HETATM   10  C16 UNL     1      -7.292  29.115   3.670  1.00  0.00     0.001 C 
HETATM   11  C17 UNL     1      -7.062  27.674   5.755  1.00  0.00    -0.003 C 
HETATM   12  C18 UNL     1      -6.395  28.648   6.642  1.00  0.00     0.011 C 
HETATM   13  C19 UNL     1      -6.019  26.613   5.375  1.00  0.00     0.086 C 
HETATM   14  C20 UNL     1      -6.793  25.579   4.695  1.00  0.00     0.161 C 
HETATM   15  O3  UNL     1      -6.874  24.481   5.110  1.00  0.00    -0.295 OA
ENDROOT
BRANCH   1  16
HETATM   16  C5  UNL     1      -8.357  24.870   2.913  1.00  0.00     0.050 C 
BRANCH  16  17
HETATM   17  C4  UNL     1      -9.812  25.025   2.873  1.00  0.00     0.030 C 
BRANCH  17  18
HETATM   18  C3  UNL     1     -10.392  24.608   1.536  1.00  0.00    -0.031 C 
HETATM   19  C2  UNL     1     -10.184  25.288   0.432  1.00  0.00    -0.035 C 
HETATM   20  C1  UNL     1     -10.776  24.833  -0.840  1.00  0.00     0.036 C 
ENDBRANCH  17  18
ENDBRANCH  16  17
ENDBRANCH   1  16
BRANCH   1  21
HETATM   21  O1  UNL     1      -6.702  26.546   2.537  1.00  0.00    -0.377 OA
HETATM   22  C7  UNL     1      -6.701  26.454   1.227  1.00  0.00     0.203 C 
ENDBRANCH   1  21
BRANCH   8  23
HETATM   23  O2  UNL     1      -9.299  31.432   1.846  1.00  0.00    -0.396 OA
ATOM     24  H2  UNL     1      -9.747  31.830   2.583  1.00  0.00     0.210 HD
ENDBRANCH   8  23
TORSDOF 5
ENDMDL
