MODEL 1
REMARK VINA RESULT: -7.450494092      0.000      0.000
REMARK  4 active torsions:
REMARK  status: ('A' for Active; 'I' for Inactive)
REMARK    1  A    between atoms: C2_2  and  C3_3 
REMARK    2  A    between atoms: C3_3  and  C4_4 
REMARK    3  A    between atoms: C3_3  and  C6_6 
REMARK       I    between atoms: C6_6  and  N1_8 
REMARK    4  A    between atoms: C8_15  and  C9_16 
ROOT
HETATM    1  C6  UNL     1     -13.000  25.204  -2.596  1.00  0.00     0.227 C 
HETATM    2  O1  UNL     1     -12.950  26.450  -2.882  1.00  0.00    -0.273 OA
HETATM    3  N1  UNL     1     -12.434  24.684  -1.455  1.00  0.00    -0.306 N 
ATOM      4  H1  UNL     1     -12.911  23.885  -1.037  1.00  0.00     0.171 HD
HETATM    5  C7  UNL     1     -11.359  25.099  -0.849  1.00  0.00     0.167 A 
HETATM    6  N2  UNL     1     -10.514  26.091  -1.128  1.00  0.00    -0.279 N 
ATOM      7  H2  UNL     1     -10.626  26.640  -1.980  1.00  0.00     0.189 HD
HETATM    8  N3  UNL     1      -9.565  26.344  -0.318  1.00  0.00    -0.295 N 
ATOM      9  H3  UNL     1      -8.913  27.101  -0.523  1.00  0.00     0.187 HD
HETATM   10  C8  UNL     1      -9.419  25.642   0.773  1.00  0.00     0.079 A 
HETATM   11  S1  UNL     1     -10.714  24.536   0.659  1.00  0.00    -0.037 SA
ENDROOT
BRANCH   1  12
HETATM   12  C3  UNL     1     -13.719  24.366  -3.597  1.00  0.00     0.077 C 
BRANCH  12  13
HETATM   13  C2  UNL     1     -14.799  25.070  -4.329  1.00  0.00     0.009 C 
HETATM   14  C1  UNL     1     -15.175  24.374  -5.578  1.00  0.00     0.006 C 
ENDBRANCH  12  13
BRANCH  12  15
HETATM   15  C4  UNL     1     -14.210  23.163  -2.799  1.00  0.00     0.009 C 
HETATM   16  C5  UNL     1     -13.694  21.891  -3.348  1.00  0.00     0.006 C 
ENDBRANCH  12  15
ENDBRANCH   1  12
BRANCH  10  17
HETATM   17  C9  UNL     1      -8.459  25.751   1.900  1.00  0.00     0.015 C 
HETATM   18  C10 UNL     1      -7.154  26.336   1.389  1.00  0.00     0.021 C 
HETATM   19  C11 UNL     1      -6.326  26.807   2.530  1.00  0.00    -0.013 C 
HETATM   20  C12 UNL     1      -6.936  28.082   3.075  1.00  0.00     0.005 C 
HETATM   21  C16 UNL     1      -6.418  25.795   3.686  1.00  0.00     0.010 C 
HETATM   22  C13 UNL     1      -8.377  27.827   3.367  1.00  0.00     0.006 C 
HETATM   23  C14 UNL     1      -8.822  26.408   3.162  1.00  0.00     0.005 C 
HETATM   24  C15 UNL     1      -7.855  25.422   3.835  1.00  0.00    -0.008 C 
HETATM   25  C17 UNL     1      -8.237  24.486   2.661  1.00  0.00     0.021 C 
ENDBRANCH  10  17
TORSDOF 4
ENDMDL
MODEL 2
REMARK VINA RESULT: -6.964771573      6.096      7.485
REMARK  4 active torsions:
REMARK  status: ('A' for Active; 'I' for Inactive)
REMARK    1  A    between atoms: C2_2  and  C3_3 
REMARK    2  A    between atoms: C3_3  and  C4_4 
REMARK    3  A    between atoms: C3_3  and  C6_6 
REMARK       I    between atoms: C6_6  and  N1_8 
REMARK    4  A    between atoms: C8_15  and  C9_16 
ROOT
HETATM    1  C6  UNL     1     -14.483  24.197   7.236  1.00  0.00     0.227 C 
HETATM    2  O1  UNL     1     -13.797  24.763   8.155  1.00  0.00    -0.273 OA
HETATM    3  N1  UNL     1     -13.940  23.837   6.024  1.00  0.00    -0.306 N 
ATOM      4  H1  UNL     1     -14.323  22.998   5.587  1.00  0.00     0.171 HD
HETATM    5  C7  UNL     1     -12.991  24.446   5.373  1.00  0.00     0.167 A 
HETATM    6  N2  UNL     1     -12.294  25.547   5.651  1.00  0.00    -0.279 N 
ATOM      7  H2  UNL     1     -12.516  26.103   6.477  1.00  0.00     0.189 HD
HETATM    8  N3  UNL     1     -11.349  25.897   4.874  1.00  0.00    -0.295 N 
ATOM      9  H3  UNL     1     -10.810  26.738   5.079  1.00  0.00     0.187 HD
HETATM   10  C8  UNL     1     -11.063  25.187   3.816  1.00  0.00     0.079 A 
HETATM   11  S1  UNL     1     -12.211  23.928   3.914  1.00  0.00    -0.037 SA
ENDROOT
BRANCH   1  12
HETATM   12  C3  UNL     1     -15.912  23.961   7.584  1.00  0.00     0.077 C 
BRANCH  12  13
HETATM   13  C2  UNL     1     -16.745  25.186   7.638  1.00  0.00     0.009 C 
HETATM   14  C1  UNL     1     -17.922  25.103   6.747  1.00  0.00     0.006 C 
ENDBRANCH  12  13
BRANCH  12  15
HETATM   15  C4  UNL     1     -15.858  23.205   8.907  1.00  0.00     0.009 C 
HETATM   16  C5  UNL     1     -15.471  21.791   8.718  1.00  0.00     0.006 C 
ENDBRANCH  12  15
ENDBRANCH   1  12
BRANCH  10  17
HETATM   17  C9  UNL     1     -10.001  25.324   2.789  1.00  0.00     0.015 C 
HETATM   18  C10 UNL     1     -10.523  24.809   1.459  1.00  0.00     0.021 C 
HETATM   19  C11 UNL     1      -9.647  25.276   0.353  1.00  0.00    -0.013 C 
HETATM   20  C12 UNL     1      -9.900  26.753   0.126  1.00  0.00     0.005 C 
HETATM   21  C16 UNL     1      -8.174  25.186   0.788  1.00  0.00     0.010 C 
HETATM   22  C13 UNL     1      -9.749  27.461   1.432  1.00  0.00     0.006 C 
HETATM   23  C14 UNL     1      -9.297  26.595   2.571  1.00  0.00     0.005 C 
HETATM   24  C15 UNL     1      -8.087  25.739   2.171  1.00  0.00    -0.008 C 
HETATM   25  C17 UNL     1      -8.693  24.701   3.148  1.00  0.00     0.021 C 
ENDBRANCH  10  17
TORSDOF 4
ENDMDL
MODEL 3
REMARK VINA RESULT: -6.827012884      7.213      9.012
REMARK  4 active torsions:
REMARK  status: ('A' for Active; 'I' for Inactive)
REMARK    1  A    between atoms: C2_2  and  C3_3 
REMARK    2  A    between atoms: C3_3  and  C4_4 
REMARK    3  A    between atoms: C3_3  and  C6_6 
REMARK       I    between atoms: C6_6  and  N1_8 
REMARK    4  A    between atoms: C8_15  and  C9_16 
ROOT
HETATM    1  C6  UNL     1     -11.147  24.381   3.225  1.00  0.00     0.227 C 
HETATM    2  O1  UNL     1     -11.617  23.330   2.668  1.00  0.00    -0.273 OA
HETATM    3  N1  UNL     1     -11.635  24.868   4.416  1.00  0.00    -0.306 N 
ATOM      4  H1  UNL     1     -10.959  25.324   5.029  1.00  0.00     0.171 HD
HETATM    5  C7  UNL     1     -12.862  24.810   4.847  1.00  0.00     0.167 A 
HETATM    6  N2  UNL     1     -13.967  24.302   4.304  1.00  0.00    -0.279 N 
ATOM      7  H2  UNL     1     -13.948  23.916   3.359  1.00  0.00     0.189 HD
HETATM    8  N3  UNL     1     -15.048  24.304   4.977  1.00  0.00    -0.295 N 
ATOM      9  H3  UNL     1     -15.898  23.916   4.569  1.00  0.00     0.187 HD
HETATM   10  C8  UNL     1     -15.075  24.797   6.185  1.00  0.00     0.079 A 
HETATM   11  S1  UNL     1     -13.459  25.302   6.399  1.00  0.00    -0.037 SA
ENDROOT
BRANCH   1  12
HETATM   12  C3  UNL     1     -10.031  25.031   2.481  1.00  0.00     0.077 C 
BRANCH  12  13
HETATM   13  C2  UNL     1     -10.253  25.156   1.020  1.00  0.00     0.009 C 
HETATM   14  C1  UNL     1      -9.053  25.647   0.311  1.00  0.00     0.006 C 
ENDBRANCH  12  13
BRANCH  12  15
HETATM   15  C4  UNL     1      -8.804  24.201   2.840  1.00  0.00     0.009 C 
HETATM   16  C5  UNL     1      -8.050  24.792   3.966  1.00  0.00     0.006 C 
ENDBRANCH  12  15
ENDBRANCH   1  12
BRANCH  10  17
HETATM   17  C9  UNL     1     -16.157  24.877   7.198  1.00  0.00     0.015 C 
HETATM   18  C10 UNL     1     -16.110  23.641   8.079  1.00  0.00     0.021 C 
HETATM   19  C11 UNL     1     -16.909  23.863   9.311  1.00  0.00    -0.013 C 
HETATM   20  C12 UNL     1     -16.144  24.805  10.220  1.00  0.00     0.005 C 
HETATM   21  C16 UNL     1     -18.204  24.614   8.958  1.00  0.00     0.010 C 
HETATM   22  C13 UNL     1     -15.785  26.024   9.437  1.00  0.00     0.006 C 
HETATM   23  C14 UNL     1     -16.338  26.065   8.042  1.00  0.00     0.005 C 
HETATM   24  C15 UNL     1     -17.835  25.722   8.029  1.00  0.00    -0.008 C 
HETATM   25  C17 UNL     1     -17.524  25.107   6.642  1.00  0.00     0.021 C 
ENDBRANCH  10  17
TORSDOF 4
ENDMDL
MODEL 4
REMARK VINA RESULT: -6.784468757      5.837      7.984
REMARK  4 active torsions:
REMARK  status: ('A' for Active; 'I' for Inactive)
REMARK    1  A    between atoms: C2_2  and  C3_3 
REMARK    2  A    between atoms: C3_3  and  C4_4 
REMARK    3  A    between atoms: C3_3  and  C6_6 
REMARK       I    between atoms: C6_6  and  N1_8 
REMARK    4  A    between atoms: C8_15  and  C9_16 
ROOT
HETATM    1  C6  UNL     1     -13.975  23.733   7.359  1.00  0.00     0.227 C 
HETATM    2  O1  UNL     1     -15.000  23.790   6.595  1.00  0.00    -0.273 OA
HETATM    3  N1  UNL     1     -12.739  24.200   6.973  1.00  0.00    -0.306 N 
ATOM      4  H1  UNL     1     -12.154  24.595   7.710  1.00  0.00     0.171 HD
HETATM    5  C7  UNL     1     -12.234  24.192   5.773  1.00  0.00     0.167 A 
HETATM    6  N2  UNL     1     -12.717  23.752   4.612  1.00  0.00    -0.279 N 
ATOM      7  H2  UNL     1     -13.617  23.273   4.577  1.00  0.00     0.189 HD
HETATM    8  N3  UNL     1     -12.043  23.936   3.549  1.00  0.00    -0.295 N 
ATOM      9  H3  UNL     1     -12.405  23.603   2.656  1.00  0.00     0.187 HD
HETATM   10  C8  UNL     1     -10.891  24.549   3.592  1.00  0.00     0.079 A 
HETATM   11  S1  UNL     1     -10.735  24.895   5.256  1.00  0.00    -0.037 SA
ENDROOT
BRANCH   1  12
HETATM   12  C3  UNL     1     -14.230  23.124   8.694  1.00  0.00     0.077 C 
BRANCH  12  13
HETATM   13  C2  UNL     1     -13.107  22.316   9.229  1.00  0.00     0.009 C 
HETATM   14  C1  UNL     1     -12.526  22.905  10.453  1.00  0.00     0.006 C 
ENDBRANCH  12  13
BRANCH  12  15
HETATM   15  C4  UNL     1     -15.516  22.328   8.507  1.00  0.00     0.009 C 
HETATM   16  C5  UNL     1     -15.322  20.892   8.803  1.00  0.00     0.006 C 
ENDBRANCH  12  15
ENDBRANCH   1  12
BRANCH  10  17
HETATM   17  C9  UNL     1      -9.938  24.942   2.524  1.00  0.00     0.015 C 
HETATM   18  C10 UNL     1     -10.536  24.603   1.170  1.00  0.00     0.021 C 
HETATM   19  C11 UNL     1      -9.800  25.316   0.095  1.00  0.00    -0.013 C 
HETATM   20  C12 UNL     1     -10.181  26.782   0.138  1.00  0.00     0.005 C 
HETATM   21  C16 UNL     1      -8.291  25.288   0.396  1.00  0.00     0.010 C 
HETATM   22  C13 UNL     1      -9.967  27.282   1.528  1.00  0.00     0.006 C 
HETATM   23  C14 UNL     1      -9.353  26.288   2.470  1.00  0.00     0.005 C 
HETATM   24  C15 UNL     1      -8.122  25.617   1.842  1.00  0.00    -0.008 C 
HETATM   25  C17 UNL     1      -8.560  24.387   2.674  1.00  0.00     0.021 C 
ENDBRANCH  10  17
TORSDOF 4
ENDMDL
MODEL 5
REMARK VINA RESULT: -6.775290779      5.902      7.246
REMARK  4 active torsions:
REMARK  status: ('A' for Active; 'I' for Inactive)
REMARK    1  A    between atoms: C2_2  and  C3_3 
REMARK    2  A    between atoms: C3_3  and  C4_4 
REMARK    3  A    between atoms: C3_3  and  C6_6 
REMARK       I    between atoms: C6_6  and  N1_8 
REMARK    4  A    between atoms: C8_15  and  C9_16 
ROOT
HETATM    1  C6  UNL     1     -14.689  25.100   6.710  1.00  0.00     0.227 C 
HETATM    2  O1  UNL     1     -14.438  26.105   7.462  1.00  0.00    -0.273 OA
HETATM    3  N1  UNL     1     -13.789  24.629   5.783  1.00  0.00    -0.306 N 
ATOM      4  H1  UNL     1     -13.797  23.623   5.614  1.00  0.00     0.171 HD
HETATM    5  C7  UNL     1     -12.927  25.324   5.097  1.00  0.00     0.167 A 
HETATM    6  N2  UNL     1     -12.666  26.630   5.070  1.00  0.00    -0.279 N 
ATOM      7  H2  UNL     1     -13.231  27.281   5.615  1.00  0.00     0.189 HD
HETATM    8  N3  UNL     1     -11.702  27.056   4.355  1.00  0.00    -0.295 N 
ATOM      9  H3  UNL     1     -11.494  28.054   4.329  1.00  0.00     0.187 HD
HETATM   10  C8  UNL     1     -10.978  26.225   3.656  1.00  0.00     0.079 A 
HETATM   11  S1  UNL     1     -11.703  24.725   4.025  1.00  0.00    -0.037 SA
ENDROOT
BRANCH   1  12
HETATM   12  C3  UNL     1     -16.029  24.486   6.922  1.00  0.00     0.077 C 
BRANCH  12  13
HETATM   13  C2  UNL     1     -17.167  25.302   6.433  1.00  0.00     0.009 C 
HETATM   14  C1  UNL     1     -18.431  24.972   7.123  1.00  0.00     0.006 C 
ENDBRANCH  12  13
BRANCH  12  15
HETATM   15  C4  UNL     1     -16.084  24.206   8.420  1.00  0.00     0.009 C 
HETATM   16  C5  UNL     1     -15.642  22.832   8.739  1.00  0.00     0.006 C 
ENDBRANCH  12  15
ENDBRANCH   1  12
BRANCH  10  17
HETATM   17  C9  UNL     1      -9.785  26.432   2.797  1.00  0.00     0.015 C 
HETATM   18  C10 UNL     1      -9.266  25.083   2.329  1.00  0.00     0.021 C 
HETATM   19  C11 UNL     1      -8.334  25.265   1.187  1.00  0.00    -0.013 C 
HETATM   20  C12 UNL     1      -9.141  25.625  -0.044  1.00  0.00     0.005 C 
HETATM   21  C16 UNL     1      -7.434  26.487   1.444  1.00  0.00     0.010 C 
HETATM   22  C13 UNL     1     -10.012  26.791   0.290  1.00  0.00     0.006 C 
HETATM   23  C14 UNL     1      -9.803  27.363   1.662  1.00  0.00     0.005 C 
HETATM   24  C15 UNL     1      -8.311  27.583   1.949  1.00  0.00    -0.008 C 
HETATM   25  C17 UNL     1      -8.703  27.256   3.412  1.00  0.00     0.021 C 
ENDBRANCH  10  17
TORSDOF 4
ENDMDL
