MODEL 1
REMARK VINA RESULT: -7.910446631      0.000      0.000
REMARK  7 active torsions:
REMARK  status: ('A' for Active; 'I' for Inactive)
REMARK    1  A    between atoms: C2_2  and  C3_3 
REMARK    2  A    between atoms: N1_10  and  C10_11 
REMARK    3  A    between atoms: C10_11  and  C11_12 
REMARK    4  A    between atoms: C11_12  and  C12_13 
REMARK    5  A    between atoms: C12_13  and  C13_14 
REMARK    6  A    between atoms: C13_14  and  N2_15 
REMARK    7  A    between atoms: N3_18  and  C16_19 
ROOT
HETATM    1  C10 UNL     1      26.228  26.348   9.415  1.00  0.00     0.117 C 
ENDROOT
BRANCH   1   2
HETATM    2  N1  UNL     1      24.837  26.113   9.409  1.00  0.00    -0.407 N 
HETATM    3  C5  UNL     1      24.163  25.988   8.179  1.00  0.00     0.090 C 
HETATM    4  C4  UNL     1      23.913  24.544   7.873  1.00  0.00     0.050 C 
HETATM    5  C6  UNL     1      22.943  26.863   8.046  1.00  0.00     0.053 C 
HETATM    6  C3  UNL     1      22.495  24.193   7.593  1.00  0.00     0.082 C 
HETATM    7  N4  UNL     1      21.823  25.173   6.790  1.00  0.00    -0.392 N 
HETATM    8  C24 UNL     1      22.027  26.402   6.997  1.00  0.00    -0.015 C 
ATOM      9  H4  UNL     1      21.182  24.878   6.053  1.00  0.00     0.159 HD
HETATM   10  C25 UNL     1      21.321  27.447   6.162  1.00  0.00     0.063 C 
HETATM   11  C7  UNL     1      22.158  27.041   9.309  1.00  0.00     0.014 C 
HETATM   12  C8  UNL     1      23.105  27.522  10.386  1.00  0.00     0.020 C 
HETATM   13  C9  UNL     1      24.100  26.369  10.582  1.00  0.00     0.117 C 
BRANCH   6  14
HETATM   14  C2  UNL     1      22.362  22.872   6.836  1.00  0.00     0.021 C 
HETATM   15  C1  UNL     1      23.598  22.557   6.024  1.00  0.00     0.007 C 
ENDBRANCH   6  14
ENDBRANCH   1   2
BRANCH   1  16
HETATM   16  C11 UNL     1      26.625  27.773   9.308  1.00  0.00     0.021 C 
BRANCH  16  17
HETATM   17  C12 UNL     1      27.378  28.149   8.079  1.00  0.00     0.021 C 
BRANCH  17  18
HETATM   18  C13 UNL     1      27.365  29.614   7.763  1.00  0.00     0.117 C 
BRANCH  18  19
HETATM   19  N2  UNL     1      26.672  29.907   6.564  1.00  0.00    -0.406 N 
HETATM   20  C14 UNL     1      26.037  28.810   5.908  1.00  0.00     0.137 C 
HETATM   21  C15 UNL     1      24.559  29.135   5.602  1.00  0.00     0.141 C 
HETATM   22  N3  UNL     1      24.582  30.263   4.761  1.00  0.00    -0.386 N 
HETATM   23  C22 UNL     1      25.460  31.304   5.054  1.00  0.00     0.078 C 
HETATM   24  C23 UNL     1      25.982  31.143   6.481  1.00  0.00     0.161 C 
BRANCH  22  25
HETATM   25  C16 UNL     1      23.521  30.461   3.851  1.00  0.00     0.083 C 
HETATM   26  C17 UNL     1      22.975  29.138   3.389  1.00  0.00     0.025 C 
HETATM   27  C18 UNL     1      23.629  28.583   2.171  1.00  0.00     0.002 C 
HETATM   28  C19 UNL     1      23.684  29.542   1.033  1.00  0.00     0.000 C 
HETATM   29  C20 UNL     1      23.381  30.959   1.382  1.00  0.00     0.002 C 
HETATM   30  C21 UNL     1      23.858  31.403   2.723  1.00  0.00     0.025 C 
ENDBRANCH  22  25
ENDBRANCH  18  19
ENDBRANCH  17  18
ENDBRANCH  16  17
ENDBRANCH   1  16
TORSDOF 7
ENDMDL
MODEL 2
REMARK VINA RESULT: -7.605462829      0.578      1.062
REMARK  7 active torsions:
REMARK  status: ('A' for Active; 'I' for Inactive)
REMARK    1  A    between atoms: C2_2  and  C3_3 
REMARK    2  A    between atoms: N1_10  and  C10_11 
REMARK    3  A    between atoms: C10_11  and  C11_12 
REMARK    4  A    between atoms: C11_12  and  C12_13 
REMARK    5  A    between atoms: C12_13  and  C13_14 
REMARK    6  A    between atoms: C13_14  and  N2_15 
REMARK    7  A    between atoms: N3_18  and  C16_19 
ROOT
HETATM    1  C10 UNL     1      26.402  26.965   9.483  1.00  0.00     0.117 C 
ENDROOT
BRANCH   1   2
HETATM    2  N1  UNL     1      25.037  26.610   9.534  1.00  0.00    -0.407 N 
HETATM    3  C5  UNL     1      24.360  26.295   8.340  1.00  0.00     0.090 C 
HETATM    4  C4  UNL     1      24.237  24.811   8.193  1.00  0.00     0.050 C 
HETATM    5  C6  UNL     1      23.065  27.041   8.143  1.00  0.00     0.053 C 
HETATM    6  C3  UNL     1      22.852  24.308   7.985  1.00  0.00     0.082 C 
HETATM    7  N4  UNL     1      22.084  25.134   7.099  1.00  0.00    -0.392 N 
HETATM    8  C24 UNL     1      22.179  26.391   7.171  1.00  0.00    -0.015 C 
ATOM      9  H4  UNL     1      21.462  24.707   6.413  1.00  0.00     0.159 HD
HETATM   10  C25 UNL     1      21.371  27.275   6.247  1.00  0.00     0.063 C 
HETATM   11  C7  UNL     1      22.285  27.283   9.399  1.00  0.00     0.014 C 
HETATM   12  C8  UNL     1      23.199  27.958  10.396  1.00  0.00     0.020 C 
HETATM   13  C9  UNL     1      24.297  26.924  10.690  1.00  0.00     0.117 C 
BRANCH   6  14
HETATM   14  C2  UNL     1      22.828  22.908   7.374  1.00  0.00     0.021 C 
HETATM   15  C1  UNL     1      22.447  22.933   5.912  1.00  0.00     0.007 C 
ENDBRANCH   6  14
ENDBRANCH   1   2
BRANCH   1  16
HETATM   16  C11 UNL     1      26.667  28.403   9.230  1.00  0.00     0.021 C 
BRANCH  16  17
HETATM   17  C12 UNL     1      27.328  28.726   7.935  1.00  0.00     0.021 C 
BRANCH  17  18
HETATM   18  C13 UNL     1      27.016  30.090   7.398  1.00  0.00     0.117 C 
BRANCH  18  19
HETATM   19  N2  UNL     1      25.818  30.118   6.645  1.00  0.00    -0.406 N 
HETATM   20  C14 UNL     1      25.439  31.377   6.093  1.00  0.00     0.137 C 
HETATM   21  C15 UNL     1      25.145  31.248   4.583  1.00  0.00     0.141 C 
HETATM   22  N3  UNL     1      24.085  30.329   4.477  1.00  0.00    -0.386 N 
HETATM   23  C22 UNL     1      24.109  29.180   5.265  1.00  0.00     0.078 C 
HETATM   24  C23 UNL     1      25.511  28.989   5.843  1.00  0.00     0.161 C 
BRANCH  22  25
HETATM   25  C16 UNL     1      23.207  30.417   3.375  1.00  0.00     0.083 C 
HETATM   26  C17 UNL     1      22.765  29.045   2.948  1.00  0.00     0.025 C 
HETATM   27  C18 UNL     1      23.634  28.397   1.927  1.00  0.00     0.002 C 
HETATM   28  C19 UNL     1      23.889  29.249   0.732  1.00  0.00     0.000 C 
HETATM   29  C20 UNL     1      23.517  30.685   0.886  1.00  0.00     0.002 C 
HETATM   30  C21 UNL     1      23.738  31.260   2.243  1.00  0.00     0.025 C 
ENDBRANCH  22  25
ENDBRANCH  18  19
ENDBRANCH  17  18
ENDBRANCH  16  17
ENDBRANCH   1  16
TORSDOF 7
ENDMDL
MODEL 3
REMARK VINA RESULT: -7.586738110      1.244      2.051
REMARK  7 active torsions:
REMARK  status: ('A' for Active; 'I' for Inactive)
REMARK    1  A    between atoms: C2_2  and  C3_3 
REMARK    2  A    between atoms: N1_10  and  C10_11 
REMARK    3  A    between atoms: C10_11  and  C11_12 
REMARK    4  A    between atoms: C11_12  and  C12_13 
REMARK    5  A    between atoms: C12_13  and  C13_14 
REMARK    6  A    between atoms: C13_14  and  N2_15 
REMARK    7  A    between atoms: N3_18  and  C16_19 
ROOT
HETATM    1  C10 UNL     1      26.209  25.977   9.655  1.00  0.00     0.117 C 
ENDROOT
BRANCH   1   2
HETATM    2  N1  UNL     1      24.805  25.885   9.553  1.00  0.00    -0.407 N 
HETATM    3  C5  UNL     1      24.208  25.826   8.278  1.00  0.00     0.090 C 
HETATM    4  C4  UNL     1      23.834  24.415   7.950  1.00  0.00     0.050 C 
HETATM    5  C6  UNL     1      23.096  26.821   8.064  1.00  0.00     0.053 C 
HETATM    6  C3  UNL     1      22.409  24.209   7.571  1.00  0.00     0.082 C 
HETATM    7  N4  UNL     1      21.898  25.250   6.728  1.00  0.00    -0.392 N 
HETATM    8  C24 UNL     1      22.211  26.452   6.954  1.00  0.00    -0.015 C 
ATOM      9  H4  UNL     1      21.283  25.020   5.948  1.00  0.00     0.159 HD
HETATM   10  C25 UNL     1      21.676  27.561   6.076  1.00  0.00     0.063 C 
HETATM   11  C7  UNL     1      22.248  27.082   9.272  1.00  0.00     0.014 C 
HETATM   12  C8  UNL     1      23.162  27.468  10.413  1.00  0.00     0.020 C 
HETATM   13  C9  UNL     1      24.019  26.219  10.673  1.00  0.00     0.117 C 
BRANCH   6  14
HETATM   14  C2  UNL     1      22.195  22.906   6.802  1.00  0.00     0.021 C 
HETATM   15  C1  UNL     1      23.418  22.509   6.007  1.00  0.00     0.007 C 
ENDBRANCH   6  14
ENDBRANCH   1   2
BRANCH   1  16
HETATM   16  C11 UNL     1      26.705  27.068  10.530  1.00  0.00     0.021 C 
BRANCH  16  17
HETATM   17  C12 UNL     1      27.019  28.356   9.851  1.00  0.00     0.021 C 
BRANCH  17  18
HETATM   18  C13 UNL     1      27.314  28.233   8.387  1.00  0.00     0.117 C 
BRANCH  18  19
HETATM   19  N2  UNL     1      26.253  28.703   7.576  1.00  0.00    -0.406 N 
HETATM   20  C14 UNL     1      25.447  29.746   8.120  1.00  0.00     0.137 C 
HETATM   21  C15 UNL     1      25.325  30.921   7.125  1.00  0.00     0.141 C 
HETATM   22  N3  UNL     1      24.722  30.385   5.973  1.00  0.00    -0.386 N 
HETATM   23  C22 UNL     1      25.144  29.142   5.507  1.00  0.00     0.078 C 
HETATM   24  C23 UNL     1      26.467  28.771   6.175  1.00  0.00     0.161 C 
BRANCH  22  25
HETATM   25  C16 UNL     1      23.954  31.232   5.145  1.00  0.00     0.083 C 
HETATM   26  C17 UNL     1      23.096  32.142   5.980  1.00  0.00     0.025 C 
HETATM   27  C18 UNL     1      21.749  31.602   6.311  1.00  0.00     0.002 C 
HETATM   28  C19 UNL     1      20.987  31.128   5.123  1.00  0.00     0.000 C 
HETATM   29  C20 UNL     1      21.788  30.972   3.876  1.00  0.00     0.002 C 
HETATM   30  C21 UNL     1      23.188  30.499   4.072  1.00  0.00     0.025 C 
ENDBRANCH  22  25
ENDBRANCH  18  19
ENDBRANCH  17  18
ENDBRANCH  16  17
ENDBRANCH   1  16
TORSDOF 7
ENDMDL
MODEL 4
REMARK VINA RESULT: -7.378555958      1.771      4.659
REMARK  7 active torsions:
REMARK  status: ('A' for Active; 'I' for Inactive)
REMARK    1  A    between atoms: C2_2  and  C3_3 
REMARK    2  A    between atoms: N1_10  and  C10_11 
REMARK    3  A    between atoms: C10_11  and  C11_12 
REMARK    4  A    between atoms: C11_12  and  C12_13 
REMARK    5  A    between atoms: C12_13  and  C13_14 
REMARK    6  A    between atoms: C13_14  and  N2_15 
REMARK    7  A    between atoms: N3_18  and  C16_19 
ROOT
HETATM    1  C10 UNL     1      22.919  26.233   8.930  1.00  0.00     0.117 C 
ENDROOT
BRANCH   1   2
HETATM    2  N1  UNL     1      23.918  27.209   9.130  1.00  0.00    -0.407 N 
HETATM    3  C5  UNL     1      25.255  26.906   8.806  1.00  0.00     0.090 C 
HETATM    4  C4  UNL     1      25.615  27.513   7.486  1.00  0.00     0.050 C 
HETATM    5  C6  UNL     1      26.244  27.197   9.906  1.00  0.00     0.053 C 
HETATM    6  C3  UNL     1      26.822  28.384   7.499  1.00  0.00     0.082 C 
HETATM    7  N4  UNL     1      27.885  27.858   8.305  1.00  0.00    -0.392 N 
HETATM    8  C24 UNL     1      27.621  27.312   9.414  1.00  0.00    -0.015 C 
ATOM      9  H4  UNL     1      28.850  27.923   7.985  1.00  0.00     0.159 HD
HETATM   10  C25 UNL     1      28.731  26.758  10.277  1.00  0.00     0.063 C 
HETATM   11  C7  UNL     1      25.934  28.415  10.721  1.00  0.00     0.014 C 
HETATM   12  C8  UNL     1      24.516  28.290  11.232  1.00  0.00     0.020 C 
HETATM   13  C9  UNL     1      23.639  28.304   9.971  1.00  0.00     0.117 C 
BRANCH   6  14
HETATM   14  C2  UNL     1      27.414  28.576   6.103  1.00  0.00     0.021 C 
HETATM   15  C1  UNL     1      28.058  29.934   5.942  1.00  0.00     0.007 C 
ENDBRANCH   6  14
ENDBRANCH   1   2
BRANCH   1  16
HETATM   16  C11 UNL     1      22.808  25.724   7.541  1.00  0.00     0.021 C 
BRANCH  16  17
HETATM   17  C12 UNL     1      21.700  26.296   6.725  1.00  0.00     0.021 C 
BRANCH  17  18
HETATM   18  C13 UNL     1      21.300  27.689   7.105  1.00  0.00     0.117 C 
BRANCH  18  19
HETATM   19  N2  UNL     1      21.612  28.638   6.102  1.00  0.00    -0.406 N 
HETATM   20  C14 UNL     1      22.576  29.633   6.440  1.00  0.00     0.137 C 
HETATM   21  C15 UNL     1      23.688  29.706   5.372  1.00  0.00     0.141 C 
HETATM   22  N3  UNL     1      23.041  30.040   4.169  1.00  0.00    -0.386 N 
HETATM   23  C22 UNL     1      21.837  29.413   3.855  1.00  0.00     0.078 C 
HETATM   24  C23 UNL     1      21.648  28.193   4.755  1.00  0.00     0.161 C 
BRANCH  22  25
HETATM   25  C16 UNL     1      23.759  30.740   3.175  1.00  0.00     0.083 C 
HETATM   26  C17 UNL     1      23.566  32.223   3.338  1.00  0.00     0.025 C 
HETATM   27  C18 UNL     1      22.408  32.788   2.593  1.00  0.00     0.002 C 
HETATM   28  C19 UNL     1      22.391  32.424   1.149  1.00  0.00     0.000 C 
HETATM   29  C20 UNL     1      23.321  31.326   0.761  1.00  0.00     0.002 C 
HETATM   30  C21 UNL     1      23.494  30.247   1.775  1.00  0.00     0.025 C 
ENDBRANCH  22  25
ENDBRANCH  18  19
ENDBRANCH  17  18
ENDBRANCH  16  17
ENDBRANCH   1  16
TORSDOF 7
ENDMDL
MODEL 5
REMARK VINA RESULT: -7.333729815      2.064      6.225
REMARK  7 active torsions:
REMARK  status: ('A' for Active; 'I' for Inactive)
REMARK    1  A    between atoms: C2_2  and  C3_3 
REMARK    2  A    between atoms: N1_10  and  C10_11 
REMARK    3  A    between atoms: C10_11  and  C11_12 
REMARK    4  A    between atoms: C11_12  and  C12_13 
REMARK    5  A    between atoms: C12_13  and  C13_14 
REMARK    6  A    between atoms: C13_14  and  N2_15 
REMARK    7  A    between atoms: N3_18  and  C16_19 
ROOT
HETATM    1  C10 UNL     1      25.795  31.487   6.106  1.00  0.00     0.117 C 
ENDROOT
BRANCH   1   2
HETATM    2  N1  UNL     1      24.644  31.371   5.298  1.00  0.00    -0.407 N 
HETATM    3  C5  UNL     1      24.246  30.099   4.842  1.00  0.00     0.090 C 
HETATM    4  C4  UNL     1      23.114  29.584   5.675  1.00  0.00     0.050 C 
HETATM    5  C6  UNL     1      24.000  30.019   3.356  1.00  0.00     0.053 C 
HETATM    6  C3  UNL     1      21.901  29.180   4.914  1.00  0.00     0.082 C 
HETATM    7  N4  UNL     1      22.208  28.482   3.699  1.00  0.00    -0.392 N 
HETATM    8  C24 UNL     1      23.172  28.868   2.981  1.00  0.00    -0.015 C 
ATOM      9  H4  UNL     1      21.649  27.678   3.416  1.00  0.00     0.159 HD
HETATM   10  C25 UNL     1      23.505  28.145   1.694  1.00  0.00     0.063 C 
HETATM   11  C7  UNL     1      23.393  31.249   2.754  1.00  0.00     0.014 C 
HETATM   12  C8  UNL     1      24.252  32.432   3.139  1.00  0.00     0.020 C 
HETATM   13  C9  UNL     1      24.138  32.524   4.668  1.00  0.00     0.117 C 
BRANCH   6  14
HETATM   14  C2  UNL     1      20.998  28.243   5.715  1.00  0.00     0.021 C 
HETATM   15  C1  UNL     1      21.779  27.126   6.369  1.00  0.00     0.007 C 
ENDBRANCH   6  14
ENDBRANCH   1   2
BRANCH   1  16
HETATM   16  C11 UNL     1      27.061  31.055   5.463  1.00  0.00     0.021 C 
BRANCH  16  17
HETATM   17  C12 UNL     1      27.985  30.257   6.316  1.00  0.00     0.021 C 
BRANCH  17  18
HETATM   18  C13 UNL     1      27.766  28.776   6.256  1.00  0.00     0.117 C 
BRANCH  18  19
HETATM   19  N2  UNL     1      27.083  28.280   7.392  1.00  0.00    -0.406 N 
HETATM   20  C14 UNL     1      27.205  29.038   8.594  1.00  0.00     0.137 C 
HETATM   21  C15 UNL     1      25.816  29.337   9.198  1.00  0.00     0.141 C 
HETATM   22  N3  UNL     1      25.238  28.084   9.466  1.00  0.00    -0.386 N 
HETATM   23  C22 UNL     1      25.363  27.068   8.521  1.00  0.00     0.078 C 
HETATM   24  C23 UNL     1      25.820  27.664   7.191  1.00  0.00     0.161 C 
BRANCH  22  25
HETATM   25  C16 UNL     1      24.291  27.974  10.508  1.00  0.00     0.083 C 
HETATM   26  C17 UNL     1      22.927  27.683   9.945  1.00  0.00     0.025 C 
HETATM   27  C18 UNL     1      22.112  28.888   9.624  1.00  0.00     0.002 C 
HETATM   28  C19 UNL     1      22.007  29.855  10.751  1.00  0.00     0.000 C 
HETATM   29  C20 UNL     1      22.964  29.631  11.871  1.00  0.00     0.002 C 
HETATM   30  C21 UNL     1      24.312  29.135  11.470  1.00  0.00     0.025 C 
ENDBRANCH  22  25
ENDBRANCH  18  19
ENDBRANCH  17  18
ENDBRANCH  16  17
ENDBRANCH   1  16
TORSDOF 7
ENDMDL
