MODEL 1
REMARK VINA RESULT: -6.695290593      0.000      0.000
REMARK  8 active torsions:
REMARK  status: ('A' for Active; 'I' for Inactive)
REMARK    1  A    between atoms: C2_2  and  N3_23 
REMARK    2  A    between atoms: C3_3  and  C4_4 
REMARK    3  A    between atoms: C4_4  and  N1_5 
REMARK    4  A    between atoms: N2_8  and  S1_9 
REMARK    5  A    between atoms: S1_9  and  C7_12 
REMARK    6  A    between atoms: C7_12  and  C8_13 
REMARK    7  A    between atoms: C8_13  and  C9_14 
REMARK    8  A    between atoms: C10_15  and  C12_17 
ROOT
HETATM    1  N1  UNL     1      24.373  30.233   8.445  1.00  0.00    -0.341 N 
HETATM    2  C5  UNL     1      23.330  31.051   8.792  1.00  0.00     0.111 A 
HETATM    3  C6  UNL     1      22.462  31.166   7.734  1.00  0.00     0.128 A 
HETATM    4  N2  UNL     1      22.970  30.419   6.735  1.00  0.00    -0.238 N 
HETATM    5  C16 UNL     1      24.111  29.875   7.192  1.00  0.00     0.096 A 
HETATM    6  C17 UNL     1      24.959  28.960   6.375  1.00  0.00     0.090 C 
ENDROOT
BRANCH   4   7
HETATM    7  S1  UNL     1      22.249  30.228   5.161  1.00  0.00     0.237 S 
HETATM    8  O1  UNL     1      23.340  30.508   4.142  1.00  0.00    -0.205 OA
HETATM    9  O2  UNL     1      21.182  31.223   4.920  1.00  0.00    -0.205 OA
BRANCH   7  10
HETATM   10  C7  UNL     1      21.752  28.553   4.909  1.00  0.00     0.168 C 
BRANCH  10  11
HETATM   11  C8  UNL     1      21.244  27.947   6.166  1.00  0.00     0.044 C 
BRANCH  11  12
HETATM   12  C9  UNL     1      21.955  26.729   6.619  1.00  0.00    -0.023 C 
HETATM   13  C10 UNL     1      22.262  26.510   7.880  1.00  0.00    -0.080 C 
HETATM   14  C11 UNL     1      21.856  27.563   8.878  1.00  0.00     0.044 C 
BRANCH  13  15
HETATM   15  C12 UNL     1      22.969  25.293   8.297  1.00  0.00    -0.029 C 
HETATM   16  C13 UNL     1      24.451  25.489   8.174  1.00  0.00     0.019 C 
HETATM   17  C14 UNL     1      22.656  24.961   9.748  1.00  0.00     0.019 C 
HETATM   18  C15 UNL     1      22.625  24.104   7.401  1.00  0.00     0.019 C 
ENDBRANCH  13  15
ENDBRANCH  11  12
ENDBRANCH  10  11
ENDBRANCH   7  10
ENDBRANCH   4   7
BRANCH   1  19
HETATM   19  C4  UNL     1      25.478  29.921   9.344  1.00  0.00     0.159 C 
BRANCH  19  20
HETATM   20  C3  UNL     1      25.308  28.650  10.036  1.00  0.00     0.017 C 
HETATM   21  C2  UNL     1      24.710  28.415  11.165  1.00  0.00     0.001 C 
HETATM   22  C1  UNL     1      24.712  26.948  11.608  1.00  0.00     0.067 C 
BRANCH  21  23
HETATM   23  N3  UNL     1      24.098  29.357  12.025  1.00  0.00    -0.385 N 
HETATM   24  C18 UNL     1      24.909  30.085  12.992  1.00  0.00     0.122 C 
HETATM   25  C19 UNL     1      24.576  31.555  12.802  1.00  0.00     0.020 C 
HETATM   26  C20 UNL     1      23.170  31.779  13.244  1.00  0.00     0.003 C 
HETATM   27  C21 UNL     1      22.251  30.603  13.048  1.00  0.00     0.020 C 
HETATM   28  C22 UNL     1      22.688  29.666  11.975  1.00  0.00     0.122 C 
ENDBRANCH  21  23
ENDBRANCH  19  20
ENDBRANCH   1  19
TORSDOF 8
ENDMDL
MODEL 2
REMARK VINA RESULT: -6.569413024      0.634      1.619
REMARK  8 active torsions:
REMARK  status: ('A' for Active; 'I' for Inactive)
REMARK    1  A    between atoms: C2_2  and  N3_23 
REMARK    2  A    between atoms: C3_3  and  C4_4 
REMARK    3  A    between atoms: C4_4  and  N1_5 
REMARK    4  A    between atoms: N2_8  and  S1_9 
REMARK    5  A    between atoms: S1_9  and  C7_12 
REMARK    6  A    between atoms: C7_12  and  C8_13 
REMARK    7  A    between atoms: C8_13  and  C9_14 
REMARK    8  A    between atoms: C10_15  and  C12_17 
ROOT
HETATM    1  N1  UNL     1      25.214  29.630   7.825  1.00  0.00    -0.341 N 
HETATM    2  C5  UNL     1      25.889  28.941   6.852  1.00  0.00     0.111 A 
HETATM    3  C6  UNL     1      25.164  28.959   5.686  1.00  0.00     0.128 A 
HETATM    4  N2  UNL     1      24.041  29.660   5.942  1.00  0.00    -0.238 N 
HETATM    5  C16 UNL     1      24.103  30.046   7.227  1.00  0.00     0.096 A 
HETATM    6  C17 UNL     1      23.042  30.865   7.880  1.00  0.00     0.090 C 
ENDROOT
BRANCH   4   7
HETATM    7  S1  UNL     1      22.775  29.975   4.789  1.00  0.00     0.237 S 
HETATM    8  O1  UNL     1      23.433  30.039   3.421  1.00  0.00    -0.205 OA
HETATM    9  O2  UNL     1      22.141  31.293   5.013  1.00  0.00    -0.205 OA
BRANCH   7  10
HETATM   10  C7  UNL     1      21.641  28.623   4.731  1.00  0.00     0.168 C 
BRANCH  10  11
HETATM   11  C8  UNL     1      21.306  28.143   6.096  1.00  0.00     0.044 C 
BRANCH  11  12
HETATM   12  C9  UNL     1      22.032  26.931   6.541  1.00  0.00    -0.023 C 
HETATM   13  C10 UNL     1      22.244  26.653   7.810  1.00  0.00    -0.080 C 
HETATM   14  C11 UNL     1      21.713  27.631   8.825  1.00  0.00     0.044 C 
BRANCH  13  15
HETATM   15  C12 UNL     1      22.969  25.443   8.219  1.00  0.00    -0.029 C 
HETATM   16  C13 UNL     1      24.445  25.640   8.039  1.00  0.00     0.019 C 
HETATM   17  C14 UNL     1      22.710  25.133   9.686  1.00  0.00     0.019 C 
HETATM   18  C15 UNL     1      22.594  24.241   7.354  1.00  0.00     0.019 C 
ENDBRANCH  13  15
ENDBRANCH  11  12
ENDBRANCH  10  11
ENDBRANCH   7  10
ENDBRANCH   4   7
BRANCH   1  19
HETATM   19  C4  UNL     1      25.710  29.781   9.189  1.00  0.00     0.159 C 
BRANCH  19  20
HETATM   20  C3  UNL     1      25.436  28.619  10.026  1.00  0.00     0.017 C 
HETATM   21  C2  UNL     1      24.758  28.558  11.133  1.00  0.00     0.001 C 
HETATM   22  C1  UNL     1      24.662  27.163  11.759  1.00  0.00     0.067 C 
BRANCH  21  23
HETATM   23  N3  UNL     1      24.143  29.629  11.822  1.00  0.00    -0.385 N 
HETATM   24  C18 UNL     1      22.832  30.104  11.398  1.00  0.00     0.122 C 
HETATM   25  C19 UNL     1      21.967  30.134  12.646  1.00  0.00     0.020 C 
HETATM   26  C20 UNL     1      22.482  31.203  13.549  1.00  0.00     0.003 C 
HETATM   27  C21 UNL     1      23.966  31.445  13.461  1.00  0.00     0.020 C 
HETATM   28  C22 UNL     1      24.741  30.272  12.970  1.00  0.00     0.122 C 
ENDBRANCH  21  23
ENDBRANCH  19  20
ENDBRANCH   1  19
TORSDOF 8
ENDMDL
MODEL 3
REMARK VINA RESULT: -6.347075902      3.933      6.781
REMARK  8 active torsions:
REMARK  status: ('A' for Active; 'I' for Inactive)
REMARK    1  A    between atoms: C2_2  and  N3_23 
REMARK    2  A    between atoms: C3_3  and  C4_4 
REMARK    3  A    between atoms: C4_4  and  N1_5 
REMARK    4  A    between atoms: N2_8  and  S1_9 
REMARK    5  A    between atoms: S1_9  and  C7_12 
REMARK    6  A    between atoms: C7_12  and  C8_13 
REMARK    7  A    between atoms: C8_13  and  C9_14 
REMARK    8  A    between atoms: C10_15  and  C12_17 
ROOT
HETATM    1  N1  UNL     1      22.270  29.679   8.161  1.00  0.00    -0.341 N 
HETATM    2  C5  UNL     1      22.529  30.985   7.841  1.00  0.00     0.111 A 
HETATM    3  C6  UNL     1      22.454  31.151   6.480  1.00  0.00     0.128 A 
HETATM    4  N2  UNL     1      22.148  29.946   5.961  1.00  0.00    -0.238 N 
HETATM    5  C16 UNL     1      22.045  29.089   6.991  1.00  0.00     0.096 A 
HETATM    6  C17 UNL     1      21.697  27.650   6.819  1.00  0.00     0.090 C 
ENDROOT
BRANCH   4   7
HETATM    7  S1  UNL     1      21.941  29.610   4.265  1.00  0.00     0.237 S 
HETATM    8  O1  UNL     1      20.562  28.992   4.106  1.00  0.00    -0.205 OA
HETATM    9  O2  UNL     1      22.911  28.605   3.779  1.00  0.00    -0.205 OA
BRANCH   7  10
HETATM   10  C7  UNL     1      21.921  31.111   3.337  1.00  0.00     0.168 C 
BRANCH  10  11
HETATM   11  C8  UNL     1      22.905  31.069   2.226  1.00  0.00     0.044 C 
BRANCH  11  12
HETATM   12  C9  UNL     1      22.810  32.177   1.247  1.00  0.00    -0.023 C 
HETATM   13  C10 UNL     1      23.245  32.074   0.009  1.00  0.00    -0.080 C 
HETATM   14  C11 UNL     1      23.857  30.759  -0.396  1.00  0.00     0.044 C 
BRANCH  13  15
HETATM   15  C12 UNL     1      23.138  33.192  -0.937  1.00  0.00    -0.029 C 
HETATM   16  C13 UNL     1      24.180  34.227  -0.632  1.00  0.00     0.019 C 
HETATM   17  C14 UNL     1      23.354  32.711  -2.364  1.00  0.00     0.019 C 
HETATM   18  C15 UNL     1      21.790  33.903  -0.821  1.00  0.00     0.019 C 
ENDBRANCH  13  15
ENDBRANCH  11  12
ENDBRANCH  10  11
ENDBRANCH   7  10
ENDBRANCH   4   7
BRANCH   1  19
HETATM   19  C4  UNL     1      22.290  29.170   9.528  1.00  0.00     0.159 C 
BRANCH  19  20
HETATM   20  C3  UNL     1      23.627  29.151  10.109  1.00  0.00     0.017 C 
HETATM   21  C2  UNL     1      24.474  28.168  10.162  1.00  0.00     0.001 C 
HETATM   22  C1  UNL     1      25.805  28.494  10.848  1.00  0.00     0.067 C 
BRANCH  21  23
HETATM   23  N3  UNL     1      24.287  26.847   9.691  1.00  0.00    -0.385 N 
HETATM   24  C18 UNL     1      23.586  25.877  10.521  1.00  0.00     0.122 C 
HETATM   25  C19 UNL     1      22.511  25.263   9.640  1.00  0.00     0.020 C 
HETATM   26  C20 UNL     1      23.178  24.447   8.586  1.00  0.00     0.003 C 
HETATM   27  C21 UNL     1      24.531  24.949   8.158  1.00  0.00     0.020 C 
HETATM   28  C22 UNL     1      24.736  26.406   8.390  1.00  0.00     0.122 C 
ENDBRANCH  21  23
ENDBRANCH  19  20
ENDBRANCH   1  19
TORSDOF 8
ENDMDL
MODEL 4
REMARK VINA RESULT: -6.248566110      1.446      2.740
REMARK  8 active torsions:
REMARK  status: ('A' for Active; 'I' for Inactive)
REMARK    1  A    between atoms: C2_2  and  N3_23 
REMARK    2  A    between atoms: C3_3  and  C4_4 
REMARK    3  A    between atoms: C4_4  and  N1_5 
REMARK    4  A    between atoms: N2_8  and  S1_9 
REMARK    5  A    between atoms: S1_9  and  C7_12 
REMARK    6  A    between atoms: C7_12  and  C8_13 
REMARK    7  A    between atoms: C8_13  and  C9_14 
REMARK    8  A    between atoms: C10_15  and  C12_17 
ROOT
HETATM    1  N1  UNL     1      24.137  30.750   7.591  1.00  0.00    -0.341 N 
HETATM    2  C5  UNL     1      23.059  31.588   7.707  1.00  0.00     0.111 A 
HETATM    3  C6  UNL     1      22.223  31.417   6.632  1.00  0.00     0.128 A 
HETATM    4  N2  UNL     1      22.786  30.473   5.852  1.00  0.00    -0.238 N 
HETATM    5  C16 UNL     1      23.927  30.095   6.453  1.00  0.00     0.096 A 
HETATM    6  C17 UNL     1      24.828  29.045   5.899  1.00  0.00     0.090 C 
ENDROOT
BRANCH   4   7
HETATM    7  S1  UNL     1      22.122  29.887   4.352  1.00  0.00     0.237 S 
HETATM    8  O1  UNL     1      23.268  29.833   3.357  1.00  0.00    -0.205 OA
HETATM    9  O2  UNL     1      21.121  30.821   3.791  1.00  0.00    -0.205 OA
BRANCH   7  10
HETATM   10  C7  UNL     1      21.547  28.229   4.537  1.00  0.00     0.168 C 
BRANCH  10  11
HETATM   11  C8  UNL     1      21.237  27.922   5.956  1.00  0.00     0.044 C 
BRANCH  11  12
HETATM   12  C9  UNL     1      21.898  26.715   6.506  1.00  0.00    -0.023 C 
HETATM   13  C10 UNL     1      22.294  26.627   7.758  1.00  0.00    -0.080 C 
HETATM   14  C11 UNL     1      22.047  27.822   8.642  1.00  0.00     0.044 C 
BRANCH  13  15
HETATM   15  C12 UNL     1      22.948  25.418   8.273  1.00  0.00    -0.029 C 
HETATM   16  C13 UNL     1      24.414  25.448   7.954  1.00  0.00     0.019 C 
HETATM   17  C14 UNL     1      22.796  25.326   9.784  1.00  0.00     0.019 C 
HETATM   18  C15 UNL     1      22.398  24.154   7.613  1.00  0.00     0.019 C 
ENDBRANCH  13  15
ENDBRANCH  11  12
ENDBRANCH  10  11
ENDBRANCH   7  10
ENDBRANCH   4   7
BRANCH   1  19
HETATM   19  C4  UNL     1      25.222  30.701   8.565  1.00  0.00     0.159 C 
BRANCH  19  20
HETATM   20  C3  UNL     1      24.765  30.381   9.911  1.00  0.00     0.017 C 
HETATM   21  C2  UNL     1      25.143  29.410  10.687  1.00  0.00     0.001 C 
HETATM   22  C1  UNL     1      24.454  29.366  12.055  1.00  0.00     0.067 C 
BRANCH  21  23
HETATM   23  N3  UNL     1      26.080  28.392  10.393  1.00  0.00    -0.385 N 
HETATM   24  C18 UNL     1      27.281  28.712   9.634  1.00  0.00     0.122 C 
HETATM   25  C19 UNL     1      28.448  28.155  10.432  1.00  0.00     0.020 C 
HETATM   26  C20 UNL     1      28.368  26.667  10.403  1.00  0.00     0.003 C 
HETATM   27  C21 UNL     1      26.972  26.109  10.318  1.00  0.00     0.020 C 
HETATM   28  C22 UNL     1      25.922  27.027  10.842  1.00  0.00     0.122 C 
ENDBRANCH  21  23
ENDBRANCH  19  20
ENDBRANCH   1  19
TORSDOF 8
ENDMDL
MODEL 5
REMARK VINA RESULT: -6.195109465      1.334      2.155
REMARK  8 active torsions:
REMARK  status: ('A' for Active; 'I' for Inactive)
REMARK    1  A    between atoms: C2_2  and  N3_23 
REMARK    2  A    between atoms: C3_3  and  C4_4 
REMARK    3  A    between atoms: C4_4  and  N1_5 
REMARK    4  A    between atoms: N2_8  and  S1_9 
REMARK    5  A    between atoms: S1_9  and  C7_12 
REMARK    6  A    between atoms: C7_12  and  C8_13 
REMARK    7  A    between atoms: C8_13  and  C9_14 
REMARK    8  A    between atoms: C10_15  and  C12_17 
ROOT
HETATM    1  N1  UNL     1      25.224  30.764   6.792  1.00  0.00    -0.341 N 
HETATM    2  C5  UNL     1      25.722  30.661   5.520  1.00  0.00     0.111 A 
HETATM    3  C6  UNL     1      24.692  30.445   4.637  1.00  0.00     0.128 A 
HETATM    4  N2  UNL     1      23.559  30.415   5.367  1.00  0.00    -0.238 N 
HETATM    5  C16 UNL     1      23.912  30.609   6.649  1.00  0.00     0.096 A 
HETATM    6  C17 UNL     1      22.924  30.661   7.764  1.00  0.00     0.090 C 
ENDROOT
BRANCH   4   7
HETATM    7  S1  UNL     1      21.961  30.165   4.723  1.00  0.00     0.237 S 
HETATM    8  O1  UNL     1      22.007  30.577   3.261  1.00  0.00    -0.205 OA
HETATM    9  O2  UNL     1      20.961  31.039   5.374  1.00  0.00    -0.205 OA
BRANCH   7  10
HETATM   10  C7  UNL     1      21.549  28.449   4.741  1.00  0.00     0.168 C 
BRANCH  10  11
HETATM   11  C8  UNL     1      21.226  27.988   6.115  1.00  0.00     0.044 C 
BRANCH  11  12
HETATM   12  C9  UNL     1      22.073  26.888   6.633  1.00  0.00    -0.023 C 
HETATM   13  C10 UNL     1      22.223  26.649   7.919  1.00  0.00    -0.080 C 
HETATM   14  C11 UNL     1      21.487  27.551   8.875  1.00  0.00     0.044 C 
BRANCH  13  15
HETATM   15  C12 UNL     1      23.071  25.552   8.402  1.00  0.00    -0.029 C 
HETATM   16  C13 UNL     1      22.700  24.272   7.713  1.00  0.00     0.019 C 
HETATM   17  C14 UNL     1      24.536  25.837   8.111  1.00  0.00     0.019 C 
HETATM   18  C15 UNL     1      22.872  25.301   9.896  1.00  0.00     0.019 C 
ENDBRANCH  13  15
ENDBRANCH  11  12
ENDBRANCH  10  11
ENDBRANCH   7  10
ENDBRANCH   4   7
BRANCH   1  19
HETATM   19  C4  UNL     1      26.065  30.977   7.965  1.00  0.00     0.159 C 
BRANCH  19  20
HETATM   20  C3  UNL     1      26.833  29.795   8.337  1.00  0.00     0.017 C 
HETATM   21  C2  UNL     1      26.698  29.036   9.382  1.00  0.00     0.001 C 
HETATM   22  C1  UNL     1      27.680  27.862   9.463  1.00  0.00     0.067 C 
BRANCH  21  23
HETATM   23  N3  UNL     1      25.781  29.196  10.447  1.00  0.00    -0.385 N 
HETATM   24  C18 UNL     1      26.142  30.020  11.594  1.00  0.00     0.122 C 
HETATM   25  C19 UNL     1      24.992  30.991  11.796  1.00  0.00     0.020 C 
HETATM   26  C20 UNL     1      23.798  30.219  12.246  1.00  0.00     0.003 C 
HETATM   27  C21 UNL     1      23.721  28.811  11.720  1.00  0.00     0.020 C 
HETATM   28  C22 UNL     1      24.465  28.599  10.447  1.00  0.00     0.122 C 
ENDBRANCH  21  23
ENDBRANCH  19  20
ENDBRANCH   1  19
TORSDOF 8
ENDMDL
