MODEL 1
REMARK VINA RESULT: -8.042427950      0.000      0.000
REMARK  9 active torsions:
REMARK  status: ('A' for Active; 'I' for Inactive)
REMARK    1  A    between atoms: C2_3  and  C3_4 
REMARK    2  A    between atoms: C3_4  and  O1_5 
REMARK    3  A    between atoms: C3_4  and  C12_18 
REMARK    4  A    between atoms: O1_5  and  C4_6 
REMARK    5  A    between atoms: C4_6  and  C5_8 
REMARK    6  A    between atoms: C5_8  and  O3_9 
REMARK    7  A    between atoms: C5_8  and  N2_11 
REMARK       I    between atoms: C12_18  and  N3_20 
REMARK    8  A    between atoms: N3_20  and  C13_22 
REMARK    9  A    between atoms: C14_25  and  C15_26 
ROOT
HETATM    1  N1  UNL     1      11.778  11.317  73.184  1.00  0.00    -0.197 NA
HETATM    2  C1  UNL     1      10.774  11.291  73.756  1.00  0.00     0.062 C 
HETATM    3  C2  UNL     1       9.504  11.235  74.477  1.00  0.00     0.166 C 
ENDROOT
BRANCH   3   4
HETATM    4  C3  UNL     1       9.674  10.274  75.639  1.00  0.00     0.237 C 
BRANCH   4   5
HETATM    5  O1  UNL     1       9.969   9.000  75.169  1.00  0.00    -0.299 OA
BRANCH   5   6
HETATM    6  C4  UNL     1       9.038   7.950  75.150  1.00  0.00     0.335 C 
HETATM    7  O2  UNL     1       8.955   7.347  74.078  1.00  0.00    -0.255 OA
BRANCH   6   8
HETATM    8  C5  UNL     1       8.249   7.621  76.312  1.00  0.00     0.215 C 
BRANCH   8   9
HETATM    9  O3  UNL     1       6.947   7.707  76.166  1.00  0.00    -0.342 OA
ATOM     10  H3  UNL     1       6.441   6.989  76.528  1.00  0.00     0.219 HD
ENDBRANCH   8   9
BRANCH   8  11
HETATM   11  N2  UNL     1       8.647   7.225  77.583  1.00  0.00    -0.357 N 
HETATM   12  C6  UNL     1       7.703   7.154  78.649  1.00  0.00     0.125 C 
HETATM   13  C7  UNL     1       7.296   5.733  78.959  1.00  0.00     0.020 C 
HETATM   14  C8  UNL     1       8.217   5.125  79.951  1.00  0.00     0.002 C 
HETATM   15  C9  UNL     1       9.647   5.481  79.762  1.00  0.00     0.002 C 
HETATM   16  C10 UNL     1      10.158   5.476  78.362  1.00  0.00     0.020 C 
HETATM   17  C11 UNL     1      10.069   6.862  77.731  1.00  0.00     0.125 C 
ENDBRANCH   8  11
ENDBRANCH   6   8
ENDBRANCH   5   6
ENDBRANCH   4   5
BRANCH   4  18
HETATM   18  C12 UNL     1      10.657  10.779  76.629  1.00  0.00     0.254 C 
HETATM   19  O4  UNL     1      10.347  11.847  77.247  1.00  0.00    -0.270 OA
HETATM   20  N3  UNL     1      11.879  10.168  76.916  1.00  0.00    -0.305 N 
ATOM     21  H3  UNL     1      11.898   9.423  77.613  1.00  0.00     0.171 HD
BRANCH  20  22
HETATM   22  C13 UNL     1      13.006  10.507  76.332  1.00  0.00     0.151 A 
HETATM   23  N4  UNL     1      13.469  11.726  76.045  1.00  0.00    -0.339 N 
HETATM   24  C14 UNL     1      14.629  11.827  75.453  1.00  0.00     0.022 A 
ATOM     25  H4  UNL     1      12.930  12.559  76.283  1.00  0.00     0.168 HD
HETATM   26  C21 UNL     1      15.298  10.660  75.164  1.00  0.00     0.078 A 
HETATM   27  S1  UNL     1      14.229   9.476  75.757  1.00  0.00    -0.064 SA
BRANCH  24  28
HETATM   28  C15 UNL     1      15.227  13.191  75.100  1.00  0.00     0.036 C 
HETATM   29  C16 UNL     1      14.170  14.240  75.143  1.00  0.00     0.011 C 
HETATM   30  C17 UNL     1      14.774  15.611  75.364  1.00  0.00     0.001 C 
HETATM   31  C18 UNL     1      15.363  15.663  76.740  1.00  0.00     0.000 C 
HETATM   32  C19 UNL     1      16.014  14.394  77.179  1.00  0.00     0.001 C 
HETATM   33  C20 UNL     1      16.363  13.533  76.007  1.00  0.00     0.011 C 
ENDBRANCH  24  28
ENDBRANCH  20  22
ENDBRANCH   4  18
ENDBRANCH   3   4
TORSDOF 9
ENDMDL
MODEL 2
REMARK VINA RESULT: -7.844923306      0.715      1.414
REMARK  9 active torsions:
REMARK  status: ('A' for Active; 'I' for Inactive)
REMARK    1  A    between atoms: C2_3  and  C3_4 
REMARK    2  A    between atoms: C3_4  and  O1_5 
REMARK    3  A    between atoms: C3_4  and  C12_18 
REMARK    4  A    between atoms: O1_5  and  C4_6 
REMARK    5  A    between atoms: C4_6  and  C5_8 
REMARK    6  A    between atoms: C5_8  and  O3_9 
REMARK    7  A    between atoms: C5_8  and  N2_11 
REMARK       I    between atoms: C12_18  and  N3_20 
REMARK    8  A    between atoms: N3_20  and  C13_22 
REMARK    9  A    between atoms: C14_25  and  C15_26 
ROOT
HETATM    1  N1  UNL     1      11.893  11.643  73.093  1.00  0.00    -0.197 NA
HETATM    2  C1  UNL     1      10.859  11.540  73.599  1.00  0.00     0.062 C 
HETATM    3  C2  UNL     1       9.553  11.388  74.238  1.00  0.00     0.166 C 
ENDROOT
BRANCH   3   4
HETATM    4  C3  UNL     1       9.732  10.488  75.447  1.00  0.00     0.237 C 
BRANCH   4   5
HETATM    5  O1  UNL     1      10.125   9.218  75.046  1.00  0.00    -0.299 OA
BRANCH   5   6
HETATM    6  C4  UNL     1       9.489   8.042  75.475  1.00  0.00     0.335 C 
HETATM    7  O2  UNL     1       8.638   7.598  74.701  1.00  0.00    -0.255 OA
BRANCH   6   8
HETATM    8  C5  UNL     1       9.826   7.419  76.732  1.00  0.00     0.215 C 
BRANCH   8   9
HETATM    9  O3  UNL     1      10.949   7.812  77.285  1.00  0.00    -0.342 OA
ATOM     10  H3  UNL     1      11.326   7.221  77.926  1.00  0.00     0.219 HD
ENDBRANCH   8   9
BRANCH   8  11
HETATM   11  N2  UNL     1       9.146   6.454  77.464  1.00  0.00    -0.357 N 
HETATM   12  C6  UNL     1       9.826   5.298  77.948  1.00  0.00     0.125 C 
HETATM   13  C7  UNL     1      10.122   5.386  79.426  1.00  0.00     0.020 C 
HETATM   14  C8  UNL     1       8.990   4.853  80.224  1.00  0.00     0.002 C 
HETATM   15  C9  UNL     1       7.646   5.206  79.696  1.00  0.00     0.002 C 
HETATM   16  C10 UNL     1       7.461   6.606  79.221  1.00  0.00     0.020 C 
HETATM   17  C11 UNL     1       7.718   6.725  77.722  1.00  0.00     0.125 C 
ENDBRANCH   8  11
ENDBRANCH   6   8
ENDBRANCH   5   6
ENDBRANCH   4   5
BRANCH   4  18
HETATM   18  C12 UNL     1      10.638  11.095  76.453  1.00  0.00     0.254 C 
HETATM   19  O4  UNL     1      10.280  12.215  76.941  1.00  0.00    -0.270 OA
HETATM   20  N3  UNL     1      11.837  10.526  76.886  1.00  0.00    -0.305 N 
ATOM     21  H3  UNL     1      11.806   9.851  77.650  1.00  0.00     0.171 HD
BRANCH  20  22
HETATM   22  C13 UNL     1      13.003  10.818  76.356  1.00  0.00     0.151 A 
HETATM   23  N4  UNL     1      13.502  12.014  76.033  1.00  0.00    -0.339 N 
HETATM   24  C14 UNL     1      14.698  12.068  75.510  1.00  0.00     0.022 A 
ATOM     25  H4  UNL     1      12.963  12.865  76.193  1.00  0.00     0.168 HD
HETATM   26  C21 UNL     1      15.364  10.879  75.326  1.00  0.00     0.078 A 
HETATM   27  S1  UNL     1      14.243   9.742  75.914  1.00  0.00    -0.064 SA
BRANCH  24  28
HETATM   28  C15 UNL     1      15.338  13.403  75.123  1.00  0.00     0.036 C 
HETATM   29  C16 UNL     1      14.313  14.484  75.130  1.00  0.00     0.011 C 
HETATM   30  C17 UNL     1      14.956  15.842  75.316  1.00  0.00     0.001 C 
HETATM   31  C18 UNL     1      15.541  15.915  76.694  1.00  0.00     0.000 C 
HETATM   32  C19 UNL     1      16.151  14.640  77.172  1.00  0.00     0.001 C 
HETATM   33  C20 UNL     1      16.480  13.737  76.026  1.00  0.00     0.011 C 
ENDBRANCH  24  28
ENDBRANCH  20  22
ENDBRANCH   4  18
ENDBRANCH   3   4
TORSDOF 9
ENDMDL
MODEL 3
REMARK VINA RESULT: -7.791692373      1.961      3.156
REMARK  9 active torsions:
REMARK  status: ('A' for Active; 'I' for Inactive)
REMARK    1  A    between atoms: C2_3  and  C3_4 
REMARK    2  A    between atoms: C3_4  and  O1_5 
REMARK    3  A    between atoms: C3_4  and  C12_18 
REMARK    4  A    between atoms: O1_5  and  C4_6 
REMARK    5  A    between atoms: C4_6  and  C5_8 
REMARK    6  A    between atoms: C5_8  and  O3_9 
REMARK    7  A    between atoms: C5_8  and  N2_11 
REMARK       I    between atoms: C12_18  and  N3_20 
REMARK    8  A    between atoms: N3_20  and  C13_22 
REMARK    9  A    between atoms: C14_25  and  C15_26 
ROOT
HETATM    1  N1  UNL     1      11.877  11.464  72.529  1.00  0.00    -0.197 NA
HETATM    2  C1  UNL     1      10.938  11.527  73.199  1.00  0.00     0.062 C 
HETATM    3  C2  UNL     1       9.750  11.583  74.049  1.00  0.00     0.166 C 
ENDROOT
BRANCH   3   4
HETATM    4  C3  UNL     1      10.045  10.791  75.309  1.00  0.00     0.237 C 
BRANCH   4   5
HETATM    5  O1  UNL     1      10.500   9.519  74.982  1.00  0.00    -0.299 OA
BRANCH   5   6
HETATM    6  C4  UNL     1      10.011   8.347  75.581  1.00  0.00     0.335 C 
HETATM    7  O2  UNL     1       9.309   7.644  74.851  1.00  0.00    -0.255 OA
BRANCH   6   8
HETATM    8  C5  UNL     1      10.323   8.014  76.948  1.00  0.00     0.215 C 
BRANCH   8   9
HETATM    9  O3  UNL     1      11.515   8.368  77.369  1.00  0.00    -0.342 OA
ATOM     10  H3  UNL     1      11.573   8.629  78.281  1.00  0.00     0.219 HD
ENDBRANCH   8   9
BRANCH   8  11
HETATM   11  N2  UNL     1       9.558   7.366  77.910  1.00  0.00    -0.357 N 
HETATM   12  C6  UNL     1       8.244   7.824  78.221  1.00  0.00     0.125 C 
HETATM   13  C7  UNL     1       7.175   6.950  77.609  1.00  0.00     0.020 C 
HETATM   14  C8  UNL     1       6.823   5.831  78.519  1.00  0.00     0.002 C 
HETATM   15  C9  UNL     1       7.981   5.229  79.229  1.00  0.00     0.002 C 
HETATM   16  C10 UNL     1       9.216   5.006  78.426  1.00  0.00     0.020 C 
HETATM   17  C11 UNL     1      10.178   6.185  78.542  1.00  0.00     0.125 C 
ENDBRANCH   8  11
ENDBRANCH   6   8
ENDBRANCH   5   6
ENDBRANCH   4   5
BRANCH   4  18
HETATM   18  C12 UNL     1      10.958  11.527  76.218  1.00  0.00     0.254 C 
HETATM   19  O4  UNL     1      10.484  12.563  76.785  1.00  0.00    -0.270 OA
HETATM   20  N3  UNL     1      12.278  11.160  76.484  1.00  0.00    -0.305 N 
ATOM     21  H3  UNL     1      12.455  10.479  77.223  1.00  0.00     0.171 HD
BRANCH  20  22
HETATM   22  C13 UNL     1      13.305  11.651  75.827  1.00  0.00     0.151 A 
HETATM   23  N4  UNL     1      14.096  11.050  74.934  1.00  0.00    -0.339 N 
HETATM   24  C14 UNL     1      15.068  11.739  74.401  1.00  0.00     0.022 A 
ATOM     25  H4  UNL     1      13.944  10.075  74.675  1.00  0.00     0.168 HD
HETATM   26  C21 UNL     1      15.211  13.048  74.800  1.00  0.00     0.078 A 
HETATM   27  S1  UNL     1      13.942  13.225  75.920  1.00  0.00    -0.064 SA
BRANCH  24  28
HETATM   28  C15 UNL     1      16.010  11.119  73.366  1.00  0.00     0.036 C 
HETATM   29  C16 UNL     1      15.614   9.710  73.093  1.00  0.00     0.011 C 
HETATM   30  C17 UNL     1      16.112   9.258  71.736  1.00  0.00     0.001 C 
HETATM   31  C18 UNL     1      15.388  10.029  70.676  1.00  0.00     0.000 C 
HETATM   32  C19 UNL     1      15.121  11.455  71.024  1.00  0.00     0.001 C 
HETATM   33  C20 UNL     1      16.036  11.925  72.109  1.00  0.00     0.011 C 
ENDBRANCH  24  28
ENDBRANCH  20  22
ENDBRANCH   4  18
ENDBRANCH   3   4
TORSDOF 9
ENDMDL
MODEL 4
REMARK VINA RESULT: -7.782408267      1.844      3.160
REMARK  9 active torsions:
REMARK  status: ('A' for Active; 'I' for Inactive)
REMARK    1  A    between atoms: C2_3  and  C3_4 
REMARK    2  A    between atoms: C3_4  and  O1_5 
REMARK    3  A    between atoms: C3_4  and  C12_18 
REMARK    4  A    between atoms: O1_5  and  C4_6 
REMARK    5  A    between atoms: C4_6  and  C5_8 
REMARK    6  A    between atoms: C5_8  and  O3_9 
REMARK    7  A    between atoms: C5_8  and  N2_11 
REMARK       I    between atoms: C12_18  and  N3_20 
REMARK    8  A    between atoms: N3_20  and  C13_22 
REMARK    9  A    between atoms: C14_25  and  C15_26 
ROOT
HETATM    1  N1  UNL     1      11.897  11.485  72.639  1.00  0.00    -0.197 NA
HETATM    2  C1  UNL     1      10.940  11.499  73.288  1.00  0.00     0.062 C 
HETATM    3  C2  UNL     1       9.731  11.495  74.109  1.00  0.00     0.166 C 
ENDROOT
BRANCH   3   4
HETATM    4  C3  UNL     1      10.015  10.663  75.345  1.00  0.00     0.237 C 
BRANCH   4   5
HETATM    5  O1  UNL     1      10.500   9.413  74.983  1.00  0.00    -0.299 OA
BRANCH   5   6
HETATM    6  C4  UNL     1       9.881   8.208  75.352  1.00  0.00     0.335 C 
HETATM    7  O2  UNL     1       9.226   7.664  74.460  1.00  0.00    -0.255 OA
BRANCH   6   8
HETATM    8  C5  UNL     1      10.017   7.668  76.682  1.00  0.00     0.215 C 
BRANCH   8   9
HETATM    9  O3  UNL     1      11.036   8.111  77.381  1.00  0.00    -0.342 OA
ATOM     10  H3  UNL     1      11.502   7.461  77.893  1.00  0.00     0.219 HD
ENDBRANCH   8   9
BRANCH   8  11
HETATM   11  N2  UNL     1       9.234   6.739  77.357  1.00  0.00    -0.357 N 
HETATM   12  C6  UNL     1       9.794   5.505  77.800  1.00  0.00     0.125 C 
HETATM   13  C7  UNL     1      10.063   5.500  79.286  1.00  0.00     0.020 C 
HETATM   14  C8  UNL     1       8.868   5.041  80.037  1.00  0.00     0.002 C 
HETATM   15  C9  UNL     1       7.575   5.540  79.501  1.00  0.00     0.002 C 
HETATM   16  C10 UNL     1       7.530   6.970  79.087  1.00  0.00     0.020 C 
HETATM   17  C11 UNL     1       7.832   7.129  77.600  1.00  0.00     0.125 C 
ENDBRANCH   8  11
ENDBRANCH   6   8
ENDBRANCH   5   6
ENDBRANCH   4   5
BRANCH   4  18
HETATM   18  C12 UNL     1      10.895  11.382  76.299  1.00  0.00     0.254 C 
HETATM   19  O4  UNL     1      10.398  12.403  76.875  1.00  0.00    -0.270 OA
HETATM   20  N3  UNL     1      12.209  11.016  76.597  1.00  0.00    -0.305 N 
ATOM     21  H3  UNL     1      12.366  10.319  77.325  1.00  0.00     0.171 HD
BRANCH  20  22
HETATM   22  C13 UNL     1      13.252  11.527  75.984  1.00  0.00     0.151 A 
HETATM   23  N4  UNL     1      14.046  10.966  75.069  1.00  0.00    -0.339 N 
HETATM   24  C14 UNL     1      15.037  11.670  74.590  1.00  0.00     0.022 A 
ATOM     25  H4  UNL     1      13.883  10.011  74.751  1.00  0.00     0.168 HD
HETATM   26  C21 UNL     1      15.194  12.951  75.067  1.00  0.00     0.078 A 
HETATM   27  S1  UNL     1      13.912  13.083  76.177  1.00  0.00    -0.064 SA
BRANCH  24  28
HETATM   28  C15 UNL     1      15.984  11.096  73.534  1.00  0.00     0.036 C 
HETATM   29  C16 UNL     1      15.590   9.700  73.198  1.00  0.00     0.011 C 
HETATM   30  C17 UNL     1      16.095   9.307  71.825  1.00  0.00     0.001 C 
HETATM   31  C18 UNL     1      15.375  10.123  70.796  1.00  0.00     0.000 C 
HETATM   32  C19 UNL     1      15.105  11.532  71.205  1.00  0.00     0.001 C 
HETATM   33  C20 UNL     1      16.015  11.955  72.313  1.00  0.00     0.011 C 
ENDBRANCH  24  28
ENDBRANCH  20  22
ENDBRANCH   4  18
ENDBRANCH   3   4
TORSDOF 9
ENDMDL
MODEL 5
REMARK VINA RESULT: -7.727765091      2.472      7.701
REMARK  9 active torsions:
REMARK  status: ('A' for Active; 'I' for Inactive)
REMARK    1  A    between atoms: C2_3  and  C3_4 
REMARK    2  A    between atoms: C3_4  and  O1_5 
REMARK    3  A    between atoms: C3_4  and  C12_18 
REMARK    4  A    between atoms: O1_5  and  C4_6 
REMARK    5  A    between atoms: C4_6  and  C5_8 
REMARK    6  A    between atoms: C5_8  and  O3_9 
REMARK    7  A    between atoms: C5_8  and  N2_11 
REMARK       I    between atoms: C12_18  and  N3_20 
REMARK    8  A    between atoms: N3_20  and  C13_22 
REMARK    9  A    between atoms: C14_25  and  C15_26 
ROOT
HETATM    1  N1  UNL     1      11.301  11.768  72.355  1.00  0.00    -0.197 NA
HETATM    2  C1  UNL     1      10.193  11.445  72.395  1.00  0.00     0.062 C 
HETATM    3  C2  UNL     1       8.797  11.015  72.450  1.00  0.00     0.166 C 
ENDROOT
BRANCH   3   4
HETATM    4  C3  UNL     1       8.587  10.296  73.769  1.00  0.00     0.237 C 
BRANCH   4   5
HETATM    5  O1  UNL     1       9.079  11.061  74.818  1.00  0.00    -0.299 OA
BRANCH   5   6
HETATM    6  C4  UNL     1       9.970  10.566  75.784  1.00  0.00     0.335 C 
HETATM    7  O2  UNL     1       9.908   9.349  75.974  1.00  0.00    -0.255 OA
BRANCH   6   8
HETATM    8  C5  UNL     1      10.880  11.436  76.487  1.00  0.00     0.215 C 
BRANCH   8   9
HETATM    9  O3  UNL     1      10.327  12.363  77.234  1.00  0.00    -0.342 OA
ATOM     10  H3  UNL     1       9.775  12.989  76.780  1.00  0.00     0.219 HD
ENDBRANCH   8   9
BRANCH   8  11
HETATM   11  N2  UNL     1      12.269  11.457  76.502  1.00  0.00    -0.357 N 
HETATM   12  C6  UNL     1      13.008  10.294  76.866  1.00  0.00     0.125 C 
HETATM   13  C7  UNL     1      13.605   9.597  75.666  1.00  0.00     0.020 C 
HETATM   14  C8  UNL     1      14.945  10.150  75.348  1.00  0.00     0.002 C 
HETATM   15  C9  UNL     1      15.055  11.623  75.503  1.00  0.00     0.002 C 
HETATM   16  C10 UNL     1      13.916  12.437  74.993  1.00  0.00     0.020 C 
HETATM   17  C11 UNL     1      12.901  12.727  76.094  1.00  0.00     0.125 C 
ENDBRANCH   8  11
ENDBRANCH   6   8
ENDBRANCH   5   6
ENDBRANCH   4   5
BRANCH   4  18
HETATM   18  C12 UNL     1       7.172   9.887  73.951  1.00  0.00     0.254 C 
HETATM   19  O4  UNL     1       6.296  10.805  73.854  1.00  0.00    -0.270 OA
HETATM   20  N3  UNL     1       6.751   8.583  74.219  1.00  0.00    -0.305 N 
ATOM     21  H3  UNL     1       6.599   7.950  73.433  1.00  0.00     0.171 HD
BRANCH  20  22
HETATM   22  C13 UNL     1       6.543   8.132  75.435  1.00  0.00     0.151 A 
HETATM   23  N4  UNL     1       7.435   7.789  76.367  1.00  0.00    -0.339 N 
HETATM   24  C14 UNL     1       6.996   7.360  77.520  1.00  0.00     0.022 A 
ATOM     25  H4  UNL     1       8.436   7.860  76.184  1.00  0.00     0.168 HD
HETATM   26  C21 UNL     1       5.633   7.292  77.695  1.00  0.00     0.078 A 
HETATM   27  S1  UNL     1       5.049   7.847  76.196  1.00  0.00    -0.064 SA
BRANCH  24  28
HETATM   28  C15 UNL     1       7.959   6.955  78.639  1.00  0.00     0.036 C 
HETATM   29  C16 UNL     1       7.515   5.676  79.258  1.00  0.00     0.011 C 
HETATM   30  C17 UNL     1       8.672   4.967  79.931  1.00  0.00     0.001 C 
HETATM   31  C18 UNL     1       9.641   4.520  78.879  1.00  0.00     0.000 C 
HETATM   32  C19 UNL     1       9.805   5.478  77.747  1.00  0.00     0.001 C 
HETATM   33  C20 UNL     1       9.360   6.852  78.134  1.00  0.00     0.011 C 
ENDBRANCH  24  28
ENDBRANCH  20  22
ENDBRANCH   4  18
ENDBRANCH   3   4
TORSDOF 9
ENDMDL
