MODEL 1
REMARK VINA RESULT: -8.317994350      0.000      0.000
REMARK  5 active torsions:
REMARK  status: ('A' for Active; 'I' for Inactive)
REMARK    1  A    between atoms: C7_7  and  O1_8 
REMARK    2  A    between atoms: O1_8  and  S1_9 
REMARK    3  A    between atoms: S1_9  and  N1_12 
REMARK    4  A    between atoms: N1_12  and  S2_14 
REMARK    5  A    between atoms: S2_14  and  C8_17 
ROOT
HETATM    1  C1  UNL     1       6.946   9.766  74.052  1.00  0.00     0.054 C 
HETATM    2  C2  UNL     1       6.937   8.753  75.153  1.00  0.00     0.007 A 
HETATM    3  C3  UNL     1       5.709   8.367  75.671  1.00  0.00     0.085 A 
HETATM    4  C4  UNL     1       5.622   7.440  76.685  1.00  0.00    -0.017 A 
HETATM    5  C5  UNL     1       6.802   6.918  77.156  1.00  0.00    -0.040 A 
HETATM    6  C6  UNL     1       8.031   7.303  76.638  1.00  0.00    -0.016 A 
HETATM    7  C7  UNL     1       8.122   8.230  75.624  1.00  0.00     0.106 A 
HETATM    8  C11 UNL     1       9.232   6.664  77.235  1.00  0.00     0.042 C 
HETATM    9  C12 UNL     1       9.181   6.714  78.758  1.00  0.00     0.005 C 
HETATM   10  C13 UNL     1       7.811   6.453  79.296  1.00  0.00     0.005 C 
HETATM   11  C14 UNL     1       6.858   5.908  78.248  1.00  0.00     0.040 C 
HETATM   12  C15 UNL     1       4.343   6.987  77.279  1.00  0.00     0.045 C 
HETATM   13  C16 UNL     1       3.183   7.857  76.850  1.00  0.00     0.042 C 
HETATM   14  C17 UNL     1       3.273   8.227  75.389  1.00  0.00     0.061 C 
HETATM   15  C18 UNL     1       3.240   6.992  74.550  1.00  0.00     0.046 C 
HETATM   16  C19 UNL     1       2.151   9.191  75.074  1.00  0.00     0.046 C 
HETATM   17  O6  UNL     1       4.503   8.899  75.191  1.00  0.00    -0.340 OA
ENDROOT
BRANCH   7  18
HETATM   18  O1  UNL     1       9.354   8.608  75.114  1.00  0.00    -0.215 OA
BRANCH  18  19
HETATM   19  S1  UNL     1      10.250   9.905  75.758  1.00  0.00     0.375 S 
HETATM   20  O2  UNL     1      10.043   9.970  77.245  1.00  0.00    -0.174 OA
HETATM   21  O3  UNL     1       9.847  11.208  75.186  1.00  0.00    -0.174 OA
BRANCH  19  22
HETATM   22  N1  UNL     1      11.904   9.622  75.454  1.00  0.00    -0.188 N 
ATOM     23  H1  UNL     1      12.264   9.078  74.670  1.00  0.00     0.193 HD
BRANCH  22  24
HETATM   24  S2  UNL     1      12.875  10.369  76.635  1.00  0.00     0.244 S 
HETATM   25  O4  UNL     1      12.798   9.549  77.913  1.00  0.00    -0.205 OA
HETATM   26  O5  UNL     1      12.298  11.748  76.892  1.00  0.00    -0.205 OA
BRANCH  24  27
HETATM   27  C8  UNL     1      14.559  10.561  76.215  1.00  0.00     0.122 C 
HETATM   28  C9  UNL     1      14.888  11.937  75.683  1.00  0.00     0.027 C 
HETATM   29  C10 UNL     1      15.114   9.552  75.268  1.00  0.00     0.027 C 
ENDBRANCH  24  27
ENDBRANCH  22  24
ENDBRANCH  19  22
ENDBRANCH  18  19
ENDBRANCH   7  18
TORSDOF 5
ENDMDL
MODEL 2
REMARK VINA RESULT: -8.239999670      3.690      7.799
REMARK  5 active torsions:
REMARK  status: ('A' for Active; 'I' for Inactive)
REMARK    1  A    between atoms: C7_7  and  O1_8 
REMARK    2  A    between atoms: O1_8  and  S1_9 
REMARK    3  A    between atoms: S1_9  and  N1_12 
REMARK    4  A    between atoms: N1_12  and  S2_14 
REMARK    5  A    between atoms: S2_14  and  C8_17 
ROOT
HETATM    1  C1  UNL     1      11.661   9.779  76.967  1.00  0.00     0.054 C 
HETATM    2  C2  UNL     1      11.181  10.244  75.629  1.00  0.00     0.007 A 
HETATM    3  C3  UNL     1      12.090  10.888  74.800  1.00  0.00     0.085 A 
HETATM    4  C4  UNL     1      11.721  11.343  73.555  1.00  0.00    -0.017 A 
HETATM    5  C5  UNL     1      10.419  11.132  73.173  1.00  0.00    -0.040 A 
HETATM    6  C6  UNL     1       9.509  10.489  74.001  1.00  0.00    -0.016 A 
HETATM    7  C7  UNL     1       9.874  10.031  75.247  1.00  0.00     0.106 A 
HETATM    8  C11 UNL     1       8.131  10.322  73.470  1.00  0.00     0.042 C 
HETATM    9  C12 UNL     1       7.601  11.634  72.901  1.00  0.00     0.005 C 
HETATM   10  C13 UNL     1       8.641  12.395  72.144  1.00  0.00     0.005 C 
HETATM   11  C14 UNL     1       9.883  11.571  71.855  1.00  0.00     0.040 C 
HETATM   12  C15 UNL     1      12.643  12.036  72.626  1.00  0.00     0.045 C 
HETATM   13  C16 UNL     1      13.935  12.434  73.305  1.00  0.00     0.042 C 
HETATM   14  C17 UNL     1      14.434  11.351  74.232  1.00  0.00     0.061 C 
HETATM   15  C18 UNL     1      14.702  10.104  73.458  1.00  0.00     0.046 C 
HETATM   16  C19 UNL     1      15.653  11.874  74.959  1.00  0.00     0.046 C 
HETATM   17  O6  UNL     1      13.421  11.104  75.189  1.00  0.00    -0.340 OA
ENDROOT
BRANCH   7  18
HETATM   18  O1  UNL     1       8.958   9.389  76.065  1.00  0.00    -0.215 OA
BRANCH  18  19
HETATM   19  S1  UNL     1       8.577   7.739  75.891  1.00  0.00     0.375 S 
HETATM   20  O2  UNL     1       8.929   7.286  74.502  1.00  0.00    -0.174 OA
HETATM   21  O3  UNL     1       7.140   7.465  76.108  1.00  0.00    -0.174 OA
BRANCH  19  22
HETATM   22  N1  UNL     1       9.514   6.848  77.004  1.00  0.00    -0.188 N 
ATOM     23  H1  UNL     1      10.473   6.544  76.840  1.00  0.00     0.193 HD
BRANCH  22  24
HETATM   24  S2  UNL     1       8.634   6.534  78.425  1.00  0.00     0.244 S 
HETATM   25  O4  UNL     1       7.476   5.609  78.083  1.00  0.00    -0.205 OA
HETATM   26  O5  UNL     1       8.083   7.858  78.920  1.00  0.00    -0.205 OA
BRANCH  24  27
HETATM   27  C8  UNL     1       9.540   5.807  79.728  1.00  0.00     0.122 C 
HETATM   28  C9  UNL     1      11.029   5.772  79.472  1.00  0.00     0.027 C 
HETATM   29  C10 UNL     1       9.107   4.441  80.140  1.00  0.00     0.027 C 
ENDBRANCH  24  27
ENDBRANCH  22  24
ENDBRANCH  19  22
ENDBRANCH  18  19
ENDBRANCH   7  18
TORSDOF 5
ENDMDL
MODEL 3
REMARK VINA RESULT: -8.188136173      0.946      1.186
REMARK  5 active torsions:
REMARK  status: ('A' for Active; 'I' for Inactive)
REMARK    1  A    between atoms: C7_7  and  O1_8 
REMARK    2  A    between atoms: O1_8  and  S1_9 
REMARK    3  A    between atoms: S1_9  and  N1_12 
REMARK    4  A    between atoms: N1_12  and  S2_14 
REMARK    5  A    between atoms: S2_14  and  C8_17 
ROOT
HETATM    1  C1  UNL     1       7.412   9.542  73.686  1.00  0.00     0.054 C 
HETATM    2  C2  UNL     1       7.298   8.673  74.899  1.00  0.00     0.007 A 
HETATM    3  C3  UNL     1       6.046   8.531  75.481  1.00  0.00     0.085 A 
HETATM    4  C4  UNL     1       5.863   7.748  76.598  1.00  0.00    -0.017 A 
HETATM    5  C5  UNL     1       6.973   7.118  77.107  1.00  0.00    -0.040 A 
HETATM    6  C6  UNL     1       8.226   7.260  76.526  1.00  0.00    -0.016 A 
HETATM    7  C7  UNL     1       8.412   8.042  75.409  1.00  0.00     0.106 A 
HETATM    8  C11 UNL     1       9.344   6.527  77.173  1.00  0.00     0.042 C 
HETATM    9  C12 UNL     1       9.352   6.758  78.681  1.00  0.00     0.005 C 
HETATM   10  C13 UNL     1       7.978   6.761  79.269  1.00  0.00     0.005 C 
HETATM   11  C14 UNL     1       6.923   6.242  78.310  1.00  0.00     0.040 C 
HETATM   12  C15 UNL     1       4.555   7.555  77.264  1.00  0.00     0.045 C 
HETATM   13  C16 UNL     1       3.515   8.529  76.755  1.00  0.00     0.042 C 
HETATM   14  C17 UNL     1       3.606   8.712  75.259  1.00  0.00     0.061 C 
HETATM   15  C18 UNL     1       3.371   7.408  74.573  1.00  0.00     0.046 C 
HETATM   16  C19 UNL     1       2.622   9.786  74.852  1.00  0.00     0.046 C 
HETATM   17  O6  UNL     1       4.911   9.172  74.962  1.00  0.00    -0.340 OA
ENDROOT
BRANCH   7  18
HETATM   18  O1  UNL     1       9.667   8.177  74.836  1.00  0.00    -0.215 OA
BRANCH  18  19
HETATM   19  S1  UNL     1      10.732   9.438  75.256  1.00  0.00     0.375 S 
HETATM   20  O2  UNL     1      10.404   9.933  76.638  1.00  0.00    -0.174 OA
HETATM   21  O3  UNL     1      10.641  10.586  74.328  1.00  0.00    -0.174 OA
BRANCH  19  22
HETATM   22  N1  UNL     1      12.322   8.822  75.266  1.00  0.00    -0.188 N 
ATOM     23  H1  UNL     1      12.597   7.925  74.866  1.00  0.00     0.193 HD
BRANCH  22  24
HETATM   24  S2  UNL     1      13.389   9.904  76.030  1.00  0.00     0.244 S 
HETATM   25  O4  UNL     1      14.794   9.328  75.961  1.00  0.00    -0.205 OA
HETATM   26  O5  UNL     1      12.965  10.008  77.483  1.00  0.00    -0.205 OA
BRANCH  24  27
HETATM   27  C8  UNL     1      13.432  11.517  75.366  1.00  0.00     0.122 C 
HETATM   28  C9  UNL     1      14.815  11.948  74.934  1.00  0.00     0.027 C 
HETATM   29  C10 UNL     1      12.859  12.592  76.227  1.00  0.00     0.027 C 
ENDBRANCH  24  27
ENDBRANCH  22  24
ENDBRANCH  19  22
ENDBRANCH  18  19
ENDBRANCH   7  18
TORSDOF 5
ENDMDL
MODEL 4
REMARK VINA RESULT: -7.994753385      3.247      7.921
REMARK  5 active torsions:
REMARK  status: ('A' for Active; 'I' for Inactive)
REMARK    1  A    between atoms: C7_7  and  O1_8 
REMARK    2  A    between atoms: O1_8  and  S1_9 
REMARK    3  A    between atoms: S1_9  and  N1_12 
REMARK    4  A    between atoms: N1_12  and  S2_14 
REMARK    5  A    between atoms: S2_14  and  C8_17 
ROOT
HETATM    1  C1  UNL     1      11.111  10.256  77.045  1.00  0.00     0.054 C 
HETATM    2  C2  UNL     1      10.889  10.738  75.645  1.00  0.00     0.007 A 
HETATM    3  C3  UNL     1      11.915  11.442  75.030  1.00  0.00     0.085 A 
HETATM    4  C4  UNL     1      11.783  11.915  73.744  1.00  0.00    -0.017 A 
HETATM    5  C5  UNL     1      10.596  11.660  73.103  1.00  0.00    -0.040 A 
HETATM    6  C6  UNL     1       9.569  10.956  73.718  1.00  0.00    -0.016 A 
HETATM    7  C7  UNL     1       9.697  10.481  75.004  1.00  0.00     0.106 A 
HETATM    8  C11 UNL     1       8.335  10.747  72.917  1.00  0.00     0.042 C 
HETATM    9  C12 UNL     1       7.870  12.051  72.277  1.00  0.00     0.005 C 
HETATM   10  C13 UNL     1       9.004  12.875  71.760  1.00  0.00     0.005 C 
HETATM   11  C14 UNL     1      10.316  12.113  71.713  1.00  0.00     0.040 C 
HETATM   12  C15 UNL     1      12.840  12.671  73.033  1.00  0.00     0.045 C 
HETATM   13  C16 UNL     1      13.949  13.105  73.966  1.00  0.00     0.042 C 
HETATM   14  C17 UNL     1      14.301  12.019  74.955  1.00  0.00     0.061 C 
HETATM   15  C18 UNL     1      14.777  10.805  74.228  1.00  0.00     0.046 C 
HETATM   16  C19 UNL     1      15.323  12.572  75.922  1.00  0.00     0.046 C 
HETATM   17  O6  UNL     1      13.129  11.702  75.682  1.00  0.00    -0.340 OA
ENDROOT
BRANCH   7  18
HETATM   18  O1  UNL     1       8.666   9.779  75.608  1.00  0.00    -0.215 OA
BRANCH  18  19
HETATM   19  S1  UNL     1       8.483   8.095  75.434  1.00  0.00     0.375 S 
HETATM   20  O2  UNL     1       8.577   7.727  73.980  1.00  0.00    -0.174 OA
HETATM   21  O3  UNL     1       7.179   7.613  75.942  1.00  0.00    -0.174 OA
BRANCH  19  22
HETATM   22  N1  UNL     1       9.754   7.324  76.270  1.00  0.00    -0.188 N 
ATOM     23  H1  UNL     1      10.650   7.072  75.855  1.00  0.00     0.193 HD
BRANCH  22  24
HETATM   24  S2  UNL     1       9.326   7.031  77.890  1.00  0.00     0.244 S 
HETATM   25  O4  UNL     1       8.532   8.222  78.404  1.00  0.00    -0.205 OA
HETATM   26  O5  UNL     1      10.613   6.910  78.684  1.00  0.00    -0.205 OA
BRANCH  24  27
HETATM   27  C8  UNL     1       8.383   5.589  78.173  1.00  0.00     0.122 C 
HETATM   28  C9  UNL     1       7.079   5.860  78.887  1.00  0.00     0.027 C 
HETATM   29  C10 UNL     1       9.082   4.483  78.887  1.00  0.00     0.027 C 
ENDBRANCH  24  27
ENDBRANCH  22  24
ENDBRANCH  19  22
ENDBRANCH  18  19
ENDBRANCH   7  18
TORSDOF 5
ENDMDL
MODEL 5
REMARK VINA RESULT: -7.793757193      3.548      7.622
REMARK  5 active torsions:
REMARK  status: ('A' for Active; 'I' for Inactive)
REMARK    1  A    between atoms: C7_7  and  O1_8 
REMARK    2  A    between atoms: O1_8  and  S1_9 
REMARK    3  A    between atoms: S1_9  and  N1_12 
REMARK    4  A    between atoms: N1_12  and  S2_14 
REMARK    5  A    between atoms: S2_14  and  C8_17 
ROOT
HETATM    1  C1  UNL     1      12.456   8.955  77.720  1.00  0.00     0.054 C 
HETATM    2  C2  UNL     1      11.693   9.331  76.489  1.00  0.00     0.007 A 
HETATM    3  C3  UNL     1      12.100  10.460  75.791  1.00  0.00     0.085 A 
HETATM    4  C4  UNL     1      11.447  10.868  74.650  1.00  0.00    -0.017 A 
HETATM    5  C5  UNL     1      10.379  10.109  74.237  1.00  0.00    -0.040 A 
HETATM    6  C6  UNL     1       9.970   8.981  74.935  1.00  0.00    -0.016 A 
HETATM    7  C7  UNL     1      10.621   8.570  76.076  1.00  0.00     0.106 A 
HETATM    8  C11 UNL     1       8.801   8.248  74.384  1.00  0.00     0.042 C 
HETATM    9  C12 UNL     1       7.656   9.203  74.065  1.00  0.00     0.005 C 
HETATM   10  C13 UNL     1       8.128  10.485  73.458  1.00  0.00     0.005 C 
HETATM   11  C14 UNL     1       9.581  10.432  73.022  1.00  0.00     0.040 C 
HETATM   12  C15 UNL     1      11.834  12.060  73.862  1.00  0.00     0.045 C 
HETATM   13  C16 UNL     1      12.830  12.926  74.601  1.00  0.00     0.042 C 
HETATM   14  C17 UNL     1      13.870  12.096  75.314  1.00  0.00     0.061 C 
HETATM   15  C18 UNL     1      14.634  11.280  74.325  1.00  0.00     0.046 C 
HETATM   16  C19 UNL     1      14.746  13.026  76.122  1.00  0.00     0.046 C 
HETATM   17  O6  UNL     1      13.192  11.235  76.210  1.00  0.00    -0.340 OA
ENDROOT
BRANCH   7  18
HETATM   18  O1  UNL     1      10.205   7.441  76.765  1.00  0.00    -0.215 OA
BRANCH  18  19
HETATM   19  S1  UNL     1       8.909   7.471  77.869  1.00  0.00     0.375 S 
HETATM   20  O2  UNL     1       7.733   6.740  77.283  1.00  0.00    -0.174 OA
HETATM   21  O3  UNL     1       8.474   8.848  78.192  1.00  0.00    -0.174 OA
BRANCH  19  22
HETATM   22  N1  UNL     1       9.392   6.665  79.292  1.00  0.00    -0.188 N 
ATOM     23  H1  UNL     1       9.640   7.131  80.165  1.00  0.00     0.193 HD
BRANCH  22  24
HETATM   24  S2  UNL     1       9.407   4.980  79.061  1.00  0.00     0.244 S 
HETATM   25  O4  UNL     1      10.227   4.669  77.819  1.00  0.00    -0.205 OA
HETATM   26  O5  UNL     1       7.973   4.541  78.834  1.00  0.00    -0.205 OA
BRANCH  24  27
HETATM   27  C8  UNL     1      10.053   4.043  80.384  1.00  0.00     0.122 C 
HETATM   28  C9  UNL     1       9.028   3.733  81.452  1.00  0.00     0.027 C 
HETATM   29  C10 UNL     1      11.262   4.604  81.052  1.00  0.00     0.027 C 
ENDBRANCH  24  27
ENDBRANCH  22  24
ENDBRANCH  19  22
ENDBRANCH  18  19
ENDBRANCH   7  18
TORSDOF 5
ENDMDL
