MODEL 1
REMARK VINA RESULT: -5.564895653      0.000      0.000
REMARK  8 active torsions:
REMARK  status: ('A' for Active; 'I' for Inactive)
REMARK    1  A    between atoms: C2_2  and  C3_3 
REMARK    2  A    between atoms: C3_3  and  C4_4 
REMARK    3  A    between atoms: C10_10  and  N1_11 
REMARK    4  A    between atoms: C17_22  and  C19_24 
REMARK    5  A    between atoms: C19_24  and  O3_26 
REMARK    6  A    between atoms: C21_28  and  C23_30 
REMARK    7  A    between atoms: C23_30  and  O4_31 
REMARK    8  A    between atoms: O4_31  and  C24_32 
ROOT
HETATM    1  C4  UNL     1      12.233  12.101  71.892  1.00  0.00     0.005 C 
HETATM    2  C5  UNL     1      12.530  11.551  73.215  1.00  0.00    -0.004 C 
HETATM    3  C6  UNL     1      11.702  10.451  73.739  1.00  0.00     0.006 C 
HETATM    4  C7  UNL     1      12.475   9.579  74.727  1.00  0.00     0.012 C 
HETATM    5  C8  UNL     1      12.119   9.983  76.105  1.00  0.00    -0.009 A 
HETATM    6  C9  UNL     1      10.803   9.336  76.589  1.00  0.00     0.018 C 
HETATM    7  C10 UNL     1      13.060  10.315  77.171  1.00  0.00     0.197 A 
HETATM    8  C11 UNL     1      12.296  11.399  76.338  1.00  0.00     0.031 A 
HETATM    9  C12 UNL     1      13.224  12.216  75.546  1.00  0.00    -0.007 C 
HETATM   10  C13 UNL     1      13.504  13.471  76.367  1.00  0.00     0.011 C 
HETATM   11  C14 UNL     1      12.774  12.668  74.213  1.00  0.00     0.001 C 
HETATM   12  C15 UNL     1      13.814  13.633  73.685  1.00  0.00     0.085 C 
HETATM   13  C16 UNL     1      14.640  13.048  72.609  1.00  0.00     0.146 C 
HETATM   14  O1  UNL     1      15.684  12.581  72.999  1.00  0.00    -0.297 OA
HETATM   15  C17 UNL     1      14.422  12.928  71.137  1.00  0.00     0.114 C 
HETATM   16  C18 UNL     1      13.946  14.233  70.549  1.00  0.00     0.035 C 
HETATM   17  C21 UNL     1      13.349  11.859  70.883  1.00  0.00     0.006 C 
HETATM   18  C22 UNL     1      14.040  10.513  71.119  1.00  0.00     0.019 C 
ENDROOT
BRANCH  17  19
HETATM   19  C23 UNL     1      12.949  11.897  69.461  1.00  0.00     0.190 C 
BRANCH  19  20
HETATM   20  O4  UNL     1      13.080  10.585  68.856  1.00  0.00    -0.321 OA
BRANCH  20  21
HETATM   21  C24 UNL     1      12.033   9.915  68.296  1.00  0.00     0.254 C 
HETATM   22  C25 UNL     1      12.206   8.541  67.788  1.00  0.00     0.126 C 
HETATM   23  O5  UNL     1      10.914  10.460  68.211  1.00  0.00    -0.266 OA
ENDBRANCH  20  21
ENDBRANCH  19  20
ENDBRANCH  17  19
BRANCH   1  24
HETATM   24  C3  UNL     1      10.883  11.984  71.302  1.00  0.00     0.032 C 
BRANCH  24  25
HETATM   25  C2  UNL     1      10.053  13.232  71.484  1.00  0.00    -0.036 C 
HETATM   26  C1  UNL     1      10.216  14.285  70.684  1.00  0.00     0.007 C 
ENDBRANCH  24  25
ENDBRANCH   1  24
BRANCH  15  27
HETATM   27  C19 UNL     1      15.663  12.559  70.429  1.00  0.00     0.275 C 
HETATM   28  O2  UNL     1      16.266  13.347  69.660  1.00  0.00    -0.264 OA
BRANCH  27  29
HETATM   29  O3  UNL     1      16.286  11.303  70.544  1.00  0.00    -0.326 OA
HETATM   30  C20 UNL     1      17.689  11.147  70.518  1.00  0.00     0.213 C 
ENDBRANCH  27  29
ENDBRANCH  15  27
BRANCH   7  31
HETATM   31  N1  UNL     1      14.467  10.160  76.967  1.00  0.00    -0.074 N 
ATOM     32  H13 UNL     1      14.891   9.883  77.853  1.00  0.00     0.274 HD
ATOM     33  H12 UNL     1      14.619   9.329  76.396  1.00  0.00     0.274 HD
ATOM     34  H11 UNL     1      15.018  10.924  76.574  1.00  0.00     0.274 HD
ENDBRANCH   7  31
TORSDOF 8
ENDMDL
MODEL 2
REMARK VINA RESULT: -5.549403841      1.067      1.099
REMARK  8 active torsions:
REMARK  status: ('A' for Active; 'I' for Inactive)
REMARK    1  A    between atoms: C2_2  and  C3_3 
REMARK    2  A    between atoms: C3_3  and  C4_4 
REMARK    3  A    between atoms: C10_10  and  N1_11 
REMARK    4  A    between atoms: C17_22  and  C19_24 
REMARK    5  A    between atoms: C19_24  and  O3_26 
REMARK    6  A    between atoms: C21_28  and  C23_30 
REMARK    7  A    between atoms: C23_30  and  O4_31 
REMARK    8  A    between atoms: O4_31  and  C24_32 
ROOT
HETATM    1  C4  UNL     1      12.911  12.062  72.021  1.00  0.00     0.005 C 
HETATM    2  C5  UNL     1      12.865  11.502  73.372  1.00  0.00    -0.004 C 
HETATM    3  C6  UNL     1      11.801  10.544  73.718  1.00  0.00     0.006 C 
HETATM    4  C7  UNL     1      12.234   9.590  74.829  1.00  0.00     0.012 C 
HETATM    5  C8  UNL     1      11.682  10.069  76.116  1.00  0.00    -0.009 A 
HETATM    6  C9  UNL     1      10.218   9.628  76.331  1.00  0.00     0.018 C 
HETATM    7  C10 UNL     1      12.438  10.284  77.346  1.00  0.00     0.197 A 
HETATM    8  C11 UNL     1      12.015  11.449  76.390  1.00  0.00     0.031 A 
HETATM    9  C12 UNL     1      13.186  12.108  75.798  1.00  0.00    -0.007 C 
HETATM   10  C13 UNL     1      13.482  13.326  76.668  1.00  0.00     0.011 C 
HETATM   11  C14 UNL     1      13.072  12.592  74.407  1.00  0.00     0.001 C 
HETATM   12  C15 UNL     1      14.322  13.387  74.098  1.00  0.00     0.085 C 
HETATM   13  C16 UNL     1      15.246  12.667  73.197  1.00  0.00     0.146 C 
HETATM   14  O1  UNL     1      16.117  12.063  73.778  1.00  0.00    -0.297 OA
HETATM   15  C17 UNL     1      15.300  12.550  71.710  1.00  0.00     0.114 C 
HETATM   16  C18 UNL     1      15.141  13.898  71.051  1.00  0.00     0.035 C 
HETATM   17  C21 UNL     1      14.152  11.641  71.244  1.00  0.00     0.006 C 
HETATM   18  C22 UNL     1      14.582  10.216  71.599  1.00  0.00     0.019 C 
ENDROOT
BRANCH  17  19
HETATM   19  C23 UNL     1      14.043  11.708  69.773  1.00  0.00     0.190 C 
BRANCH  19  20
HETATM   20  O4  UNL     1      14.140  10.382  69.191  1.00  0.00    -0.321 OA
BRANCH  20  21
HETATM   21  C24 UNL     1      13.343   9.957  68.170  1.00  0.00     0.254 C 
HETATM   22  C25 UNL     1      11.935   9.593  68.418  1.00  0.00     0.126 C 
HETATM   23  O5  UNL     1      13.799   9.873  67.013  1.00  0.00    -0.266 OA
ENDBRANCH  20  21
ENDBRANCH  19  20
ENDBRANCH  17  19
BRANCH   1  24
HETATM   24  C3  UNL     1      11.697  12.129  71.180  1.00  0.00     0.032 C 
BRANCH  24  25
HETATM   25  C2  UNL     1      10.886  13.380  71.418  1.00  0.00    -0.036 C 
HETATM   26  C1  UNL     1       9.555  13.342  71.418  1.00  0.00     0.007 C 
ENDBRANCH  24  25
ENDBRANCH   1  24
BRANCH  15  27
HETATM   27  C19 UNL     1      16.587  11.992  71.252  1.00  0.00     0.275 C 
HETATM   28  O2  UNL     1      17.413  12.653  70.576  1.00  0.00    -0.264 OA
BRANCH  27  29
HETATM   29  O3  UNL     1      17.012  10.678  71.525  1.00  0.00    -0.326 OA
HETATM   30  C20 UNL     1      18.362  10.281  71.418  1.00  0.00     0.213 C 
ENDBRANCH  27  29
ENDBRANCH  15  27
BRANCH   7  31
HETATM   31  N1  UNL     1      13.821   9.924  77.417  1.00  0.00    -0.074 N 
ATOM     32  H13 UNL     1      13.932   8.996  77.008  1.00  0.00     0.274 HD
ATOM     33  H12 UNL     1      14.337  10.504  76.755  1.00  0.00     0.274 HD
ATOM     34  H11 UNL     1      14.313   9.942  78.310  1.00  0.00     0.274 HD
ENDBRANCH   7  31
TORSDOF 8
ENDMDL
MODEL 3
REMARK VINA RESULT: -5.420100750      3.451      6.261
REMARK  8 active torsions:
REMARK  status: ('A' for Active; 'I' for Inactive)
REMARK    1  A    between atoms: C2_2  and  C3_3 
REMARK    2  A    between atoms: C3_3  and  C4_4 
REMARK    3  A    between atoms: C10_10  and  N1_11 
REMARK    4  A    between atoms: C17_22  and  C19_24 
REMARK    5  A    between atoms: C19_24  and  O3_26 
REMARK    6  A    between atoms: C21_28  and  C23_30 
REMARK    7  A    between atoms: C23_30  and  O4_31 
REMARK    8  A    between atoms: O4_31  and  C24_32 
ROOT
HETATM    1  C4  UNL     1      14.257  11.554  73.259  1.00  0.00     0.005 C 
HETATM    2  C5  UNL     1      14.607  12.974  73.198  1.00  0.00    -0.004 C 
HETATM    3  C6  UNL     1      14.368  13.721  71.951  1.00  0.00     0.006 C 
HETATM    4  C7  UNL     1      14.141  15.208  72.214  1.00  0.00     0.012 C 
HETATM    5  C8  UNL     1      15.400  15.940  71.952  1.00  0.00    -0.009 A 
HETATM    6  C9  UNL     1      15.600  16.253  70.453  1.00  0.00     0.018 C 
HETATM    7  C10 UNL     1      16.050  16.880  72.860  1.00  0.00     0.197 A 
HETATM    8  C11 UNL     1      16.526  15.400  72.681  1.00  0.00     0.031 A 
HETATM    9  C12 UNL     1      16.364  14.631  73.922  1.00  0.00    -0.007 C 
HETATM   10  C13 UNL     1      17.714  14.667  74.631  1.00  0.00     0.011 C 
HETATM   11  C14 UNL     1      15.978  13.210  73.804  1.00  0.00     0.001 C 
HETATM   12  C15 UNL     1      16.059  12.601  75.188  1.00  0.00     0.085 C 
HETATM   13  C16 UNL     1      14.728  12.351  75.778  1.00  0.00     0.146 C 
HETATM   14  O1  UNL     1      14.344  13.240  76.502  1.00  0.00    -0.297 OA
HETATM   15  C17 UNL     1      13.776  11.209  75.645  1.00  0.00     0.114 C 
HETATM   16  C18 UNL     1      14.486   9.887  75.798  1.00  0.00     0.035 C 
HETATM   17  C21 UNL     1      13.137  11.259  74.248  1.00  0.00     0.006 C 
HETATM   18  C22 UNL     1      12.117  12.399  74.300  1.00  0.00     0.019 C 
ENDROOT
BRANCH  17  19
HETATM   19  C23 UNL     1      12.382  10.012  74.012  1.00  0.00     0.190 C 
BRANCH  19  20
HETATM   20  O4  UNL     1      10.955  10.274  73.984  1.00  0.00    -0.321 OA
BRANCH  20  21
HETATM   21  C24 UNL     1      10.029   9.409  74.486  1.00  0.00     0.254 C 
HETATM   22  C25 UNL     1      10.376   8.495  75.591  1.00  0.00     0.126 C 
HETATM   23  O5  UNL     1       8.874   9.384  74.015  1.00  0.00    -0.266 OA
ENDBRANCH  20  21
ENDBRANCH  19  20
ENDBRANCH  17  19
BRANCH   1  24
HETATM   24  C3  UNL     1      14.176  10.734  72.032  1.00  0.00     0.032 C 
BRANCH  24  25
HETATM   25  C2  UNL     1      15.493  10.092  71.667  1.00  0.00    -0.036 C 
HETATM   26  C1  UNL     1      16.268   9.543  72.601  1.00  0.00     0.007 C 
ENDBRANCH  24  25
ENDBRANCH   1  24
BRANCH  15  27
HETATM   27  C19 UNL     1      12.718  11.257  76.673  1.00  0.00     0.275 C 
HETATM   28  O2  UNL     1      12.623  10.404  77.590  1.00  0.00    -0.264 OA
BRANCH  27  29
HETATM   29  O3  UNL     1      11.722  12.249  76.726  1.00  0.00    -0.326 OA
HETATM   30  C20 UNL     1      10.376  11.956  77.034  1.00  0.00     0.213 C 
ENDBRANCH  27  29
ENDBRANCH  15  27
BRANCH   7  31
HETATM   31  N1  UNL     1      15.419  17.253  74.089  1.00  0.00    -0.074 N 
ATOM     32  H13 UNL     1      15.126  16.402  74.570  1.00  0.00     0.274 HD
ATOM     33  H12 UNL     1      16.134  17.611  74.721  1.00  0.00     0.274 HD
ATOM     34  H11 UNL     1      14.636  17.906  74.088  1.00  0.00     0.274 HD
ENDBRANCH   7  31
TORSDOF 8
ENDMDL
MODEL 4
REMARK VINA RESULT: -5.417182073      3.275      5.684
REMARK  8 active torsions:
REMARK  status: ('A' for Active; 'I' for Inactive)
REMARK    1  A    between atoms: C2_2  and  C3_3 
REMARK    2  A    between atoms: C3_3  and  C4_4 
REMARK    3  A    between atoms: C10_10  and  N1_11 
REMARK    4  A    between atoms: C17_22  and  C19_24 
REMARK    5  A    between atoms: C19_24  and  O3_26 
REMARK    6  A    between atoms: C21_28  and  C23_30 
REMARK    7  A    between atoms: C23_30  and  O4_31 
REMARK    8  A    between atoms: O4_31  and  C24_32 
ROOT
HETATM    1  C4  UNL     1      14.013  13.443  73.387  1.00  0.00     0.005 C 
HETATM    2  C5  UNL     1      14.828  14.141  74.383  1.00  0.00    -0.004 C 
HETATM    3  C6  UNL     1      14.600  15.576  74.621  1.00  0.00     0.006 C 
HETATM    4  C7  UNL     1      14.989  15.987  76.039  1.00  0.00     0.012 C 
HETATM    5  C8  UNL     1      16.333  16.604  76.010  1.00  0.00    -0.009 A 
HETATM    6  C9  UNL     1      16.290  18.095  75.609  1.00  0.00     0.018 C 
HETATM    7  C10 UNL     1      17.464  16.236  76.856  1.00  0.00     0.197 A 
HETATM    8  C11 UNL     1      17.322  15.765  75.370  1.00  0.00     0.031 A 
HETATM    9  C12 UNL     1      17.177  14.306  75.282  1.00  0.00    -0.007 C 
HETATM   10  C13 UNL     1      18.572  13.750  75.013  1.00  0.00     0.011 C 
HETATM   11  C14 UNL     1      16.290  13.766  74.231  1.00  0.00     0.001 C 
HETATM   12  C15 UNL     1      16.455  12.262  74.226  1.00  0.00     0.085 C 
HETATM   13  C16 UNL     1      15.292  11.560  74.808  1.00  0.00     0.146 C 
HETATM   14  O1  UNL     1      15.427  11.285  75.978  1.00  0.00    -0.297 OA
HETATM   15  C17 UNL     1      13.989  11.130  74.220  1.00  0.00     0.114 C 
HETATM   16  C18 UNL     1      14.191  10.442  72.893  1.00  0.00     0.035 C 
HETATM   17  C21 UNL     1      13.115  12.374  73.996  1.00  0.00     0.006 C 
HETATM   18  C22 UNL     1      12.613  12.783  75.384  1.00  0.00     0.019 C 
ENDROOT
BRANCH  17  19
HETATM   19  C23 UNL     1      11.929  11.999  73.199  1.00  0.00     0.190 C 
BRANCH  19  20
HETATM   20  O4  UNL     1      10.744  11.951  74.035  1.00  0.00    -0.321 OA
BRANCH  20  21
HETATM   21  C24 UNL     1       9.659  11.178  73.745  1.00  0.00     0.254 C 
HETATM   22  C25 UNL     1       9.571   9.792  74.242  1.00  0.00     0.126 C 
HETATM   23  O5  UNL     1       8.728  11.639  73.056  1.00  0.00    -0.266 OA
ENDBRANCH  20  21
ENDBRANCH  19  20
ENDBRANCH  17  19
BRANCH   1  24
HETATM   24  C3  UNL     1      13.369  14.177  72.278  1.00  0.00     0.032 C 
BRANCH  24  25
HETATM   25  C2  UNL     1      14.261  14.314  71.068  1.00  0.00    -0.036 C 
HETATM   26  C1  UNL     1      15.079  13.326  70.706  1.00  0.00     0.007 C 
ENDBRANCH  24  25
ENDBRANCH   1  24
BRANCH  15  27
HETATM   27  C19 UNL     1      13.279  10.181  75.099  1.00  0.00     0.275 C 
HETATM   28  O2  UNL     1      12.999   9.008  74.747  1.00  0.00    -0.264 OA
BRANCH  27  29
HETATM   29  O3  UNL     1      12.851  10.491  76.402  1.00  0.00    -0.326 OA
HETATM   30  C20 UNL     1      11.973   9.658  77.130  1.00  0.00     0.213 C 
ENDBRANCH  27  29
ENDBRANCH  15  27
BRANCH   7  31
HETATM   31  N1  UNL     1      17.303  15.270  77.899  1.00  0.00    -0.074 N 
ATOM     32  H13 UNL     1      16.451  15.493  78.414  1.00  0.00     0.274 HD
ATOM     33  H12 UNL     1      17.058  14.376  77.473  1.00  0.00     0.274 HD
ATOM     34  H11 UNL     1      18.052  15.109  78.572  1.00  0.00     0.274 HD
ENDBRANCH   7  31
TORSDOF 8
ENDMDL
MODEL 5
REMARK VINA RESULT: -5.345095749      3.052      5.918
REMARK  8 active torsions:
REMARK  status: ('A' for Active; 'I' for Inactive)
REMARK    1  A    between atoms: C2_2  and  C3_3 
REMARK    2  A    between atoms: C3_3  and  C4_4 
REMARK    3  A    between atoms: C10_10  and  N1_11 
REMARK    4  A    between atoms: C17_22  and  C19_24 
REMARK    5  A    between atoms: C19_24  and  O3_26 
REMARK    6  A    between atoms: C21_28  and  C23_30 
REMARK    7  A    between atoms: C23_30  and  O4_31 
REMARK    8  A    between atoms: O4_31  and  C24_32 
ROOT
HETATM    1  C4  UNL     1      13.683  11.922  72.898  1.00  0.00     0.005 C 
HETATM    2  C5  UNL     1      14.470  13.134  73.133  1.00  0.00    -0.004 C 
HETATM    3  C6  UNL     1      14.230  14.322  72.296  1.00  0.00     0.006 C 
HETATM    4  C7  UNL     1      14.583  15.614  73.028  1.00  0.00     0.012 C 
HETATM    5  C8  UNL     1      15.925  16.062  72.594  1.00  0.00    -0.009 A 
HETATM    6  C9  UNL     1      15.884  16.846  71.264  1.00  0.00     0.018 C 
HETATM    7  C10 UNL     1      17.038  16.413  73.471  1.00  0.00     0.197 A 
HETATM    8  C11 UNL     1      16.933  15.034  72.736  1.00  0.00     0.031 A 
HETATM    9  C12 UNL     1      16.797  13.927  73.691  1.00  0.00    -0.007 C 
HETATM   10  C13 UNL     1      18.201  13.370  73.907  1.00  0.00     0.011 C 
HETATM   11  C14 UNL     1      15.938  12.789  73.306  1.00  0.00     0.001 C 
HETATM   12  C15 UNL     1      16.110  11.713  74.357  1.00  0.00     0.085 C 
HETATM   13  C16 UNL     1      14.937  11.595  75.247  1.00  0.00     0.146 C 
HETATM   14  O1  UNL     1      15.046  12.219  76.277  1.00  0.00    -0.297 OA
HETATM   15  C17 UNL     1      13.650  10.851  75.110  1.00  0.00     0.114 C 
HETATM   16  C18 UNL     1      13.886   9.435  74.645  1.00  0.00     0.035 C 
HETATM   17  C21 UNL     1      12.776  11.566  74.069  1.00  0.00     0.006 C 
HETATM   18  C22 UNL     1      12.240  12.818  74.768  1.00  0.00     0.019 C 
ENDROOT
BRANCH  17  19
HETATM   19  C23 UNL     1      11.611  10.717  73.745  1.00  0.00     0.190 C 
BRANCH  19  20
HETATM   20  O4  UNL     1      10.372  11.439  73.971  1.00  0.00    -0.321 OA
BRANCH  20  21
HETATM   21  C24 UNL     1       9.403  11.569  73.022  1.00  0.00     0.254 C 
HETATM   22  C25 UNL     1       9.494  12.624  71.995  1.00  0.00     0.126 C 
HETATM   23  O5  UNL     1       8.426  10.794  73.014  1.00  0.00    -0.266 OA
ENDBRANCH  20  21
ENDBRANCH  19  20
ENDBRANCH  17  19
BRANCH   1  24
HETATM   24  C3  UNL     1      13.061  11.659  71.583  1.00  0.00     0.032 C 
BRANCH  24  25
HETATM   25  C2  UNL     1      13.995  10.963  70.622  1.00  0.00    -0.036 C 
HETATM   26  C1  UNL     1      14.943  10.139  71.065  1.00  0.00     0.007 C 
ENDBRANCH  24  25
ENDBRANCH   1  24
BRANCH  15  27
HETATM   27  C19 UNL     1      12.925  10.772  76.393  1.00  0.00     0.275 C 
HETATM   28  O2  UNL     1      12.614  11.789  77.061  1.00  0.00    -0.264 OA
BRANCH  27  29
HETATM   29  O3  UNL     1      12.515   9.566  76.988  1.00  0.00    -0.326 OA
HETATM   30  C20 UNL     1      11.158   9.187  77.077  1.00  0.00     0.213 C 
ENDBRANCH  27  29
ENDBRANCH  15  27
BRANCH   7  31
HETATM   31  N1  UNL     1      16.856  16.448  74.890  1.00  0.00    -0.074 N 
ATOM     32  H13 UNL     1      16.190  17.188  75.110  1.00  0.00     0.274 HD
ATOM     33  H12 UNL     1      16.338  15.615  75.167  1.00  0.00     0.274 HD
ATOM     34  H11 UNL     1      17.660  16.546  75.509  1.00  0.00     0.274 HD
ENDBRANCH   7  31
TORSDOF 8
ENDMDL
