MODEL 1
REMARK VINA RESULT: -6.981218076      0.000      0.000
REMARK  4 active torsions:
REMARK  status: ('A' for Active; 'I' for Inactive)
REMARK    1  A    between atoms: O1_2  and  C2_3 
REMARK    2  A    between atoms: C2_3  and  C3_4 
REMARK    3  A    between atoms: C21_25  and  O5_26 
REMARK    4  A    between atoms: O5_26  and  S1_27 
ROOT
HETATM    1  C3  UNL     1      16.159  13.642  74.187  1.00  0.00     0.177 C 
HETATM    2  O2  UNL     1      15.796  12.433  74.724  1.00  0.00    -0.364 OA
HETATM    3  C4  UNL     1      14.429  12.158  74.591  1.00  0.00     0.102 C 
HETATM    4  C5  UNL     1      13.768  13.246  75.284  1.00  0.00    -0.045 C 
HETATM    5  C6  UNL     1      12.663  13.104  75.983  1.00  0.00    -0.018 C 
HETATM    6  C7  UNL     1      11.920  11.824  76.178  1.00  0.00     0.066 C 
HETATM    7  C8  UNL     1      12.623  10.668  75.445  1.00  0.00     0.074 C 
HETATM    8  C9  UNL     1      12.427   9.464  76.401  1.00  0.00     0.047 C 
HETATM    9  O3  UNL     1      12.034  10.345  74.329  1.00  0.00    -0.374 OA
HETATM   10  C10 UNL     1      11.785  11.040  73.240  1.00  0.00     0.126 C 
HETATM   11  C11 UNL     1      10.481  11.862  73.273  1.00  0.00     0.040 C 
HETATM   12  C12 UNL     1      12.840  11.845  72.593  1.00  0.00    -0.015 C 
HETATM   13  C13 UNL     1      13.148  11.273  71.175  1.00  0.00     0.018 C 
HETATM   14  C14 UNL     1      12.423  13.259  72.222  1.00  0.00     0.018 C 
HETATM   15  C15 UNL     1      14.204  11.784  73.230  1.00  0.00     0.036 C 
HETATM   16  C16 UNL     1      14.714  10.381  72.927  1.00  0.00     0.016 C 
HETATM   17  C17 UNL     1      15.686   9.831  73.921  1.00  0.00     0.079 C 
HETATM   18  C18 UNL     1      14.986   9.826  75.228  1.00  0.00     0.137 C 
HETATM   19  O4  UNL     1      15.213   8.904  75.986  1.00  0.00    -0.297 OA
HETATM   20  C19 UNL     1      14.079  10.945  75.479  1.00  0.00     0.129 C 
HETATM   21  C20 UNL     1      14.302  14.629  75.288  1.00  0.00     0.073 C 
HETATM   22  C21 UNL     1      15.809  14.690  75.256  1.00  0.00     0.180 C 
ENDROOT
BRANCH  22  23
HETATM   23  O5  UNL     1      16.249  15.948  74.940  1.00  0.00    -0.248 OA
BRANCH  23  24
HETATM   24  S1  UNL     1      16.839  16.723  76.277  1.00  0.00     0.252 S 
HETATM   25  O6  UNL     1      17.408  15.742  77.291  1.00  0.00    -0.572 OA
HETATM   26  O7  UNL     1      17.933  17.692  75.979  1.00  0.00    -0.572 OA
HETATM   27  O8  UNL     1      15.615  17.549  77.120  1.00  0.00    -0.572 OA
ENDBRANCH  23  24
ENDBRANCH  22  23
BRANCH   1  28
HETATM   28  C2  UNL     1      17.621  13.696  73.821  1.00  0.00     0.201 C 
BRANCH  28  29
HETATM   29  O1  UNL     1      18.474  13.420  74.860  1.00  0.00    -0.393 OA
HETATM   30  C1  UNL     1      19.558  14.308  74.744  1.00  0.00     0.201 C 
ENDBRANCH  28  29
ENDBRANCH   1  28
TORSDOF 4
ENDMDL
MODEL 2
REMARK VINA RESULT: -6.643925135      3.382      6.480
REMARK  4 active torsions:
REMARK  status: ('A' for Active; 'I' for Inactive)
REMARK    1  A    between atoms: O1_2  and  C2_3 
REMARK    2  A    between atoms: C2_3  and  C3_4 
REMARK    3  A    between atoms: C21_25  and  O5_26 
REMARK    4  A    between atoms: O5_26  and  S1_27 
ROOT
HETATM    1  C3  UNL     1      11.261  11.687  74.855  1.00  0.00     0.177 C 
HETATM    2  O2  UNL     1      12.409  10.936  74.892  1.00  0.00    -0.364 OA
HETATM    3  C4  UNL     1      13.395  11.391  74.007  1.00  0.00     0.102 C 
HETATM    4  C5  UNL     1      12.775  11.317  72.699  1.00  0.00    -0.045 C 
HETATM    5  C6  UNL     1      13.419  10.986  71.601  1.00  0.00    -0.018 C 
HETATM    6  C7  UNL     1      14.869  10.637  71.520  1.00  0.00     0.066 C 
HETATM    7  C8  UNL     1      15.527  10.713  72.908  1.00  0.00     0.074 C 
HETATM    8  C9  UNL     1      16.535   9.535  72.893  1.00  0.00     0.047 C 
HETATM    9  O3  UNL     1      16.234  11.794  73.074  1.00  0.00    -0.374 OA
HETATM   10  C10 UNL     1      15.906  13.068  73.030  1.00  0.00     0.126 C 
HETATM   11  C11 UNL     1      15.925  13.700  71.624  1.00  0.00     0.040 C 
HETATM   12  C12 UNL     1      14.730  13.576  73.765  1.00  0.00    -0.015 C 
HETATM   13  C13 UNL     1      15.189  14.573  74.873  1.00  0.00     0.018 C 
HETATM   14  C14 UNL     1      13.818  14.484  72.955  1.00  0.00     0.018 C 
HETATM   15  C15 UNL     1      13.973  12.564  74.584  1.00  0.00     0.036 C 
HETATM   16  C16 UNL     1      14.895  12.236  75.751  1.00  0.00     0.016 C 
HETATM   17  C17 UNL     1      14.721  10.870  76.334  1.00  0.00     0.079 C 
HETATM   18  C18 UNL     1      14.968   9.912  75.229  1.00  0.00     0.137 C 
HETATM   19  O4  UNL     1      15.532   8.871  75.501  1.00  0.00    -0.297 OA
HETATM   20  C19 UNL     1      14.502  10.320  73.905  1.00  0.00     0.129 C 
HETATM   21  C20 UNL     1      11.333  11.584  72.485  1.00  0.00     0.073 C 
HETATM   22  C21 UNL     1      10.466  11.166  73.647  1.00  0.00     0.180 C 
ENDROOT
BRANCH  22  23
HETATM   23  O5  UNL     1       9.213  11.711  73.553  1.00  0.00    -0.248 OA
BRANCH  23  24
HETATM   24  S1  UNL     1       8.067  10.533  73.366  1.00  0.00     0.252 S 
HETATM   25  O6  UNL     1       7.751  10.281  71.900  1.00  0.00    -0.572 OA
HETATM   26  O7  UNL     1       8.461   9.211  73.937  1.00  0.00    -0.572 OA
HETATM   27  O8  UNL     1       6.580  10.984  74.054  1.00  0.00    -0.572 OA
ENDBRANCH  23  24
ENDBRANCH  22  23
BRANCH   1  28
HETATM   28  C2  UNL     1      10.461  11.580  76.129  1.00  0.00     0.201 C 
BRANCH  28  29
HETATM   29  O1  UNL     1      10.990  10.721  77.058  1.00  0.00    -0.393 OA
HETATM   30  C1  UNL     1      10.153   9.592  77.094  1.00  0.00     0.201 C 
ENDBRANCH  28  29
ENDBRANCH   1  28
TORSDOF 4
ENDMDL
MODEL 3
REMARK VINA RESULT: -6.555483566      3.279      6.556
REMARK  4 active torsions:
REMARK  status: ('A' for Active; 'I' for Inactive)
REMARK    1  A    between atoms: O1_2  and  C2_3 
REMARK    2  A    between atoms: C2_3  and  C3_4 
REMARK    3  A    between atoms: C21_25  and  O5_26 
REMARK    4  A    between atoms: O5_26  and  S1_27 
ROOT
HETATM    1  C3  UNL     1      11.751  10.282  74.867  1.00  0.00     0.177 C 
HETATM    2  O2  UNL     1      12.776  10.160  73.963  1.00  0.00    -0.364 OA
HETATM    3  C4  UNL     1      13.365  11.386  73.626  1.00  0.00     0.102 C 
HETATM    4  C5  UNL     1      12.281  12.171  73.069  1.00  0.00    -0.045 C 
HETATM    5  C6  UNL     1      12.426  13.014  72.071  1.00  0.00    -0.018 C 
HETATM    6  C7  UNL     1      13.707  13.299  71.357  1.00  0.00     0.066 C 
HETATM    7  C8  UNL     1      14.857  12.465  71.947  1.00  0.00     0.074 C 
HETATM    8  C9  UNL     1      15.710  12.100  70.705  1.00  0.00     0.047 C 
HETATM    9  O3  UNL     1      15.634  13.158  72.730  1.00  0.00    -0.374 OA
HETATM   10  C10 UNL     1      15.389  13.821  73.840  1.00  0.00     0.126 C 
HETATM   11  C11 UNL     1      14.896  15.268  73.642  1.00  0.00     0.040 C 
HETATM   12  C12 UNL     1      14.624  13.203  74.942  1.00  0.00    -0.015 C 
HETATM   13  C13 UNL     1      15.535  13.050  76.198  1.00  0.00     0.018 C 
HETATM   14  C14 UNL     1      13.523  14.077  75.519  1.00  0.00     0.018 C 
HETATM   15  C15 UNL     1      14.189  11.777  74.727  1.00  0.00     0.036 C 
HETATM   16  C16 UNL     1      15.472  10.961  74.803  1.00  0.00     0.016 C 
HETATM   17  C17 UNL     1      15.459   9.685  74.025  1.00  0.00     0.079 C 
HETATM   18  C18 UNL     1      15.201  10.061  72.613  1.00  0.00     0.137 C 
HETATM   19  O4  UNL     1      15.765   9.423  71.747  1.00  0.00    -0.297 OA
HETATM   20  C19 UNL     1      14.281  11.177  72.402  1.00  0.00     0.129 C 
HETATM   21  C20 UNL     1      10.887  12.069  73.564  1.00  0.00     0.073 C 
HETATM   22  C21 UNL     1      10.519  10.685  74.039  1.00  0.00     0.180 C 
ENDROOT
BRANCH  22  23
HETATM   23  O5  UNL     1       9.362  10.703  74.772  1.00  0.00    -0.248 OA
BRANCH  23  24
HETATM   24  S1  UNL     1       8.141   9.929  73.970  1.00  0.00     0.252 S 
HETATM   25  O6  UNL     1       6.821  10.675  74.097  1.00  0.00    -0.572 OA
HETATM   26  O7  UNL     1       8.386   9.766  72.507  1.00  0.00    -0.572 OA
HETATM   27  O8  UNL     1       7.829   8.392  74.628  1.00  0.00    -0.572 OA
ENDBRANCH  23  24
ENDBRANCH  22  23
BRANCH   1  28
HETATM   28  C2  UNL     1      11.506   9.010  75.637  1.00  0.00     0.201 C 
BRANCH  28  29
HETATM   29  O1  UNL     1      11.466   9.172  76.998  1.00  0.00    -0.393 OA
HETATM   30  C1  UNL     1      12.712   9.694  77.384  1.00  0.00     0.201 C 
ENDBRANCH  28  29
ENDBRANCH   1  28
TORSDOF 4
ENDMDL
MODEL 4
REMARK VINA RESULT: -6.477023753      3.274      6.761
REMARK  4 active torsions:
REMARK  status: ('A' for Active; 'I' for Inactive)
REMARK    1  A    between atoms: O1_2  and  C2_3 
REMARK    2  A    between atoms: C2_3  and  C3_4 
REMARK    3  A    between atoms: C21_25  and  O5_26 
REMARK    4  A    between atoms: O5_26  and  S1_27 
ROOT
HETATM    1  C3  UNL     1      11.304  12.255  72.203  1.00  0.00     0.177 C 
HETATM    2  O2  UNL     1      11.638  11.461  73.271  1.00  0.00    -0.364 OA
HETATM    3  C4  UNL     1      12.990  11.557  73.628  1.00  0.00     0.102 C 
HETATM    4  C5  UNL     1      13.712  11.149  72.439  1.00  0.00    -0.045 C 
HETATM    5  C6  UNL     1      14.832  10.460  72.464  1.00  0.00    -0.018 C 
HETATM    6  C7  UNL     1      15.533   9.991  73.696  1.00  0.00     0.066 C 
HETATM    7  C8  UNL     1      14.766  10.422  74.958  1.00  0.00     0.074 C 
HETATM    8  C9  UNL     1      14.947   9.218  75.917  1.00  0.00     0.047 C 
HETATM    9  O3  UNL     1      15.307  11.445  75.554  1.00  0.00    -0.374 OA
HETATM   10  C10 UNL     1      15.548  12.671  75.139  1.00  0.00     0.126 C 
HETATM   11  C11 UNL     1      16.881  12.857  74.388  1.00  0.00     0.040 C 
HETATM   12  C12 UNL     1      14.503  13.463  74.460  1.00  0.00    -0.015 C 
HETATM   13  C13 UNL     1      14.130  14.703  75.328  1.00  0.00     0.018 C 
HETATM   14  C14 UNL     1      14.960  14.159  73.188  1.00  0.00     0.018 C 
HETATM   15  C15 UNL     1      13.158  12.799  74.314  1.00  0.00     0.036 C 
HETATM   16  C16 UNL     1      12.587  12.759  75.725  1.00  0.00     0.016 C 
HETATM   17  C17 UNL     1      11.627  11.644  75.990  1.00  0.00     0.079 C 
HETATM   18  C18 UNL     1      12.368  10.386  75.725  1.00  0.00     0.137 C 
HETATM   19  O4  UNL     1      12.130   9.431  76.438  1.00  0.00    -0.297 OA
HETATM   20  C19 UNL     1      13.323  10.421  74.619  1.00  0.00     0.129 C 
HETATM   21  C20 UNL     1      13.230  11.452  71.071  1.00  0.00     0.073 C 
HETATM   22  C21 UNL     1      11.726  11.464  70.953  1.00  0.00     0.180 C 
ENDROOT
BRANCH  22  23
HETATM   23  O5  UNL     1      11.323  12.052  69.784  1.00  0.00    -0.248 OA
BRANCH  23  24
HETATM   24  S1  UNL     1      10.579  10.956  68.795  1.00  0.00     0.252 S 
HETATM   25  O6  UNL     1       9.369  10.322  69.465  1.00  0.00    -0.572 OA
HETATM   26  O7  UNL     1      10.084  11.537  67.513  1.00  0.00    -0.572 OA
HETATM   27  O8  UNL     1      11.597   9.646  68.424  1.00  0.00    -0.572 OA
ENDBRANCH  23  24
ENDBRANCH  22  23
BRANCH   1  28
HETATM   28  C2  UNL     1       9.834  12.591  72.172  1.00  0.00     0.201 C 
BRANCH  28  29
HETATM   29  O1  UNL     1       9.064  11.840  73.024  1.00  0.00    -0.393 OA
HETATM   30  C1  UNL     1       7.820  11.659  72.397  1.00  0.00     0.201 C 
ENDBRANCH  28  29
ENDBRANCH   1  28
TORSDOF 4
ENDMDL
MODEL 5
REMARK VINA RESULT: -6.409166465      4.408      7.421
REMARK  4 active torsions:
REMARK  status: ('A' for Active; 'I' for Inactive)
REMARK    1  A    between atoms: O1_2  and  C2_3 
REMARK    2  A    between atoms: C2_3  and  C3_4 
REMARK    3  A    between atoms: C21_25  and  O5_26 
REMARK    4  A    between atoms: O5_26  and  S1_27 
ROOT
HETATM    1  C3  UNL     1       9.717  10.611  73.691  1.00  0.00     0.177 C 
HETATM    2  O2  UNL     1       8.669  11.402  73.294  1.00  0.00    -0.364 OA
HETATM    3  C4  UNL     1       8.803  11.880  71.984  1.00  0.00     0.102 C 
HETATM    4  C5  UNL     1      10.041  12.634  71.995  1.00  0.00    -0.045 C 
HETATM    5  C6  UNL     1      10.231  13.737  71.304  1.00  0.00    -0.018 C 
HETATM    6  C7  UNL     1       9.224  14.385  70.412  1.00  0.00     0.066 C 
HETATM    7  C8  UNL     1       7.910  13.586  70.403  1.00  0.00     0.074 C 
HETATM    8  C9  UNL     1       6.820  14.687  70.331  1.00  0.00     0.047 C 
HETATM    9  O3  UNL     1       7.765  12.863  69.328  1.00  0.00    -0.374 OA
HETATM   10  C10 UNL     1       8.497  11.892  68.825  1.00  0.00     0.126 C 
HETATM   11  C11 UNL     1       9.664  12.350  67.928  1.00  0.00     0.040 C 
HETATM   12  C12 UNL     1       8.956  10.770  69.668  1.00  0.00    -0.015 C 
HETATM   13  C13 UNL     1       8.312   9.439  69.174  1.00  0.00     0.018 C 
HETATM   14  C14 UNL     1      10.428  10.422  69.517  1.00  0.00     0.018 C 
HETATM   15  C15 UNL     1       8.504  10.793  71.105  1.00  0.00     0.036 C 
HETATM   16  C16 UNL     1       7.012  10.492  71.050  1.00  0.00     0.016 C 
HETATM   17  C17 UNL     1       6.208  11.061  72.174  1.00  0.00     0.079 C 
HETATM   18  C18 UNL     1       6.414  12.530  72.131  1.00  0.00     0.137 C 
HETATM   19  O4  UNL     1       5.470  13.240  72.414  1.00  0.00    -0.297 OA
HETATM   20  C19 UNL     1       7.750  12.982  71.747  1.00  0.00     0.129 C 
HETATM   21  C20 UNL     1      11.208  12.238  72.818  1.00  0.00     0.073 C 
HETATM   22  C21 UNL     1      10.827  11.583  74.122  1.00  0.00     0.180 C 
ENDROOT
BRANCH  22  23
HETATM   23  O5  UNL     1      11.901  10.953  74.694  1.00  0.00    -0.248 OA
BRANCH  23  24
HETATM   24  S1  UNL     1      12.240  11.593  76.181  1.00  0.00     0.252 S 
HETATM   25  O6  UNL     1      12.881  10.567  77.103  1.00  0.00    -0.572 OA
HETATM   26  O7  UNL     1      13.176  12.754  76.140  1.00  0.00    -0.572 OA
HETATM   27  O8  UNL     1      10.830  12.079  76.996  1.00  0.00    -0.572 OA
ENDBRANCH  23  24
ENDBRANCH  22  23
BRANCH   1  28
HETATM   28  C2  UNL     1       9.340   9.673  74.810  1.00  0.00     0.201 C 
BRANCH  28  29
HETATM   29  O1  UNL     1      10.110   8.540  74.882  1.00  0.00    -0.393 OA
HETATM   30  C1  UNL     1      10.234   8.216  76.244  1.00  0.00     0.201 C 
ENDBRANCH  28  29
ENDBRANCH   1  28
TORSDOF 4
ENDMDL
