MODEL 1
REMARK VINA RESULT: -9.484011038      0.000      0.000
REMARK  15 active torsions:
REMARK  status: ('A' for Active; 'I' for Inactive)
REMARK    1  A    between atoms: C1_2  and  C2_3 
REMARK       I    between atoms: C1_2  and  N2_11 
REMARK    2  A    between atoms: C2_3  and  C3_4 
REMARK    3  A    between atoms: C3_4  and  N1_5 
REMARK    4  A    between atoms: N2_11  and  C8_13 
REMARK    5  A    between atoms: C9_18  and  C10_19 
REMARK    6  A    between atoms: C10_19  and  C11_20 
REMARK    7  A    between atoms: C11_20  and  C12_21 
REMARK    8  A    between atoms: C12_21  and  C13_22 
REMARK    9  A    between atoms: C13_22  and  C14_23 
REMARK   10  A    between atoms: C15_28  and  C16_29 
REMARK   11  A    between atoms: C16_29  and  C17_30 
REMARK   12  A    between atoms: C17_30  and  C18_31 
REMARK   13  A    between atoms: C19_32  and  C20_33 
REMARK   14  A    between atoms: C20_33  and  O3_34 
REMARK   15  A    between atoms: N7_36  and  C21_37 
ROOT
HETATM    1  C14 UNL     1     119.826  52.954  14.649  1.00  0.00     0.104 A 
HETATM    2  N5  UNL     1     119.601  52.046  13.687  1.00  0.00    -0.287 N 
ATOM      3  H5  UNL     1     118.690  51.658  13.437  1.00  0.00     0.188 HD
HETATM    4  N6  UNL     1     120.742  51.740  13.121  1.00  0.00    -0.287 N 
ATOM      5  H6  UNL     1     120.879  51.077  12.358  1.00  0.00     0.188 HD
HETATM    6  C15 UNL     1     121.722  52.474  13.745  1.00  0.00     0.105 A 
HETATM    7  N7  UNL     1     121.167  53.229  14.691  1.00  0.00    -0.288 N 
ENDROOT
BRANCH   1   8
HETATM    8  C13 UNL     1     118.880  53.625  15.559  1.00  0.00     0.078 C 
BRANCH   8   9
HETATM    9  C12 UNL     1     118.231  54.864  15.008  1.00  0.00     0.008 C 
BRANCH   9  10
HETATM   10  C11 UNL     1     118.915  56.144  15.334  1.00  0.00     0.007 C 
BRANCH  10  11
HETATM   11  C10 UNL     1     119.158  56.416  16.772  1.00  0.00     0.066 C 
BRANCH  11  12
HETATM   12  C9  UNL     1     119.702  57.773  17.080  1.00  0.00     0.069 A 
HETATM   13  N4  UNL     1     120.371  58.642  16.347  1.00  0.00    -0.296 N 
HETATM   14  N3  UNL     1     120.744  59.752  16.813  1.00  0.00    -0.279 N 
ATOM     15  H4  UNL     1     120.591  58.410  15.379  1.00  0.00     0.187 HD
HETATM   16  C8  UNL     1     120.448  60.053  18.092  1.00  0.00     0.167 A 
ATOM     17  H3  UNL     1     121.261  60.412  16.232  1.00  0.00     0.189 HD
HETATM   18  S1  UNL     1     119.608  58.645  18.574  1.00  0.00    -0.038 SA
BRANCH  16  19
HETATM   19  N2  UNL     1     120.760  61.144  18.705  1.00  0.00    -0.306 N 
HETATM   20  C1  UNL     1     121.807  61.183  19.634  1.00  0.00     0.225 C 
HETATM   21  O1  UNL     1     121.861  62.249  20.344  1.00  0.00    -0.273 OA
ATOM     22  H2  UNL     1     120.234  61.994  18.508  1.00  0.00     0.171 HD
BRANCH  20  23
HETATM   23  C2  UNL     1     122.818  60.130  19.852  1.00  0.00     0.133 C 
BRANCH  23  24
HETATM   24  C3  UNL     1     124.144  60.616  19.282  1.00  0.00     0.282 C 
BRANCH  24  25
HETATM   25  N1  UNL     1     125.281  59.941  19.843  1.00  0.00     0.093 N 
HETATM   26  C4  UNL     1     125.884  60.822  20.810  1.00  0.00     0.298 C 
HETATM   27  C5  UNL     1     126.464  62.030  20.141  1.00  0.00     0.198 C 
HETATM   28  O2  UNL     1     127.342  61.695  19.099  1.00  0.00    -0.388 OA
HETATM   29  C6  UNL     1     127.580  60.320  19.097  1.00  0.00     0.198 C 
HETATM   30  C7  UNL     1     126.271  59.579  18.864  1.00  0.00     0.298 C 
ENDBRANCH  24  25
ENDBRANCH  23  24
ENDBRANCH  20  23
ENDBRANCH  16  19
ENDBRANCH  11  12
ENDBRANCH  10  11
ENDBRANCH   9  10
ENDBRANCH   8   9
ENDBRANCH   1   8
BRANCH   7  31
HETATM   31  C21 UNL     1     121.795  54.151  15.536  1.00  0.00     0.044 A 
HETATM   32  C22 UNL     1     121.960  54.006  16.900  1.00  0.00     0.031 A 
HETATM   33  C23 UNL     1     122.567  54.938  17.708  1.00  0.00     0.016 A 
HETATM   34  C24 UNL     1     123.050  56.100  17.126  1.00  0.00    -0.008 A 
HETATM   35  C25 UNL     1     123.696  57.211  17.637  1.00  0.00     0.030 A 
HETATM   36  C27 UNL     1     122.904  56.279  15.765  1.00  0.00     0.044 A 
HETATM   37  C26 UNL     1     123.933  58.050  16.577  1.00  0.00     0.089 A 
HETATM   38  N8  UNL     1     123.457  57.489  15.453  1.00  0.00    -0.365 N 
ATOM     39  H8  UNL     1     123.500  57.900  14.520  1.00  0.00     0.165 HD
HETATM   40  C28 UNL     1     122.292  55.333  14.981  1.00  0.00     0.060 A 
ENDBRANCH   7  31
BRANCH   6  41
HETATM   41  C16 UNL     1     123.128  52.396  13.299  1.00  0.00     0.090 C 
BRANCH  41  42
HETATM   42  C17 UNL     1     123.989  51.825  14.358  1.00  0.00     0.101 C 
BRANCH  42  43
HETATM   43  C18 UNL     1     124.886  52.720  15.043  1.00  0.00    -0.104 C 
HETATM   44  C19 UNL     1     125.603  53.482  15.617  1.00  0.00    -0.081 C 
BRANCH  44  45
HETATM   45  C20 UNL     1     126.481  54.423  16.302  1.00  0.00     0.257 C 
BRANCH  45  46
HETATM   46  O3  UNL     1     126.228  55.708  15.808  1.00  0.00    -0.389 OA
ATOM     47  H3  UNL     1     126.824  56.316  16.229  1.00  0.00     0.210 HD
ENDBRANCH  45  46
ENDBRANCH  44  45
ENDBRANCH  42  43
ENDBRANCH  41  42
ENDBRANCH   6  41
TORSDOF 15
ENDMDL
MODEL 2
REMARK VINA RESULT: -8.922813476      1.658      1.941
REMARK  15 active torsions:
REMARK  status: ('A' for Active; 'I' for Inactive)
REMARK    1  A    between atoms: C1_2  and  C2_3 
REMARK       I    between atoms: C1_2  and  N2_11 
REMARK    2  A    between atoms: C2_3  and  C3_4 
REMARK    3  A    between atoms: C3_4  and  N1_5 
REMARK    4  A    between atoms: N2_11  and  C8_13 
REMARK    5  A    between atoms: C9_18  and  C10_19 
REMARK    6  A    between atoms: C10_19  and  C11_20 
REMARK    7  A    between atoms: C11_20  and  C12_21 
REMARK    8  A    between atoms: C12_21  and  C13_22 
REMARK    9  A    between atoms: C13_22  and  C14_23 
REMARK   10  A    between atoms: C15_28  and  C16_29 
REMARK   11  A    between atoms: C16_29  and  C17_30 
REMARK   12  A    between atoms: C17_30  and  C18_31 
REMARK   13  A    between atoms: C19_32  and  C20_33 
REMARK   14  A    between atoms: C20_33  and  O3_34 
REMARK   15  A    between atoms: N7_36  and  C21_37 
ROOT
HETATM    1  C14 UNL     1     120.172  52.983  14.861  1.00  0.00     0.104 A 
HETATM    2  N5  UNL     1     119.955  52.019  13.953  1.00  0.00    -0.287 N 
ATOM      3  H5  UNL     1     119.050  51.599  13.737  1.00  0.00     0.188 HD
HETATM    4  N6  UNL     1     121.096  51.707  13.390  1.00  0.00    -0.287 N 
ATOM      5  H6  UNL     1     121.238  51.007  12.661  1.00  0.00     0.188 HD
HETATM    6  C15 UNL     1     122.067  52.495  13.958  1.00  0.00     0.105 A 
HETATM    7  N7  UNL     1     121.507  53.289  14.869  1.00  0.00    -0.288 N 
ENDROOT
BRANCH   1   8
HETATM    8  C13 UNL     1     119.222  53.683  15.745  1.00  0.00     0.078 C 
BRANCH   8   9
HETATM    9  C12 UNL     1     118.459  54.808  15.103  1.00  0.00     0.008 C 
BRANCH   9  10
HETATM   10  C11 UNL     1     118.942  56.176  15.426  1.00  0.00     0.007 C 
BRANCH  10  11
HETATM   11  C10 UNL     1     119.311  56.431  16.841  1.00  0.00     0.066 C 
BRANCH  11  12
HETATM   12  C9  UNL     1     119.816  57.807  17.129  1.00  0.00     0.069 A 
HETATM   13  N4  UNL     1     120.456  58.686  16.382  1.00  0.00    -0.296 N 
HETATM   14  N3  UNL     1     120.799  59.812  16.832  1.00  0.00    -0.279 N 
ATOM     15  H4  UNL     1     120.679  58.448  15.416  1.00  0.00     0.187 HD
HETATM   16  C8  UNL     1     120.500  60.120  18.109  1.00  0.00     0.167 A 
ATOM     17  H3  UNL     1     121.294  60.480  16.240  1.00  0.00     0.189 HD
HETATM   18  S1  UNL     1     119.703  58.694  18.613  1.00  0.00    -0.038 SA
BRANCH  16  19
HETATM   19  N2  UNL     1     120.783  61.227  18.706  1.00  0.00    -0.306 N 
HETATM   20  C1  UNL     1     121.800  61.297  19.668  1.00  0.00     0.225 C 
HETATM   21  O1  UNL     1     121.821  62.379  20.354  1.00  0.00    -0.273 OA
ATOM     22  H2  UNL     1     120.256  62.068  18.474  1.00  0.00     0.171 HD
BRANCH  20  23
HETATM   23  C2  UNL     1     122.812  60.259  19.941  1.00  0.00     0.133 C 
BRANCH  23  24
HETATM   24  C3  UNL     1     124.117  60.678  19.277  1.00  0.00     0.282 C 
BRANCH  24  25
HETATM   25  N1  UNL     1     125.274  60.067  19.870  1.00  0.00     0.093 N 
HETATM   26  C4  UNL     1     125.728  60.924  20.936  1.00  0.00     0.298 C 
HETATM   27  C5  UNL     1     126.233  62.226  20.394  1.00  0.00     0.198 C 
HETATM   28  O2  UNL     1     127.204  62.049  19.396  1.00  0.00    -0.388 OA
HETATM   29  C6  UNL     1     127.570  60.705  19.318  1.00  0.00     0.198 C 
HETATM   30  C7  UNL     1     126.354  59.870  18.941  1.00  0.00     0.298 C 
ENDBRANCH  24  25
ENDBRANCH  23  24
ENDBRANCH  20  23
ENDBRANCH  16  19
ENDBRANCH  11  12
ENDBRANCH  10  11
ENDBRANCH   9  10
ENDBRANCH   8   9
ENDBRANCH   1   8
BRANCH   7  31
HETATM   31  C21 UNL     1     122.125  54.269  15.654  1.00  0.00     0.044 A 
HETATM   32  C22 UNL     1     122.394  54.163  17.005  1.00  0.00     0.031 A 
HETATM   33  C23 UNL     1     122.988  55.151  17.754  1.00  0.00     0.016 A 
HETATM   34  C24 UNL     1     123.345  56.333  17.123  1.00  0.00    -0.008 A 
HETATM   35  C25 UNL     1     123.944  57.497  17.570  1.00  0.00     0.030 A 
HETATM   36  C27 UNL     1     123.092  56.474  15.773  1.00  0.00     0.044 A 
HETATM   37  C26 UNL     1     124.046  58.328  16.484  1.00  0.00     0.089 A 
HETATM   38  N8  UNL     1     123.534  57.714  15.405  1.00  0.00    -0.365 N 
ATOM     39  H8  UNL     1     123.482  58.108  14.465  1.00  0.00     0.165 HD
HETATM   40  C28 UNL     1     122.497  55.472  15.048  1.00  0.00     0.060 A 
ENDBRANCH   7  31
BRANCH   6  41
HETATM   41  C16 UNL     1     123.469  52.423  13.499  1.00  0.00     0.090 C 
BRANCH  41  42
HETATM   42  C17 UNL     1     124.305  51.675  14.463  1.00  0.00     0.101 C 
BRANCH  42  43
HETATM   43  C18 UNL     1     125.046  50.544  13.966  1.00  0.00    -0.104 C 
HETATM   44  C19 UNL     1     125.666  49.597  13.586  1.00  0.00    -0.081 C 
BRANCH  44  45
HETATM   45  C20 UNL     1     126.438  48.450  13.125  1.00  0.00     0.257 C 
BRANCH  45  46
HETATM   46  O3  UNL     1     125.721  47.810  12.107  1.00  0.00    -0.389 OA
ATOM     47  H3  UNL     1     126.337  47.480  11.465  1.00  0.00     0.210 HD
ENDBRANCH  45  46
ENDBRANCH  44  45
ENDBRANCH  42  43
ENDBRANCH  41  42
ENDBRANCH   6  41
TORSDOF 15
ENDMDL
MODEL 3
REMARK VINA RESULT: -8.456966044      2.550      8.005
REMARK  15 active torsions:
REMARK  status: ('A' for Active; 'I' for Inactive)
REMARK    1  A    between atoms: C1_2  and  C2_3 
REMARK       I    between atoms: C1_2  and  N2_11 
REMARK    2  A    between atoms: C2_3  and  C3_4 
REMARK    3  A    between atoms: C3_4  and  N1_5 
REMARK    4  A    between atoms: N2_11  and  C8_13 
REMARK    5  A    between atoms: C9_18  and  C10_19 
REMARK    6  A    between atoms: C10_19  and  C11_20 
REMARK    7  A    between atoms: C11_20  and  C12_21 
REMARK    8  A    between atoms: C12_21  and  C13_22 
REMARK    9  A    between atoms: C13_22  and  C14_23 
REMARK   10  A    between atoms: C15_28  and  C16_29 
REMARK   11  A    between atoms: C16_29  and  C17_30 
REMARK   12  A    between atoms: C17_30  and  C18_31 
REMARK   13  A    between atoms: C19_32  and  C20_33 
REMARK   14  A    between atoms: C20_33  and  O3_34 
REMARK   15  A    between atoms: N7_36  and  C21_37 
ROOT
HETATM    1  C14 UNL     1     121.493  56.559  16.967  1.00  0.00     0.104 A 
HETATM    2  N5  UNL     1     122.260  55.899  16.085  1.00  0.00    -0.287 N 
ATOM      3  H5  UNL     1     122.006  55.033  15.608  1.00  0.00     0.188 HD
HETATM    4  N6  UNL     1     123.387  56.550  15.939  1.00  0.00    -0.287 N 
ATOM      5  H6  UNL     1     124.163  56.285  15.331  1.00  0.00     0.188 HD
HETATM    6  C15 UNL     1     123.335  57.655  16.753  1.00  0.00     0.105 A 
HETATM    7  N7  UNL     1     122.168  57.671  17.393  1.00  0.00    -0.288 N 
ENDROOT
BRANCH   1   8
HETATM    8  C13 UNL     1     120.138  56.251  17.460  1.00  0.00     0.078 C 
BRANCH   8   9
HETATM    9  C12 UNL     1     119.014  56.699  16.567  1.00  0.00     0.008 C 
BRANCH   9  10
HETATM   10  C11 UNL     1     118.893  55.972  15.276  1.00  0.00     0.007 C 
BRANCH  10  11
HETATM   11  C10 UNL     1     117.953  54.823  15.249  1.00  0.00     0.066 C 
BRANCH  11  12
HETATM   12  C9  UNL     1     118.593  53.480  15.121  1.00  0.00     0.069 A 
HETATM   13  N4  UNL     1     119.137  52.673  16.012  1.00  0.00    -0.296 N 
HETATM   14  N3  UNL     1     119.632  51.561  15.683  1.00  0.00    -0.279 N 
ATOM     15  H4  UNL     1     119.159  52.958  16.991  1.00  0.00     0.187 HD
HETATM   16  C8  UNL     1     119.598  51.193  14.389  1.00  0.00     0.167 A 
ATOM     17  H3  UNL     1     120.049  50.951  16.386  1.00  0.00     0.189 HD
HETATM   18  S1  UNL     1     118.818  52.540  13.683  1.00  0.00    -0.038 SA
BRANCH  16  19
HETATM   19  N2  UNL     1     120.060  50.091  13.904  1.00  0.00    -0.306 N 
HETATM   20  C1  UNL     1     121.271  50.055  13.201  1.00  0.00     0.225 C 
HETATM   21  O1  UNL     1     121.498  48.964  12.569  1.00  0.00    -0.273 OA
ATOM     22  H2  UNL     1     119.532  49.228  14.034  1.00  0.00     0.171 HD
BRANCH  20  23
HETATM   23  C2  UNL     1     122.271  51.139  13.134  1.00  0.00     0.133 C 
BRANCH  23  24
HETATM   24  C3  UNL     1     123.492  50.711  13.937  1.00  0.00     0.282 C 
BRANCH  24  25
HETATM   25  N1  UNL     1     124.688  51.412  13.561  1.00  0.00     0.093 N 
HETATM   26  C4  UNL     1     125.333  51.865  14.767  1.00  0.00     0.298 C 
HETATM   27  C5  UNL     1     124.500  52.899  15.460  1.00  0.00     0.198 C 
HETATM   28  O2  UNL     1     124.146  53.958  14.610  1.00  0.00    -0.388 OA
HETATM   29  C6  UNL     1     124.831  53.850  13.399  1.00  0.00     0.198 C 
HETATM   30  C7  UNL     1     124.441  52.548  12.712  1.00  0.00     0.298 C 
ENDBRANCH  24  25
ENDBRANCH  23  24
ENDBRANCH  20  23
ENDBRANCH  16  19
ENDBRANCH  11  12
ENDBRANCH  10  11
ENDBRANCH   9  10
ENDBRANCH   8   9
ENDBRANCH   1   8
BRANCH   7  31
HETATM   31  C21 UNL     1     121.690  58.635  18.288  1.00  0.00     0.044 A 
HETATM   32  C22 UNL     1     120.843  59.679  17.966  1.00  0.00     0.031 A 
HETATM   33  C23 UNL     1     120.404  60.622  18.864  1.00  0.00     0.016 A 
HETATM   34  C24 UNL     1     120.830  60.528  20.180  1.00  0.00    -0.008 A 
HETATM   35  C25 UNL     1     120.583  61.292  21.307  1.00  0.00     0.030 A 
HETATM   36  C27 UNL     1     121.676  59.498  20.538  1.00  0.00     0.044 A 
HETATM   37  C26 UNL     1     121.285  60.713  22.335  1.00  0.00     0.089 A 
HETATM   38  N8  UNL     1     121.941  59.636  21.873  1.00  0.00    -0.365 N 
ATOM     39  H8  UNL     1     122.539  59.022  22.426  1.00  0.00     0.165 HD
HETATM   40  C28 UNL     1     122.101  58.570  19.621  1.00  0.00     0.060 A 
ENDBRANCH   7  31
BRANCH   6  41
HETATM   41  C16 UNL     1     124.443  58.632  16.777  1.00  0.00     0.090 C 
BRANCH  41  42
HETATM   42  C17 UNL     1     125.358  58.368  17.909  1.00  0.00     0.101 C 
BRANCH  42  43
HETATM   43  C18 UNL     1     125.692  59.475  18.769  1.00  0.00    -0.104 C 
HETATM   44  C19 UNL     1     125.951  60.377  19.506  1.00  0.00    -0.081 C 
BRANCH  44  45
HETATM   45  C20 UNL     1     126.250  61.487  20.402  1.00  0.00     0.257 C 
BRANCH  45  46
HETATM   46  O3  UNL     1     127.205  62.307  19.791  1.00  0.00    -0.389 OA
ATOM     47  H3  UNL     1     127.068  62.283  18.852  1.00  0.00     0.210 HD
ENDBRANCH  45  46
ENDBRANCH  44  45
ENDBRANCH  42  43
ENDBRANCH  41  42
ENDBRANCH   6  41
TORSDOF 15
ENDMDL
MODEL 4
REMARK VINA RESULT: -8.450337005      2.992      9.276
REMARK  15 active torsions:
REMARK  status: ('A' for Active; 'I' for Inactive)
REMARK    1  A    between atoms: C1_2  and  C2_3 
REMARK       I    between atoms: C1_2  and  N2_11 
REMARK    2  A    between atoms: C2_3  and  C3_4 
REMARK    3  A    between atoms: C3_4  and  N1_5 
REMARK    4  A    between atoms: N2_11  and  C8_13 
REMARK    5  A    between atoms: C9_18  and  C10_19 
REMARK    6  A    between atoms: C10_19  and  C11_20 
REMARK    7  A    between atoms: C11_20  and  C12_21 
REMARK    8  A    between atoms: C12_21  and  C13_22 
REMARK    9  A    between atoms: C13_22  and  C14_23 
REMARK   10  A    between atoms: C15_28  and  C16_29 
REMARK   11  A    between atoms: C16_29  and  C17_30 
REMARK   12  A    between atoms: C17_30  and  C18_31 
REMARK   13  A    between atoms: C19_32  and  C20_33 
REMARK   14  A    between atoms: C20_33  and  O3_34 
REMARK   15  A    between atoms: N7_36  and  C21_37 
ROOT
HETATM    1  C14 UNL     1     121.550  59.434  17.929  1.00  0.00     0.104 A 
HETATM    2  N5  UNL     1     121.442  60.672  18.437  1.00  0.00    -0.287 N 
ATOM      3  H5  UNL     1     120.630  61.283  18.346  1.00  0.00     0.188 HD
HETATM    4  N6  UNL     1     122.551  60.964  19.071  1.00  0.00    -0.287 N 
ATOM      5  H6  UNL     1     122.755  61.837  19.558  1.00  0.00     0.188 HD
HETATM    6  C15 UNL     1     123.388  59.881  18.959  1.00  0.00     0.105 A 
HETATM    7  N7  UNL     1     122.780  58.929  18.256  1.00  0.00    -0.288 N 
ENDROOT
BRANCH   1   8
HETATM    8  C13 UNL     1     120.580  58.642  17.151  1.00  0.00     0.078 C 
BRANCH   8   9
HETATM    9  C12 UNL     1     119.579  57.873  17.968  1.00  0.00     0.008 C 
BRANCH   9  10
HETATM   10  C11 UNL     1     119.081  56.615  17.352  1.00  0.00     0.007 C 
BRANCH  10  11
HETATM   11  C10 UNL     1     119.517  56.342  15.959  1.00  0.00     0.066 C 
BRANCH  11  12
HETATM   12  C9  UNL     1     120.333  55.103  15.779  1.00  0.00     0.069 A 
HETATM   13  N4  UNL     1     120.379  53.972  16.455  1.00  0.00    -0.296 N 
HETATM   14  N3  UNL     1     121.157  53.036  16.127  1.00  0.00    -0.279 N 
ATOM     15  H4  UNL     1     119.770  53.851  17.265  1.00  0.00     0.187 HD
HETATM   16  C8  UNL     1     121.958  53.202  15.057  1.00  0.00     0.167 A 
ATOM     17  H3  UNL     1     121.180  52.168  16.662  1.00  0.00     0.189 HD
HETATM   18  S1  UNL     1     121.522  54.779  14.562  1.00  0.00    -0.038 SA
BRANCH  16  19
HETATM   19  N2  UNL     1     122.801  52.339  14.601  1.00  0.00    -0.306 N 
HETATM   20  C1  UNL     1     122.466  51.481  13.546  1.00  0.00     0.225 C 
HETATM   21  O1  UNL     1     123.289  50.520  13.348  1.00  0.00    -0.273 OA
ATOM     22  H2  UNL     1     123.729  52.280  15.018  1.00  0.00     0.171 HD
BRANCH  20  23
HETATM   23  C2  UNL     1     121.280  51.595  12.674  1.00  0.00     0.133 C 
BRANCH  23  24
HETATM   24  C3  UNL     1     120.559  50.254  12.671  1.00  0.00     0.282 C 
BRANCH  24  25
HETATM   25  N1  UNL     1     119.477  50.193  13.615  1.00  0.00     0.093 N 
HETATM   26  C4  UNL     1     118.481  49.296  13.087  1.00  0.00     0.298 C 
HETATM   27  C5  UNL     1     117.859  49.861  11.847  1.00  0.00     0.198 C 
HETATM   28  O2  UNL     1     117.364  51.160  12.041  1.00  0.00    -0.388 OA
HETATM   29  C6  UNL     1     117.417  51.496  13.394  1.00  0.00     0.198 C 
HETATM   30  C7  UNL     1     118.865  51.471  13.865  1.00  0.00     0.298 C 
ENDBRANCH  24  25
ENDBRANCH  23  24
ENDBRANCH  20  23
ENDBRANCH  16  19
ENDBRANCH  11  12
ENDBRANCH  10  11
ENDBRANCH   9  10
ENDBRANCH   8   9
ENDBRANCH   1   8
BRANCH   7  31
HETATM   31  C21 UNL     1     123.259  57.652  17.940  1.00  0.00     0.044 A 
HETATM   32  C22 UNL     1     122.911  56.482  18.587  1.00  0.00     0.031 A 
HETATM   33  C23 UNL     1     123.412  55.243  18.264  1.00  0.00     0.016 A 
HETATM   34  C24 UNL     1     124.323  55.151  17.223  1.00  0.00    -0.008 A 
HETATM   35  C25 UNL     1     125.003  54.087  16.656  1.00  0.00     0.030 A 
HETATM   36  C27 UNL     1     124.693  56.300  16.553  1.00  0.00     0.044 A 
HETATM   37  C26 UNL     1     125.776  54.607  15.649  1.00  0.00     0.089 A 
HETATM   38  N8  UNL     1     125.590  55.936  15.588  1.00  0.00    -0.365 N 
ATOM     39  H8  UNL     1     126.044  56.569  14.929  1.00  0.00     0.165 HD
HETATM   40  C28 UNL     1     124.179  57.525  16.896  1.00  0.00     0.060 A 
ENDBRANCH   7  31
BRANCH   6  41
HETATM   41  C16 UNL     1     124.711  59.873  19.618  1.00  0.00     0.090 C 
BRANCH  41  42
HETATM   42  C17 UNL     1     125.202  61.251  19.836  1.00  0.00     0.101 C 
BRANCH  42  43
HETATM   43  C18 UNL     1     125.436  61.668  21.195  1.00  0.00    -0.104 C 
HETATM   44  C19 UNL     1     125.642  62.043  22.310  1.00  0.00    -0.081 C 
BRANCH  44  45
HETATM   45  C20 UNL     1     125.910  62.496  23.669  1.00  0.00     0.257 C 
BRANCH  45  46
HETATM   46  O3  UNL     1     125.699  61.426  24.545  1.00  0.00    -0.389 OA
ATOM     47  H3  UNL     1     126.075  60.643  24.162  1.00  0.00     0.210 HD
ENDBRANCH  45  46
ENDBRANCH  44  45
ENDBRANCH  42  43
ENDBRANCH  41  42
ENDBRANCH   6  41
TORSDOF 15
ENDMDL
MODEL 5
REMARK VINA RESULT: -8.436727000      3.335      9.535
REMARK  15 active torsions:
REMARK  status: ('A' for Active; 'I' for Inactive)
REMARK    1  A    between atoms: C1_2  and  C2_3 
REMARK       I    between atoms: C1_2  and  N2_11 
REMARK    2  A    between atoms: C2_3  and  C3_4 
REMARK    3  A    between atoms: C3_4  and  N1_5 
REMARK    4  A    between atoms: N2_11  and  C8_13 
REMARK    5  A    between atoms: C9_18  and  C10_19 
REMARK    6  A    between atoms: C10_19  and  C11_20 
REMARK    7  A    between atoms: C11_20  and  C12_21 
REMARK    8  A    between atoms: C12_21  and  C13_22 
REMARK    9  A    between atoms: C13_22  and  C14_23 
REMARK   10  A    between atoms: C15_28  and  C16_29 
REMARK   11  A    between atoms: C16_29  and  C17_30 
REMARK   12  A    between atoms: C17_30  and  C18_31 
REMARK   13  A    between atoms: C19_32  and  C20_33 
REMARK   14  A    between atoms: C20_33  and  O3_34 
REMARK   15  A    between atoms: N7_36  and  C21_37 
ROOT
HETATM    1  C14 UNL     1     124.309  59.335  18.425  1.00  0.00     0.104 A 
HETATM    2  N5  UNL     1     124.702  60.324  19.242  1.00  0.00    -0.287 N 
ATOM      3  H5  UNL     1     125.536  60.899  19.121  1.00  0.00     0.188 HD
HETATM    4  N6  UNL     1     123.838  60.429  20.221  1.00  0.00    -0.287 N 
ATOM      5  H6  UNL     1     123.877  61.096  20.992  1.00  0.00     0.188 HD
HETATM    6  C15 UNL     1     122.868  59.477  20.021  1.00  0.00     0.105 A 
HETATM    7  N7  UNL     1     123.149  58.795  18.912  1.00  0.00    -0.288 N 
ENDROOT
BRANCH   1   8
HETATM    8  C13 UNL     1     124.923  58.833  17.182  1.00  0.00     0.078 C 
BRANCH   8   9
HETATM    9  C12 UNL     1     126.089  57.904  17.373  1.00  0.00     0.008 C 
BRANCH   9  10
HETATM   10  C11 UNL     1     126.345  56.959  16.254  1.00  0.00     0.007 C 
BRANCH  10  11
HETATM   11  C10 UNL     1     125.994  55.537  16.495  1.00  0.00     0.066 C 
BRANCH  11  12
HETATM   12  C9  UNL     1     125.365  54.831  15.339  1.00  0.00     0.069 A 
HETATM   13  N4  UNL     1     125.066  55.232  14.118  1.00  0.00    -0.296 N 
HETATM   14  N3  UNL     1     124.526  54.459  13.281  1.00  0.00    -0.279 N 
ATOM     15  H4  UNL     1     125.278  56.191  13.844  1.00  0.00     0.187 HD
HETATM   16  C8  UNL     1     124.250  53.193  13.649  1.00  0.00     0.167 A 
ATOM     17  H3  UNL     1     124.302  54.786  12.341  1.00  0.00     0.189 HD
HETATM   18  S1  UNL     1     124.813  53.191  15.264  1.00  0.00    -0.038 SA
BRANCH  16  19
HETATM   19  N2  UNL     1     123.703  52.292  12.908  1.00  0.00    -0.306 N 
HETATM   20  C1  UNL     1     122.367  51.912  13.088  1.00  0.00     0.225 C 
HETATM   21  O1  UNL     1     122.017  50.851  12.460  1.00  0.00    -0.273 OA
ATOM     22  H2  UNL     1     124.255  51.846  12.175  1.00  0.00     0.171 HD
BRANCH  20  23
HETATM   23  C2  UNL     1     121.367  52.615  13.916  1.00  0.00     0.133 C 
BRANCH  23  24
HETATM   24  C3  UNL     1     120.017  52.517  13.218  1.00  0.00     0.282 C 
BRANCH  24  25
HETATM   25  N1  UNL     1     118.990  51.958  14.052  1.00  0.00     0.093 N 
HETATM   26  C4  UNL     1     118.953  50.538  13.816  1.00  0.00     0.298 C 
HETATM   27  C5  UNL     1     118.498  50.241  12.420  1.00  0.00     0.198 C 
HETATM   28  O2  UNL     1     117.282  50.870  12.109  1.00  0.00    -0.388 OA
HETATM   29  C6  UNL     1     116.734  51.445  13.256  1.00  0.00     0.198 C 
HETATM   30  C7  UNL     1     117.685  52.506  13.794  1.00  0.00     0.298 C 
ENDBRANCH  24  25
ENDBRANCH  23  24
ENDBRANCH  20  23
ENDBRANCH  16  19
ENDBRANCH  11  12
ENDBRANCH  10  11
ENDBRANCH   9  10
ENDBRANCH   8   9
ENDBRANCH   1   8
BRANCH   7  31
HETATM   31  C21 UNL     1     122.406  57.764  18.324  1.00  0.00     0.044 A 
HETATM   32  C22 UNL     1     122.600  56.413  18.538  1.00  0.00     0.031 A 
HETATM   33  C23 UNL     1     121.865  55.422  17.931  1.00  0.00     0.016 A 
HETATM   34  C24 UNL     1     120.862  55.791  17.049  1.00  0.00    -0.008 A 
HETATM   35  C25 UNL     1     119.960  55.067  16.289  1.00  0.00     0.030 A 
HETATM   36  C27 UNL     1     120.639  57.133  16.811  1.00  0.00     0.044 A 
HETATM   37  C26 UNL     1     119.203  55.981  15.601  1.00  0.00     0.089 A 
HETATM   38  N8  UNL     1     119.611  57.221  15.914  1.00  0.00    -0.365 N 
ATOM     39  H8  UNL     1     119.219  58.087  15.544  1.00  0.00     0.165 HD
HETATM   40  C28 UNL     1     121.388  58.103  17.429  1.00  0.00     0.060 A 
ENDBRANCH   7  31
BRANCH   6  41
HETATM   41  C16 UNL     1     121.710  59.369  20.932  1.00  0.00     0.090 C 
BRANCH  41  42
HETATM   42  C17 UNL     1     120.516  60.021  20.350  1.00  0.00     0.101 C 
BRANCH  42  43
HETATM   43  C18 UNL     1     119.414  59.175  19.968  1.00  0.00    -0.104 C 
HETATM   44  C19 UNL     1     118.519  58.447  19.662  1.00  0.00    -0.081 C 
BRANCH  44  45
HETATM   45  C20 UNL     1     117.434  57.555  19.272  1.00  0.00     0.257 C 
BRANCH  45  46
HETATM   46  O3  UNL     1     117.227  57.681  17.894  1.00  0.00    -0.389 OA
ATOM     47  H3  UNL     1     117.708  58.439  17.584  1.00  0.00     0.210 HD
ENDBRANCH  45  46
ENDBRANCH  44  45
ENDBRANCH  42  43
ENDBRANCH  41  42
ENDBRANCH   6  41
TORSDOF 15
ENDMDL
