MODEL 1
REMARK VINA RESULT: -9.540703811      0.000      0.000
REMARK  14 active torsions:
REMARK  status: ('A' for Active; 'I' for Inactive)
REMARK    1  A    between atoms: N1_2  and  C2_4 
REMARK    2  A    between atoms: C2_4  and  C3_5 
REMARK    3  A    between atoms: C3_5  and  N2_6 
REMARK    4  A    between atoms: C4_7  and  C5_8 
REMARK    5  A    between atoms: C5_8  and  C6_9 
REMARK    6  A    between atoms: C6_9  and  C7_10 
REMARK    7  A    between atoms: C7_10  and  O1_11 
REMARK    8  A    between atoms: C10_16  and  C11_17 
REMARK    9  A    between atoms: C13_19  and  C14_20 
REMARK   10  A    between atoms: C14_20  and  O2_21 
REMARK   11  A    between atoms: C14_20  and  N4_23 
REMARK   12  A    between atoms: N4_23  and  C15_25 
REMARK   13  A    between atoms: C15_25  and  C16_26 
REMARK       I    between atoms: C16_26  and  N5_28 
REMARK   14  A    between atoms: C20_32  and  C21_33 
ROOT
HETATM    1  C11 UNL     1     120.350  57.822  17.382  1.00  0.00     0.030 A 
HETATM    2  C12 UNL     1     120.862  57.133  16.312  1.00  0.00     0.033 A 
HETATM    3  C13 UNL     1     120.147  56.148  15.598  1.00  0.00     0.021 A 
HETATM    4  C26 UNL     1     118.888  55.883  16.008  1.00  0.00    -0.046 A 
HETATM    5  C27 UNL     1     118.069  54.832  15.341  1.00  0.00     0.049 C 
HETATM    6  C28 UNL     1     118.331  56.572  17.099  1.00  0.00     0.031 A 
HETATM    7  C29 UNL     1     119.047  57.523  17.773  1.00  0.00     0.059 A 
HETATM    8  C30 UNL     1     118.381  58.160  18.878  1.00  0.00     0.100 C 
HETATM    9  N6  UNL     1     117.819  58.657  19.778  1.00  0.00    -0.191 NA
ENDROOT
BRANCH   1  10
HETATM   10  C10 UNL     1     121.089  58.801  18.176  1.00  0.00     0.119 A 
HETATM   11  N2  UNL     1     122.233  58.768  18.846  1.00  0.00    -0.330 N 
HETATM   12  C4  UNL     1     122.391  60.028  19.412  1.00  0.00     0.029 A 
HETATM   13  C9  UNL     1     121.323  60.811  19.073  1.00  0.00     0.115 A 
HETATM   14  N3  UNL     1     120.539  60.061  18.325  1.00  0.00    -0.350 N 
ATOM     15  H3  UNL     1     119.655  60.365  17.917  1.00  0.00     0.167 HD
BRANCH  11  16
HETATM   16  C3  UNL     1     123.205  57.742  19.045  1.00  0.00     0.174 C 
BRANCH  16  17
HETATM   17  C2  UNL     1     124.623  58.112  18.751  1.00  0.00     0.075 C 
BRANCH  17  18
HETATM   18  N1  UNL     1     125.043  58.246  17.422  1.00  0.00    -0.405 N 
HETATM   19  C1  UNL     1     126.392  58.001  17.090  1.00  0.00     0.145 C 
ATOM     20  H1  UNL     1     124.378  58.519  16.698  1.00  0.00     0.158 HD
ENDBRANCH  17  18
ENDBRANCH  16  17
ENDBRANCH  11  16
BRANCH  12  21
HETATM   21  C5  UNL     1     123.523  60.456  20.241  1.00  0.00     0.061 C 
BRANCH  21  22
HETATM   22  C6  UNL     1     124.201  61.675  19.586  1.00  0.00     0.032 C 
BRANCH  22  23
HETATM   23  C7  UNL     1     125.476  62.005  20.294  1.00  0.00     0.167 C 
BRANCH  23  24
HETATM   24  O1  UNL     1     126.519  62.052  19.420  1.00  0.00    -0.396 OA
HETATM   25  C8  UNL     1     127.195  60.873  19.239  1.00  0.00     0.201 C 
ENDBRANCH  23  24
ENDBRANCH  22  23
ENDBRANCH  21  22
ENDBRANCH  12  21
ENDBRANCH   1  10
BRANCH   3  26
HETATM   26  C14 UNL     1     120.792  55.559  14.461  1.00  0.00     0.147 C 
BRANCH  26  27
HETATM   27  O2  UNL     1     121.759  56.270  13.954  1.00  0.00    -0.346 OA
ATOM     28  H2  UNL     1     121.630  56.526  13.048  1.00  0.00     0.219 HD
ENDBRANCH  26  27
BRANCH  26  29
HETATM   29  N4  UNL     1     120.568  54.362  13.797  1.00  0.00    -0.352 N 
ATOM     30  H4  UNL     1     120.043  54.394  12.923  1.00  0.00     0.163 HD
BRANCH  29  31
HETATM   31  C15 UNL     1     121.039  53.042  14.271  1.00  0.00     0.113 C 
HETATM   32  C22 UNL     1     119.861  52.365  14.910  1.00  0.00     0.041 C 
HETATM   33  C23 UNL     1     119.110  51.646  13.816  1.00  0.00     0.003 C 
HETATM   34  C24 UNL     1     120.254  51.133  12.954  1.00  0.00     0.003 C 
HETATM   35  C25 UNL     1     121.331  52.190  13.068  1.00  0.00     0.041 C 
BRANCH  31  36
HETATM   36  C16 UNL     1     122.167  53.221  15.192  1.00  0.00     0.249 C 
HETATM   37  O3  UNL     1     121.908  53.273  16.442  1.00  0.00    -0.270 OA
HETATM   38  N5  UNL     1     123.548  53.353  14.835  1.00  0.00    -0.335 N 
HETATM   39  C17 UNL     1     124.150  53.295  13.540  1.00  0.00     0.127 C 
HETATM   40  C20 UNL     1     124.558  53.596  15.815  1.00  0.00     0.188 C 
HETATM   41  C18 UNL     1     125.574  53.845  13.737  1.00  0.00     0.022 C 
HETATM   42  C19 UNL     1     125.878  53.474  15.166  1.00  0.00     0.038 C 
BRANCH  40  43
HETATM   43  C21 UNL     1     124.372  54.890  16.521  1.00  0.00     0.196 C 
HETATM   44  O4  UNL     1     124.580  54.922  17.757  1.00  0.00    -0.646 OA
HETATM   45  O5  UNL     1     123.979  56.028  15.860  1.00  0.00    -0.646 OA
ENDBRANCH  40  43
ENDBRANCH  31  36
ENDBRANCH  29  31
ENDBRANCH  26  29
ENDBRANCH   3  26
TORSDOF 14
ENDMDL
MODEL 2
REMARK VINA RESULT: -9.459760692      2.200      8.946
REMARK  14 active torsions:
REMARK  status: ('A' for Active; 'I' for Inactive)
REMARK    1  A    between atoms: N1_2  and  C2_4 
REMARK    2  A    between atoms: C2_4  and  C3_5 
REMARK    3  A    between atoms: C3_5  and  N2_6 
REMARK    4  A    between atoms: C4_7  and  C5_8 
REMARK    5  A    between atoms: C5_8  and  C6_9 
REMARK    6  A    between atoms: C6_9  and  C7_10 
REMARK    7  A    between atoms: C7_10  and  O1_11 
REMARK    8  A    between atoms: C10_16  and  C11_17 
REMARK    9  A    between atoms: C13_19  and  C14_20 
REMARK   10  A    between atoms: C14_20  and  O2_21 
REMARK   11  A    between atoms: C14_20  and  N4_23 
REMARK   12  A    between atoms: N4_23  and  C15_25 
REMARK   13  A    between atoms: C15_25  and  C16_26 
REMARK       I    between atoms: C16_26  and  N5_28 
REMARK   14  A    between atoms: C20_32  and  C21_33 
ROOT
HETATM    1  C11 UNL     1     122.873  53.725  15.093  1.00  0.00     0.030 A 
HETATM    2  C12 UNL     1     122.943  54.425  16.271  1.00  0.00     0.033 A 
HETATM    3  C13 UNL     1     124.153  54.856  16.857  1.00  0.00     0.021 A 
HETATM    4  C26 UNL     1     125.295  54.552  16.204  1.00  0.00    -0.046 A 
HETATM    5  C27 UNL     1     126.623  54.932  16.763  1.00  0.00     0.049 C 
HETATM    6  C28 UNL     1     125.259  53.840  14.992  1.00  0.00     0.031 A 
HETATM    7  C29 UNL     1     124.073  53.435  14.447  1.00  0.00     0.059 A 
HETATM    8  C30 UNL     1     124.154  52.706  13.209  1.00  0.00     0.100 C 
HETATM    9  N6  UNL     1     124.248  52.108  12.206  1.00  0.00    -0.191 NA
ENDROOT
BRANCH   1  10
HETATM   10  C10 UNL     1     121.640  53.214  14.498  1.00  0.00     0.119 A 
HETATM   11  N2  UNL     1     120.445  53.739  14.263  1.00  0.00    -0.330 N 
HETATM   12  C4  UNL     1     119.684  52.732  13.681  1.00  0.00     0.029 A 
HETATM   13  C9  UNL     1     120.441  51.598  13.576  1.00  0.00     0.115 A 
HETATM   14  N3  UNL     1     121.624  51.898  14.074  1.00  0.00    -0.350 N 
ATOM     15  H3  UNL     1     122.412  51.254  14.137  1.00  0.00     0.167 HD
BRANCH  11  16
HETATM   16  C3  UNL     1     119.897  55.036  14.499  1.00  0.00     0.174 C 
BRANCH  16  17
HETATM   17  C2  UNL     1     119.308  55.265  15.852  1.00  0.00     0.075 C 
BRANCH  17  18
HETATM   18  N1  UNL     1     118.588  56.440  16.104  1.00  0.00    -0.405 N 
HETATM   19  C1  UNL     1     118.517  56.945  17.419  1.00  0.00     0.145 C 
ATOM     20  H1  UNL     1     118.118  56.927  15.341  1.00  0.00     0.158 HD
ENDBRANCH  17  18
ENDBRANCH  16  17
ENDBRANCH  11  16
BRANCH  12  21
HETATM   21  C5  UNL     1     118.289  52.860  13.244  1.00  0.00     0.061 C 
BRANCH  21  22
HETATM   22  C6  UNL     1     117.445  51.754  13.905  1.00  0.00     0.032 C 
BRANCH  22  23
HETATM   23  C7  UNL     1     116.646  51.021  12.875  1.00  0.00     0.167 C 
BRANCH  23  24
HETATM   24  O1  UNL     1     117.440  50.604  11.850  1.00  0.00    -0.396 OA
HETATM   25  C8  UNL     1     117.843  49.295  11.906  1.00  0.00     0.201 C 
ENDBRANCH  23  24
ENDBRANCH  22  23
ENDBRANCH  21  22
ENDBRANCH  12  21
ENDBRANCH   1  10
BRANCH   3  26
HETATM   26  C14 UNL     1     124.064  55.633  18.058  1.00  0.00     0.147 C 
BRANCH  26  27
HETATM   27  O2  UNL     1     123.502  55.021  19.063  1.00  0.00    -0.346 OA
ATOM     28  H2  UNL     1     122.621  55.313  19.262  1.00  0.00     0.219 HD
ENDBRANCH  26  27
BRANCH  26  29
HETATM   29  N4  UNL     1     124.468  56.928  18.346  1.00  0.00    -0.352 N 
ATOM     30  H4  UNL     1     125.391  57.058  18.761  1.00  0.00     0.163 HD
BRANCH  29  31
HETATM   31  C15 UNL     1     123.651  58.135  18.090  1.00  0.00     0.113 C 
HETATM   32  C22 UNL     1     124.087  58.678  16.759  1.00  0.00     0.041 C 
HETATM   33  C23 UNL     1     123.279  57.970  15.700  1.00  0.00     0.003 C 
HETATM   34  C24 UNL     1     121.921  57.864  16.378  1.00  0.00     0.003 C 
HETATM   35  C25 UNL     1     122.234  57.698  17.850  1.00  0.00     0.041 C 
BRANCH  31  36
HETATM   36  C16 UNL     1     123.828  59.093  19.186  1.00  0.00     0.249 C 
HETATM   37  O3  UNL     1     122.833  59.294  19.963  1.00  0.00    -0.270 OA
HETATM   38  N5  UNL     1     125.012  59.844  19.482  1.00  0.00    -0.335 N 
HETATM   39  C17 UNL     1     126.283  59.807  18.831  1.00  0.00     0.127 C 
HETATM   40  C20 UNL     1     125.048  60.805  20.537  1.00  0.00     0.188 C 
HETATM   41  C18 UNL     1     127.030  61.052  19.343  1.00  0.00     0.022 C 
HETATM   42  C19 UNL     1     126.444  61.247  20.718  1.00  0.00     0.038 C 
BRANCH  40  43
HETATM   43  C21 UNL     1     124.103  61.931  20.320  1.00  0.00     0.196 C 
HETATM   44  O4  UNL     1     123.421  62.324  21.295  1.00  0.00    -0.646 OA
HETATM   45  O5  UNL     1     123.961  62.534  19.094  1.00  0.00    -0.646 OA
ENDBRANCH  40  43
ENDBRANCH  31  36
ENDBRANCH  29  31
ENDBRANCH  26  29
ENDBRANCH   3  26
TORSDOF 14
ENDMDL
MODEL 3
REMARK VINA RESULT: -9.410810183      2.106      4.160
REMARK  14 active torsions:
REMARK  status: ('A' for Active; 'I' for Inactive)
REMARK    1  A    between atoms: N1_2  and  C2_4 
REMARK    2  A    between atoms: C2_4  and  C3_5 
REMARK    3  A    between atoms: C3_5  and  N2_6 
REMARK    4  A    between atoms: C4_7  and  C5_8 
REMARK    5  A    between atoms: C5_8  and  C6_9 
REMARK    6  A    between atoms: C6_9  and  C7_10 
REMARK    7  A    between atoms: C7_10  and  O1_11 
REMARK    8  A    between atoms: C10_16  and  C11_17 
REMARK    9  A    between atoms: C13_19  and  C14_20 
REMARK   10  A    between atoms: C14_20  and  O2_21 
REMARK   11  A    between atoms: C14_20  and  N4_23 
REMARK   12  A    between atoms: N4_23  and  C15_25 
REMARK   13  A    between atoms: C15_25  and  C16_26 
REMARK       I    between atoms: C16_26  and  N5_28 
REMARK   14  A    between atoms: C20_32  and  C21_33 
ROOT
HETATM    1  C11 UNL     1     121.472  56.691  17.340  1.00  0.00     0.030 A 
HETATM    2  C12 UNL     1     121.505  55.342  17.090  1.00  0.00     0.033 A 
HETATM    3  C13 UNL     1     120.508  54.654  16.366  1.00  0.00     0.021 A 
HETATM    4  C26 UNL     1     119.470  55.383  15.903  1.00  0.00    -0.046 A 
HETATM    5  C27 UNL     1     118.349  54.738  15.162  1.00  0.00     0.049 C 
HETATM    6  C28 UNL     1     119.406  56.768  16.139  1.00  0.00     0.031 A 
HETATM    7  C29 UNL     1     120.387  57.409  16.843  1.00  0.00     0.059 A 
HETATM    8  C30 UNL     1     120.216  58.826  17.031  1.00  0.00     0.100 C 
HETATM    9  N6  UNL     1     120.049  59.976  17.177  1.00  0.00    -0.191 NA
ENDROOT
BRANCH   1  10
HETATM   10  C10 UNL     1     122.459  57.416  18.138  1.00  0.00     0.119 A 
HETATM   11  N2  UNL     1     123.762  57.630  18.018  1.00  0.00    -0.330 N 
HETATM   12  C4  UNL     1     124.136  58.393  19.118  1.00  0.00     0.029 A 
HETATM   13  C9  UNL     1     123.037  58.628  19.897  1.00  0.00     0.115 A 
HETATM   14  N3  UNL     1     122.026  58.033  19.297  1.00  0.00    -0.350 N 
ATOM     15  H3  UNL     1     121.065  58.028  19.639  1.00  0.00     0.167 HD
BRANCH  11  16
HETATM   16  C3  UNL     1     124.719  57.230  17.037  1.00  0.00     0.174 C 
BRANCH  16  17
HETATM   17  C2  UNL     1     125.163  55.805  17.092  1.00  0.00     0.075 C 
BRANCH  17  18
HETATM   18  N1  UNL     1     126.283  55.399  16.357  1.00  0.00    -0.405 N 
HETATM   19  C1  UNL     1     126.672  54.044  16.370  1.00  0.00     0.145 C 
ATOM     20  H1  UNL     1     126.815  56.080  15.815  1.00  0.00     0.158 HD
ENDBRANCH  17  18
ENDBRANCH  16  17
ENDBRANCH  11  16
BRANCH  12  21
HETATM   21  C5  UNL     1     125.492  58.875  19.403  1.00  0.00     0.061 C 
BRANCH  21  22
HETATM   22  C6  UNL     1     125.530  60.407  19.249  1.00  0.00     0.032 C 
BRANCH  22  23
HETATM   23  C7  UNL     1     126.944  60.895  19.236  1.00  0.00     0.167 C 
BRANCH  23  24
HETATM   24  O1  UNL     1     127.022  62.170  19.707  1.00  0.00    -0.396 OA
HETATM   25  C8  UNL     1     126.266  62.439  20.819  1.00  0.00     0.201 C 
ENDBRANCH  23  24
ENDBRANCH  22  23
ENDBRANCH  21  22
ENDBRANCH  12  21
ENDBRANCH   1  10
BRANCH   3  26
HETATM   26  C14 UNL     1     120.711  53.255  16.130  1.00  0.00     0.147 C 
BRANCH  26  27
HETATM   27  O2  UNL     1     119.731  52.488  16.520  1.00  0.00    -0.346 OA
ATOM     28  H2  UNL     1     119.112  52.904  17.108  1.00  0.00     0.219 HD
ENDBRANCH  26  27
BRANCH  26  29
HETATM   29  N4  UNL     1     121.771  52.565  15.560  1.00  0.00    -0.352 N 
ATOM     30  H4  UNL     1     122.360  52.005  16.177  1.00  0.00     0.163 HD
BRANCH  29  31
HETATM   31  C15 UNL     1     122.104  52.585  14.119  1.00  0.00     0.113 C 
HETATM   32  C22 UNL     1     122.510  53.993  13.788  1.00  0.00     0.041 C 
HETATM   33  C23 UNL     1     123.987  54.112  14.078  1.00  0.00     0.003 C 
HETATM   34  C24 UNL     1     124.495  52.754  13.616  1.00  0.00     0.003 C 
HETATM   35  C25 UNL     1     123.366  51.793  13.920  1.00  0.00     0.041 C 
BRANCH  31  36
HETATM   36  C16 UNL     1     120.951  52.122  13.339  1.00  0.00     0.249 C 
HETATM   37  O3  UNL     1     120.322  52.989  12.641  1.00  0.00    -0.270 OA
HETATM   38  N5  UNL     1     120.443  50.784  13.278  1.00  0.00    -0.335 N 
HETATM   39  C17 UNL     1     120.949  49.603  13.903  1.00  0.00     0.127 C 
HETATM   40  C20 UNL     1     119.266  50.460  12.538  1.00  0.00     0.188 C 
HETATM   41  C18 UNL     1     119.819  48.567  13.771  1.00  0.00     0.022 C 
HETATM   42  C19 UNL     1     119.127  48.992  12.501  1.00  0.00     0.038 C 
BRANCH  40  43
HETATM   43  C21 UNL     1     118.056  51.149  13.055  1.00  0.00     0.196 C 
HETATM   44  O4  UNL     1     117.153  51.447  12.238  1.00  0.00    -0.646 OA
HETATM   45  O5  UNL     1     117.912  51.465  14.384  1.00  0.00    -0.646 OA
ENDBRANCH  40  43
ENDBRANCH  31  36
ENDBRANCH  29  31
ENDBRANCH  26  29
ENDBRANCH   3  26
TORSDOF 14
ENDMDL
MODEL 4
REMARK VINA RESULT: -9.296589603      1.091      2.218
REMARK  14 active torsions:
REMARK  status: ('A' for Active; 'I' for Inactive)
REMARK    1  A    between atoms: N1_2  and  C2_4 
REMARK    2  A    between atoms: C2_4  and  C3_5 
REMARK    3  A    between atoms: C3_5  and  N2_6 
REMARK    4  A    between atoms: C4_7  and  C5_8 
REMARK    5  A    between atoms: C5_8  and  C6_9 
REMARK    6  A    between atoms: C6_9  and  C7_10 
REMARK    7  A    between atoms: C7_10  and  O1_11 
REMARK    8  A    between atoms: C10_16  and  C11_17 
REMARK    9  A    between atoms: C13_19  and  C14_20 
REMARK   10  A    between atoms: C14_20  and  O2_21 
REMARK   11  A    between atoms: C14_20  and  N4_23 
REMARK   12  A    between atoms: N4_23  and  C15_25 
REMARK   13  A    between atoms: C15_25  and  C16_26 
REMARK       I    between atoms: C16_26  and  N5_28 
REMARK   14  A    between atoms: C20_32  and  C21_33 
ROOT
HETATM    1  C11 UNL     1     121.243  57.779  17.754  1.00  0.00     0.030 A 
HETATM    2  C12 UNL     1     121.464  57.068  16.601  1.00  0.00     0.033 A 
HETATM    3  C13 UNL     1     120.462  56.344  15.921  1.00  0.00     0.021 A 
HETATM    4  C26 UNL     1     119.221  56.363  16.453  1.00  0.00    -0.046 A 
HETATM    5  C27 UNL     1     118.107  55.597  15.827  1.00  0.00     0.049 C 
HETATM    6  C28 UNL     1     118.958  57.084  17.631  1.00  0.00     0.031 A 
HETATM    7  C29 UNL     1     119.949  57.777  18.269  1.00  0.00     0.059 A 
HETATM    8  C30 UNL     1     119.569  58.472  19.471  1.00  0.00     0.100 C 
HETATM    9  N6  UNL     1     119.237  59.022  20.450  1.00  0.00    -0.191 NA
ENDROOT
BRANCH   1  10
HETATM   10  C10 UNL     1     122.275  58.485  18.510  1.00  0.00     0.119 A 
HETATM   11  N2  UNL     1     122.440  59.746  18.886  1.00  0.00    -0.330 N 
HETATM   12  C4  UNL     1     123.644  59.792  19.579  1.00  0.00     0.029 A 
HETATM   13  C9  UNL     1     124.196  58.542  19.608  1.00  0.00     0.115 A 
HETATM   14  N3  UNL     1     123.362  57.756  18.958  1.00  0.00    -0.350 N 
ATOM     15  H3  UNL     1     123.498  56.757  18.807  1.00  0.00     0.167 HD
BRANCH  11  16
HETATM   16  C3  UNL     1     121.651  60.920  18.698  1.00  0.00     0.174 C 
BRANCH  16  17
HETATM   17  C2  UNL     1     121.556  61.844  19.868  1.00  0.00     0.075 C 
BRANCH  17  18
HETATM   18  N1  UNL     1     120.688  61.538  20.924  1.00  0.00    -0.405 N 
HETATM   19  C1  UNL     1     121.162  61.586  22.251  1.00  0.00     0.145 C 
ATOM     20  H1  UNL     1     119.719  61.282  20.734  1.00  0.00     0.158 HD
ENDBRANCH  17  18
ENDBRANCH  16  17
ENDBRANCH  11  16
BRANCH  12  21
HETATM   21  C5  UNL     1     124.234  60.990  20.187  1.00  0.00     0.061 C 
BRANCH  21  22
HETATM   22  C6  UNL     1     125.717  60.723  20.504  1.00  0.00     0.032 C 
BRANCH  22  23
HETATM   23  C7  UNL     1     126.550  61.911  20.142  1.00  0.00     0.167 C 
BRANCH  23  24
HETATM   24  O1  UNL     1     127.389  61.620  19.110  1.00  0.00    -0.396 OA
HETATM   25  C8  UNL     1     127.698  60.293  18.953  1.00  0.00     0.201 C 
ENDBRANCH  23  24
ENDBRANCH  22  23
ENDBRANCH  21  22
ENDBRANCH  12  21
ENDBRANCH   1  10
BRANCH   3  26
HETATM   26  C14 UNL     1     120.830  55.703  14.693  1.00  0.00     0.147 C 
BRANCH  26  27
HETATM   27  O2  UNL     1     121.541  56.439  13.886  1.00  0.00    -0.346 OA
ATOM     28  H2  UNL     1     121.135  56.610  13.044  1.00  0.00     0.219 HD
ENDBRANCH  26  27
BRANCH  26  29
HETATM   29  N4  UNL     1     120.561  54.433  14.204  1.00  0.00    -0.352 N 
ATOM     30  H4  UNL     1     120.084  54.361  13.305  1.00  0.00     0.163 HD
BRANCH  29  31
HETATM   31  C15 UNL     1     120.921  53.176  14.897  1.00  0.00     0.113 C 
HETATM   32  C22 UNL     1     119.724  52.774  15.711  1.00  0.00     0.041 C 
HETATM   33  C23 UNL     1     118.825  51.960  14.813  1.00  0.00     0.003 C 
HETATM   34  C24 UNL     1     119.844  51.164  14.009  1.00  0.00     0.003 C 
HETATM   35  C25 UNL     1     121.033  52.089  13.866  1.00  0.00     0.041 C 
BRANCH  31  36
HETATM   36  C16 UNL     1     122.124  53.387  15.710  1.00  0.00     0.249 C 
HETATM   37  O3  UNL     1     121.976  53.460  16.978  1.00  0.00    -0.270 OA
HETATM   38  N5  UNL     1     123.466  53.528  15.229  1.00  0.00    -0.335 N 
HETATM   39  C17 UNL     1     123.950  53.452  13.888  1.00  0.00     0.127 C 
HETATM   40  C20 UNL     1     124.555  53.802  16.110  1.00  0.00     0.188 C 
HETATM   41  C18 UNL     1     125.379  54.022  13.946  1.00  0.00     0.022 C 
HETATM   42  C19 UNL     1     125.813  53.683  15.349  1.00  0.00     0.038 C 
BRANCH  40  43
HETATM   43  C21 UNL     1     124.415  55.107  16.807  1.00  0.00     0.196 C 
HETATM   44  O4  UNL     1     124.338  55.103  18.058  1.00  0.00    -0.646 OA
HETATM   45  O5  UNL     1     124.365  56.295  16.119  1.00  0.00    -0.646 OA
ENDBRANCH  40  43
ENDBRANCH  31  36
ENDBRANCH  29  31
ENDBRANCH  26  29
ENDBRANCH   3  26
TORSDOF 14
ENDMDL
MODEL 5
REMARK VINA RESULT: -9.248323340      1.495      1.964
REMARK  14 active torsions:
REMARK  status: ('A' for Active; 'I' for Inactive)
REMARK    1  A    between atoms: N1_2  and  C2_4 
REMARK    2  A    between atoms: C2_4  and  C3_5 
REMARK    3  A    between atoms: C3_5  and  N2_6 
REMARK    4  A    between atoms: C4_7  and  C5_8 
REMARK    5  A    between atoms: C5_8  and  C6_9 
REMARK    6  A    between atoms: C6_9  and  C7_10 
REMARK    7  A    between atoms: C7_10  and  O1_11 
REMARK    8  A    between atoms: C10_16  and  C11_17 
REMARK    9  A    between atoms: C13_19  and  C14_20 
REMARK   10  A    between atoms: C14_20  and  O2_21 
REMARK   11  A    between atoms: C14_20  and  N4_23 
REMARK   12  A    between atoms: N4_23  and  C15_25 
REMARK   13  A    between atoms: C15_25  and  C16_26 
REMARK       I    between atoms: C16_26  and  N5_28 
REMARK   14  A    between atoms: C20_32  and  C21_33 
ROOT
HETATM    1  C11 UNL     1     120.351  57.566  17.339  1.00  0.00     0.030 A 
HETATM    2  C12 UNL     1     120.802  56.817  16.282  1.00  0.00     0.033 A 
HETATM    3  C13 UNL     1     119.995  55.910  15.561  1.00  0.00     0.021 A 
HETATM    4  C26 UNL     1     118.708  55.789  15.951  1.00  0.00    -0.046 A 
HETATM    5  C27 UNL     1     117.789  54.829  15.276  1.00  0.00     0.049 C 
HETATM    6  C28 UNL     1     118.212  56.544  17.028  1.00  0.00     0.031 A 
HETATM    7  C29 UNL     1     119.016  57.415  17.708  1.00  0.00     0.059 A 
HETATM    8  C30 UNL     1     118.406  58.130  18.798  1.00  0.00     0.100 C 
HETATM    9  N6  UNL     1     117.888  58.694  19.685  1.00  0.00    -0.191 NA
ENDROOT
BRANCH   1  10
HETATM   10  C10 UNL     1     121.181  58.464  18.140  1.00  0.00     0.119 A 
HETATM   11  N2  UNL     1     122.396  58.373  18.662  1.00  0.00    -0.330 N 
HETATM   12  C4  UNL     1     122.621  59.568  19.337  1.00  0.00     0.029 A 
HETATM   13  C9  UNL     1     121.521  60.370  19.213  1.00  0.00     0.115 A 
HETATM   14  N3  UNL     1     120.653  59.694  18.487  1.00  0.00    -0.350 N 
ATOM     15  H3  UNL     1     119.727  60.030  18.221  1.00  0.00     0.167 HD
BRANCH  11  16
HETATM   16  C3  UNL     1     123.384  57.344  18.634  1.00  0.00     0.174 C 
BRANCH  16  17
HETATM   17  C2  UNL     1     124.049  57.105  17.317  1.00  0.00     0.075 C 
BRANCH  17  18
HETATM   18  N1  UNL     1     124.997  58.020  16.844  1.00  0.00    -0.405 N 
HETATM   19  C1  UNL     1     126.369  57.701  16.913  1.00  0.00     0.145 C 
ATOM     20  H1  UNL     1     124.697  58.913  16.451  1.00  0.00     0.158 HD
ENDBRANCH  17  18
ENDBRANCH  16  17
ENDBRANCH  11  16
BRANCH  12  21
HETATM   21  C5  UNL     1     123.844  59.919  20.067  1.00  0.00     0.061 C 
BRANCH  21  22
HETATM   22  C6  UNL     1     124.721  60.828  19.185  1.00  0.00     0.032 C 
BRANCH  22  23
HETATM   23  C7  UNL     1     125.714  61.567  20.023  1.00  0.00     0.167 C 
BRANCH  23  24
HETATM   24  O1  UNL     1     126.882  61.748  19.346  1.00  0.00    -0.396 OA
HETATM   25  C8  UNL     1     127.582  60.605  19.054  1.00  0.00     0.201 C 
ENDBRANCH  23  24
ENDBRANCH  22  23
ENDBRANCH  21  22
ENDBRANCH  12  21
ENDBRANCH   1  10
BRANCH   3  26
HETATM   26  C14 UNL     1     120.590  55.245  14.440  1.00  0.00     0.147 C 
BRANCH  26  27
HETATM   27  O2  UNL     1     121.567  55.897  13.874  1.00  0.00    -0.346 OA
ATOM     28  H2  UNL     1     122.364  55.395  13.758  1.00  0.00     0.219 HD
ENDBRANCH  26  27
BRANCH  26  29
HETATM   29  N4  UNL     1     120.309  54.025  13.841  1.00  0.00    -0.352 N 
ATOM     30  H4  UNL     1     119.697  54.026  13.025  1.00  0.00     0.163 HD
BRANCH  29  31
HETATM   31  C15 UNL     1     120.838  52.724  14.306  1.00  0.00     0.113 C 
HETATM   32  C22 UNL     1     120.771  52.741  15.807  1.00  0.00     0.041 C 
HETATM   33  C23 UNL     1     119.394  52.262  16.198  1.00  0.00     0.003 C 
HETATM   34  C24 UNL     1     119.149  51.172  15.164  1.00  0.00     0.003 C 
HETATM   35  C25 UNL     1     119.857  51.655  13.916  1.00  0.00     0.041 C 
BRANCH  31  36
HETATM   36  C16 UNL     1     122.200  52.533  13.795  1.00  0.00     0.249 C 
HETATM   37  O3  UNL     1     122.334  51.918  12.683  1.00  0.00    -0.270 OA
HETATM   38  N5  UNL     1     123.415  52.964  14.421  1.00  0.00    -0.335 N 
HETATM   39  C17 UNL     1     123.588  53.703  15.630  1.00  0.00     0.127 C 
HETATM   40  C20 UNL     1     124.694  52.660  13.865  1.00  0.00     0.188 C 
HETATM   41  C18 UNL     1     125.082  53.564  15.973  1.00  0.00     0.022 C 
HETATM   42  C19 UNL     1     125.720  53.410  14.616  1.00  0.00     0.038 C 
BRANCH  40  43
HETATM   43  C21 UNL     1     124.963  51.200  13.808  1.00  0.00     0.196 C 
HETATM   44  O4  UNL     1     125.484  50.736  12.766  1.00  0.00    -0.646 OA
HETATM   45  O5  UNL     1     124.653  50.364  14.853  1.00  0.00    -0.646 OA
ENDBRANCH  40  43
ENDBRANCH  31  36
ENDBRANCH  29  31
ENDBRANCH  26  29
ENDBRANCH   3  26
TORSDOF 14
ENDMDL
