MODEL 1
REMARK VINA RESULT: -8.581353372      0.000      0.000
REMARK  16 active torsions:
REMARK  status: ('A' for Active; 'I' for Inactive)
REMARK    1  A    between atoms: O1_2  and  C2_3 
REMARK    2  A    between atoms: C4_5  and  C5_6 
REMARK    3  A    between atoms: C5_6  and  C6_7 
REMARK    4  A    between atoms: C6_7  and  C18_30 
REMARK    5  A    between atoms: N1_8  and  N2_10 
REMARK    6  A    between atoms: N2_10  and  C7_12 
REMARK    7  A    between atoms: C7_12  and  N3_14 
REMARK    8  A    between atoms: N3_14  and  C8_16 
REMARK    9  A    between atoms: C8_16  and  C9_17 
REMARK   10  A    between atoms: C9_17  and  C10_18 
REMARK   11  A    between atoms: C10_18  and  N4_19 
REMARK   12  A    between atoms: N4_19  and  C11_21 
REMARK   13  A    between atoms: C20_32  and  O2_33 
REMARK   14  A    between atoms: C22_35  and  O3_36 
REMARK   15  A    between atoms: C24_38  and  O4_39 
REMARK   16  A    between atoms: C28_43  and  O5_44 
ROOT
HETATM    1  C6  UNL     1     123.503  57.340  17.641  1.00  0.00     0.059 C 
HETATM    2  N1  UNL     1     124.163  57.160  16.616  1.00  0.00    -0.298 N 
ATOM      3  H1  UNL     1     124.769  57.965  16.456  1.00  0.00     0.187 HD
ENDROOT
BRANCH   1   4
HETATM    4  C5  UNL     1     122.526  56.435  18.213  1.00  0.00     0.043 C 
BRANCH   4   5
HETATM    5  C4  UNL     1     121.186  56.390  17.677  1.00  0.00    -0.029 A 
HETATM    6  C3  UNL     1     120.143  57.045  18.311  1.00  0.00     0.048 A 
HETATM    7  C2  UNL     1     118.831  57.016  17.833  1.00  0.00     0.071 A 
HETATM    8  C30 UNL     1     118.586  56.294  16.672  1.00  0.00     0.073 A 
HETATM    9  C28 UNL     1     119.611  55.629  16.015  1.00  0.00     0.071 A 
HETATM   10  C27 UNL     1     120.894  55.683  16.522  1.00  0.00     0.048 A 
BRANCH   7  11
HETATM   11  O1  UNL     1     117.854  57.700  18.533  1.00  0.00    -0.356 OA
HETATM   12  C1  UNL     1     118.242  58.529  19.598  1.00  0.00     0.210 C 
ENDBRANCH   7  11
BRANCH   9  13
HETATM   13  O5  UNL     1     119.356  54.906  14.849  1.00  0.00    -0.356 OA
HETATM   14  C29 UNL     1     118.004  54.572  14.535  1.00  0.00     0.210 C 
ENDBRANCH   9  13
ENDBRANCH   4   5
ENDBRANCH   1   4
BRANCH   1  15
HETATM   15  C18 UNL     1     123.766  58.621  18.364  1.00  0.00    -0.003 A 
HETATM   16  C19 UNL     1     122.781  59.286  19.027  1.00  0.00     0.053 A 
HETATM   17  C20 UNL     1     123.020  60.467  19.688  1.00  0.00     0.105 A 
HETATM   18  C22 UNL     1     124.300  61.013  19.692  1.00  0.00     0.135 A 
HETATM   19  C24 UNL     1     125.319  60.342  19.017  1.00  0.00     0.105 A 
HETATM   20  C26 UNL     1     125.031  59.148  18.361  1.00  0.00     0.053 A 
BRANCH  17  21
HETATM   21  O2  UNL     1     121.990  61.109  20.349  1.00  0.00    -0.353 OA
HETATM   22  C21 UNL     1     120.892  61.573  19.595  1.00  0.00     0.210 C 
ENDBRANCH  17  21
BRANCH  18  23
HETATM   23  O3  UNL     1     124.566  62.197  20.349  1.00  0.00    -0.351 OA
HETATM   24  C23 UNL     1     124.970  62.299  21.691  1.00  0.00     0.210 C 
ENDBRANCH  18  23
BRANCH  19  25
HETATM   25  O4  UNL     1     126.599  60.871  19.011  1.00  0.00    -0.353 OA
HETATM   26  C25 UNL     1     127.693  59.986  18.964  1.00  0.00     0.210 C 
ENDBRANCH  19  25
ENDBRANCH   1  15
BRANCH   2  27
HETATM   27  N2  UNL     1     124.350  56.256  15.637  1.00  0.00    -0.276 N 
ATOM     28  H2  UNL     1     124.151  56.534  14.676  1.00  0.00     0.189 HD
BRANCH  27  29
HETATM   29  C7  UNL     1     124.821  54.904  15.878  1.00  0.00     0.186 C 
HETATM   30  S1  UNL     1     126.357  54.622  16.317  1.00  0.00    -0.040 SA
BRANCH  29  31
HETATM   31  N3  UNL     1     123.927  53.834  15.710  1.00  0.00    -0.366 N 
ATOM     32  H3  UNL     1     122.975  53.908  16.069  1.00  0.00     0.161 HD
BRANCH  31  33
HETATM   33  C8  UNL     1     124.342  52.639  15.037  1.00  0.00     0.123 C 
BRANCH  33  34
HETATM   34  C9  UNL     1     124.358  52.683  13.552  1.00  0.00     0.039 C 
BRANCH  34  35
HETATM   35  C10 UNL     1     123.335  51.626  13.089  1.00  0.00     0.123 C 
BRANCH  35  36
HETATM   36  N4  UNL     1     122.097  52.308  12.859  1.00  0.00    -0.376 N 
ATOM     37  H4  UNL     1     122.082  53.149  12.282  1.00  0.00     0.161 HD
BRANCH  36  38
HETATM   38  C11 UNL     1     121.007  51.870  13.373  1.00  0.00     0.101 A 
HETATM   39  C12 UNL     1     120.109  51.192  12.602  1.00  0.00     0.054 A 
HETATM   40  C13 UNL     1     118.910  50.692  13.095  1.00  0.00    -0.057 A 
HETATM   41  C14 UNL     1     117.983  49.963  12.186  1.00  0.00     0.048 C 
HETATM   42  C15 UNL     1     118.646  50.908  14.424  1.00  0.00     0.031 A 
HETATM   43  C16 UNL     1     119.545  51.595  15.225  1.00  0.00     0.007 A 
HETATM   44  C17 UNL     1     119.275  51.842  16.683  1.00  0.00     0.068 C 
HETATM   45  N5  UNL     1     120.692  52.052  14.676  1.00  0.00    -0.347 N 
ATOM     46  H5  UNL     1     121.350  52.557  15.270  1.00  0.00     0.167 HD
ENDBRANCH  36  38
ENDBRANCH  35  36
ENDBRANCH  34  35
ENDBRANCH  33  34
ENDBRANCH  31  33
ENDBRANCH  29  31
ENDBRANCH  27  29
ENDBRANCH   2  27
TORSDOF 16
ENDMDL
MODEL 2
REMARK VINA RESULT: -8.503786189      1.134      2.494
REMARK  16 active torsions:
REMARK  status: ('A' for Active; 'I' for Inactive)
REMARK    1  A    between atoms: O1_2  and  C2_3 
REMARK    2  A    between atoms: C4_5  and  C5_6 
REMARK    3  A    between atoms: C5_6  and  C6_7 
REMARK    4  A    between atoms: C6_7  and  C18_30 
REMARK    5  A    between atoms: N1_8  and  N2_10 
REMARK    6  A    between atoms: N2_10  and  C7_12 
REMARK    7  A    between atoms: C7_12  and  N3_14 
REMARK    8  A    between atoms: N3_14  and  C8_16 
REMARK    9  A    between atoms: C8_16  and  C9_17 
REMARK   10  A    between atoms: C9_17  and  C10_18 
REMARK   11  A    between atoms: C10_18  and  N4_19 
REMARK   12  A    between atoms: N4_19  and  C11_21 
REMARK   13  A    between atoms: C20_32  and  O2_33 
REMARK   14  A    between atoms: C22_35  and  O3_36 
REMARK   15  A    between atoms: C24_38  and  O4_39 
REMARK   16  A    between atoms: C28_43  and  O5_44 
ROOT
HETATM    1  C6  UNL     1     123.479  57.500  17.941  1.00  0.00     0.059 C 
HETATM    2  N1  UNL     1     124.159  57.402  16.918  1.00  0.00    -0.298 N 
ATOM      3  H1  UNL     1     124.750  58.228  16.822  1.00  0.00     0.187 HD
ENDROOT
BRANCH   1   4
HETATM    4  C5  UNL     1     122.512  56.540  18.434  1.00  0.00     0.043 C 
BRANCH   4   5
HETATM    5  C4  UNL     1     121.189  56.490  17.858  1.00  0.00    -0.029 A 
HETATM    6  C3  UNL     1     120.125  57.142  18.460  1.00  0.00     0.048 A 
HETATM    7  C2  UNL     1     118.829  57.107  17.942  1.00  0.00     0.071 A 
HETATM    8  C30 UNL     1     118.621  56.382  16.776  1.00  0.00     0.073 A 
HETATM    9  C28 UNL     1     119.668  55.719  16.151  1.00  0.00     0.071 A 
HETATM   10  C27 UNL     1     120.934  55.779  16.697  1.00  0.00     0.048 A 
BRANCH   7  11
HETATM   11  O1  UNL     1     117.829  57.789  18.611  1.00  0.00    -0.356 OA
HETATM   12  C1  UNL     1     118.184  58.633  19.675  1.00  0.00     0.210 C 
ENDBRANCH   7  11
BRANCH   9  13
HETATM   13  O5  UNL     1     119.450  54.993  14.980  1.00  0.00    -0.356 OA
HETATM   14  C29 UNL     1     118.235  54.255  14.850  1.00  0.00     0.210 C 
ENDBRANCH   9  13
ENDBRANCH   4   5
ENDBRANCH   1   4
BRANCH   1  15
HETATM   15  C18 UNL     1     123.703  58.736  18.752  1.00  0.00    -0.003 A 
HETATM   16  C19 UNL     1     124.824  59.493  18.608  1.00  0.00     0.053 A 
HETATM   17  C20 UNL     1     125.034  60.628  19.356  1.00  0.00     0.105 A 
HETATM   18  C22 UNL     1     124.085  61.029  20.291  1.00  0.00     0.135 A 
HETATM   19  C24 UNL     1     122.931  60.261  20.447  1.00  0.00     0.105 A 
HETATM   20  C26 UNL     1     122.760  59.120  19.668  1.00  0.00     0.053 A 
BRANCH  17  21
HETATM   21  O2  UNL     1     126.187  61.368  19.177  1.00  0.00    -0.353 OA
HETATM   22  C21 UNL     1     127.426  60.693  19.157  1.00  0.00     0.210 C 
ENDBRANCH  17  21
BRANCH  18  23
HETATM   23  O3  UNL     1     124.272  62.163  21.053  1.00  0.00    -0.351 OA
HETATM   24  C23 UNL     1     124.841  62.184  22.338  1.00  0.00     0.210 C 
ENDBRANCH  18  23
BRANCH  19  25
HETATM   25  O4  UNL     1     121.975  60.646  21.373  1.00  0.00    -0.353 OA
HETATM   26  C25 UNL     1     121.069  59.678  21.847  1.00  0.00     0.210 C 
ENDBRANCH  19  25
ENDBRANCH   1  15
BRANCH   2  27
HETATM   27  N2  UNL     1     124.382  56.569  15.884  1.00  0.00    -0.276 N 
ATOM     28  H2  UNL     1     124.212  56.914  14.940  1.00  0.00     0.189 HD
BRANCH  27  29
HETATM   29  C7  UNL     1     124.850  55.205  16.046  1.00  0.00     0.186 C 
HETATM   30  S1  UNL     1     126.411  54.891  16.353  1.00  0.00    -0.040 SA
BRANCH  29  31
HETATM   31  N3  UNL     1     123.930  54.152  15.916  1.00  0.00    -0.366 N 
ATOM     32  H3  UNL     1     123.665  53.607  16.736  1.00  0.00     0.161 HD
BRANCH  31  33
HETATM   33  C8  UNL     1     123.363  53.836  14.639  1.00  0.00     0.123 C 
BRANCH  33  34
HETATM   34  C9  UNL     1     122.260  52.839  14.629  1.00  0.00     0.039 C 
BRANCH  34  35
HETATM   35  C10 UNL     1     122.559  51.893  13.449  1.00  0.00     0.123 C 
BRANCH  35  36
HETATM   36  N4  UNL     1     121.461  51.996  12.535  1.00  0.00    -0.376 N 
ATOM     37  H4  UNL     1     121.445  52.748  11.846  1.00  0.00     0.161 HD
BRANCH  36  38
HETATM   38  C11 UNL     1     120.498  51.150  12.576  1.00  0.00     0.101 A 
HETATM   39  C12 UNL     1     119.225  51.573  12.818  1.00  0.00     0.054 A 
HETATM   40  C13 UNL     1     118.137  50.710  12.876  1.00  0.00    -0.057 A 
HETATM   41  C14 UNL     1     116.776  51.251  13.148  1.00  0.00     0.048 C 
HETATM   42  C15 UNL     1     118.390  49.376  12.676  1.00  0.00     0.031 A 
HETATM   43  C16 UNL     1     119.677  48.926  12.428  1.00  0.00     0.007 A 
HETATM   44  C17 UNL     1     119.976  47.469  12.206  1.00  0.00     0.068 C 
HETATM   45  N5  UNL     1     120.686  49.824  12.386  1.00  0.00    -0.347 N 
ATOM     46  H5  UNL     1     121.631  49.487  12.203  1.00  0.00     0.167 HD
ENDBRANCH  36  38
ENDBRANCH  35  36
ENDBRANCH  34  35
ENDBRANCH  33  34
ENDBRANCH  31  33
ENDBRANCH  29  31
ENDBRANCH  27  29
ENDBRANCH   2  27
TORSDOF 16
ENDMDL
MODEL 3
REMARK VINA RESULT: -8.396447168      1.009      2.440
REMARK  16 active torsions:
REMARK  status: ('A' for Active; 'I' for Inactive)
REMARK    1  A    between atoms: O1_2  and  C2_3 
REMARK    2  A    between atoms: C4_5  and  C5_6 
REMARK    3  A    between atoms: C5_6  and  C6_7 
REMARK    4  A    between atoms: C6_7  and  C18_30 
REMARK    5  A    between atoms: N1_8  and  N2_10 
REMARK    6  A    between atoms: N2_10  and  C7_12 
REMARK    7  A    between atoms: C7_12  and  N3_14 
REMARK    8  A    between atoms: N3_14  and  C8_16 
REMARK    9  A    between atoms: C8_16  and  C9_17 
REMARK   10  A    between atoms: C9_17  and  C10_18 
REMARK   11  A    between atoms: C10_18  and  N4_19 
REMARK   12  A    between atoms: N4_19  and  C11_21 
REMARK   13  A    between atoms: C20_32  and  O2_33 
REMARK   14  A    between atoms: C22_35  and  O3_36 
REMARK   15  A    between atoms: C24_38  and  O4_39 
REMARK   16  A    between atoms: C28_43  and  O5_44 
ROOT
HETATM    1  C6  UNL     1     123.695  57.150  17.688  1.00  0.00     0.059 C 
HETATM    2  N1  UNL     1     124.345  57.010  16.650  1.00  0.00    -0.298 N 
ATOM      3  H1  UNL     1     124.968  57.809  16.529  1.00  0.00     0.187 HD
ENDROOT
BRANCH   1   4
HETATM    4  C5  UNL     1     122.703  56.236  18.218  1.00  0.00     0.043 C 
BRANCH   4   5
HETATM    5  C4  UNL     1     121.354  56.259  17.701  1.00  0.00    -0.029 A 
HETATM    6  C3  UNL     1     120.992  55.473  16.620  1.00  0.00     0.048 A 
HETATM    7  C2  UNL     1     119.704  55.476  16.083  1.00  0.00     0.071 A 
HETATM    8  C30 UNL     1     118.763  56.310  16.673  1.00  0.00     0.073 A 
HETATM    9  C28 UNL     1     119.096  57.109  17.757  1.00  0.00     0.071 A 
HETATM   10  C27 UNL     1     120.383  57.075  18.257  1.00  0.00     0.048 A 
BRANCH   7  11
HETATM   11  O1  UNL     1     119.434  54.657  15.001  1.00  0.00    -0.356 OA
HETATM   12  C1  UNL     1     118.103  54.284  14.753  1.00  0.00     0.210 C 
ENDBRANCH   7  11
BRANCH   9  13
HETATM   13  O5  UNL     1     118.145  57.944  18.343  1.00  0.00    -0.356 OA
HETATM   14  C29 UNL     1     118.440  58.531  19.610  1.00  0.00     0.210 C 
ENDBRANCH   9  13
ENDBRANCH   4   5
ENDBRANCH   1   4
BRANCH   1  15
HETATM   15  C18 UNL     1     123.990  58.386  18.475  1.00  0.00    -0.003 A 
HETATM   16  C19 UNL     1     123.077  58.928  19.326  1.00  0.00     0.053 A 
HETATM   17  C20 UNL     1     123.344  60.067  20.048  1.00  0.00     0.105 A 
HETATM   18  C22 UNL     1     124.578  60.698  19.917  1.00  0.00     0.135 A 
HETATM   19  C24 UNL     1     125.522  60.152  19.048  1.00  0.00     0.105 A 
HETATM   20  C26 UNL     1     125.208  58.996  18.338  1.00  0.00     0.053 A 
BRANCH  17  21
HETATM   21  O2  UNL     1     122.388  60.584  20.901  1.00  0.00    -0.353 OA
HETATM   22  C21 UNL     1     121.515  59.690  21.555  1.00  0.00     0.210 C 
ENDBRANCH  17  21
BRANCH  18  23
HETATM   23  O3  UNL     1     124.871  61.842  20.630  1.00  0.00    -0.351 OA
HETATM   24  C23 UNL     1     125.518  61.869  21.877  1.00  0.00     0.210 C 
ENDBRANCH  18  23
BRANCH  19  25
HETATM   25  O4  UNL     1     126.756  60.766  18.906  1.00  0.00    -0.353 OA
HETATM   26  C25 UNL     1     127.912  59.963  18.907  1.00  0.00     0.210 C 
ENDBRANCH  19  25
ENDBRANCH   1  15
BRANCH   2  27
HETATM   27  N2  UNL     1     124.508  56.154  15.624  1.00  0.00    -0.276 N 
ATOM     28  H2  UNL     1     124.374  56.505  14.676  1.00  0.00     0.189 HD
BRANCH  27  29
HETATM   29  C7  UNL     1     124.864  54.758  15.798  1.00  0.00     0.186 C 
HETATM   30  S1  UNL     1     126.328  54.334  16.353  1.00  0.00    -0.040 SA
BRANCH  29  31
HETATM   31  N3  UNL     1     123.924  53.770  15.461  1.00  0.00    -0.366 N 
ATOM     32  H3  UNL     1     122.931  53.942  15.620  1.00  0.00     0.161 HD
BRANCH  31  33
HETATM   33  C8  UNL     1     124.349  52.525  14.897  1.00  0.00     0.123 C 
BRANCH  33  34
HETATM   34  C9  UNL     1     123.605  52.047  13.702  1.00  0.00     0.039 C 
BRANCH  34  35
HETATM   35  C10 UNL     1     122.136  52.458  13.929  1.00  0.00     0.123 C 
BRANCH  35  36
HETATM   36  N4  UNL     1     121.428  52.187  12.714  1.00  0.00    -0.376 N 
ATOM     37  H4  UNL     1     121.651  52.714  11.870  1.00  0.00     0.161 HD
BRANCH  36  38
HETATM   38  C11 UNL     1     120.516  51.286  12.678  1.00  0.00     0.101 A 
HETATM   39  C12 UNL     1     119.210  51.624  12.877  1.00  0.00     0.054 A 
HETATM   40  C13 UNL     1     118.174  50.698  12.852  1.00  0.00    -0.057 A 
HETATM   41  C14 UNL     1     116.773  51.148  13.081  1.00  0.00     0.048 C 
HETATM   42  C15 UNL     1     118.515  49.390  12.615  1.00  0.00     0.031 A 
HETATM   43  C16 UNL     1     119.837  49.025  12.411  1.00  0.00     0.007 A 
HETATM   44  C17 UNL     1     120.231  47.598  12.149  1.00  0.00     0.068 C 
HETATM   45  N5  UNL     1     120.791  49.981  12.448  1.00  0.00    -0.347 N 
ATOM     46  H5  UNL     1     121.762  49.707  12.297  1.00  0.00     0.167 HD
ENDBRANCH  36  38
ENDBRANCH  35  36
ENDBRANCH  34  35
ENDBRANCH  33  34
ENDBRANCH  31  33
ENDBRANCH  29  31
ENDBRANCH  27  29
ENDBRANCH   2  27
TORSDOF 16
ENDMDL
MODEL 4
REMARK VINA RESULT: -8.370529690      0.953      3.136
REMARK  16 active torsions:
REMARK  status: ('A' for Active; 'I' for Inactive)
REMARK    1  A    between atoms: O1_2  and  C2_3 
REMARK    2  A    between atoms: C4_5  and  C5_6 
REMARK    3  A    between atoms: C5_6  and  C6_7 
REMARK    4  A    between atoms: C6_7  and  C18_30 
REMARK    5  A    between atoms: N1_8  and  N2_10 
REMARK    6  A    between atoms: N2_10  and  C7_12 
REMARK    7  A    between atoms: C7_12  and  N3_14 
REMARK    8  A    between atoms: N3_14  and  C8_16 
REMARK    9  A    between atoms: C8_16  and  C9_17 
REMARK   10  A    between atoms: C9_17  and  C10_18 
REMARK   11  A    between atoms: C10_18  and  N4_19 
REMARK   12  A    between atoms: N4_19  and  C11_21 
REMARK   13  A    between atoms: C20_32  and  O2_33 
REMARK   14  A    between atoms: C22_35  and  O3_36 
REMARK   15  A    between atoms: C24_38  and  O4_39 
REMARK   16  A    between atoms: C28_43  and  O5_44 
ROOT
HETATM    1  C6  UNL     1     123.661  57.311  17.810  1.00  0.00     0.059 C 
HETATM    2  N1  UNL     1     124.312  57.095  16.786  1.00  0.00    -0.298 N 
ATOM      3  H1  UNL     1     124.934  57.883  16.606  1.00  0.00     0.187 HD
ENDROOT
BRANCH   1   4
HETATM    4  C5  UNL     1     122.668  56.439  18.405  1.00  0.00     0.043 C 
BRANCH   4   5
HETATM    5  C4  UNL     1     121.333  56.387  17.856  1.00  0.00    -0.029 A 
HETATM    6  C3  UNL     1     121.020  55.516  16.825  1.00  0.00     0.048 A 
HETATM    7  C2  UNL     1     119.746  55.445  16.259  1.00  0.00     0.071 A 
HETATM    8  C30 UNL     1     118.769  56.292  16.764  1.00  0.00     0.073 A 
HETATM    9  C28 UNL     1     119.053  57.175  17.796  1.00  0.00     0.071 A 
HETATM   10  C27 UNL     1     120.326  57.213  18.328  1.00  0.00     0.048 A 
BRANCH   7  11
HETATM   11  O1  UNL     1     119.527  54.543  15.233  1.00  0.00    -0.356 OA
HETATM   12  C1  UNL     1     118.212  54.121  14.975  1.00  0.00     0.210 C 
ENDBRANCH   7  11
BRANCH   9  13
HETATM   13  O5  UNL     1     118.065  58.022  18.298  1.00  0.00    -0.356 OA
HETATM   14  C29 UNL     1     118.152  58.443  19.659  1.00  0.00     0.210 C 
ENDBRANCH   9  13
ENDBRANCH   4   5
ENDBRANCH   1   4
BRANCH   1  15
HETATM   15  C18 UNL     1     123.954  58.602  18.504  1.00  0.00    -0.003 A 
HETATM   16  C19 UNL     1     125.195  59.161  18.482  1.00  0.00     0.053 A 
HETATM   17  C20 UNL     1     125.468  60.346  19.123  1.00  0.00     0.105 A 
HETATM   18  C22 UNL     1     124.461  61.007  19.818  1.00  0.00     0.135 A 
HETATM   19  C24 UNL     1     123.185  60.445  19.848  1.00  0.00     0.105 A 
HETATM   20  C26 UNL     1     122.953  59.243  19.184  1.00  0.00     0.053 A 
BRANCH  17  21
HETATM   21  O2  UNL     1     126.742  60.879  19.075  1.00  0.00    -0.353 OA
HETATM   22  C21 UNL     1     127.834  60.001  18.907  1.00  0.00     0.210 C 
ENDBRANCH  17  21
BRANCH  18  23
HETATM   23  O3  UNL     1     124.709  62.198  20.470  1.00  0.00    -0.351 OA
HETATM   24  C23 UNL     1     125.133  62.312  21.804  1.00  0.00     0.210 C 
ENDBRANCH  18  23
BRANCH  19  25
HETATM   25  O4  UNL     1     122.169  61.090  20.535  1.00  0.00    -0.353 OA
HETATM   26  C25 UNL     1     121.029  61.502  19.820  1.00  0.00     0.210 C 
ENDBRANCH  19  25
ENDBRANCH   1  15
BRANCH   2  27
HETATM   27  N2  UNL     1     124.476  56.165  15.826  1.00  0.00    -0.276 N 
ATOM     28  H2  UNL     1     124.228  56.411  14.868  1.00  0.00     0.189 HD
BRANCH  27  29
HETATM   29  C7  UNL     1     124.988  54.832  16.085  1.00  0.00     0.186 C 
HETATM   30  S1  UNL     1     126.558  54.590  16.409  1.00  0.00    -0.040 SA
BRANCH  29  31
HETATM   31  N3  UNL     1     124.101  53.744  16.036  1.00  0.00    -0.366 N 
ATOM     32  H3  UNL     1     123.597  53.462  16.876  1.00  0.00     0.161 HD
BRANCH  31  33
HETATM   33  C8  UNL     1     123.901  53.025  14.813  1.00  0.00     0.123 C 
BRANCH  33  34
HETATM   34  C9  UNL     1     122.502  52.640  14.489  1.00  0.00     0.039 C 
BRANCH  34  35
HETATM   35  C10 UNL     1     122.575  51.872  13.154  1.00  0.00     0.123 C 
BRANCH  35  36
HETATM   36  N4  UNL     1     121.328  52.076  12.480  1.00  0.00    -0.376 N 
ATOM     37  H4  UNL     1     121.173  52.934  11.951  1.00  0.00     0.161 HD
BRANCH  36  38
HETATM   38  C11 UNL     1     120.405  51.188  12.536  1.00  0.00     0.101 A 
HETATM   39  C12 UNL     1     119.110  51.558  12.750  1.00  0.00     0.054 A 
HETATM   40  C13 UNL     1     118.062  50.649  12.822  1.00  0.00    -0.057 A 
HETATM   41  C14 UNL     1     116.675  51.134  13.060  1.00  0.00     0.048 C 
HETATM   42  C15 UNL     1     118.379  49.323  12.668  1.00  0.00     0.031 A 
HETATM   43  C16 UNL     1     119.689  48.924  12.451  1.00  0.00     0.007 A 
HETATM   44  C17 UNL     1     120.057  47.477  12.279  1.00  0.00     0.068 C 
HETATM   45  N5  UNL     1     120.656  49.867  12.391  1.00  0.00    -0.347 N 
ATOM     46  H5  UNL     1     121.618  49.569  12.230  1.00  0.00     0.167 HD
ENDBRANCH  36  38
ENDBRANCH  35  36
ENDBRANCH  34  35
ENDBRANCH  33  34
ENDBRANCH  31  33
ENDBRANCH  29  31
ENDBRANCH  27  29
ENDBRANCH   2  27
TORSDOF 16
ENDMDL
MODEL 5
REMARK VINA RESULT: -8.359761250      1.104      2.438
REMARK  16 active torsions:
REMARK  status: ('A' for Active; 'I' for Inactive)
REMARK    1  A    between atoms: O1_2  and  C2_3 
REMARK    2  A    between atoms: C4_5  and  C5_6 
REMARK    3  A    between atoms: C5_6  and  C6_7 
REMARK    4  A    between atoms: C6_7  and  C18_30 
REMARK    5  A    between atoms: N1_8  and  N2_10 
REMARK    6  A    between atoms: N2_10  and  C7_12 
REMARK    7  A    between atoms: C7_12  and  N3_14 
REMARK    8  A    between atoms: N3_14  and  C8_16 
REMARK    9  A    between atoms: C8_16  and  C9_17 
REMARK   10  A    between atoms: C9_17  and  C10_18 
REMARK   11  A    between atoms: C10_18  and  N4_19 
REMARK   12  A    between atoms: N4_19  and  C11_21 
REMARK   13  A    between atoms: C20_32  and  O2_33 
REMARK   14  A    between atoms: C22_35  and  O3_36 
REMARK   15  A    between atoms: C24_38  and  O4_39 
REMARK   16  A    between atoms: C28_43  and  O5_44 
ROOT
HETATM    1  C6  UNL     1     123.619  57.212  17.690  1.00  0.00     0.059 C 
HETATM    2  N1  UNL     1     124.180  57.149  16.594  1.00  0.00    -0.298 N 
ATOM      3  H1  UNL     1     124.726  57.997  16.443  1.00  0.00     0.187 HD
ENDROOT
BRANCH   1   4
HETATM    4  C5  UNL     1     122.751  56.211  18.277  1.00  0.00     0.043 C 
BRANCH   4   5
HETATM    5  C4  UNL     1     121.462  55.938  17.685  1.00  0.00    -0.029 A 
HETATM    6  C3  UNL     1     120.401  56.813  17.853  1.00  0.00     0.048 A 
HETATM    7  C2  UNL     1     119.137  56.579  17.307  1.00  0.00     0.071 A 
HETATM    8  C30 UNL     1     118.960  55.416  16.570  1.00  0.00     0.073 A 
HETATM    9  C28 UNL     1     120.005  54.521  16.384  1.00  0.00     0.071 A 
HETATM   10  C27 UNL     1     121.238  54.791  16.942  1.00  0.00     0.048 A 
BRANCH   7  11
HETATM   11  O1  UNL     1     118.138  57.509  17.527  1.00  0.00    -0.356 OA
HETATM   12  C1  UNL     1     118.106  58.188  18.756  1.00  0.00     0.210 C 
ENDBRANCH   7  11
BRANCH   9  13
HETATM   13  O5  UNL     1     119.817  53.355  15.643  1.00  0.00    -0.356 OA
HETATM   14  C29 UNL     1     119.347  52.187  16.314  1.00  0.00     0.210 C 
ENDBRANCH   9  13
ENDBRANCH   4   5
ENDBRANCH   1   4
BRANCH   1  15
HETATM   15  C18 UNL     1     123.891  58.447  18.487  1.00  0.00    -0.003 A 
HETATM   16  C19 UNL     1     125.064  59.126  18.376  1.00  0.00     0.053 A 
HETATM   17  C20 UNL     1     125.319  60.260  19.111  1.00  0.00     0.105 A 
HETATM   18  C22 UNL     1     124.361  60.741  19.999  1.00  0.00     0.135 A 
HETATM   19  C24 UNL     1     123.154  60.053  20.122  1.00  0.00     0.105 A 
HETATM   20  C26 UNL     1     122.940  58.909  19.357  1.00  0.00     0.053 A 
BRANCH  17  21
HETATM   21  O2  UNL     1     126.524  60.920  18.967  1.00  0.00    -0.353 OA
HETATM   22  C21 UNL     1     127.715  60.166  19.008  1.00  0.00     0.210 C 
ENDBRANCH  17  21
BRANCH  18  23
HETATM   23  O3  UNL     1     124.592  61.876  20.748  1.00  0.00    -0.351 OA
HETATM   24  C23 UNL     1     125.252  61.901  21.988  1.00  0.00     0.210 C 
ENDBRANCH  18  23
BRANCH  19  25
HETATM   25  O4  UNL     1     122.189  60.518  21.000  1.00  0.00    -0.353 OA
HETATM   26  C25 UNL     1     121.407  59.579  21.700  1.00  0.00     0.210 C 
ENDBRANCH  19  25
ENDBRANCH   1  15
BRANCH   2  27
HETATM   27  N2  UNL     1     124.311  56.335  15.530  1.00  0.00    -0.276 N 
ATOM     28  H2  UNL     1     123.998  56.673  14.621  1.00  0.00     0.189 HD
BRANCH  27  29
HETATM   29  C7  UNL     1     124.875  55.000  15.612  1.00  0.00     0.186 C 
HETATM   30  S1  UNL     1     126.269  54.731  16.395  1.00  0.00    -0.040 SA
BRANCH  29  31
HETATM   31  N3  UNL     1     124.201  53.939  14.985  1.00  0.00    -0.366 N 
ATOM     32  H3  UNL     1     123.308  53.616  15.357  1.00  0.00     0.161 HD
BRANCH  31  33
HETATM   33  C8  UNL     1     124.759  53.307  13.827  1.00  0.00     0.123 C 
BRANCH  33  34
HETATM   34  C9  UNL     1     123.909  52.296  13.146  1.00  0.00     0.039 C 
BRANCH  34  35
HETATM   35  C10 UNL     1     122.570  52.286  13.912  1.00  0.00     0.123 C 
BRANCH  35  36
HETATM   36  N4  UNL     1     121.526  52.403  12.939  1.00  0.00    -0.376 N 
ATOM     37  H4  UNL     1     121.523  53.192  12.293  1.00  0.00     0.161 HD
BRANCH  36  38
HETATM   38  C11 UNL     1     120.595  51.524  12.874  1.00  0.00     0.101 A 
HETATM   39  C12 UNL     1     120.905  50.210  12.679  1.00  0.00     0.054 A 
HETATM   40  C13 UNL     1     119.946  49.208  12.598  1.00  0.00    -0.057 A 
HETATM   41  C14 UNL     1     120.367  47.796  12.382  1.00  0.00     0.048 C 
HETATM   42  C15 UNL     1     118.635  49.591  12.724  1.00  0.00     0.031 A 
HETATM   43  C16 UNL     1     118.298  50.921  12.922  1.00  0.00     0.007 A 
HETATM   44  C17 UNL     1     116.867  51.362  13.062  1.00  0.00     0.068 C 
HETATM   45  N5  UNL     1     119.286  51.841  12.991  1.00  0.00    -0.347 N 
ATOM     46  H5  UNL     1     119.032  52.818  13.138  1.00  0.00     0.167 HD
ENDBRANCH  36  38
ENDBRANCH  35  36
ENDBRANCH  34  35
ENDBRANCH  33  34
ENDBRANCH  31  33
ENDBRANCH  29  31
ENDBRANCH  27  29
ENDBRANCH   2  27
TORSDOF 16
ENDMDL
