MODEL 1
REMARK VINA RESULT: -10.565105478      0.000      0.000
REMARK  14 active torsions:
REMARK  status: ('A' for Active; 'I' for Inactive)
REMARK    1  A    between atoms: C1_2  and  C2_3 
REMARK       I    between atoms: C1_2  and  N4_35 
REMARK    2  A    between atoms: C2_3  and  C3_4 
REMARK    3  A    between atoms: C3_4  and  C4_5 
REMARK       I    between atoms: C4_5  and  N1_7 
REMARK    4  A    between atoms: N1_7  and  N2_9 
REMARK    5  A    between atoms: C5_11  and  C6_12 
REMARK    6  A    between atoms: C5_11  and  C14_22 
REMARK    7  A    between atoms: C6_12  and  C7_13 
REMARK    8  A    between atoms: C7_13  and  O4_15 
REMARK    9  A    between atoms: O4_15  and  C8_16 
REMARK       I    between atoms: C14_22  and  N3_24 
REMARK   10  A    between atoms: N3_24  and  C15_26 
REMARK   11  A    between atoms: C15_26  and  C16_27 
REMARK   12  A    between atoms: C16_27  and  C17_29 
REMARK   13  A    between atoms: N4_35  and  N5_37 
REMARK   14  A    between atoms: C23_39  and  C24_40 
ROOT
HETATM    1  N2  UNL     1     125.273  57.022  17.390  1.00  0.00    -0.296 N 
ATOM      2  H2  UNL     1     125.675  56.867  18.315  1.00  0.00     0.187 HD
HETATM    3  C5  UNL     1     124.425  57.961  17.316  1.00  0.00     0.102 C 
ENDROOT
BRANCH   1   4
HETATM    4  N1  UNL     1     125.731  56.181  16.400  1.00  0.00    -0.270 N 
HETATM    5  C4  UNL     1     125.570  54.767  16.440  1.00  0.00     0.236 C 
HETATM    6  O2  UNL     1     124.972  54.310  17.461  1.00  0.00    -0.272 OA
ATOM      7  H1  UNL     1     126.209  56.592  15.598  1.00  0.00     0.190 HD
BRANCH   5   8
HETATM    8  C3  UNL     1     126.064  53.873  15.367  1.00  0.00     0.114 C 
BRANCH   8   9
HETATM    9  C2  UNL     1     125.256  53.957  14.119  1.00  0.00     0.114 C 
BRANCH   9  10
HETATM   10  C1  UNL     1     124.029  53.122  14.228  1.00  0.00     0.236 C 
HETATM   11  O1  UNL     1     124.069  51.931  14.690  1.00  0.00    -0.272 OA
HETATM   12  N4  UNL     1     122.767  53.619  13.820  1.00  0.00    -0.270 N 
ATOM     13  H4  UNL     1     122.698  54.565  13.447  1.00  0.00     0.190 HD
BRANCH  12  14
HETATM   14  N5  UNL     1     121.627  52.843  13.918  1.00  0.00    -0.308 N 
HETATM   15  C23 UNL     1     120.916  52.444  12.966  1.00  0.00     0.119 C 
ATOM     16  H5  UNL     1     121.335  52.570  14.856  1.00  0.00     0.186 HD
BRANCH  15  17
HETATM   17  C24 UNL     1     119.725  51.646  12.927  1.00  0.00    -0.008 A 
HETATM   18  C25 UNL     1     118.470  52.297  13.004  1.00  0.00     0.014 A 
HETATM   19  C26 UNL     1     117.291  51.616  12.970  1.00  0.00     0.002 A 
HETATM   20  C27 UNL     1     117.275  50.255  12.857  1.00  0.00     0.012 A 
HETATM   21  C28 UNL     1     118.464  49.567  12.776  1.00  0.00    -0.025 A 
HETATM   22  C29 UNL     1     118.437  48.174  12.660  1.00  0.00     0.012 A 
HETATM   23  C33 UNL     1     119.680  50.264  12.812  1.00  0.00    -0.014 A 
HETATM   24  C30 UNL     1     119.627  47.494  12.581  1.00  0.00     0.001 A 
HETATM   25  C31 UNL     1     120.827  48.168  12.614  1.00  0.00     0.001 A 
HETATM   26  C32 UNL     1     120.857  49.557  12.730  1.00  0.00     0.013 A 
ENDBRANCH  15  17
ENDBRANCH  12  14
ENDBRANCH   9  10
ENDBRANCH   8   9
ENDBRANCH   5   8
ENDBRANCH   1   4
BRANCH   3  27
HETATM   27  C6  UNL     1     123.765  58.296  16.047  1.00  0.00     0.175 C 
BRANCH  27  28
HETATM   28  C7  UNL     1     122.700  57.293  15.698  1.00  0.00     0.269 C 
HETATM   29  O3  UNL     1     122.789  56.516  14.714  1.00  0.00    -0.265 OA
BRANCH  28  30
HETATM   30  O4  UNL     1     121.548  57.181  16.466  1.00  0.00    -0.279 OA
BRANCH  30  31
HETATM   31  C8  UNL     1     120.629  56.134  16.263  1.00  0.00     0.079 A 
HETATM   32  C9  UNL     1     119.471  56.291  15.558  1.00  0.00     0.037 A 
HETATM   33  C10 UNL     1     118.638  55.179  15.422  1.00  0.00     0.003 A 
HETATM   34  C11 UNL     1     118.947  53.961  15.964  1.00  0.00     0.000 A 
HETATM   35  C12 UNL     1     120.109  53.818  16.666  1.00  0.00     0.003 A 
HETATM   36  C13 UNL     1     120.941  54.904  16.811  1.00  0.00     0.037 A 
ENDBRANCH  30  31
ENDBRANCH  28  30
ENDBRANCH  27  28
ENDBRANCH   3  27
BRANCH   3  37
HETATM   37  C14 UNL     1     124.098  58.681  18.543  1.00  0.00     0.266 C 
HETATM   38  O5  UNL     1     124.346  58.155  19.676  1.00  0.00    -0.266 OA
HETATM   39  N3  UNL     1     123.508  59.966  18.539  1.00  0.00    -0.349 N 
ATOM     40  H3  UNL     1     123.299  60.408  17.644  1.00  0.00     0.163 HD
BRANCH  39  41
HETATM   41  C15 UNL     1     123.191  60.669  19.749  1.00  0.00     0.206 C 
BRANCH  41  42
HETATM   42  C16 UNL     1     121.757  60.915  19.963  1.00  0.00     0.177 C 
HETATM   43  O6  UNL     1     121.373  61.976  20.475  1.00  0.00    -0.291 OA
BRANCH  42  44
HETATM   44  C17 UNL     1     120.732  59.933  19.585  1.00  0.00     0.011 A 
HETATM   45  C18 UNL     1     120.682  58.705  20.221  1.00  0.00     0.015 A 
HETATM   46  C19 UNL     1     119.712  57.775  19.866  1.00  0.00     0.001 A 
HETATM   47  C20 UNL     1     118.806  58.098  18.875  1.00  0.00     0.000 A 
HETATM   48  C21 UNL     1     118.832  59.310  18.227  1.00  0.00     0.001 A 
HETATM   49  C22 UNL     1     119.809  60.202  18.608  1.00  0.00     0.015 A 
ENDBRANCH  42  44
ENDBRANCH  41  42
ENDBRANCH  39  41
ENDBRANCH   3  37
TORSDOF 14
ENDMDL
MODEL 2
REMARK VINA RESULT: -10.439179193      1.278      1.752
REMARK  14 active torsions:
REMARK  status: ('A' for Active; 'I' for Inactive)
REMARK    1  A    between atoms: C1_2  and  C2_3 
REMARK       I    between atoms: C1_2  and  N4_35 
REMARK    2  A    between atoms: C2_3  and  C3_4 
REMARK    3  A    between atoms: C3_4  and  C4_5 
REMARK       I    between atoms: C4_5  and  N1_7 
REMARK    4  A    between atoms: N1_7  and  N2_9 
REMARK    5  A    between atoms: C5_11  and  C6_12 
REMARK    6  A    between atoms: C5_11  and  C14_22 
REMARK    7  A    between atoms: C6_12  and  C7_13 
REMARK    8  A    between atoms: C7_13  and  O4_15 
REMARK    9  A    between atoms: O4_15  and  C8_16 
REMARK       I    between atoms: C14_22  and  N3_24 
REMARK   10  A    between atoms: N3_24  and  C15_26 
REMARK   11  A    between atoms: C15_26  and  C16_27 
REMARK   12  A    between atoms: C16_27  and  C17_29 
REMARK   13  A    between atoms: N4_35  and  N5_37 
REMARK   14  A    between atoms: C23_39  and  C24_40 
ROOT
HETATM    1  N2  UNL     1     125.682  56.567  16.346  1.00  0.00    -0.296 N 
ATOM      2  H2  UNL     1     126.618  56.949  16.486  1.00  0.00     0.187 HD
HETATM    3  C5  UNL     1     124.751  57.170  16.960  1.00  0.00     0.102 C 
ENDROOT
BRANCH   1   4
HETATM    4  N1  UNL     1     125.611  55.469  15.517  1.00  0.00    -0.270 N 
HETATM    5  C4  UNL     1     125.810  54.134  15.971  1.00  0.00     0.236 C 
HETATM    6  O2  UNL     1     126.065  54.005  17.206  1.00  0.00    -0.272 OA
ATOM      7  H1  UNL     1     125.406  55.621  14.530  1.00  0.00     0.190 HD
BRANCH   5   8
HETATM    8  C3  UNL     1     125.727  52.961  15.069  1.00  0.00     0.114 C 
BRANCH   8   9
HETATM    9  C2  UNL     1     125.034  53.260  13.785  1.00  0.00     0.114 C 
BRANCH   9  10
HETATM   10  C1  UNL     1     123.811  52.426  13.638  1.00  0.00     0.236 C 
HETATM   11  O1  UNL     1     123.791  51.394  12.884  1.00  0.00    -0.272 OA
HETATM   12  N4  UNL     1     122.618  52.746  14.332  1.00  0.00    -0.270 N 
ATOM     13  H4  UNL     1     122.598  53.562  14.943  1.00  0.00     0.190 HD
BRANCH  12  14
HETATM   14  N5  UNL     1     121.481  51.973  14.194  1.00  0.00    -0.308 N 
HETATM   15  C23 UNL     1     120.563  52.144  13.359  1.00  0.00     0.119 C 
ATOM     16  H5  UNL     1     121.378  51.187  14.836  1.00  0.00     0.186 HD
BRANCH  15  17
HETATM   17  C24 UNL     1     119.345  51.428  13.111  1.00  0.00    -0.008 A 
HETATM   18  C25 UNL     1     118.115  52.120  13.232  1.00  0.00     0.014 A 
HETATM   19  C26 UNL     1     116.914  51.518  13.010  1.00  0.00     0.002 A 
HETATM   20  C27 UNL     1     116.849  50.201  12.656  1.00  0.00     0.012 A 
HETATM   21  C28 UNL     1     118.012  49.476  12.521  1.00  0.00    -0.025 A 
HETATM   22  C29 UNL     1     117.935  48.129  12.157  1.00  0.00     0.012 A 
HETATM   23  C33 UNL     1     119.250  50.092  12.749  1.00  0.00    -0.014 A 
HETATM   24  C30 UNL     1     119.099  47.413  12.025  1.00  0.00     0.001 A 
HETATM   25  C31 UNL     1     120.321  48.007  12.246  1.00  0.00     0.001 A 
HETATM   26  C32 UNL     1     120.400  49.351  12.610  1.00  0.00     0.013 A 
ENDBRANCH  15  17
ENDBRANCH  12  14
ENDBRANCH   9  10
ENDBRANCH   8   9
ENDBRANCH   5   8
ENDBRANCH   1   4
BRANCH   3  27
HETATM   27  C6  UNL     1     123.354  56.730  16.852  1.00  0.00     0.175 C 
BRANCH  27  28
HETATM   28  C7  UNL     1     122.926  55.953  18.067  1.00  0.00     0.269 C 
HETATM   29  O3  UNL     1     123.733  55.313  18.788  1.00  0.00    -0.265 OA
BRANCH  28  30
HETATM   30  O4  UNL     1     121.592  55.912  18.453  1.00  0.00    -0.279 OA
BRANCH  30  31
HETATM   31  C8  UNL     1     120.565  55.676  17.520  1.00  0.00     0.079 A 
HETATM   32  C9  UNL     1     120.504  54.546  16.755  1.00  0.00     0.037 A 
HETATM   33  C10 UNL     1     119.437  54.423  15.864  1.00  0.00     0.003 A 
HETATM   34  C11 UNL     1     118.470  55.383  15.740  1.00  0.00     0.000 A 
HETATM   35  C12 UNL     1     118.544  56.508  16.512  1.00  0.00     0.003 A 
HETATM   36  C13 UNL     1     119.589  56.646  17.394  1.00  0.00     0.037 A 
ENDBRANCH  30  31
ENDBRANCH  28  30
ENDBRANCH  27  28
ENDBRANCH   3  27
BRANCH   3  37
HETATM   37  C14 UNL     1     125.117  58.301  17.807  1.00  0.00     0.266 C 
HETATM   38  O5  UNL     1     126.326  58.457  18.178  1.00  0.00    -0.266 OA
HETATM   39  N3  UNL     1     124.176  59.260  18.248  1.00  0.00    -0.349 N 
ATOM     40  H3  UNL     1     123.201  59.158  17.964  1.00  0.00     0.163 HD
BRANCH  39  41
HETATM   41  C15 UNL     1     124.542  60.371  19.078  1.00  0.00     0.206 C 
BRANCH  41  42
HETATM   42  C16 UNL     1     123.415  61.037  19.750  1.00  0.00     0.177 C 
HETATM   43  O6  UNL     1     123.569  62.147  20.277  1.00  0.00    -0.291 OA
BRANCH  42  44
HETATM   44  C17 UNL     1     122.080  60.428  19.823  1.00  0.00     0.011 A 
HETATM   45  C18 UNL     1     121.045  60.933  19.057  1.00  0.00     0.015 A 
HETATM   46  C19 UNL     1     119.782  60.357  19.124  1.00  0.00     0.001 A 
HETATM   47  C20 UNL     1     119.582  59.279  19.964  1.00  0.00     0.000 A 
HETATM   48  C21 UNL     1     120.592  58.757  20.736  1.00  0.00     0.001 A 
HETATM   49  C22 UNL     1     121.827  59.357  20.640  1.00  0.00     0.015 A 
ENDBRANCH  42  44
ENDBRANCH  41  42
ENDBRANCH  39  41
ENDBRANCH   3  37
TORSDOF 14
ENDMDL
MODEL 3
REMARK VINA RESULT: -10.415994732      0.931      1.877
REMARK  14 active torsions:
REMARK  status: ('A' for Active; 'I' for Inactive)
REMARK    1  A    between atoms: C1_2  and  C2_3 
REMARK       I    between atoms: C1_2  and  N4_35 
REMARK    2  A    between atoms: C2_3  and  C3_4 
REMARK    3  A    between atoms: C3_4  and  C4_5 
REMARK       I    between atoms: C4_5  and  N1_7 
REMARK    4  A    between atoms: N1_7  and  N2_9 
REMARK    5  A    between atoms: C5_11  and  C6_12 
REMARK    6  A    between atoms: C5_11  and  C14_22 
REMARK    7  A    between atoms: C6_12  and  C7_13 
REMARK    8  A    between atoms: C7_13  and  O4_15 
REMARK    9  A    between atoms: O4_15  and  C8_16 
REMARK       I    between atoms: C14_22  and  N3_24 
REMARK   10  A    between atoms: N3_24  and  C15_26 
REMARK   11  A    between atoms: C15_26  and  C16_27 
REMARK   12  A    between atoms: C16_27  and  C17_29 
REMARK   13  A    between atoms: N4_35  and  N5_37 
REMARK   14  A    between atoms: C23_39  and  C24_40 
ROOT
HETATM    1  N2  UNL     1     125.666  57.121  16.855  1.00  0.00    -0.296 N 
ATOM      2  H2  UNL     1     126.401  57.284  17.544  1.00  0.00     0.187 HD
HETATM    3  C5  UNL     1     124.635  57.848  16.977  1.00  0.00     0.102 C 
ENDROOT
BRANCH   1   4
HETATM    4  N1  UNL     1     125.938  56.144  15.923  1.00  0.00    -0.270 N 
HETATM    5  C4  UNL     1     125.721  54.756  16.161  1.00  0.00     0.236 C 
HETATM    6  O2  UNL     1     125.256  54.460  17.303  1.00  0.00    -0.272 OA
ATOM      7  H1  UNL     1     126.314  56.428  15.018  1.00  0.00     0.190 HD
BRANCH   5   8
HETATM    8  C3  UNL     1     126.015  53.715  15.149  1.00  0.00     0.114 C 
BRANCH   8   9
HETATM    9  C2  UNL     1     125.318  53.947  13.853  1.00  0.00     0.114 C 
BRANCH   9  10
HETATM   10  C1  UNL     1     124.518  52.755  13.462  1.00  0.00     0.236 C 
HETATM   11  O1  UNL     1     124.692  52.172  12.338  1.00  0.00    -0.272 OA
HETATM   12  N4  UNL     1     123.531  52.220  14.325  1.00  0.00    -0.270 N 
ATOM     13  H4  UNL     1     123.366  52.659  15.231  1.00  0.00     0.190 HD
BRANCH  12  14
HETATM   14  N5  UNL     1     122.786  51.114  13.963  1.00  0.00    -0.308 N 
HETATM   15  C23 UNL     1     121.646  51.124  13.443  1.00  0.00     0.119 C 
ATOM     16  H5  UNL     1     123.204  50.200  14.134  1.00  0.00     0.186 HD
BRANCH  15  17
HETATM   17  C24 UNL     1     120.773  50.067  13.022  1.00  0.00    -0.008 A 
HETATM   18  C25 UNL     1     121.326  48.784  12.785  1.00  0.00     0.014 A 
HETATM   19  C26 UNL     1     120.569  47.725  12.388  1.00  0.00     0.002 A 
HETATM   20  C27 UNL     1     119.223  47.861  12.201  1.00  0.00     0.012 A 
HETATM   21  C28 UNL     1     118.627  49.083  12.418  1.00  0.00    -0.025 A 
HETATM   22  C29 UNL     1     117.249  49.211  12.225  1.00  0.00     0.012 A 
HETATM   23  C33 UNL     1     119.404  50.177  12.826  1.00  0.00    -0.014 A 
HETATM   24  C30 UNL     1     116.663  50.434  12.442  1.00  0.00     0.001 A 
HETATM   25  C31 UNL     1     117.415  51.515  12.844  1.00  0.00     0.001 A 
HETATM   26  C32 UNL     1     118.790  51.389  13.037  1.00  0.00     0.013 A 
ENDBRANCH  15  17
ENDBRANCH  12  14
ENDBRANCH   9  10
ENDBRANCH   8   9
ENDBRANCH   5   8
ENDBRANCH   1   4
BRANCH   3  27
HETATM   27  C6  UNL     1     123.498  57.722  16.055  1.00  0.00     0.175 C 
BRANCH  27  28
HETATM   28  C7  UNL     1     122.507  56.699  16.539  1.00  0.00     0.269 C 
HETATM   29  O3  UNL     1     121.825  56.851  17.584  1.00  0.00    -0.265 OA
BRANCH  28  30
HETATM   30  O4  UNL     1     122.298  55.520  15.836  1.00  0.00    -0.279 OA
BRANCH  30  31
HETATM   31  C8  UNL     1     121.027  54.918  15.773  1.00  0.00     0.079 A 
HETATM   32  C9  UNL     1     119.941  55.537  15.221  1.00  0.00     0.037 A 
HETATM   33  C10 UNL     1     118.732  54.839  15.215  1.00  0.00     0.003 A 
HETATM   34  C11 UNL     1     118.609  53.579  15.734  1.00  0.00     0.000 A 
HETATM   35  C12 UNL     1     119.704  52.973  16.282  1.00  0.00     0.003 A 
HETATM   36  C13 UNL     1     120.903  53.646  16.297  1.00  0.00     0.037 A 
ENDBRANCH  30  31
ENDBRANCH  28  30
ENDBRANCH  27  28
ENDBRANCH   3  27
BRANCH   3  37
HETATM   37  C14 UNL     1     124.598  58.794  18.088  1.00  0.00     0.266 C 
HETATM   38  O5  UNL     1     125.640  58.993  18.792  1.00  0.00    -0.266 OA
HETATM   39  N3  UNL     1     123.435  59.523  18.430  1.00  0.00    -0.349 N 
ATOM     40  H3  UNL     1     122.587  59.381  17.881  1.00  0.00     0.163 HD
BRANCH  39  41
HETATM   41  C15 UNL     1     123.406  60.454  19.521  1.00  0.00     0.206 C 
BRANCH  41  42
HETATM   42  C16 UNL     1     122.062  60.757  20.038  1.00  0.00     0.177 C 
HETATM   43  O6  UNL     1     121.878  61.746  20.761  1.00  0.00    -0.291 OA
BRANCH  42  44
HETATM   44  C17 UNL     1     120.898  59.917  19.725  1.00  0.00     0.011 A 
HETATM   45  C18 UNL     1     120.654  58.771  20.461  1.00  0.00     0.015 A 
HETATM   46  C19 UNL     1     119.552  57.976  20.168  1.00  0.00     0.001 A 
HETATM   47  C20 UNL     1     118.713  58.349  19.137  1.00  0.00     0.000 A 
HETATM   48  C21 UNL     1     118.931  59.482  18.390  1.00  0.00     0.001 A 
HETATM   49  C22 UNL     1     120.034  60.241  18.713  1.00  0.00     0.015 A 
ENDBRANCH  42  44
ENDBRANCH  41  42
ENDBRANCH  39  41
ENDBRANCH   3  37
TORSDOF 14
ENDMDL
MODEL 4
REMARK VINA RESULT: -10.361255043      1.322      1.727
REMARK  14 active torsions:
REMARK  status: ('A' for Active; 'I' for Inactive)
REMARK    1  A    between atoms: C1_2  and  C2_3 
REMARK       I    between atoms: C1_2  and  N4_35 
REMARK    2  A    between atoms: C2_3  and  C3_4 
REMARK    3  A    between atoms: C3_4  and  C4_5 
REMARK       I    between atoms: C4_5  and  N1_7 
REMARK    4  A    between atoms: N1_7  and  N2_9 
REMARK    5  A    between atoms: C5_11  and  C6_12 
REMARK    6  A    between atoms: C5_11  and  C14_22 
REMARK    7  A    between atoms: C6_12  and  C7_13 
REMARK    8  A    between atoms: C7_13  and  O4_15 
REMARK    9  A    between atoms: O4_15  and  C8_16 
REMARK       I    between atoms: C14_22  and  N3_24 
REMARK   10  A    between atoms: N3_24  and  C15_26 
REMARK   11  A    between atoms: C15_26  and  C16_27 
REMARK   12  A    between atoms: C16_27  and  C17_29 
REMARK   13  A    between atoms: N4_35  and  N5_37 
REMARK   14  A    between atoms: C23_39  and  C24_40 
ROOT
HETATM    1  N2  UNL     1     125.839  56.664  16.467  1.00  0.00    -0.296 N 
ATOM      2  H2  UNL     1     126.758  57.070  16.644  1.00  0.00     0.187 HD
HETATM    3  C5  UNL     1     124.868  57.250  17.032  1.00  0.00     0.102 C 
ENDROOT
BRANCH   1   4
HETATM    4  N1  UNL     1     125.832  55.556  15.649  1.00  0.00    -0.270 N 
HETATM    5  C4  UNL     1     126.036  54.230  16.127  1.00  0.00     0.236 C 
HETATM    6  O2  UNL     1     126.233  54.120  17.375  1.00  0.00    -0.272 OA
ATOM      7  H1  UNL     1     125.673  55.692  14.651  1.00  0.00     0.190 HD
BRANCH   5   8
HETATM    8  C3  UNL     1     126.023  53.046  15.236  1.00  0.00     0.114 C 
BRANCH   8   9
HETATM    9  C2  UNL     1     125.337  53.300  13.939  1.00  0.00     0.114 C 
BRANCH   9  10
HETATM   10  C1  UNL     1     123.867  53.109  14.072  1.00  0.00     0.236 C 
HETATM   11  O1  UNL     1     123.098  54.064  14.434  1.00  0.00    -0.272 OA
HETATM   12  N4  UNL     1     123.264  51.857  13.802  1.00  0.00    -0.270 N 
ATOM     13  H4  UNL     1     123.847  51.072  13.510  1.00  0.00     0.190 HD
BRANCH  12  14
HETATM   14  N5  UNL     1     121.899  51.677  13.927  1.00  0.00    -0.308 N 
HETATM   15  C23 UNL     1     121.075  51.567  12.990  1.00  0.00     0.119 C 
ATOM     16  H5  UNL     1     121.526  51.630  14.875  1.00  0.00     0.186 HD
BRANCH  15  17
HETATM   17  C24 UNL     1     119.654  51.380  12.978  1.00  0.00    -0.008 A 
HETATM   18  C25 UNL     1     118.824  52.460  13.371  1.00  0.00     0.014 A 
HETATM   19  C26 UNL     1     117.466  52.369  13.386  1.00  0.00     0.002 A 
HETATM   20  C27 UNL     1     116.841  51.212  13.015  1.00  0.00     0.012 A 
HETATM   21  C28 UNL     1     117.593  50.129  12.622  1.00  0.00    -0.025 A 
HETATM   22  C29 UNL     1     116.944  48.951  12.244  1.00  0.00     0.012 A 
HETATM   23  C33 UNL     1     118.993  50.219  12.606  1.00  0.00    -0.014 A 
HETATM   24  C30 UNL     1     117.702  47.874  11.854  1.00  0.00     0.001 A 
HETATM   25  C31 UNL     1     119.076  47.951  11.834  1.00  0.00     0.001 A 
HETATM   26  C32 UNL     1     119.727  49.125  12.211  1.00  0.00     0.013 A 
ENDBRANCH  15  17
ENDBRANCH  12  14
ENDBRANCH   9  10
ENDBRANCH   8   9
ENDBRANCH   5   8
ENDBRANCH   1   4
BRANCH   3  27
HETATM   27  C6  UNL     1     123.488  56.774  16.867  1.00  0.00     0.175 C 
BRANCH  27  28
HETATM   28  C7  UNL     1     123.149  55.707  17.872  1.00  0.00     0.269 C 
HETATM   29  O3  UNL     1     123.793  55.547  18.940  1.00  0.00    -0.265 OA
BRANCH  28  30
HETATM   30  O4  UNL     1     122.088  54.837  17.657  1.00  0.00    -0.279 OA
BRANCH  30  31
HETATM   31  C8  UNL     1     120.846  55.297  17.181  1.00  0.00     0.079 A 
HETATM   32  C9  UNL     1     120.169  54.683  16.166  1.00  0.00     0.037 A 
HETATM   33  C10 UNL     1     118.944  55.231  15.780  1.00  0.00     0.003 A 
HETATM   34  C11 UNL     1     118.415  56.341  16.380  1.00  0.00     0.000 A 
HETATM   35  C12 UNL     1     119.104  56.944  17.394  1.00  0.00     0.003 A 
HETATM   36  C13 UNL     1     120.313  56.418  17.786  1.00  0.00     0.037 A 
ENDBRANCH  30  31
ENDBRANCH  28  30
ENDBRANCH  27  28
ENDBRANCH   3  27
BRANCH   3  37
HETATM   37  C14 UNL     1     125.167  58.399  17.881  1.00  0.00     0.266 C 
HETATM   38  O5  UNL     1     126.369  58.639  18.230  1.00  0.00    -0.266 OA
HETATM   39  N3  UNL     1     124.168  59.284  18.347  1.00  0.00    -0.349 N 
ATOM     40  H3  UNL     1     123.198  59.113  18.082  1.00  0.00     0.163 HD
BRANCH  39  41
HETATM   41  C15 UNL     1     124.469  60.413  19.180  1.00  0.00     0.206 C 
BRANCH  41  42
HETATM   42  C16 UNL     1     123.293  61.130  19.697  1.00  0.00     0.177 C 
HETATM   43  O6  UNL     1     123.379  62.323  20.019  1.00  0.00    -0.291 OA
BRANCH  42  44
HETATM   44  C17 UNL     1     121.987  60.476  19.851  1.00  0.00     0.011 A 
HETATM   45  C18 UNL     1     121.794  59.541  20.852  1.00  0.00     0.015 A 
HETATM   46  C19 UNL     1     120.558  58.922  21.001  1.00  0.00     0.001 A 
HETATM   47  C20 UNL     1     119.534  59.257  20.137  1.00  0.00     0.000 A 
HETATM   48  C21 UNL     1     119.697  60.183  19.134  1.00  0.00     0.001 A 
HETATM   49  C22 UNL     1     120.937  60.771  19.021  1.00  0.00     0.015 A 
ENDBRANCH  42  44
ENDBRANCH  41  42
ENDBRANCH  39  41
ENDBRANCH   3  37
TORSDOF 14
ENDMDL
MODEL 5
REMARK VINA RESULT: -10.321651114      1.190      2.240
REMARK  14 active torsions:
REMARK  status: ('A' for Active; 'I' for Inactive)
REMARK    1  A    between atoms: C1_2  and  C2_3 
REMARK       I    between atoms: C1_2  and  N4_35 
REMARK    2  A    between atoms: C2_3  and  C3_4 
REMARK    3  A    between atoms: C3_4  and  C4_5 
REMARK       I    between atoms: C4_5  and  N1_7 
REMARK    4  A    between atoms: N1_7  and  N2_9 
REMARK    5  A    between atoms: C5_11  and  C6_12 
REMARK    6  A    between atoms: C5_11  and  C14_22 
REMARK    7  A    between atoms: C6_12  and  C7_13 
REMARK    8  A    between atoms: C7_13  and  O4_15 
REMARK    9  A    between atoms: O4_15  and  C8_16 
REMARK       I    between atoms: C14_22  and  N3_24 
REMARK   10  A    between atoms: N3_24  and  C15_26 
REMARK   11  A    between atoms: C15_26  and  C16_27 
REMARK   12  A    between atoms: C16_27  and  C17_29 
REMARK   13  A    between atoms: N4_35  and  N5_37 
REMARK   14  A    between atoms: C23_39  and  C24_40 
ROOT
HETATM    1  N2  UNL     1     125.881  56.859  16.594  1.00  0.00    -0.296 N 
ATOM      2  H2  UNL     1     126.786  57.210  16.909  1.00  0.00     0.187 HD
HETATM    3  C5  UNL     1     124.870  57.467  17.058  1.00  0.00     0.102 C 
ENDROOT
BRANCH   1   4
HETATM    4  N1  UNL     1     125.933  55.791  15.725  1.00  0.00    -0.270 N 
HETATM    5  C4  UNL     1     125.734  54.442  16.134  1.00  0.00     0.236 C 
HETATM    6  O2  UNL     1     125.505  54.269  17.369  1.00  0.00    -0.272 OA
ATOM      7  H1  UNL     1     126.122  55.977  14.740  1.00  0.00     0.190 HD
BRANCH   5   8
HETATM    8  C3  UNL     1     125.789  53.302  15.188  1.00  0.00     0.114 C 
BRANCH   8   9
HETATM    9  C2  UNL     1     125.476  53.692  13.786  1.00  0.00     0.114 C 
BRANCH   9  10
HETATM   10  C1  UNL     1     124.456  52.782  13.199  1.00  0.00     0.236 C 
HETATM   11  O1  UNL     1     124.782  51.837  12.401  1.00  0.00    -0.272 OA
HETATM   12  N4  UNL     1     123.081  52.929  13.504  1.00  0.00    -0.270 N 
ATOM     13  H4  UNL     1     122.785  53.671  14.137  1.00  0.00     0.190 HD
BRANCH  12  14
HETATM   14  N5  UNL     1     122.132  52.085  12.957  1.00  0.00    -0.308 N 
HETATM   15  C23 UNL     1     121.595  51.105  13.524  1.00  0.00     0.119 C 
ATOM     16  H5  UNL     1     121.840  52.279  12.000  1.00  0.00     0.186 HD
BRANCH  15  17
HETATM   17  C24 UNL     1     120.612  50.160  13.081  1.00  0.00    -0.008 A 
HETATM   18  C25 UNL     1     121.037  48.857  12.720  1.00  0.00     0.014 A 
HETATM   19  C26 UNL     1     120.169  47.899  12.293  1.00  0.00     0.002 A 
HETATM   20  C27 UNL     1     118.833  48.162  12.194  1.00  0.00     0.012 A 
HETATM   21  C28 UNL     1     118.360  49.410  12.531  1.00  0.00    -0.025 A 
HETATM   22  C29 UNL     1     116.991  49.669  12.428  1.00  0.00     0.012 A 
HETATM   23  C33 UNL     1     119.250  50.400  12.971  1.00  0.00    -0.014 A 
HETATM   24  C30 UNL     1     116.526  50.916  12.765  1.00  0.00     0.001 A 
HETATM   25  C31 UNL     1     117.391  51.896  13.199  1.00  0.00     0.001 A 
HETATM   26  C32 UNL     1     118.757  51.640  13.303  1.00  0.00     0.013 A 
ENDBRANCH  15  17
ENDBRANCH  12  14
ENDBRANCH   9  10
ENDBRANCH   8   9
ENDBRANCH   5   8
ENDBRANCH   1   4
BRANCH   3  27
HETATM   27  C6  UNL     1     123.504  57.069  16.692  1.00  0.00     0.175 C 
BRANCH  27  28
HETATM   28  C7  UNL     1     122.887  56.188  17.743  1.00  0.00     0.269 C 
HETATM   29  O3  UNL     1     123.041  56.385  18.975  1.00  0.00    -0.265 OA
BRANCH  28  30
HETATM   30  O4  UNL     1     122.102  55.098  17.389  1.00  0.00    -0.279 OA
BRANCH  30  31
HETATM   31  C8  UNL     1     120.797  55.264  16.890  1.00  0.00     0.079 A 
HETATM   32  C9  UNL     1     120.004  56.323  17.229  1.00  0.00     0.037 A 
HETATM   33  C10 UNL     1     118.726  56.382  16.669  1.00  0.00     0.003 A 
HETATM   34  C11 UNL     1     118.258  55.427  15.807  1.00  0.00     0.000 A 
HETATM   35  C12 UNL     1     119.063  54.373  15.478  1.00  0.00     0.003 A 
HETATM   36  C13 UNL     1     120.324  54.300  16.021  1.00  0.00     0.037 A 
ENDBRANCH  30  31
ENDBRANCH  28  30
ENDBRANCH  27  28
ENDBRANCH   3  27
BRANCH   3  37
HETATM   37  C14 UNL     1     125.106  58.560  17.997  1.00  0.00     0.266 C 
HETATM   38  O5  UNL     1     126.268  58.742  18.485  1.00  0.00    -0.266 OA
HETATM   39  N3  UNL     1     124.085  59.451  18.402  1.00  0.00    -0.349 N 
ATOM     40  H3  UNL     1     123.146  59.326  18.025  1.00  0.00     0.163 HD
BRANCH  39  41
HETATM   41  C15 UNL     1     124.324  60.524  19.323  1.00  0.00     0.206 C 
BRANCH  41  42
HETATM   42  C16 UNL     1     123.111  61.116  19.909  1.00  0.00     0.177 C 
HETATM   43  O6  UNL     1     123.156  62.230  20.448  1.00  0.00    -0.291 OA
BRANCH  42  44
HETATM   44  C17 UNL     1     121.815  60.426  19.880  1.00  0.00     0.011 A 
HETATM   45  C18 UNL     1     120.835  60.830  18.991  1.00  0.00     0.015 A 
HETATM   46  C19 UNL     1     119.608  60.177  18.961  1.00  0.00     0.001 A 
HETATM   47  C20 UNL     1     119.388  59.126  19.829  1.00  0.00     0.000 A 
HETATM   48  C21 UNL     1     120.343  58.705  20.723  1.00  0.00     0.001 A 
HETATM   49  C22 UNL     1     121.544  59.378  20.720  1.00  0.00     0.015 A 
ENDBRANCH  42  44
ENDBRANCH  41  42
ENDBRANCH  39  41
ENDBRANCH   3  37
TORSDOF 14
ENDMDL
