MODEL 1
REMARK VINA RESULT: -9.604992801      0.000      0.000
REMARK  13 active torsions:
REMARK  status: ('A' for Active; 'I' for Inactive)
REMARK    1  A    between atoms: C1_2  and  C2_4 
REMARK    2  A    between atoms: C2_4  and  C3_5 
REMARK    3  A    between atoms: C3_5  and  C4_6 
REMARK    4  A    between atoms: C3_5  and  C21_40 
REMARK    5  A    between atoms: C4_6  and  C5_7 
REMARK    6  A    between atoms: C5_7  and  C6_8 
REMARK       I    between atoms: C6_8  and  N1_10 
REMARK    7  A    between atoms: C8_17  and  C9_18 
REMARK    8  A    between atoms: C9_18  and  C10_19 
REMARK    9  A    between atoms: C10_19  and  C11_20 
REMARK   10  A    between atoms: C11_20  and  C12_21 
REMARK   11  A    between atoms: C12_21  and  C13_22 
REMARK       I    between atoms: N6_28  and  C15_30 
REMARK   12  A    between atoms: C15_30  and  C16_32 
REMARK   13  A    between atoms: C16_32  and  C17_33 
ROOT
HETATM    1  C6  UNL     1     119.051  53.611  15.359  1.00  0.00     0.223 C 
HETATM    2  O3  UNL     1     117.931  54.258  15.331  1.00  0.00    -0.273 OA
HETATM    3  N1  UNL     1     120.242  54.228  15.106  1.00  0.00    -0.306 N 
ATOM      4  H1  UNL     1     120.124  55.221  14.904  1.00  0.00     0.171 HD
HETATM    5  C7  UNL     1     121.468  53.869  15.060  1.00  0.00     0.167 A 
HETATM    6  N2  UNL     1     122.101  52.712  15.245  1.00  0.00    -0.279 N 
ATOM      7  H2  UNL     1     121.571  51.869  15.464  1.00  0.00     0.189 HD
HETATM    8  N3  UNL     1     123.363  52.662  15.149  1.00  0.00    -0.296 N 
ATOM      9  H3  UNL     1     123.845  51.775  15.290  1.00  0.00     0.187 HD
HETATM   10  C8  UNL     1     124.063  53.748  14.867  1.00  0.00     0.069 A 
HETATM   11  S3  UNL     1     122.835  54.915  14.728  1.00  0.00    -0.038 SA
ENDROOT
BRANCH  10  12
HETATM   12  C9  UNL     1     125.571  53.856  14.732  1.00  0.00     0.066 C 
BRANCH  12  13
HETATM   13  C10 UNL     1     126.145  53.774  16.107  1.00  0.00     0.007 C 
BRANCH  13  14
HETATM   14  C11 UNL     1     125.613  54.807  17.039  1.00  0.00     0.007 C 
BRANCH  14  15
HETATM   15  C12 UNL     1     126.031  56.220  16.613  1.00  0.00     0.066 C 
BRANCH  15  16
HETATM   16  C13 UNL     1     125.029  57.139  17.269  1.00  0.00     0.069 A 
HETATM   17  N4  UNL     1     124.717  58.397  17.048  1.00  0.00    -0.296 N 
HETATM   18  N5  UNL     1     123.823  58.977  17.737  1.00  0.00    -0.279 N 
ATOM     19  H4  UNL     1     125.201  58.915  16.314  1.00  0.00     0.187 HD
HETATM   20  C14 UNL     1     123.199  58.289  18.696  1.00  0.00     0.167 A 
ATOM     21  H5  UNL     1     123.584  59.952  17.561  1.00  0.00     0.189 HD
HETATM   22  N6  UNL     1     122.256  58.691  19.514  1.00  0.00    -0.306 N 
HETATM   23  S2  UNL     1     123.951  56.757  18.572  1.00  0.00    -0.038 SA
HETATM   24  C15 UNL     1     121.739  60.004  19.484  1.00  0.00     0.228 C 
ATOM     25  H6  UNL     1     121.883  58.031  20.197  1.00  0.00     0.171 HD
HETATM   26  O4  UNL     1     122.170  60.880  20.291  1.00  0.00    -0.273 OA
BRANCH  24  27
HETATM   27  C16 UNL     1     120.680  60.305  18.475  1.00  0.00     0.149 C 
BRANCH  27  28
HETATM   28  C17 UNL     1     119.797  59.096  18.270  1.00  0.00    -0.009 A 
HETATM   29  C18 UNL     1     118.731  58.718  19.046  1.00  0.00     0.015 A 
HETATM   30  C19 UNL     1     118.076  57.605  18.687  1.00  0.00     0.008 A 
HETATM   31  C20 UNL     1     118.522  56.941  17.577  1.00  0.00     0.050 A 
HETATM   32  S1  UNL     1     119.846  57.892  17.070  1.00  0.00    -0.106 SA
ENDBRANCH  27  28
ENDBRANCH  24  27
ENDBRANCH  15  16
ENDBRANCH  14  15
ENDBRANCH  13  14
ENDBRANCH  12  13
ENDBRANCH  10  12
BRANCH   1  33
HETATM   33  C5  UNL     1     118.943  52.170  15.684  1.00  0.00     0.104 C 
BRANCH  33  34
HETATM   34  C4  UNL     1     118.387  51.409  14.473  1.00  0.00     0.019 C 
BRANCH  34  35
HETATM   35  C3  UNL     1     119.518  50.721  13.770  1.00  0.00     0.029 C 
BRANCH  35  36
HETATM   36  C2  UNL     1     119.990  51.454  12.572  1.00  0.00     0.122 C 
BRANCH  36  37
HETATM   37  C1  UNL     1     121.427  51.383  12.311  1.00  0.00     0.173 C 
HETATM   38  O1  UNL     1     122.025  51.989  11.407  1.00  0.00    -0.648 OA
HETATM   39  O2  UNL     1     122.228  50.564  13.141  1.00  0.00    -0.648 OA
ENDBRANCH  36  37
ENDBRANCH  35  36
BRANCH  35  40
HETATM   40  C21 UNL     1     119.070  49.340  13.426  1.00  0.00    -0.053 A 
HETATM   41  C22 UNL     1     119.584  48.205  14.005  1.00  0.00     0.007 A 
HETATM   42  C23 UNL     1     119.153  46.938  13.655  1.00  0.00     0.001 A 
HETATM   43  C24 UNL     1     118.185  46.770  12.702  1.00  0.00     0.000 A 
HETATM   44  C25 UNL     1     117.641  47.892  12.093  1.00  0.00     0.001 A 
HETATM   45  C26 UNL     1     118.083  49.135  12.457  1.00  0.00     0.007 A 
ENDBRANCH  35  40
ENDBRANCH  34  35
ENDBRANCH  33  34
ENDBRANCH   1  33
TORSDOF 13
ENDMDL
MODEL 2
REMARK VINA RESULT: -9.553334282      3.507      7.041
REMARK  13 active torsions:
REMARK  status: ('A' for Active; 'I' for Inactive)
REMARK    1  A    between atoms: C1_2  and  C2_4 
REMARK    2  A    between atoms: C2_4  and  C3_5 
REMARK    3  A    between atoms: C3_5  and  C4_6 
REMARK    4  A    between atoms: C3_5  and  C21_40 
REMARK    5  A    between atoms: C4_6  and  C5_7 
REMARK    6  A    between atoms: C5_7  and  C6_8 
REMARK       I    between atoms: C6_8  and  N1_10 
REMARK    7  A    between atoms: C8_17  and  C9_18 
REMARK    8  A    between atoms: C9_18  and  C10_19 
REMARK    9  A    between atoms: C10_19  and  C11_20 
REMARK   10  A    between atoms: C11_20  and  C12_21 
REMARK   11  A    between atoms: C12_21  and  C13_22 
REMARK       I    between atoms: N6_28  and  C15_30 
REMARK   12  A    between atoms: C15_30  and  C16_32 
REMARK   13  A    between atoms: C16_32  and  C17_33 
ROOT
HETATM    1  C6  UNL     1     118.663  58.556  19.161  1.00  0.00     0.223 C 
HETATM    2  O3  UNL     1     117.599  58.046  19.691  1.00  0.00    -0.273 OA
HETATM    3  N1  UNL     1     119.539  59.306  19.891  1.00  0.00    -0.306 N 
ATOM      4  H1  UNL     1     119.246  59.399  20.864  1.00  0.00     0.171 HD
HETATM    5  C7  UNL     1     120.635  59.920  19.658  1.00  0.00     0.167 A 
HETATM    6  N2  UNL     1     121.392  60.084  18.574  1.00  0.00    -0.279 N 
ATOM      7  H2  UNL     1     121.106  59.674  17.685  1.00  0.00     0.189 HD
HETATM    8  N3  UNL     1     122.466  60.749  18.651  1.00  0.00    -0.296 N 
ATOM      9  H3  UNL     1     123.043  60.874  17.818  1.00  0.00     0.187 HD
HETATM   10  C8  UNL     1     122.850  61.284  19.797  1.00  0.00     0.069 A 
HETATM   11  S3  UNL     1     121.589  60.807  20.832  1.00  0.00    -0.038 SA
ENDROOT
BRANCH  10  12
HETATM   12  C9  UNL     1     124.109  62.092  20.055  1.00  0.00     0.066 C 
BRANCH  12  13
HETATM   13  C10 UNL     1     124.826  61.441  21.191  1.00  0.00     0.007 C 
BRANCH  13  14
HETATM   14  C11 UNL     1     125.691  60.302  20.777  1.00  0.00     0.007 C 
BRANCH  14  15
HETATM   15  C12 UNL     1     126.250  60.502  19.362  1.00  0.00     0.066 C 
BRANCH  15  16
HETATM   16  C13 UNL     1     126.004  59.191  18.654  1.00  0.00     0.069 A 
HETATM   17  N4  UNL     1     125.021  58.322  18.735  1.00  0.00    -0.296 N 
HETATM   18  N5  UNL     1     125.025  57.267  18.029  1.00  0.00    -0.279 N 
ATOM     19  H4  UNL     1     124.245  58.497  19.373  1.00  0.00     0.187 HD
HETATM   20  C14 UNL     1     126.047  57.050  17.200  1.00  0.00     0.167 A 
ATOM     21  H5  UNL     1     124.260  56.597  18.095  1.00  0.00     0.189 HD
HETATM   22  N6  UNL     1     126.247  56.036  16.390  1.00  0.00    -0.306 N 
HETATM   23  S2  UNL     1     127.017  58.433  17.470  1.00  0.00    -0.038 SA
HETATM   24  C15 UNL     1     125.337  54.963  16.285  1.00  0.00     0.228 C 
ATOM     25  H6  UNL     1     127.091  56.024  15.817  1.00  0.00     0.171 HD
HETATM   26  O4  UNL     1     125.535  53.891  16.929  1.00  0.00    -0.273 OA
BRANCH  24  27
HETATM   27  C16 UNL     1     124.151  55.149  15.396  1.00  0.00     0.149 C 
BRANCH  27  28
HETATM   28  C17 UNL     1     123.923  53.906  14.567  1.00  0.00    -0.009 A 
HETATM   29  C18 UNL     1     122.804  53.113  14.570  1.00  0.00     0.015 A 
HETATM   30  C19 UNL     1     122.804  52.050  13.752  1.00  0.00     0.008 A 
HETATM   31  C20 UNL     1     123.917  51.847  12.983  1.00  0.00     0.050 A 
HETATM   32  S1  UNL     1     124.930  53.146  13.427  1.00  0.00    -0.106 SA
ENDBRANCH  27  28
ENDBRANCH  24  27
ENDBRANCH  15  16
ENDBRANCH  14  15
ENDBRANCH  13  14
ENDBRANCH  12  13
ENDBRANCH  10  12
BRANCH   1  33
HETATM   33  C5  UNL     1     118.857  58.265  17.722  1.00  0.00     0.104 C 
BRANCH  33  34
HETATM   34  C4  UNL     1     118.505  56.798  17.441  1.00  0.00     0.019 C 
BRANCH  34  35
HETATM   35  C3  UNL     1     119.753  56.064  17.055  1.00  0.00     0.029 C 
BRANCH  35  36
HETATM   36  C2  UNL     1     120.718  56.908  16.312  1.00  0.00     0.122 C 
BRANCH  36  37
HETATM   37  C1  UNL     1     121.883  57.359  17.073  1.00  0.00     0.173 C 
HETATM   38  O1  UNL     1     122.186  56.982  18.216  1.00  0.00    -0.648 OA
HETATM   39  O2  UNL     1     122.756  58.302  16.481  1.00  0.00    -0.648 OA
ENDBRANCH  36  37
ENDBRANCH  35  36
BRANCH  35  40
HETATM   40  C21 UNL     1     119.352  54.865  16.262  1.00  0.00    -0.053 A 
HETATM   41  C22 UNL     1     118.492  54.911  15.191  1.00  0.00     0.007 A 
HETATM   42  C23 UNL     1     118.134  53.777  14.484  1.00  0.00     0.001 A 
HETATM   43  C24 UNL     1     118.631  52.551  14.835  1.00  0.00     0.000 A 
HETATM   44  C25 UNL     1     119.502  52.463  15.912  1.00  0.00     0.001 A 
HETATM   45  C26 UNL     1     119.842  53.599  16.595  1.00  0.00     0.007 A 
ENDBRANCH  35  40
ENDBRANCH  34  35
ENDBRANCH  33  34
ENDBRANCH   1  33
TORSDOF 13
ENDMDL
MODEL 3
REMARK VINA RESULT: -9.497195614      3.071      8.119
REMARK  13 active torsions:
REMARK  status: ('A' for Active; 'I' for Inactive)
REMARK    1  A    between atoms: C1_2  and  C2_4 
REMARK    2  A    between atoms: C2_4  and  C3_5 
REMARK    3  A    between atoms: C3_5  and  C4_6 
REMARK    4  A    between atoms: C3_5  and  C21_40 
REMARK    5  A    between atoms: C4_6  and  C5_7 
REMARK    6  A    between atoms: C5_7  and  C6_8 
REMARK       I    between atoms: C6_8  and  N1_10 
REMARK    7  A    between atoms: C8_17  and  C9_18 
REMARK    8  A    between atoms: C9_18  and  C10_19 
REMARK    9  A    between atoms: C10_19  and  C11_20 
REMARK   10  A    between atoms: C11_20  and  C12_21 
REMARK   11  A    between atoms: C12_21  and  C13_22 
REMARK       I    between atoms: N6_28  and  C15_30 
REMARK   12  A    between atoms: C15_30  and  C16_32 
REMARK   13  A    between atoms: C16_32  and  C17_33 
ROOT
HETATM    1  C6  UNL     1     126.355  54.190  15.854  1.00  0.00     0.223 C 
HETATM    2  O3  UNL     1     127.501  54.274  16.449  1.00  0.00    -0.273 OA
HETATM    3  N1  UNL     1     125.871  52.998  15.398  1.00  0.00    -0.306 N 
ATOM      4  H1  UNL     1     126.511  52.227  15.585  1.00  0.00     0.171 HD
HETATM    5  C7  UNL     1     124.814  52.611  14.793  1.00  0.00     0.167 A 
HETATM    6  N2  UNL     1     123.722  53.230  14.348  1.00  0.00    -0.279 N 
ATOM      7  H2  UNL     1     123.625  54.239  14.461  1.00  0.00     0.189 HD
HETATM    8  N3  UNL     1     122.804  52.563  13.786  1.00  0.00    -0.296 N 
ATOM      9  H3  UNL     1     121.970  53.041  13.446  1.00  0.00     0.187 HD
HETATM   10  C8  UNL     1     122.915  51.255  13.635  1.00  0.00     0.069 A 
HETATM   11  S3  UNL     1     124.433  50.960  14.341  1.00  0.00    -0.038 SA
ENDROOT
BRANCH  10  12
HETATM   12  C9  UNL     1     121.904  50.316  13.000  1.00  0.00     0.066 C 
BRANCH  12  13
HETATM   13  C10 UNL     1     120.807  51.161  12.443  1.00  0.00     0.007 C 
BRANCH  13  14
HETATM   14  C11 UNL     1     119.454  50.788  12.941  1.00  0.00     0.007 C 
BRANCH  14  15
HETATM   15  C12 UNL     1     119.441  50.618  14.466  1.00  0.00     0.066 C 
BRANCH  15  16
HETATM   16  C13 UNL     1     119.309  52.018  15.015  1.00  0.00     0.069 A 
HETATM   17  N4  UNL     1     119.734  52.566  16.132  1.00  0.00    -0.296 N 
HETATM   18  N5  UNL     1     119.502  53.787  16.387  1.00  0.00    -0.279 N 
ATOM     19  H4  UNL     1     120.258  52.002  16.802  1.00  0.00     0.187 HD
HETATM   20  C14 UNL     1     118.815  54.512  15.503  1.00  0.00     0.167 A 
ATOM     21  H5  UNL     1     119.836  54.207  17.255  1.00  0.00     0.189 HD
HETATM   22  N6  UNL     1     118.470  55.777  15.569  1.00  0.00    -0.306 N 
HETATM   23  S2  UNL     1     118.510  53.365  14.272  1.00  0.00    -0.038 SA
HETATM   24  C15 UNL     1     118.806  56.595  16.669  1.00  0.00     0.228 C 
ATOM     25  H6  UNL     1     117.939  56.183  14.798  1.00  0.00     0.171 HD
HETATM   26  O4  UNL     1     117.967  56.796  17.596  1.00  0.00    -0.273 OA
BRANCH  24  27
HETATM   27  C16 UNL     1     120.171  57.200  16.687  1.00  0.00     0.149 C 
BRANCH  27  28
HETATM   28  C17 UNL     1     120.253  58.270  17.751  1.00  0.00    -0.009 A 
HETATM   29  C18 UNL     1     120.176  59.626  17.558  1.00  0.00     0.015 A 
HETATM   30  C19 UNL     1     120.270  60.405  18.645  1.00  0.00     0.008 A 
HETATM   31  C20 UNL     1     120.434  59.786  19.853  1.00  0.00     0.050 A 
HETATM   32  S1  UNL     1     120.452  58.131  19.434  1.00  0.00    -0.106 SA
ENDBRANCH  27  28
ENDBRANCH  24  27
ENDBRANCH  15  16
ENDBRANCH  14  15
ENDBRANCH  13  14
ENDBRANCH  12  13
ENDBRANCH  10  12
BRANCH   1  33
HETATM   33  C5  UNL     1     125.619  55.467  15.712  1.00  0.00     0.104 C 
BRANCH  33  34
HETATM   34  C4  UNL     1     126.063  56.443  16.810  1.00  0.00     0.019 C 
BRANCH  34  35
HETATM   35  C3  UNL     1     124.955  56.588  17.808  1.00  0.00     0.029 C 
BRANCH  35  36
HETATM   36  C2  UNL     1     123.618  56.303  17.238  1.00  0.00     0.122 C 
BRANCH  36  37
HETATM   37  C1  UNL     1     122.963  55.091  17.731  1.00  0.00     0.173 C 
HETATM   38  O1  UNL     1     122.398  54.241  17.026  1.00  0.00    -0.648 OA
HETATM   39  O2  UNL     1     122.959  54.842  19.124  1.00  0.00    -0.648 OA
ENDBRANCH  36  37
ENDBRANCH  35  36
BRANCH  35  40
HETATM   40  C21 UNL     1     125.026  57.968  18.373  1.00  0.00    -0.053 A 
HETATM   41  C22 UNL     1     123.922  58.703  18.731  1.00  0.00     0.007 A 
HETATM   42  C23 UNL     1     124.023  59.984  19.243  1.00  0.00     0.001 A 
HETATM   43  C24 UNL     1     125.247  60.572  19.411  1.00  0.00     0.000 A 
HETATM   44  C25 UNL     1     126.387  59.863  19.060  1.00  0.00     0.001 A 
HETATM   45  C26 UNL     1     126.261  58.597  18.556  1.00  0.00     0.007 A 
ENDBRANCH  35  40
ENDBRANCH  34  35
ENDBRANCH  33  34
ENDBRANCH   1  33
TORSDOF 13
ENDMDL
MODEL 4
REMARK VINA RESULT: -9.400271079      2.985      5.935
REMARK  13 active torsions:
REMARK  status: ('A' for Active; 'I' for Inactive)
REMARK    1  A    between atoms: C1_2  and  C2_4 
REMARK    2  A    between atoms: C2_4  and  C3_5 
REMARK    3  A    between atoms: C3_5  and  C4_6 
REMARK    4  A    between atoms: C3_5  and  C21_40 
REMARK    5  A    between atoms: C4_6  and  C5_7 
REMARK    6  A    between atoms: C5_7  and  C6_8 
REMARK       I    between atoms: C6_8  and  N1_10 
REMARK    7  A    between atoms: C8_17  and  C9_18 
REMARK    8  A    between atoms: C9_18  and  C10_19 
REMARK    9  A    between atoms: C10_19  and  C11_20 
REMARK   10  A    between atoms: C11_20  and  C12_21 
REMARK   11  A    between atoms: C12_21  and  C13_22 
REMARK       I    between atoms: N6_28  and  C15_30 
REMARK   12  A    between atoms: C15_30  and  C16_32 
REMARK   13  A    between atoms: C16_32  and  C17_33 
ROOT
HETATM    1  C6  UNL     1     118.637  53.773  14.533  1.00  0.00     0.223 C 
HETATM    2  O3  UNL     1     117.475  54.082  14.057  1.00  0.00    -0.273 OA
HETATM    3  N1  UNL     1     119.500  52.965  13.851  1.00  0.00    -0.306 N 
ATOM      4  H1  UNL     1     119.114  52.659  12.957  1.00  0.00     0.171 HD
HETATM    5  C7  UNL     1     120.671  52.497  14.054  1.00  0.00     0.167 A 
HETATM    6  N2  UNL     1     121.554  52.610  15.045  1.00  0.00    -0.279 N 
ATOM      7  H2  UNL     1     121.327  53.163  15.871  1.00  0.00     0.189 HD
HETATM    8  N3  UNL     1     122.676  52.030  14.958  1.00  0.00    -0.296 N 
ATOM      9  H3  UNL     1     123.349  52.117  15.719  1.00  0.00     0.187 HD
HETATM   10  C8  UNL     1     122.985  51.311  13.892  1.00  0.00     0.069 A 
HETATM   11  S3  UNL     1     121.577  51.475  12.954  1.00  0.00    -0.038 SA
ENDROOT
BRANCH  10  12
HETATM   12  C9  UNL     1     124.285  50.570  13.631  1.00  0.00     0.066 C 
BRANCH  12  13
HETATM   13  C10 UNL     1     125.370  51.592  13.569  1.00  0.00     0.007 C 
BRANCH  13  14
HETATM   14  C11 UNL     1     125.372  52.533  14.723  1.00  0.00     0.007 C 
BRANCH  14  15
HETATM   15  C12 UNL     1     125.937  53.905  14.332  1.00  0.00     0.066 C 
BRANCH  15  16
HETATM   16  C13 UNL     1     125.573  54.819  15.477  1.00  0.00     0.069 A 
HETATM   17  N4  UNL     1     125.719  56.115  15.645  1.00  0.00    -0.296 N 
HETATM   18  N5  UNL     1     125.330  56.680  16.712  1.00  0.00    -0.279 N 
ATOM     19  H4  UNL     1     126.149  56.673  14.908  1.00  0.00     0.187 HD
HETATM   20  C14 UNL     1     124.770  55.938  17.669  1.00  0.00     0.167 A 
ATOM     21  H5  UNL     1     125.444  57.686  16.836  1.00  0.00     0.189 HD
HETATM   22  N6  UNL     1     124.304  56.318  18.836  1.00  0.00    -0.306 N 
HETATM   23  S2  UNL     1     124.818  54.376  16.974  1.00  0.00    -0.038 SA
HETATM   24  C15 UNL     1     124.339  57.662  19.262  1.00  0.00     0.228 C 
ATOM     25  H6  UNL     1     123.902  55.615  19.457  1.00  0.00     0.171 HD
HETATM   26  O4  UNL     1     125.269  58.069  20.020  1.00  0.00    -0.273 OA
BRANCH  24  27
HETATM   27  C16 UNL     1     123.249  58.566  18.787  1.00  0.00     0.149 C 
BRANCH  27  28
HETATM   28  C17 UNL     1     122.760  59.435  19.922  1.00  0.00    -0.009 A 
HETATM   29  C18 UNL     1     121.871  59.079  20.903  1.00  0.00     0.015 A 
HETATM   30  C19 UNL     1     121.570  60.007  21.824  1.00  0.00     0.008 A 
HETATM   31  C20 UNL     1     122.176  61.228  21.709  1.00  0.00     0.050 A 
HETATM   32  S1  UNL     1     123.146  61.044  20.317  1.00  0.00    -0.106 SA
ENDBRANCH  27  28
ENDBRANCH  24  27
ENDBRANCH  15  16
ENDBRANCH  14  15
ENDBRANCH  13  14
ENDBRANCH  12  13
ENDBRANCH  10  12
BRANCH   1  33
HETATM   33  C5  UNL     1     118.955  54.356  15.857  1.00  0.00     0.104 C 
BRANCH  33  34
HETATM   34  C4  UNL     1     118.493  55.818  15.900  1.00  0.00     0.019 C 
BRANCH  34  35
HETATM   35  C3  UNL     1     119.693  56.702  16.062  1.00  0.00     0.029 C 
BRANCH  35  36
HETATM   36  C2  UNL     1     120.945  55.945  16.298  1.00  0.00     0.122 C 
BRANCH  36  37
HETATM   37  C1  UNL     1     122.009  56.158  15.317  1.00  0.00     0.173 C 
HETATM   38  O1  UNL     1     122.352  55.349  14.441  1.00  0.00    -0.648 OA
HETATM   39  O2  UNL     1     122.724  57.379  15.346  1.00  0.00    -0.648 OA
ENDBRANCH  36  37
ENDBRANCH  35  36
BRANCH  35  40
HETATM   40  C21 UNL     1     119.412  57.656  17.175  1.00  0.00    -0.053 A 
HETATM   41  C22 UNL     1     118.655  57.340  18.278  1.00  0.00     0.007 A 
HETATM   42  C23 UNL     1     118.406  58.252  19.287  1.00  0.00     0.001 A 
HETATM   43  C24 UNL     1     118.912  59.522  19.219  1.00  0.00     0.000 A 
HETATM   44  C25 UNL     1     119.681  59.880  18.121  1.00  0.00     0.001 A 
HETATM   45  C26 UNL     1     119.914  58.960  17.136  1.00  0.00     0.007 A 
ENDBRANCH  35  40
ENDBRANCH  34  35
ENDBRANCH  33  34
ENDBRANCH   1  33
TORSDOF 13
ENDMDL
MODEL 5
REMARK VINA RESULT: -9.327830660      3.022      6.886
REMARK  13 active torsions:
REMARK  status: ('A' for Active; 'I' for Inactive)
REMARK    1  A    between atoms: C1_2  and  C2_4 
REMARK    2  A    between atoms: C2_4  and  C3_5 
REMARK    3  A    between atoms: C3_5  and  C4_6 
REMARK    4  A    between atoms: C3_5  and  C21_40 
REMARK    5  A    between atoms: C4_6  and  C5_7 
REMARK    6  A    between atoms: C5_7  and  C6_8 
REMARK       I    between atoms: C6_8  and  N1_10 
REMARK    7  A    between atoms: C8_17  and  C9_18 
REMARK    8  A    between atoms: C9_18  and  C10_19 
REMARK    9  A    between atoms: C10_19  and  C11_20 
REMARK   10  A    between atoms: C11_20  and  C12_21 
REMARK   11  A    between atoms: C12_21  and  C13_22 
REMARK       I    between atoms: N6_28  and  C15_30 
REMARK   12  A    between atoms: C15_30  and  C16_32 
REMARK   13  A    between atoms: C16_32  and  C17_33 
ROOT
HETATM    1  C6  UNL     1     118.905  57.892  18.761  1.00  0.00     0.223 C 
HETATM    2  O3  UNL     1     117.802  57.323  19.126  1.00  0.00    -0.273 OA
HETATM    3  N1  UNL     1     119.710  58.536  19.655  1.00  0.00    -0.306 N 
ATOM      4  H1  UNL     1     119.333  58.503  20.603  1.00  0.00     0.171 HD
HETATM    5  C7  UNL     1     120.817  59.171  19.599  1.00  0.00     0.167 A 
HETATM    6  N2  UNL     1     121.663  59.471  18.615  1.00  0.00    -0.279 N 
ATOM      7  H2  UNL     1     121.458  59.182  17.659  1.00  0.00     0.189 HD
HETATM    8  N3  UNL     1     122.723  60.116  18.870  1.00  0.00    -0.296 N 
ATOM      9  H3  UNL     1     123.368  60.346  18.114  1.00  0.00     0.187 HD
HETATM   10  C8  UNL     1     123.002  60.495  20.105  1.00  0.00     0.069 A 
HETATM   11  S3  UNL     1     121.661  59.892  20.956  1.00  0.00    -0.038 SA
ENDROOT
BRANCH  10  12
HETATM   12  C9  UNL     1     124.230  61.257  20.574  1.00  0.00     0.066 C 
BRANCH  12  13
HETATM   13  C10 UNL     1     125.325  60.971  19.602  1.00  0.00     0.007 C 
BRANCH  13  14
HETATM   14  C11 UNL     1     125.877  59.593  19.711  1.00  0.00     0.007 C 
BRANCH  14  15
HETATM   15  C12 UNL     1     127.041  59.372  18.737  1.00  0.00     0.066 C 
BRANCH  15  16
HETATM   16  C13 UNL     1     126.570  58.281  17.805  1.00  0.00     0.069 A 
HETATM   17  N4  UNL     1     127.228  57.410  17.072  1.00  0.00    -0.296 N 
HETATM   18  N5  UNL     1     126.609  56.568  16.351  1.00  0.00    -0.279 N 
ATOM     19  H4  UNL     1     128.248  57.410  17.082  1.00  0.00     0.187 HD
HETATM   20  C14 UNL     1     125.275  56.578  16.346  1.00  0.00     0.167 A 
ATOM     21  H5  UNL     1     127.124  55.894  15.785  1.00  0.00     0.189 HD
HETATM   22  N6  UNL     1     124.450  55.804  15.681  1.00  0.00    -0.306 N 
HETATM   23  S2  UNL     1     124.932  57.857  17.429  1.00  0.00    -0.038 SA
HETATM   24  C15 UNL     1     124.902  54.783  14.819  1.00  0.00     0.228 C 
ATOM     25  H6  UNL     1     123.446  55.947  15.791  1.00  0.00     0.171 HD
HETATM   26  O4  UNL     1     124.982  54.987  13.571  1.00  0.00    -0.273 OA
BRANCH  24  27
HETATM   27  C16 UNL     1     125.275  53.474  15.436  1.00  0.00     0.149 C 
BRANCH  27  28
HETATM   28  C17 UNL     1     124.545  52.346  14.745  1.00  0.00    -0.009 A 
HETATM   29  C18 UNL     1     125.072  51.137  14.369  1.00  0.00     0.015 A 
HETATM   30  C19 UNL     1     124.246  50.270  13.765  1.00  0.00     0.008 A 
HETATM   31  C20 UNL     1     122.949  50.661  13.577  1.00  0.00     0.050 A 
HETATM   32  S1  UNL     1     122.923  52.230  14.248  1.00  0.00    -0.106 SA
ENDBRANCH  27  28
ENDBRANCH  24  27
ENDBRANCH  15  16
ENDBRANCH  14  15
ENDBRANCH  13  14
ENDBRANCH  12  13
ENDBRANCH  10  12
BRANCH   1  33
HETATM   33  C5  UNL     1     119.223  57.791  17.318  1.00  0.00     0.104 C 
BRANCH  33  34
HETATM   34  C4  UNL     1     118.637  56.491  16.751  1.00  0.00     0.019 C 
BRANCH  34  35
HETATM   35  C3  UNL     1     119.618  55.379  16.971  1.00  0.00     0.029 C 
BRANCH  35  36
HETATM   36  C2  UNL     1     121.024  55.793  16.755  1.00  0.00     0.122 C 
BRANCH  36  37
HETATM   37  C1  UNL     1     121.927  55.588  17.888  1.00  0.00     0.173 C 
HETATM   38  O1  UNL     1     121.979  56.299  18.904  1.00  0.00    -0.648 OA
HETATM   39  O2  UNL     1     122.826  54.496  17.849  1.00  0.00    -0.648 OA
ENDBRANCH  36  37
ENDBRANCH  35  36
BRANCH  35  40
HETATM   40  C21 UNL     1     119.236  54.248  16.075  1.00  0.00    -0.053 A 
HETATM   41  C22 UNL     1     118.477  54.398  14.939  1.00  0.00     0.007 A 
HETATM   42  C23 UNL     1     118.132  53.326  14.136  1.00  0.00     0.001 A 
HETATM   43  C24 UNL     1     118.543  52.059  14.451  1.00  0.00     0.000 A 
HETATM   44  C25 UNL     1     119.312  51.866  15.590  1.00  0.00     0.001 A 
HETATM   45  C26 UNL     1     119.640  52.943  16.369  1.00  0.00     0.007 A 
ENDBRANCH  35  40
ENDBRANCH  34  35
ENDBRANCH  33  34
ENDBRANCH   1  33
TORSDOF 13
ENDMDL
