MODEL 1
REMARK VINA RESULT: -9.654431234      0.000      0.000
REMARK  12 active torsions:
REMARK  status: ('A' for Active; 'I' for Inactive)
REMARK    1  A    between atoms: C2_2  and  C3_3 
REMARK    2  A    between atoms: C3_3  and  N1_4 
REMARK    3  A    between atoms: C7_10  and  C8_11 
REMARK    4  A    between atoms: C11_14  and  O1_15 
REMARK    5  A    between atoms: O1_15  and  C12_16 
REMARK    6  A    between atoms: C12_16  and  C13_17 
REMARK       I    between atoms: C13_17  and  N3_19 
REMARK    7  A    between atoms: N3_19  and  C14_21 
REMARK    8  A    between atoms: C17_24  and  O3_25 
REMARK    9  A    between atoms: O3_25  and  C18_26 
REMARK   10  A    between atoms: C18_26  and  C19_27 
REMARK   11  A    between atoms: C23_33  and  C24_34 
REMARK   12  A    between atoms: C24_34  and  N5_35 
REMARK       I    between atoms: N5_35  and  C25_37 
ROOT
HETATM    1  C13 UNL     1     121.988  59.040  18.476  1.00  0.00     0.246 C 
HETATM    2  O2  UNL     1     121.383  59.107  19.544  1.00  0.00    -0.271 OA
HETATM    3  N3  UNL     1     123.246  59.561  18.242  1.00  0.00    -0.325 N 
ATOM      4  H3  UNL     1     123.637  59.430  17.309  1.00  0.00     0.169 HD
ENDROOT
BRANCH   1   5
HETATM    5  C12 UNL     1     121.297  58.326  17.323  1.00  0.00     0.278 C 
BRANCH   5   6
HETATM    6  O1  UNL     1     120.640  57.187  17.781  1.00  0.00    -0.342 OA
BRANCH   6   7
HETATM    7  C11 UNL     1     120.182  56.131  17.049  1.00  0.00     0.069 A 
HETATM    8  C10 UNL     1     120.939  54.956  17.070  1.00  0.00     0.037 A 
HETATM    9  C9  UNL     1     120.588  53.830  16.380  1.00  0.00     0.015 A 
HETATM   10  C8  UNL     1     119.435  53.855  15.628  1.00  0.00    -0.026 A 
HETATM   11  C29 UNL     1     118.666  54.996  15.586  1.00  0.00     0.015 A 
HETATM   12  C28 UNL     1     119.037  56.143  16.298  1.00  0.00     0.037 A 
BRANCH  10  13
HETATM   13  C7  UNL     1     119.027  52.683  14.874  1.00  0.00    -0.024 A 
HETATM   14  C6  UNL     1     119.728  51.495  14.877  1.00  0.00     0.042 A 
HETATM   15  C5  UNL     1     119.323  50.393  14.157  1.00  0.00     0.049 A 
HETATM   16  N2  UNL     1     120.016  49.238  14.169  1.00  0.00    -0.351 N 
HETATM   17  C32 UNL     1     118.178  50.442  13.390  1.00  0.00     0.059 A 
HETATM   18  C4  UNL     1     119.583  48.169  13.442  1.00  0.00     0.186 A 
ATOM     19  H2  UNL     1     120.868  49.162  14.725  1.00  0.00     0.166 HD
HETATM   20  N1  UNL     1     118.469  48.208  12.694  1.00  0.00    -0.306 N 
HETATM   21  C33 UNL     1     117.739  49.340  12.646  1.00  0.00     0.261 A 
HETATM   22  O5  UNL     1     116.691  49.396  11.950  1.00  0.00    -0.267 OA
HETATM   23  C31 UNL     1     117.458  51.617  13.367  1.00  0.00     0.020 A 
HETATM   24  C30 UNL     1     117.872  52.712  14.091  1.00  0.00     0.013 A 
BRANCH  20  25
HETATM   25  C3  UNL     1     118.083  47.019  11.953  1.00  0.00     0.159 C 
BRANCH  25  26
HETATM   26  C2  UNL     1     118.818  46.921  10.663  1.00  0.00    -0.017 C 
HETATM   27  C1  UNL     1     118.193  47.211   9.529  1.00  0.00     0.008 C 
ENDBRANCH  25  26
ENDBRANCH  20  25
ENDBRANCH  10  13
ENDBRANCH   6   7
ENDBRANCH   5   6
ENDBRANCH   1   5
BRANCH   3  28
HETATM   28  C14 UNL     1     124.033  60.256  19.179  1.00  0.00     0.035 A 
HETATM   29  C15 UNL     1     123.725  61.476  19.729  1.00  0.00     0.032 A 
HETATM   30  C16 UNL     1     124.540  62.109  20.676  1.00  0.00     0.039 A 
HETATM   31  C17 UNL     1     125.710  61.512  21.099  1.00  0.00     0.069 A 
HETATM   32  C26 UNL     1     126.029  60.299  20.561  1.00  0.00     0.039 A 
HETATM   33  C27 UNL     1     125.231  59.693  19.643  1.00  0.00     0.032 A 
BRANCH  31  34
HETATM   34  O3  UNL     1     126.455  62.162  22.016  1.00  0.00    -0.347 OA
BRANCH  34  35
HETATM   35  C18 UNL     1     126.089  63.121  22.925  1.00  0.00     0.216 C 
BRANCH  35  36
HETATM   36  C19 UNL     1     126.170  62.760  24.357  1.00  0.00    -0.010 A 
HETATM   37  C20 UNL     1     127.332  62.645  25.083  1.00  0.00     0.012 A 
HETATM   38  C21 UNL     1     127.256  62.347  26.417  1.00  0.00     0.018 A 
HETATM   39  C22 UNL     1     126.027  62.162  27.039  1.00  0.00     0.088 A 
HETATM   40  N4  UNL     1     124.913  62.285  26.289  1.00  0.00    -0.367 N 
HETATM   41  C23 UNL     1     124.940  62.572  24.994  1.00  0.00     0.035 A 
ATOM     42  H4  UNL     1     124.007  62.150  26.738  1.00  0.00     0.165 HD
BRANCH  41  43
HETATM   43  C24 UNL     1     123.702  62.696  24.222  1.00  0.00     0.181 C 
BRANCH  43  44
HETATM   44  N5  UNL     1     123.083  61.402  24.017  1.00  0.00    -0.340 N 
HETATM   45  C25 UNL     1     121.973  61.266  23.164  1.00  0.00     0.329 C 
HETATM   46  N6  UNL     1     121.331  60.023  22.930  1.00  0.00    -0.040 NA
HETATM   47  O4  UNL     1     121.495  62.277  22.556  1.00  0.00    -0.251 OA
ATOM     48  H5  UNL     1     123.456  60.582  24.496  1.00  0.00     0.164 HD
ENDBRANCH  43  44
ENDBRANCH  41  43
ENDBRANCH  35  36
ENDBRANCH  34  35
ENDBRANCH  31  34
ENDBRANCH   3  28
TORSDOF 12
ENDMDL
MODEL 2
REMARK VINA RESULT: -9.514236550      1.950      3.214
REMARK  12 active torsions:
REMARK  status: ('A' for Active; 'I' for Inactive)
REMARK    1  A    between atoms: C2_2  and  C3_3 
REMARK    2  A    between atoms: C3_3  and  N1_4 
REMARK    3  A    between atoms: C7_10  and  C8_11 
REMARK    4  A    between atoms: C11_14  and  O1_15 
REMARK    5  A    between atoms: O1_15  and  C12_16 
REMARK    6  A    between atoms: C12_16  and  C13_17 
REMARK       I    between atoms: C13_17  and  N3_19 
REMARK    7  A    between atoms: N3_19  and  C14_21 
REMARK    8  A    between atoms: C17_24  and  O3_25 
REMARK    9  A    between atoms: O3_25  and  C18_26 
REMARK   10  A    between atoms: C18_26  and  C19_27 
REMARK   11  A    between atoms: C23_33  and  C24_34 
REMARK   12  A    between atoms: C24_34  and  N5_35 
REMARK       I    between atoms: N5_35  and  C25_37 
ROOT
HETATM    1  C13 UNL     1     120.167  58.534  19.771  1.00  0.00     0.246 C 
HETATM    2  O2  UNL     1     121.133  57.849  20.100  1.00  0.00    -0.271 OA
HETATM    3  N3  UNL     1     119.891  59.800  20.251  1.00  0.00    -0.325 N 
ATOM      4  H3  UNL     1     119.057  60.263  19.891  1.00  0.00     0.169 HD
ENDROOT
BRANCH   1   5
HETATM    5  C12 UNL     1     119.201  57.942  18.755  1.00  0.00     0.278 C 
BRANCH   5   6
HETATM    6  O1  UNL     1     119.894  57.475  17.641  1.00  0.00    -0.342 OA
BRANCH   6   7
HETATM    7  C11 UNL     1     119.709  56.303  16.968  1.00  0.00     0.069 A 
HETATM    8  C10 UNL     1     118.561  56.187  16.180  1.00  0.00     0.037 A 
HETATM    9  C9  UNL     1     118.262  55.065  15.459  1.00  0.00     0.015 A 
HETATM   10  C8  UNL     1     119.133  54.001  15.511  1.00  0.00    -0.026 A 
HETATM   11  C29 UNL     1     120.273  54.083  16.278  1.00  0.00     0.015 A 
HETATM   12  C28 UNL     1     120.568  55.238  17.011  1.00  0.00     0.037 A 
BRANCH  10  13
HETATM   13  C7  UNL     1     118.850  52.787  14.766  1.00  0.00    -0.024 A 
HETATM   14  C6  UNL     1     119.529  51.601  14.958  1.00  0.00     0.042 A 
HETATM   15  C5  UNL     1     119.243  50.460  14.242  1.00  0.00     0.049 A 
HETATM   16  N2  UNL     1     119.913  49.308  14.439  1.00  0.00    -0.351 N 
HETATM   17  C32 UNL     1     118.249  50.464  13.287  1.00  0.00     0.059 A 
HETATM   18  C4  UNL     1     119.602  48.199  13.709  1.00  0.00     0.186 A 
ATOM     19  H2  UNL     1     120.656  49.265  15.137  1.00  0.00     0.166 HD
HETATM   20  N1  UNL     1     118.635  48.194  12.779  1.00  0.00    -0.306 N 
HETATM   21  C33 UNL     1     117.934  49.320  12.542  1.00  0.00     0.261 A 
HETATM   22  O5  UNL     1     117.023  49.336  11.673  1.00  0.00    -0.267 OA
HETATM   23  C31 UNL     1     117.554  51.635  13.074  1.00  0.00     0.020 A 
HETATM   24  C30 UNL     1     117.848  52.770  13.795  1.00  0.00     0.013 A 
BRANCH  20  25
HETATM   25  C3  UNL     1     118.371  46.964  12.052  1.00  0.00     0.159 C 
BRANCH  25  26
HETATM   26  C2  UNL     1     118.600  45.768  12.907  1.00  0.00    -0.017 C 
HETATM   27  C1  UNL     1     118.824  44.590  12.340  1.00  0.00     0.008 C 
ENDBRANCH  25  26
ENDBRANCH  20  25
ENDBRANCH  10  13
ENDBRANCH   6   7
ENDBRANCH   5   6
ENDBRANCH   1   5
BRANCH   3  28
HETATM   28  C14 UNL     1     120.661  60.505  21.196  1.00  0.00     0.035 A 
HETATM   29  C15 UNL     1     121.981  60.853  21.047  1.00  0.00     0.032 A 
HETATM   30  C16 UNL     1     122.689  61.575  22.015  1.00  0.00     0.039 A 
HETATM   31  C17 UNL     1     122.069  61.972  23.181  1.00  0.00     0.069 A 
HETATM   32  C26 UNL     1     120.756  61.633  23.343  1.00  0.00     0.039 A 
HETATM   33  C27 UNL     1     120.078  60.932  22.398  1.00  0.00     0.032 A 
BRANCH  31  34
HETATM   34  O3  UNL     1     122.795  62.669  24.078  1.00  0.00    -0.347 OA
BRANCH  34  35
HETATM   35  C18 UNL     1     124.137  62.616  24.351  1.00  0.00     0.216 C 
BRANCH  35  36
HETATM   36  C19 UNL     1     124.941  63.813  24.022  1.00  0.00    -0.010 A 
HETATM   37  C20 UNL     1     124.820  65.043  24.624  1.00  0.00     0.012 A 
HETATM   38  C21 UNL     1     125.665  66.053  24.249  1.00  0.00     0.018 A 
HETATM   39  C22 UNL     1     126.635  65.849  23.276  1.00  0.00     0.088 A 
HETATM   40  N4  UNL     1     126.719  64.627  22.712  1.00  0.00    -0.367 N 
HETATM   41  C23 UNL     1     125.923  63.620  23.044  1.00  0.00     0.035 A 
ATOM     42  H4  UNL     1     127.429  64.469  21.997  1.00  0.00     0.165 HD
BRANCH  41  43
HETATM   43  C24 UNL     1     126.054  62.309  22.405  1.00  0.00     0.181 C 
BRANCH  43  44
HETATM   44  N5  UNL     1     126.728  62.417  21.127  1.00  0.00    -0.340 N 
HETATM   45  C25 UNL     1     126.707  61.349  20.212  1.00  0.00     0.329 C 
HETATM   46  N6  UNL     1     127.351  61.404  18.949  1.00  0.00    -0.040 NA
HETATM   47  O4  UNL     1     126.092  60.270  20.491  1.00  0.00    -0.251 OA
ATOM     48  H5  UNL     1     127.224  63.277  20.888  1.00  0.00     0.164 HD
ENDBRANCH  43  44
ENDBRANCH  41  43
ENDBRANCH  35  36
ENDBRANCH  34  35
ENDBRANCH  31  34
ENDBRANCH   3  28
TORSDOF 12
ENDMDL
MODEL 3
REMARK VINA RESULT: -9.506116275      1.880      3.189
REMARK  12 active torsions:
REMARK  status: ('A' for Active; 'I' for Inactive)
REMARK    1  A    between atoms: C2_2  and  C3_3 
REMARK    2  A    between atoms: C3_3  and  N1_4 
REMARK    3  A    between atoms: C7_10  and  C8_11 
REMARK    4  A    between atoms: C11_14  and  O1_15 
REMARK    5  A    between atoms: O1_15  and  C12_16 
REMARK    6  A    between atoms: C12_16  and  C13_17 
REMARK       I    between atoms: C13_17  and  N3_19 
REMARK    7  A    between atoms: N3_19  and  C14_21 
REMARK    8  A    between atoms: C17_24  and  O3_25 
REMARK    9  A    between atoms: O3_25  and  C18_26 
REMARK   10  A    between atoms: C18_26  and  C19_27 
REMARK   11  A    between atoms: C23_33  and  C24_34 
REMARK   12  A    between atoms: C24_34  and  N5_35 
REMARK       I    between atoms: N5_35  and  C25_37 
ROOT
HETATM    1  C13 UNL     1     121.526  59.696  18.954  1.00  0.00     0.246 C 
HETATM    2  O2  UNL     1     120.956  60.092  19.968  1.00  0.00    -0.271 OA
HETATM    3  N3  UNL     1     122.872  59.856  18.685  1.00  0.00    -0.325 N 
ATOM      4  H3  UNL     1     123.220  59.473  17.806  1.00  0.00     0.169 HD
ENDROOT
BRANCH   1   5
HETATM    5  C12 UNL     1     120.683  58.972  17.913  1.00  0.00     0.278 C 
BRANCH   5   6
HETATM    6  O1  UNL     1     120.541  57.629  18.253  1.00  0.00    -0.342 OA
BRANCH   6   7
HETATM    7  C11 UNL     1     120.123  56.602  17.458  1.00  0.00     0.069 A 
HETATM    8  C10 UNL     1     120.923  55.457  17.413  1.00  0.00     0.037 A 
HETATM    9  C9  UNL     1     120.615  54.362  16.656  1.00  0.00     0.015 A 
HETATM   10  C8  UNL     1     119.463  54.388  15.903  1.00  0.00    -0.026 A 
HETATM   11  C29 UNL     1     118.653  55.501  15.925  1.00  0.00     0.015 A 
HETATM   12  C28 UNL     1     118.980  56.616  16.705  1.00  0.00     0.037 A 
BRANCH  10  13
HETATM   13  C7  UNL     1     119.101  53.248  15.079  1.00  0.00    -0.024 A 
HETATM   14  C6  UNL     1     119.676  52.001  15.210  1.00  0.00     0.042 A 
HETATM   15  C5  UNL     1     119.315  50.932  14.421  1.00  0.00     0.049 A 
HETATM   16  N2  UNL     1     119.884  49.719  14.559  1.00  0.00    -0.351 N 
HETATM   17  C32 UNL     1     118.347  51.076  13.449  1.00  0.00     0.059 A 
HETATM   18  C4  UNL     1     119.501  48.685  13.757  1.00  0.00     0.186 A 
ATOM     19  H2  UNL     1     120.604  49.573  15.267  1.00  0.00     0.166 HD
HETATM   20  N1  UNL     1     118.559  48.815  12.811  1.00  0.00    -0.306 N 
HETATM   21  C33 UNL     1     117.958  50.008  12.630  1.00  0.00     0.261 A 
HETATM   22  O5  UNL     1     117.072  50.151  11.747  1.00  0.00    -0.267 OA
HETATM   23  C31 UNL     1     117.756  52.311  13.295  1.00  0.00     0.020 A 
HETATM   24  C30 UNL     1     118.123  53.373  14.090  1.00  0.00     0.013 A 
BRANCH  20  25
HETATM   25  C3  UNL     1     118.213  47.657  12.004  1.00  0.00     0.159 C 
BRANCH  25  26
HETATM   26  C2  UNL     1     118.823  46.415  12.549  1.00  0.00    -0.017 C 
HETATM   27  C1  UNL     1     118.164  45.268  12.462  1.00  0.00     0.008 C 
ENDBRANCH  25  26
ENDBRANCH  20  25
ENDBRANCH  10  13
ENDBRANCH   6   7
ENDBRANCH   5   6
ENDBRANCH   1   5
BRANCH   3  28
HETATM   28  C14 UNL     1     123.803  60.501  19.520  1.00  0.00     0.035 A 
HETATM   29  C15 UNL     1     123.561  61.632  20.260  1.00  0.00     0.032 A 
HETATM   30  C16 UNL     1     124.525  62.216  21.091  1.00  0.00     0.039 A 
HETATM   31  C17 UNL     1     125.783  61.660  21.198  1.00  0.00     0.069 A 
HETATM   32  C26 UNL     1     126.038  60.535  20.468  1.00  0.00     0.039 A 
HETATM   33  C27 UNL     1     125.096  59.976  19.665  1.00  0.00     0.032 A 
BRANCH  31  34
HETATM   34  O3  UNL     1     126.671  62.260  22.016  1.00  0.00    -0.347 OA
BRANCH  34  35
HETATM   35  C18 UNL     1     126.473  63.222  22.971  1.00  0.00     0.216 C 
BRANCH  35  36
HETATM   36  C19 UNL     1     126.297  62.764  24.367  1.00  0.00    -0.010 A 
HETATM   37  C20 UNL     1     125.129  62.274  24.901  1.00  0.00     0.012 A 
HETATM   38  C21 UNL     1     125.122  61.842  26.200  1.00  0.00     0.018 A 
HETATM   39  C22 UNL     1     126.273  61.893  26.976  1.00  0.00     0.088 A 
HETATM   40  N4  UNL     1     127.397  62.380  26.412  1.00  0.00    -0.367 N 
HETATM   41  C23 UNL     1     127.449  62.809  25.158  1.00  0.00     0.035 A 
ATOM     42  H4  UNL     1     128.246  62.420  26.975  1.00  0.00     0.165 HD
BRANCH  41  43
HETATM   43  C24 UNL     1     128.695  63.328  24.588  1.00  0.00     0.181 C 
BRANCH  43  44
HETATM   44  N5  UNL     1     129.843  62.609  25.101  1.00  0.00    -0.340 N 
HETATM   45  C25 UNL     1     131.147  62.977  24.723  1.00  0.00     0.329 C 
HETATM   46  N6  UNL     1     132.304  62.306  25.196  1.00  0.00    -0.040 NA
HETATM   47  O4  UNL     1     131.339  63.950  23.925  1.00  0.00    -0.251 OA
ATOM     48  H5  UNL     1     129.705  61.828  25.743  1.00  0.00     0.164 HD
ENDBRANCH  43  44
ENDBRANCH  41  43
ENDBRANCH  35  36
ENDBRANCH  34  35
ENDBRANCH  31  34
ENDBRANCH   3  28
TORSDOF 12
ENDMDL
MODEL 4
REMARK VINA RESULT: -9.451745673      3.514     10.358
REMARK  12 active torsions:
REMARK  status: ('A' for Active; 'I' for Inactive)
REMARK    1  A    between atoms: C2_2  and  C3_3 
REMARK    2  A    between atoms: C3_3  and  N1_4 
REMARK    3  A    between atoms: C7_10  and  C8_11 
REMARK    4  A    between atoms: C11_14  and  O1_15 
REMARK    5  A    between atoms: O1_15  and  C12_16 
REMARK    6  A    between atoms: C12_16  and  C13_17 
REMARK       I    between atoms: C13_17  and  N3_19 
REMARK    7  A    between atoms: N3_19  and  C14_21 
REMARK    8  A    between atoms: C17_24  and  O3_25 
REMARK    9  A    between atoms: O3_25  and  C18_26 
REMARK   10  A    between atoms: C18_26  and  C19_27 
REMARK   11  A    between atoms: C23_33  and  C24_34 
REMARK   12  A    between atoms: C24_34  and  N5_35 
REMARK       I    between atoms: N5_35  and  C25_37 
ROOT
HETATM    1  C13 UNL     1     121.050  53.116  15.097  1.00  0.00     0.246 C 
HETATM    2  O2  UNL     1     120.409  52.410  15.872  1.00  0.00    -0.271 OA
HETATM    3  N3  UNL     1     121.053  54.497  15.098  1.00  0.00    -0.325 N 
ATOM      4  H3  UNL     1     121.636  54.962  14.402  1.00  0.00     0.169 HD
ENDROOT
BRANCH   1   5
HETATM    5  C12 UNL     1     121.908  52.413  14.055  1.00  0.00     0.278 C 
BRANCH   5   6
HETATM    6  O1  UNL     1     123.247  52.768  14.208  1.00  0.00    -0.342 OA
BRANCH   6   7
HETATM    7  C11 UNL     1     123.767  53.772  14.972  1.00  0.00     0.069 A 
HETATM    8  C10 UNL     1     123.695  55.071  14.462  1.00  0.00     0.037 A 
HETATM    9  C9  UNL     1     124.179  56.161  15.129  1.00  0.00     0.015 A 
HETATM   10  C8  UNL     1     124.764  55.970  16.360  1.00  0.00    -0.026 A 
HETATM   11  C29 UNL     1     124.851  54.702  16.891  1.00  0.00     0.015 A 
HETATM   12  C28 UNL     1     124.350  53.595  16.196  1.00  0.00     0.037 A 
BRANCH  10  13
HETATM   13  C7  UNL     1     125.298  57.100  17.101  1.00  0.00    -0.024 A 
HETATM   14  C6  UNL     1     124.531  57.901  17.921  1.00  0.00     0.042 A 
HETATM   15  C5  UNL     1     125.058  58.966  18.618  1.00  0.00     0.049 A 
HETATM   16  N2  UNL     1     124.299  59.742  19.416  1.00  0.00    -0.351 N 
HETATM   17  C32 UNL     1     126.398  59.274  18.516  1.00  0.00     0.059 A 
HETATM   18  C4  UNL     1     124.857  60.789  20.089  1.00  0.00     0.186 A 
ATOM     19  H2  UNL     1     123.304  59.546  19.518  1.00  0.00     0.166 HD
HETATM   20  N1  UNL     1     126.160  61.095  19.996  1.00  0.00    -0.306 N 
HETATM   21  C33 UNL     1     126.964  60.351  19.211  1.00  0.00     0.261 A 
HETATM   22  O5  UNL     1     128.190  60.622  19.111  1.00  0.00    -0.267 OA
HETATM   23  C31 UNL     1     127.188  58.490  17.703  1.00  0.00     0.020 A 
HETATM   24  C30 UNL     1     126.651  57.428  17.011  1.00  0.00     0.013 A 
BRANCH  20  25
HETATM   25  C3  UNL     1     126.668  62.227  20.752  1.00  0.00     0.159 C 
BRANCH  25  26
HETATM   26  C2  UNL     1     125.845  62.482  21.965  1.00  0.00    -0.017 C 
HETATM   27  C1  UNL     1     126.382  63.112  23.001  1.00  0.00     0.008 C 
ENDBRANCH  25  26
ENDBRANCH  20  25
ENDBRANCH  10  13
ENDBRANCH   6   7
ENDBRANCH   5   6
ENDBRANCH   1   5
BRANCH   3  28
HETATM   28  C14 UNL     1     120.321  55.318  15.977  1.00  0.00     0.035 A 
HETATM   29  C15 UNL     1     119.004  55.673  15.824  1.00  0.00     0.032 A 
HETATM   30  C16 UNL     1     118.323  56.477  16.746  1.00  0.00     0.039 A 
HETATM   31  C17 UNL     1     118.969  56.951  17.869  1.00  0.00     0.069 A 
HETATM   32  C26 UNL     1     120.279  56.605  18.035  1.00  0.00     0.039 A 
HETATM   33  C27 UNL     1     120.931  55.825  17.134  1.00  0.00     0.032 A 
BRANCH  31  34
HETATM   34  O3  UNL     1     118.265  57.716  18.727  1.00  0.00    -0.347 OA
BRANCH  34  35
HETATM   35  C18 UNL     1     118.692  58.442  19.809  1.00  0.00     0.216 C 
BRANCH  35  36
HETATM   36  C19 UNL     1     119.553  59.614  19.539  1.00  0.00    -0.010 A 
HETATM   37  C20 UNL     1     119.512  60.386  18.401  1.00  0.00     0.012 A 
HETATM   38  C21 UNL     1     120.340  61.472  18.305  1.00  0.00     0.018 A 
HETATM   39  C22 UNL     1     121.211  61.801  19.336  1.00  0.00     0.088 A 
HETATM   40  N4  UNL     1     121.218  61.018  20.434  1.00  0.00    -0.367 N 
HETATM   41  C23 UNL     1     120.434  59.956  20.570  1.00  0.00     0.035 A 
ATOM     42  H4  UNL     1     121.854  61.252  21.195  1.00  0.00     0.165 HD
BRANCH  41  43
HETATM   43  C24 UNL     1     120.476  59.137  21.783  1.00  0.00     0.181 C 
BRANCH  43  44
HETATM   44  N5  UNL     1     121.555  59.551  22.656  1.00  0.00    -0.340 N 
HETATM   45  C25 UNL     1     121.285  60.228  23.859  1.00  0.00     0.329 C 
HETATM   46  N6  UNL     1     122.305  60.656  24.748  1.00  0.00    -0.040 NA
HETATM   47  O4  UNL     1     120.086  60.486  24.201  1.00  0.00    -0.251 OA
ATOM     48  H5  UNL     1     122.521  59.350  22.396  1.00  0.00     0.164 HD
ENDBRANCH  43  44
ENDBRANCH  41  43
ENDBRANCH  35  36
ENDBRANCH  34  35
ENDBRANCH  31  34
ENDBRANCH   3  28
TORSDOF 12
ENDMDL
MODEL 5
REMARK VINA RESULT: -9.318257484      2.818      4.847
REMARK  12 active torsions:
REMARK  status: ('A' for Active; 'I' for Inactive)
REMARK    1  A    between atoms: C2_2  and  C3_3 
REMARK    2  A    between atoms: C3_3  and  N1_4 
REMARK    3  A    between atoms: C7_10  and  C8_11 
REMARK    4  A    between atoms: C11_14  and  O1_15 
REMARK    5  A    between atoms: O1_15  and  C12_16 
REMARK    6  A    between atoms: C12_16  and  C13_17 
REMARK       I    between atoms: C13_17  and  N3_19 
REMARK    7  A    between atoms: N3_19  and  C14_21 
REMARK    8  A    between atoms: C17_24  and  O3_25 
REMARK    9  A    between atoms: O3_25  and  C18_26 
REMARK   10  A    between atoms: C18_26  and  C19_27 
REMARK   11  A    between atoms: C23_33  and  C24_34 
REMARK   12  A    between atoms: C24_34  and  N5_35 
REMARK       I    between atoms: N5_35  and  C25_37 
ROOT
HETATM    1  C13 UNL     1     126.808  59.253  19.644  1.00  0.00     0.246 C 
HETATM    2  O2  UNL     1     126.524  58.457  20.536  1.00  0.00    -0.271 OA
HETATM    3  N3  UNL     1     126.277  60.522  19.513  1.00  0.00    -0.325 N 
ATOM      4  H3  UNL     1     126.603  61.085  18.727  1.00  0.00     0.169 HD
ENDROOT
BRANCH   1   5
HETATM    5  C12 UNL     1     127.824  58.807  18.603  1.00  0.00     0.278 C 
BRANCH   5   6
HETATM    6  O1  UNL     1     127.205  58.616  17.370  1.00  0.00    -0.342 OA
BRANCH   6   7
HETATM    7  C11 UNL     1     126.272  57.677  17.035  1.00  0.00     0.069 A 
HETATM    8  C10 UNL     1     124.930  58.068  17.056  1.00  0.00     0.037 A 
HETATM    9  C9  UNL     1     123.904  57.223  16.742  1.00  0.00     0.015 A 
HETATM   10  C8  UNL     1     124.205  55.927  16.388  1.00  0.00    -0.026 A 
HETATM   11  C29 UNL     1     125.517  55.511  16.357  1.00  0.00     0.015 A 
HETATM   12  C28 UNL     1     126.559  56.387  16.681  1.00  0.00     0.037 A 
BRANCH  10  13
HETATM   13  C7  UNL     1     123.144  54.994  16.053  1.00  0.00    -0.024 A 
HETATM   14  C6  UNL     1     123.079  54.316  14.854  1.00  0.00     0.042 A 
HETATM   15  C5  UNL     1     122.065  53.432  14.557  1.00  0.00     0.049 A 
HETATM   16  N2  UNL     1     122.013  52.775  13.382  1.00  0.00    -0.351 N 
HETATM   17  C32 UNL     1     121.059  53.191  15.468  1.00  0.00     0.059 A 
HETATM   18  C4  UNL     1     120.992  51.908  13.124  1.00  0.00     0.186 A 
ATOM     19  H2  UNL     1     122.739  52.926  12.682  1.00  0.00     0.166 HD
HETATM   20  N1  UNL     1     120.010  51.667  14.005  1.00  0.00    -0.306 N 
HETATM   21  C33 UNL     1     120.014  52.298  15.196  1.00  0.00     0.261 A 
HETATM   22  O5  UNL     1     119.100  52.085  16.037  1.00  0.00    -0.267 OA
HETATM   23  C31 UNL     1     121.098  53.855  16.675  1.00  0.00     0.020 A 
HETATM   24  C30 UNL     1     122.116  54.736  16.961  1.00  0.00     0.013 A 
BRANCH  20  25
HETATM   25  C3  UNL     1     118.964  50.725  13.646  1.00  0.00     0.159 C 
BRANCH  25  26
HETATM   26  C2  UNL     1     117.895  51.381  12.844  1.00  0.00    -0.017 C 
HETATM   27  C1  UNL     1     116.639  51.336  13.266  1.00  0.00     0.008 C 
ENDBRANCH  25  26
ENDBRANCH  20  25
ENDBRANCH  10  13
ENDBRANCH   6   7
ENDBRANCH   5   6
ENDBRANCH   1   5
BRANCH   3  28
HETATM   28  C14 UNL     1     125.324  61.105  20.371  1.00  0.00     0.035 A 
HETATM   29  C15 UNL     1     123.965  61.086  20.181  1.00  0.00     0.032 A 
HETATM   30  C16 UNL     1     123.064  61.666  21.083  1.00  0.00     0.039 A 
HETATM   31  C17 UNL     1     123.526  62.292  22.223  1.00  0.00     0.069 A 
HETATM   32  C26 UNL     1     124.876  62.319  22.424  1.00  0.00     0.039 A 
HETATM   33  C27 UNL     1     125.741  61.753  21.543  1.00  0.00     0.032 A 
BRANCH  31  34
HETATM   34  O3  UNL     1     122.616  62.829  23.060  1.00  0.00    -0.347 OA
BRANCH  34  35
HETATM   35  C18 UNL     1     121.399  62.343  23.464  1.00  0.00     0.216 C 
BRANCH  35  36
HETATM   36  C19 UNL     1     121.404  61.154  24.342  1.00  0.00    -0.010 A 
HETATM   37  C20 UNL     1     121.820  61.135  25.653  1.00  0.00     0.012 A 
HETATM   38  C21 UNL     1     121.727  59.967  26.363  1.00  0.00     0.018 A 
HETATM   39  C22 UNL     1     121.221  58.814  25.778  1.00  0.00     0.088 A 
HETATM   40  N4  UNL     1     120.824  58.877  24.491  1.00  0.00    -0.367 N 
HETATM   41  C23 UNL     1     120.896  59.985  23.766  1.00  0.00     0.035 A 
ATOM     42  H4  UNL     1     120.451  58.034  24.054  1.00  0.00     0.165 HD
BRANCH  41  43
HETATM   43  C24 UNL     1     120.451  60.006  22.370  1.00  0.00     0.181 C 
BRANCH  43  44
HETATM   44  N5  UNL     1     120.861  58.803  21.674  1.00  0.00    -0.340 N 
HETATM   45  C25 UNL     1     120.820  58.738  20.270  1.00  0.00     0.329 C 
HETATM   46  N6  UNL     1     121.209  57.585  19.541  1.00  0.00    -0.040 NA
HETATM   47  O4  UNL     1     120.423  59.737  19.587  1.00  0.00    -0.251 OA
ATOM     48  H5  UNL     1     121.183  57.996  22.208  1.00  0.00     0.164 HD
ENDBRANCH  43  44
ENDBRANCH  41  43
ENDBRANCH  35  36
ENDBRANCH  34  35
ENDBRANCH  31  34
ENDBRANCH   3  28
TORSDOF 12
ENDMDL
