MODEL 1
REMARK VINA RESULT: -8.490120815      0.000      0.000
REMARK  16 active torsions:
REMARK  status: ('A' for Active; 'I' for Inactive)
REMARK    1  A    between atoms: O1_2  and  C2_3 
REMARK    2  A    between atoms: C6_7  and  C7_8 
REMARK    3  A    between atoms: C7_8  and  N1_9 
REMARK    4  A    between atoms: N1_9  and  C8_11 
REMARK    5  A    between atoms: C8_11  and  O2_12 
REMARK    6  A    between atoms: C8_11  and  C9_14 
REMARK    7  A    between atoms: C9_14  and  C10_15 
REMARK    8  A    between atoms: C10_15  and  C11_16 
REMARK    9  A    between atoms: C14_19  and  N2_20 
REMARK       I    between atoms: N2_20  and  C15_22 
REMARK   10  A    between atoms: C15_22  and  C16_24 
REMARK   11  A    between atoms: C16_24  and  N3_25 
REMARK       I    between atoms: N3_25  and  C17_27 
REMARK   12  A    between atoms: C17_27  and  C18_29 
REMARK   13  A    between atoms: C20_32  and  C21_33 
REMARK   14  A    between atoms: C23_35  and  O5_36 
REMARK   15  A    between atoms: C25_38  and  O6_39 
REMARK   16  A    between atoms: C27_41  and  O7_42 
ROOT
HETATM    1  C18 UNL     1     118.999  51.993  13.657  1.00  0.00     0.113 C 
HETATM    2  C19 UNL     1     118.338  53.254  14.012  1.00  0.00     0.105 C 
HETATM    3  N4  UNL     1     117.805  54.240  14.283  1.00  0.00    -0.191 NA
HETATM    4  C20 UNL     1     118.268  50.935  13.656  1.00  0.00     0.040 C 
ENDROOT
BRANCH   1   5
HETATM    5  C17 UNL     1     120.398  52.095  13.350  1.00  0.00     0.262 C 
HETATM    6  N3  UNL     1     121.351  52.277  14.414  1.00  0.00    -0.348 N 
ATOM      7  H3  UNL     1     121.002  52.329  15.372  1.00  0.00     0.163 HD
HETATM    8  O4  UNL     1     120.915  52.040  12.209  1.00  0.00    -0.267 OA
BRANCH   6   9
HETATM    9  C16 UNL     1     122.771  52.388  14.198  1.00  0.00     0.226 C 
BRANCH   9  10
HETATM   10  C15 UNL     1     123.347  53.428  15.117  1.00  0.00     0.239 C 
HETATM   11  N2  UNL     1     122.522  54.463  15.543  1.00  0.00    -0.326 N 
ATOM     12  H2  UNL     1     121.560  54.447  15.206  1.00  0.00     0.169 HD
HETATM   13  O3  UNL     1     124.546  53.340  15.476  1.00  0.00    -0.271 OA
BRANCH  11  14
HETATM   14  C14 UNL     1     122.876  55.531  16.392  1.00  0.00     0.034 A 
HETATM   15  C13 UNL     1     122.765  55.346  17.783  1.00  0.00     0.030 A 
HETATM   16  C12 UNL     1     123.050  56.289  18.711  1.00  0.00     0.013 A 
HETATM   17  C11 UNL     1     123.497  57.568  18.278  1.00  0.00    -0.036 A 
HETATM   18  C31 UNL     1     123.612  57.758  16.931  1.00  0.00     0.013 A 
HETATM   19  C30 UNL     1     123.307  56.767  15.996  1.00  0.00     0.030 A 
BRANCH  17  20
HETATM   20  C10 UNL     1     123.907  58.495  19.266  1.00  0.00     0.015 C 
BRANCH  20  21
HETATM   21  C9  UNL     1     124.205  59.720  19.327  1.00  0.00     0.056 C 
BRANCH  21  22
HETATM   22  C8  UNL     1     123.562  60.958  19.527  1.00  0.00     0.135 C 
BRANCH  22  23
HETATM   23  N1  UNL     1     122.385  61.410  20.128  1.00  0.00    -0.367 N 
ATOM     24  H1  UNL     1     122.393  61.723  21.098  1.00  0.00     0.161 HD
BRANCH  23  25
HETATM   25  C7  UNL     1     121.124  61.433  19.353  1.00  0.00     0.160 C 
BRANCH  25  26
HETATM   26  C6  UNL     1     120.570  60.071  19.182  1.00  0.00    -0.038 A 
HETATM   27  C5  UNL     1     120.191  59.357  20.294  1.00  0.00     0.009 A 
HETATM   28  C4  UNL     1     119.674  58.086  20.107  1.00  0.00     0.003 A 
HETATM   29  C3  UNL     1     119.531  57.522  18.848  1.00  0.00     0.037 A 
HETATM   30  C2  UNL     1     119.913  58.244  17.741  1.00  0.00     0.068 A 
HETATM   31  C32 UNL     1     120.428  59.505  17.914  1.00  0.00     0.045 A 
BRANCH  30  32
HETATM   32  O1  UNL     1     119.781  57.705  16.481  1.00  0.00    -0.356 OA
HETATM   33  C1  UNL     1     119.270  56.403  16.322  1.00  0.00     0.210 C 
ENDBRANCH  30  32
ENDBRANCH  25  26
ENDBRANCH  23  25
ENDBRANCH  22  23
BRANCH  22  34
HETATM   34  O2  UNL     1     124.267  61.978  18.993  1.00  0.00    -0.346 OA
ATOM     35  H2  UNL     1     125.191  61.767  18.932  1.00  0.00     0.219 HD
ENDBRANCH  22  34
ENDBRANCH  21  22
ENDBRANCH  20  21
ENDBRANCH  17  20
ENDBRANCH  11  14
ENDBRANCH   9  10
ENDBRANCH   6   9
ENDBRANCH   1   5
BRANCH   4  36
HETATM   36  C21 UNL     1     118.643  49.570  13.343  1.00  0.00    -0.029 A 
HETATM   37  C22 UNL     1     118.011  48.919  12.269  1.00  0.00     0.051 A 
HETATM   38  C23 UNL     1     118.374  47.642  11.904  1.00  0.00     0.105 A 
HETATM   39  C25 UNL     1     119.360  46.936  12.555  1.00  0.00     0.135 A 
HETATM   40  C27 UNL     1     119.990  47.558  13.608  1.00  0.00     0.105 A 
HETATM   41  C29 UNL     1     119.624  48.847  13.978  1.00  0.00     0.051 A 
BRANCH  38  42
HETATM   42  O5  UNL     1     117.736  47.018  10.837  1.00  0.00    -0.353 OA
HETATM   43  C24 UNL     1     118.073  47.297   9.490  1.00  0.00     0.210 C 
ENDBRANCH  38  42
BRANCH  39  44
HETATM   44  O6  UNL     1     119.666  45.662  12.129  1.00  0.00    -0.351 OA
HETATM   45  C26 UNL     1     120.737  45.342  11.269  1.00  0.00     0.210 C 
ENDBRANCH  39  44
BRANCH  40  46
HETATM   46  O7  UNL     1     120.977  46.859  14.264  1.00  0.00    -0.353 OA
HETATM   47  C28 UNL     1     122.291  47.378  14.244  1.00  0.00     0.210 C 
ENDBRANCH  40  46
ENDBRANCH   4  36
TORSDOF 16
ENDMDL
MODEL 2
REMARK VINA RESULT: -8.385751686      4.272     12.068
REMARK  16 active torsions:
REMARK  status: ('A' for Active; 'I' for Inactive)
REMARK    1  A    between atoms: O1_2  and  C2_3 
REMARK    2  A    between atoms: C6_7  and  C7_8 
REMARK    3  A    between atoms: C7_8  and  N1_9 
REMARK    4  A    between atoms: N1_9  and  C8_11 
REMARK    5  A    between atoms: C8_11  and  O2_12 
REMARK    6  A    between atoms: C8_11  and  C9_14 
REMARK    7  A    between atoms: C9_14  and  C10_15 
REMARK    8  A    between atoms: C10_15  and  C11_16 
REMARK    9  A    between atoms: C14_19  and  N2_20 
REMARK       I    between atoms: N2_20  and  C15_22 
REMARK   10  A    between atoms: C15_22  and  C16_24 
REMARK   11  A    between atoms: C16_24  and  N3_25 
REMARK       I    between atoms: N3_25  and  C17_27 
REMARK   12  A    between atoms: C17_27  and  C18_29 
REMARK   13  A    between atoms: C20_32  and  C21_33 
REMARK   14  A    between atoms: C23_35  and  O5_36 
REMARK   15  A    between atoms: C25_38  and  O6_39 
REMARK   16  A    between atoms: C27_41  and  O7_42 
ROOT
HETATM    1  C18 UNL     1     120.875  61.051  20.077  1.00  0.00     0.113 C 
HETATM    2  C19 UNL     1     120.237  60.738  18.792  1.00  0.00     0.105 C 
HETATM    3  N4  UNL     1     119.726  60.480  17.791  1.00  0.00    -0.191 NA
HETATM    4  C20 UNL     1     120.117  61.051  21.116  1.00  0.00     0.040 C 
ENDROOT
BRANCH   1   5
HETATM    5  C17 UNL     1     122.283  61.322  20.016  1.00  0.00     0.262 C 
HETATM    6  N3  UNL     1     123.224  60.304  20.407  1.00  0.00    -0.348 N 
ATOM      7  H3  UNL     1     122.860  59.404  20.721  1.00  0.00     0.163 HD
HETATM    8  O4  UNL     1     122.819  62.392  19.644  1.00  0.00    -0.267 OA
BRANCH   6   9
HETATM    9  C16 UNL     1     124.652  60.489  20.377  1.00  0.00     0.226 C 
BRANCH   9  10
HETATM   10  C15 UNL     1     125.303  59.325  19.685  1.00  0.00     0.239 C 
HETATM   11  N2  UNL     1     124.563  58.618  18.744  1.00  0.00    -0.326 N 
ATOM     12  H2  UNL     1     123.612  58.943  18.574  1.00  0.00     0.169 HD
HETATM   13  O3  UNL     1     126.487  59.020  19.968  1.00  0.00    -0.271 OA
BRANCH  11  14
HETATM   14  C14 UNL     1     124.989  57.498  18.001  1.00  0.00     0.034 A 
HETATM   15  C13 UNL     1     124.388  56.253  18.264  1.00  0.00     0.030 A 
HETATM   16  C12 UNL     1     124.712  55.094  17.642  1.00  0.00     0.013 A 
HETATM   17  C11 UNL     1     125.729  55.108  16.648  1.00  0.00    -0.036 A 
HETATM   18  C31 UNL     1     126.317  56.311  16.383  1.00  0.00     0.013 A 
HETATM   19  C30 UNL     1     125.964  57.490  17.043  1.00  0.00     0.030 A 
BRANCH  17  20
HETATM   20  C10 UNL     1     125.964  53.913  15.926  1.00  0.00     0.015 C 
BRANCH  20  21
HETATM   21  C9  UNL     1     125.295  53.103  15.226  1.00  0.00     0.056 C 
BRANCH  21  22
HETATM   22  C8  UNL     1     124.063  52.421  15.282  1.00  0.00     0.135 C 
BRANCH  22  23
HETATM   23  N1  UNL     1     122.721  52.755  15.480  1.00  0.00    -0.367 N 
ATOM     24  H1  UNL     1     122.202  52.346  16.256  1.00  0.00     0.161 HD
BRANCH  23  25
HETATM   25  C7  UNL     1     122.055  53.704  14.560  1.00  0.00     0.160 C 
BRANCH  25  26
HETATM   26  C6  UNL     1     121.993  55.065  15.142  1.00  0.00    -0.038 A 
HETATM   27  C5  UNL     1     122.758  56.065  14.590  1.00  0.00     0.009 A 
HETATM   28  C4  UNL     1     122.680  57.328  15.150  1.00  0.00     0.003 A 
HETATM   29  C3  UNL     1     121.866  57.608  16.237  1.00  0.00     0.037 A 
HETATM   30  C2  UNL     1     121.104  56.601  16.783  1.00  0.00     0.068 A 
HETATM   31  C32 UNL     1     121.173  55.343  16.235  1.00  0.00     0.045 A 
BRANCH  30  32
HETATM   32  O1  UNL     1     120.287  56.855  17.862  1.00  0.00    -0.356 OA
HETATM   33  C1  UNL     1     120.835  57.352  19.058  1.00  0.00     0.210 C 
ENDBRANCH  30  32
ENDBRANCH  25  26
ENDBRANCH  23  25
ENDBRANCH  22  23
BRANCH  22  34
HETATM   34  O2  UNL     1     124.220  51.092  15.102  1.00  0.00    -0.346 OA
ATOM     35  H2  UNL     1     123.592  50.595  15.614  1.00  0.00     0.219 HD
ENDBRANCH  22  34
ENDBRANCH  21  22
ENDBRANCH  20  21
ENDBRANCH  17  20
ENDBRANCH  11  14
ENDBRANCH   9  10
ENDBRANCH   6   9
ENDBRANCH   1   5
BRANCH   4  36
HETATM   36  C21 UNL     1     120.467  61.313  22.497  1.00  0.00    -0.029 A 
HETATM   37  C22 UNL     1     120.936  60.255  23.296  1.00  0.00     0.051 A 
HETATM   38  C23 UNL     1     121.330  60.471  24.597  1.00  0.00     0.105 A 
HETATM   39  C25 UNL     1     121.291  61.714  25.187  1.00  0.00     0.135 A 
HETATM   40  C27 UNL     1     120.837  62.761  24.422  1.00  0.00     0.105 A 
HETATM   41  C29 UNL     1     120.438  62.546  23.108  1.00  0.00     0.051 A 
BRANCH  38  42
HETATM   42  O5  UNL     1     121.790  59.408  25.367  1.00  0.00    -0.353 OA
HETATM   43  C24 UNL     1     120.908  58.546  26.065  1.00  0.00     0.210 C 
ENDBRANCH  38  42
BRANCH  39  44
HETATM   44  O6  UNL     1     121.703  61.848  26.496  1.00  0.00    -0.351 OA
HETATM   45  C26 UNL     1     123.007  62.214  26.889  1.00  0.00     0.210 C 
ENDBRANCH  39  44
BRANCH  40  46
HETATM   46  O7  UNL     1     120.795  64.007  25.005  1.00  0.00    -0.353 OA
HETATM   47  C28 UNL     1     120.184  65.062  24.289  1.00  0.00     0.210 C 
ENDBRANCH  40  46
ENDBRANCH   4  36
TORSDOF 16
ENDMDL
MODEL 3
REMARK VINA RESULT: -8.329951365      3.133      5.336
REMARK  16 active torsions:
REMARK  status: ('A' for Active; 'I' for Inactive)
REMARK    1  A    between atoms: O1_2  and  C2_3 
REMARK    2  A    between atoms: C6_7  and  C7_8 
REMARK    3  A    between atoms: C7_8  and  N1_9 
REMARK    4  A    between atoms: N1_9  and  C8_11 
REMARK    5  A    between atoms: C8_11  and  O2_12 
REMARK    6  A    between atoms: C8_11  and  C9_14 
REMARK    7  A    between atoms: C9_14  and  C10_15 
REMARK    8  A    between atoms: C10_15  and  C11_16 
REMARK    9  A    between atoms: C14_19  and  N2_20 
REMARK       I    between atoms: N2_20  and  C15_22 
REMARK   10  A    between atoms: C15_22  and  C16_24 
REMARK   11  A    between atoms: C16_24  and  N3_25 
REMARK       I    between atoms: N3_25  and  C17_27 
REMARK   12  A    between atoms: C17_27  and  C18_29 
REMARK   13  A    between atoms: C20_32  and  C21_33 
REMARK   14  A    between atoms: C23_35  and  O5_36 
REMARK   15  A    between atoms: C25_38  and  O6_39 
REMARK   16  A    between atoms: C27_41  and  O7_42 
ROOT
HETATM    1  C18 UNL     1     119.405  52.194  13.669  1.00  0.00     0.113 C 
HETATM    2  C19 UNL     1     118.299  51.591  12.916  1.00  0.00     0.105 C 
HETATM    3  N4  UNL     1     117.438  51.122  12.310  1.00  0.00    -0.191 NA
HETATM    4  C20 UNL     1     120.590  52.018  13.200  1.00  0.00     0.040 C 
ENDROOT
BRANCH   1   5
HETATM    5  C17 UNL     1     119.026  52.915  14.852  1.00  0.00     0.262 C 
HETATM    6  N3  UNL     1     118.523  54.259  14.738  1.00  0.00    -0.348 N 
ATOM      7  H3  UNL     1     118.449  54.670  13.807  1.00  0.00     0.163 HD
HETATM    8  O4  UNL     1     119.082  52.492  16.031  1.00  0.00    -0.267 OA
BRANCH   6   9
HETATM    9  C16 UNL     1     118.120  55.054  15.869  1.00  0.00     0.226 C 
BRANCH   9  10
HETATM   10  C15 UNL     1     119.260  55.926  16.313  1.00  0.00     0.239 C 
HETATM   11  N2  UNL     1     120.178  55.403  17.216  1.00  0.00    -0.326 N 
ATOM     12  H2  UNL     1     120.022  54.442  17.520  1.00  0.00     0.169 HD
HETATM   13  O3  UNL     1     119.358  57.093  15.865  1.00  0.00    -0.271 OA
BRANCH  11  14
HETATM   14  C14 UNL     1     121.302  56.060  17.757  1.00  0.00     0.034 A 
HETATM   15  C13 UNL     1     122.453  55.299  18.036  1.00  0.00     0.030 A 
HETATM   16  C12 UNL     1     123.593  55.794  18.573  1.00  0.00     0.013 A 
HETATM   17  C11 UNL     1     123.660  57.179  18.887  1.00  0.00    -0.036 A 
HETATM   18  C31 UNL     1     122.551  57.928  18.618  1.00  0.00     0.013 A 
HETATM   19  C30 UNL     1     121.387  57.389  18.066  1.00  0.00     0.030 A 
BRANCH  17  20
HETATM   20  C10 UNL     1     124.901  57.697  19.331  1.00  0.00     0.015 C 
BRANCH  20  21
HETATM   21  C9  UNL     1     125.311  58.684  20.003  1.00  0.00     0.056 C 
BRANCH  21  22
HETATM   22  C8  UNL     1     125.415  60.084  19.873  1.00  0.00     0.135 C 
BRANCH  22  23
HETATM   23  N1  UNL     1     124.797  61.207  20.426  1.00  0.00    -0.367 N 
ATOM     24  H1  UNL     1     125.117  61.578  21.320  1.00  0.00     0.161 HD
BRANCH  23  25
HETATM   25  C7  UNL     1     123.676  61.858  19.711  1.00  0.00     0.160 C 
BRANCH  25  26
HETATM   26  C6  UNL     1     122.379  61.235  20.059  1.00  0.00    -0.038 A 
HETATM   27  C5  UNL     1     121.316  61.376  19.200  1.00  0.00     0.009 A 
HETATM   28  C4  UNL     1     120.115  60.781  19.547  1.00  0.00     0.003 A 
HETATM   29  C3  UNL     1     119.957  60.060  20.721  1.00  0.00     0.037 A 
HETATM   30  C2  UNL     1     121.027  59.925  21.576  1.00  0.00     0.068 A 
HETATM   31  C32 UNL     1     122.224  60.510  21.241  1.00  0.00     0.045 A 
BRANCH  30  32
HETATM   32  O1  UNL     1     120.895  59.213  22.747  1.00  0.00    -0.356 OA
HETATM   33  C1  UNL     1     121.142  59.838  23.983  1.00  0.00     0.210 C 
ENDBRANCH  30  32
ENDBRANCH  25  26
ENDBRANCH  23  25
ENDBRANCH  22  23
BRANCH  22  34
HETATM   34  O2  UNL     1     126.358  60.432  18.971  1.00  0.00    -0.346 OA
ATOM     35  H2  UNL     1     126.821  59.670  18.641  1.00  0.00     0.219 HD
ENDBRANCH  22  34
ENDBRANCH  21  22
ENDBRANCH  20  21
ENDBRANCH  17  20
ENDBRANCH  11  14
ENDBRANCH   9  10
ENDBRANCH   6   9
ENDBRANCH   1   5
BRANCH   4  36
HETATM   36  C21 UNL     1     121.855  52.497  13.721  1.00  0.00    -0.029 A 
HETATM   37  C22 UNL     1     122.941  51.607  13.799  1.00  0.00     0.051 A 
HETATM   38  C23 UNL     1     124.174  52.033  14.237  1.00  0.00     0.105 A 
HETATM   39  C25 UNL     1     124.418  53.333  14.620  1.00  0.00     0.135 A 
HETATM   40  C27 UNL     1     123.368  54.217  14.549  1.00  0.00     0.105 A 
HETATM   41  C29 UNL     1     122.121  53.789  14.108  1.00  0.00     0.051 A 
BRANCH  38  42
HETATM   42  O5  UNL     1     125.234  51.134  14.305  1.00  0.00    -0.353 OA
HETATM   43  C24 UNL     1     125.147  49.825  13.771  1.00  0.00     0.210 C 
ENDBRANCH  38  42
BRANCH  39  44
HETATM   44  O6  UNL     1     125.681  53.681  15.047  1.00  0.00    -0.351 OA
HETATM   45  C26 UNL     1     126.047  53.853  16.398  1.00  0.00     0.210 C 
ENDBRANCH  39  44
BRANCH  40  46
HETATM   46  O7  UNL     1     123.603  55.519  14.930  1.00  0.00    -0.353 OA
HETATM   47  C28 UNL     1     122.709  56.519  14.485  1.00  0.00     0.210 C 
ENDBRANCH  40  46
ENDBRANCH   4  36
TORSDOF 16
ENDMDL
MODEL 4
REMARK VINA RESULT: -8.325811658      3.141      5.872
REMARK  16 active torsions:
REMARK  status: ('A' for Active; 'I' for Inactive)
REMARK    1  A    between atoms: O1_2  and  C2_3 
REMARK    2  A    between atoms: C6_7  and  C7_8 
REMARK    3  A    between atoms: C7_8  and  N1_9 
REMARK    4  A    between atoms: N1_9  and  C8_11 
REMARK    5  A    between atoms: C8_11  and  O2_12 
REMARK    6  A    between atoms: C8_11  and  C9_14 
REMARK    7  A    between atoms: C9_14  and  C10_15 
REMARK    8  A    between atoms: C10_15  and  C11_16 
REMARK    9  A    between atoms: C14_19  and  N2_20 
REMARK       I    between atoms: N2_20  and  C15_22 
REMARK   10  A    between atoms: C15_22  and  C16_24 
REMARK   11  A    between atoms: C16_24  and  N3_25 
REMARK       I    between atoms: N3_25  and  C17_27 
REMARK   12  A    between atoms: C17_27  and  C18_29 
REMARK   13  A    between atoms: C20_32  and  C21_33 
REMARK   14  A    between atoms: C23_35  and  O5_36 
REMARK   15  A    between atoms: C25_38  and  O6_39 
REMARK   16  A    between atoms: C27_41  and  O7_42 
ROOT
HETATM    1  C18 UNL     1     119.312  51.994  13.619  1.00  0.00     0.113 C 
HETATM    2  C19 UNL     1     118.268  51.347  12.815  1.00  0.00     0.105 C 
HETATM    3  N4  UNL     1     117.456  50.844  12.169  1.00  0.00    -0.191 NA
HETATM    4  C20 UNL     1     120.521  51.888  13.193  1.00  0.00     0.040 C 
ENDROOT
BRANCH   1   5
HETATM    5  C17 UNL     1     118.851  52.673  14.796  1.00  0.00     0.262 C 
HETATM    6  N3  UNL     1     118.255  53.979  14.680  1.00  0.00    -0.348 N 
ATOM      7  H3  UNL     1     118.174  54.392  13.751  1.00  0.00     0.163 HD
HETATM    8  O4  UNL     1     118.908  52.244  15.973  1.00  0.00    -0.267 OA
BRANCH   6   9
HETATM    9  C16 UNL     1     117.765  54.731  15.807  1.00  0.00     0.226 C 
BRANCH   9  10
HETATM   10  C15 UNL     1     118.673  55.899  16.073  1.00  0.00     0.239 C 
HETATM   11  N2  UNL     1     118.665  56.465  17.342  1.00  0.00    -0.326 N 
ATOM     12  H2  UNL     1     118.040  56.041  18.027  1.00  0.00     0.169 HD
HETATM   13  O3  UNL     1     119.408  56.333  15.154  1.00  0.00    -0.271 OA
BRANCH  11  14
HETATM   14  C14 UNL     1     119.430  57.564  17.783  1.00  0.00     0.034 A 
HETATM   15  C13 UNL     1     118.777  58.597  18.482  1.00  0.00     0.030 A 
HETATM   16  C12 UNL     1     119.381  59.717  18.945  1.00  0.00     0.013 A 
HETATM   17  C11 UNL     1     120.776  59.888  18.721  1.00  0.00    -0.036 A 
HETATM   18  C31 UNL     1     121.420  58.892  18.046  1.00  0.00     0.013 A 
HETATM   19  C30 UNL     1     120.769  57.748  17.579  1.00  0.00     0.030 A 
BRANCH  17  20
HETATM   20  C10 UNL     1     121.408  61.004  19.320  1.00  0.00     0.015 C 
BRANCH  20  21
HETATM   21  C9  UNL     1     121.690  61.399  20.485  1.00  0.00     0.056 C 
BRANCH  21  22
HETATM   22  C8  UNL     1     122.825  61.541  21.310  1.00  0.00     0.135 C 
BRANCH  22  23
HETATM   23  N1  UNL     1     124.178  61.202  21.249  1.00  0.00    -0.367 N 
ATOM     24  H1  UNL     1     124.592  60.615  21.972  1.00  0.00     0.161 HD
BRANCH  23  25
HETATM   25  C7  UNL     1     125.011  61.698  20.130  1.00  0.00     0.160 C 
BRANCH  25  26
HETATM   26  C6  UNL     1     125.689  60.584  19.428  1.00  0.00    -0.038 A 
HETATM   27  C5  UNL     1     127.057  60.604  19.303  1.00  0.00     0.009 A 
HETATM   28  C4  UNL     1     127.666  59.549  18.644  1.00  0.00     0.003 A 
HETATM   29  C3  UNL     1     126.945  58.491  18.113  1.00  0.00     0.037 A 
HETATM   30  C2  UNL     1     125.575  58.480  18.243  1.00  0.00     0.068 A 
HETATM   31  C32 UNL     1     124.960  59.520  18.895  1.00  0.00     0.045 A 
BRANCH  30  32
HETATM   32  O1  UNL     1     124.837  57.439  17.724  1.00  0.00    -0.356 OA
HETATM   33  C1  UNL     1     124.288  56.469  18.583  1.00  0.00     0.210 C 
ENDBRANCH  30  32
ENDBRANCH  25  26
ENDBRANCH  23  25
ENDBRANCH  22  23
BRANCH  22  34
HETATM   34  O2  UNL     1     122.523  62.162  22.470  1.00  0.00    -0.346 OA
ATOM     35  H2  UNL     1     121.992  61.610  23.032  1.00  0.00     0.219 HD
ENDBRANCH  22  34
ENDBRANCH  21  22
ENDBRANCH  20  21
ENDBRANCH  17  20
ENDBRANCH  11  14
ENDBRANCH   9  10
ENDBRANCH   6   9
ENDBRANCH   1   5
BRANCH   4  36
HETATM   36  C21 UNL     1     121.739  52.423  13.769  1.00  0.00    -0.029 A 
HETATM   37  C22 UNL     1     122.913  51.650  13.722  1.00  0.00     0.051 A 
HETATM   38  C23 UNL     1     124.102  52.140  14.210  1.00  0.00     0.105 A 
HETATM   39  C25 UNL     1     124.216  53.395  14.764  1.00  0.00     0.135 A 
HETATM   40  C27 UNL     1     123.079  54.166  14.818  1.00  0.00     0.105 A 
HETATM   41  C29 UNL     1     121.876  53.672  14.327  1.00  0.00     0.051 A 
BRANCH  38  42
HETATM   42  O5  UNL     1     125.251  51.357  14.152  1.00  0.00    -0.353 OA
HETATM   43  C24 UNL     1     125.214  49.995  13.767  1.00  0.00     0.210 C 
ENDBRANCH  38  42
BRANCH  39  44
HETATM   44  O6  UNL     1     125.444  53.814  15.230  1.00  0.00    -0.351 OA
HETATM   45  C26 UNL     1     125.824  53.815  16.589  1.00  0.00     0.210 C 
ENDBRANCH  39  44
BRANCH  40  46
HETATM   46  O7  UNL     1     123.185  55.422  15.370  1.00  0.00    -0.353 OA
HETATM   47  C28 UNL     1     122.759  56.530  14.601  1.00  0.00     0.210 C 
ENDBRANCH  40  46
ENDBRANCH   4  36
TORSDOF 16
ENDMDL
MODEL 5
REMARK VINA RESULT: -8.297351052      3.157      5.018
REMARK  16 active torsions:
REMARK  status: ('A' for Active; 'I' for Inactive)
REMARK    1  A    between atoms: O1_2  and  C2_3 
REMARK    2  A    between atoms: C6_7  and  C7_8 
REMARK    3  A    between atoms: C7_8  and  N1_9 
REMARK    4  A    between atoms: N1_9  and  C8_11 
REMARK    5  A    between atoms: C8_11  and  O2_12 
REMARK    6  A    between atoms: C8_11  and  C9_14 
REMARK    7  A    between atoms: C9_14  and  C10_15 
REMARK    8  A    between atoms: C10_15  and  C11_16 
REMARK    9  A    between atoms: C14_19  and  N2_20 
REMARK       I    between atoms: N2_20  and  C15_22 
REMARK   10  A    between atoms: C15_22  and  C16_24 
REMARK   11  A    between atoms: C16_24  and  N3_25 
REMARK       I    between atoms: N3_25  and  C17_27 
REMARK   12  A    between atoms: C17_27  and  C18_29 
REMARK   13  A    between atoms: C20_32  and  C21_33 
REMARK   14  A    between atoms: C23_35  and  O5_36 
REMARK   15  A    between atoms: C25_38  and  O6_39 
REMARK   16  A    between atoms: C27_41  and  O7_42 
ROOT
HETATM    1  C18 UNL     1     119.456  52.243  13.681  1.00  0.00     0.113 C 
HETATM    2  C19 UNL     1     118.287  51.716  12.966  1.00  0.00     0.105 C 
HETATM    3  N4  UNL     1     117.376  51.306  12.390  1.00  0.00    -0.191 NA
HETATM    4  C20 UNL     1     120.609  52.003  13.164  1.00  0.00     0.040 C 
ENDROOT
BRANCH   1   5
HETATM    5  C17 UNL     1     119.167  52.970  14.885  1.00  0.00     0.262 C 
HETATM    6  N3  UNL     1     118.610  54.295  14.802  1.00  0.00    -0.348 N 
ATOM      7  H3  UNL     1     118.432  54.688  13.877  1.00  0.00     0.163 HD
HETATM    8  O4  UNL     1     119.350  52.568  16.058  1.00  0.00    -0.267 OA
BRANCH   6   9
HETATM    9  C16 UNL     1     118.289  55.095  15.956  1.00  0.00     0.226 C 
BRANCH   9  10
HETATM   10  C15 UNL     1     119.499  55.873  16.390  1.00  0.00     0.239 C 
HETATM   11  N2  UNL     1     120.380  55.278  17.286  1.00  0.00    -0.326 N 
ATOM     12  H2  UNL     1     120.150  54.332  17.591  1.00  0.00     0.169 HD
HETATM   13  O3  UNL     1     119.686  57.029  15.940  1.00  0.00    -0.271 OA
BRANCH  11  14
HETATM   14  C14 UNL     1     121.556  55.844  17.817  1.00  0.00     0.034 A 
HETATM   15  C13 UNL     1     121.611  57.241  17.983  1.00  0.00     0.030 A 
HETATM   16  C12 UNL     1     122.681  57.919  18.461  1.00  0.00     0.013 A 
HETATM   17  C11 UNL     1     123.847  57.192  18.829  1.00  0.00    -0.036 A 
HETATM   18  C31 UNL     1     123.804  55.837  18.675  1.00  0.00     0.013 A 
HETATM   19  C30 UNL     1     122.687  55.165  18.177  1.00  0.00     0.030 A 
BRANCH  17  20
HETATM   20  C10 UNL     1     124.905  57.907  19.441  1.00  0.00     0.015 C 
BRANCH  20  21
HETATM   21  C9  UNL     1     125.429  59.052  19.349  1.00  0.00     0.056 C 
BRANCH  21  22
HETATM   22  C8  UNL     1     125.352  60.307  19.986  1.00  0.00     0.135 C 
BRANCH  22  23
HETATM   23  N1  UNL     1     124.743  60.835  21.126  1.00  0.00    -0.367 N 
ATOM     24  H1  UNL     1     125.095  60.595  22.052  1.00  0.00     0.161 HD
BRANCH  23  25
HETATM   25  C7  UNL     1     123.584  61.745  20.988  1.00  0.00     0.160 C 
BRANCH  25  26
HETATM   26  C6  UNL     1     122.324  60.990  20.799  1.00  0.00    -0.038 A 
HETATM   27  C5  UNL     1     121.954  60.058  21.739  1.00  0.00     0.009 A 
HETATM   28  C4  UNL     1     120.771  59.368  21.540  1.00  0.00     0.003 A 
HETATM   29  C3  UNL     1     119.962  59.586  20.436  1.00  0.00     0.037 A 
HETATM   30  C2  UNL     1     120.340  60.521  19.500  1.00  0.00     0.068 A 
HETATM   31  C32 UNL     1     121.512  61.212  19.686  1.00  0.00     0.045 A 
BRANCH  30  32
HETATM   32  O1  UNL     1     119.553  60.756  18.395  1.00  0.00    -0.356 OA
HETATM   33  C1  UNL     1     119.991  60.353  17.120  1.00  0.00     0.210 C 
ENDBRANCH  30  32
ENDBRANCH  25  26
ENDBRANCH  23  25
ENDBRANCH  22  23
BRANCH  22  34
HETATM   34  O2  UNL     1     126.047  61.250  19.315  1.00  0.00    -0.346 OA
ATOM     35  H2  UNL     1     126.233  60.976  18.424  1.00  0.00     0.219 HD
ENDBRANCH  22  34
ENDBRANCH  21  22
ENDBRANCH  20  21
ENDBRANCH  17  20
ENDBRANCH  11  14
ENDBRANCH   9  10
ENDBRANCH   6   9
ENDBRANCH   1   5
BRANCH   4  36
HETATM   36  C21 UNL     1     121.920  52.399  13.639  1.00  0.00    -0.029 A 
HETATM   37  C22 UNL     1     122.125  53.729  14.044  1.00  0.00     0.051 A 
HETATM   38  C23 UNL     1     123.339  54.135  14.551  1.00  0.00     0.105 A 
HETATM   39  C25 UNL     1     124.408  53.279  14.692  1.00  0.00     0.135 A 
HETATM   40  C27 UNL     1     124.225  51.973  14.302  1.00  0.00     0.105 A 
HETATM   41  C29 UNL     1     123.001  51.562  13.788  1.00  0.00     0.051 A 
BRANCH  38  42
HETATM   42  O5  UNL     1     123.518  55.456  14.947  1.00  0.00    -0.353 OA
HETATM   43  C24 UNL     1     122.719  56.510  14.437  1.00  0.00     0.210 C 
ENDBRANCH  38  42
BRANCH  39  44
HETATM   44  O6  UNL     1     125.591  53.762  15.209  1.00  0.00    -0.351 OA
HETATM   45  C26 UNL     1     125.905  53.801  16.583  1.00  0.00     0.210 C 
ENDBRANCH  39  44
BRANCH  40  46
HETATM   46  O7  UNL     1     125.289  51.111  14.439  1.00  0.00    -0.353 OA
HETATM   47  C28 UNL     1     125.261  49.893  13.722  1.00  0.00     0.210 C 
ENDBRANCH  40  46
ENDBRANCH   4  36
TORSDOF 16
ENDMDL
