MODEL 1
REMARK VINA RESULT: -9.633265749      0.000      0.000
REMARK  15 active torsions:
REMARK  status: ('A' for Active; 'I' for Inactive)
REMARK       I    between atoms: C1_2  and  N1_3 
REMARK    1  A    between atoms: C1_2  and  C27_37 
REMARK    2  A    between atoms: N1_3  and  N2_5 
REMARK    3  A    between atoms: C2_7  and  C3_8 
REMARK    4  A    between atoms: C6_11  and  O2_12 
REMARK    5  A    between atoms: O2_12  and  C7_13 
REMARK    6  A    between atoms: C7_13  and  C8_14 
REMARK    7  A    between atoms: C8_14  and  C9_15 
REMARK    8  A    between atoms: C9_15  and  C10_16 
REMARK    9  A    between atoms: C10_16  and  C11_17 
REMARK   10  A    between atoms: C11_17  and  C12_18 
REMARK   11  A    between atoms: C12_18  and  N3_19 
REMARK   12  A    between atoms: N5_40  and  C30_41 
REMARK   13  A    between atoms: C30_41  and  C31_42 
REMARK   14  A    between atoms: C31_42  and  O4_43 
REMARK   15  A    between atoms: C32_45  and  O5_46 
ROOT
HETATM    1  C3  UNL     1     118.912  50.436  13.029  1.00  0.00    -0.019 A 
HETATM    2  C4  UNL     1     120.142  50.917  12.691  1.00  0.00     0.015 A 
HETATM    3  C5  UNL     1     121.275  50.167  12.828  1.00  0.00     0.037 A 
HETATM    4  C6  UNL     1     121.255  48.876  13.317  1.00  0.00     0.068 A 
HETATM    5  C25 UNL     1     120.001  48.362  13.671  1.00  0.00     0.037 A 
HETATM    6  C26 UNL     1     118.879  49.120  13.529  1.00  0.00     0.015 A 
ENDROOT
BRANCH   4   7
HETATM    7  O2  UNL     1     122.315  48.134  13.460  1.00  0.00    -0.351 OA
BRANCH   7   8
HETATM    8  C7  UNL     1     123.358  47.407  13.602  1.00  0.00     0.175 C 
BRANCH   8   9
HETATM    9  C8  UNL     1     124.541  47.969  14.411  1.00  0.00     0.027 C 
BRANCH   9  10
HETATM   10  C9  UNL     1     125.147  49.088  13.646  1.00  0.00     0.002 C 
BRANCH  10  11
HETATM   11  C10 UNL     1     124.883  50.445  14.263  1.00  0.00     0.002 C 
BRANCH  11  12
HETATM   12  C11 UNL     1     125.053  51.580  13.283  1.00  0.00     0.020 C 
BRANCH  12  13
HETATM   13  C12 UNL     1     123.952  52.606  13.431  1.00  0.00     0.133 C 
BRANCH  13  14
HETATM   14  N3  UNL     1     124.208  53.595  14.428  1.00  0.00    -0.310 N 
HETATM   15  C13 UNL     1     125.155  54.533  14.296  1.00  0.00     0.186 A 
HETATM   16  N4  UNL     1     125.412  55.470  15.212  1.00  0.00    -0.351 N 
HETATM   17  C14 UNL     1     124.704  55.514  16.350  1.00  0.00     0.060 A 
ATOM     18  H4  UNL     1     126.149  56.155  15.045  1.00  0.00     0.166 HD
HETATM   19  C15 UNL     1     123.710  54.569  16.545  1.00  0.00     0.060 A 
HETATM   20  C23 UNL     1     125.001  56.490  17.257  1.00  0.00     0.002 A 
HETATM   21  C16 UNL     1     122.999  54.631  17.708  1.00  0.00     0.020 A 
HETATM   22  C24 UNL     1     123.478  53.609  15.557  1.00  0.00     0.261 A 
HETATM   23  C17 UNL     1     123.273  55.607  18.649  1.00  0.00     0.013 A 
HETATM   24  C18 UNL     1     124.278  56.542  18.426  1.00  0.00    -0.024 A 
HETATM   25  C19 UNL     1     124.572  57.529  19.352  1.00  0.00     0.012 A 
HETATM   26  C20 UNL     1     125.581  58.449  19.099  1.00  0.00     0.001 A 
HETATM   27  C21 UNL     1     126.312  58.407  17.932  1.00  0.00     0.001 A 
HETATM   28  C22 UNL     1     126.013  57.419  17.013  1.00  0.00     0.014 A 
HETATM   29  O3  UNL     1     122.561  52.783  15.799  1.00  0.00    -0.267 OA
ENDBRANCH  13  14
ENDBRANCH  12  13
ENDBRANCH  11  12
ENDBRANCH  10  11
ENDBRANCH   9  10
ENDBRANCH   8   9
ENDBRANCH   7   8
ENDBRANCH   4   7
BRANCH   1  30
HETATM   30  C2  UNL     1     117.681  51.176  12.892  1.00  0.00     0.118 C 
HETATM   31  N2  UNL     1     117.428  52.367  13.104  1.00  0.00    -0.308 N 
ATOM     32  H2  UNL     1     116.454  52.604  12.915  1.00  0.00     0.186 HD
BRANCH  31  33
HETATM   33  N1  UNL     1     118.147  53.416  13.526  1.00  0.00    -0.266 N 
HETATM   34  C1  UNL     1     118.575  53.548  14.866  1.00  0.00     0.270 C 
HETATM   35  O1  UNL     1     118.260  52.641  15.686  1.00  0.00    -0.266 OA
ATOM     36  H1  UNL     1     118.394  54.145  12.856  1.00  0.00     0.190 HD
BRANCH  34  37
HETATM   37  C27 UNL     1     119.355  54.700  15.277  1.00  0.00     0.039 A 
HETATM   38  C28 UNL     1     119.126  55.439  16.409  1.00  0.00     0.034 A 
HETATM   39  C29 UNL     1     119.932  56.540  16.729  1.00  0.00     0.094 A 
HETATM   40  N5  UNL     1     120.955  56.924  15.952  1.00  0.00    -0.336 N 
HETATM   41  C32 UNL     1     121.191  56.209  14.840  1.00  0.00     0.142 A 
HETATM   42  C33 UNL     1     120.431  55.121  14.482  1.00  0.00     0.073 A 
BRANCH  40  43
HETATM   43  C30 UNL     1     121.743  58.073  16.338  1.00  0.00     0.156 C 
BRANCH  43  44
HETATM   44  C31 UNL     1     120.878  59.012  17.185  1.00  0.00     0.184 C 
BRANCH  44  45
HETATM   45  O4  UNL     1     120.452  60.040  16.329  1.00  0.00    -0.399 OA
ATOM     46  H4  UNL     1     120.118  60.733  16.887  1.00  0.00     0.209 HD
ENDBRANCH  44  45
ENDBRANCH  43  44
ENDBRANCH  40  43
BRANCH  41  47
HETATM   47  O5  UNL     1     122.244  56.597  14.036  1.00  0.00    -0.346 OA
ATOM     48  H5  UNL     1     122.187  56.405  13.107  1.00  0.00     0.219 HD
ENDBRANCH  41  47
ENDBRANCH  34  37
ENDBRANCH  31  33
ENDBRANCH   1  30
TORSDOF 15
ENDMDL
MODEL 2
REMARK VINA RESULT: -9.582952808      2.337      9.262
REMARK  15 active torsions:
REMARK  status: ('A' for Active; 'I' for Inactive)
REMARK       I    between atoms: C1_2  and  N1_3 
REMARK    1  A    between atoms: C1_2  and  C27_37 
REMARK    2  A    between atoms: N1_3  and  N2_5 
REMARK    3  A    between atoms: C2_7  and  C3_8 
REMARK    4  A    between atoms: C6_11  and  O2_12 
REMARK    5  A    between atoms: O2_12  and  C7_13 
REMARK    6  A    between atoms: C7_13  and  C8_14 
REMARK    7  A    between atoms: C8_14  and  C9_15 
REMARK    8  A    between atoms: C9_15  and  C10_16 
REMARK    9  A    between atoms: C10_16  and  C11_17 
REMARK   10  A    between atoms: C11_17  and  C12_18 
REMARK   11  A    between atoms: C12_18  and  N3_19 
REMARK   12  A    between atoms: N5_40  and  C30_41 
REMARK   13  A    between atoms: C30_41  and  C31_42 
REMARK   14  A    between atoms: C31_42  and  O4_43 
REMARK   15  A    between atoms: C32_45  and  O5_46 
ROOT
HETATM    1  C3  UNL     1     125.544  58.255  18.208  1.00  0.00    -0.019 A 
HETATM    2  C4  UNL     1     124.529  57.420  18.572  1.00  0.00     0.015 A 
HETATM    3  C5  UNL     1     123.473  57.849  19.323  1.00  0.00     0.037 A 
HETATM    4  C6  UNL     1     123.359  59.151  19.767  1.00  0.00     0.068 A 
HETATM    5  C25 UNL     1     124.391  60.026  19.406  1.00  0.00     0.037 A 
HETATM    6  C26 UNL     1     125.440  59.586  18.655  1.00  0.00     0.015 A 
ENDROOT
BRANCH   4   7
HETATM    7  O2  UNL     1     122.366  59.593  20.484  1.00  0.00    -0.351 OA
BRANCH   7   8
HETATM    8  C7  UNL     1     121.391  60.025  21.190  1.00  0.00     0.175 C 
BRANCH   8   9
HETATM    9  C8  UNL     1     120.006  60.153  20.529  1.00  0.00     0.027 C 
BRANCH   9  10
HETATM   10  C9  UNL     1     120.145  60.971  19.298  1.00  0.00     0.002 C 
BRANCH  10  11
HETATM   11  C10 UNL     1     119.642  60.270  18.054  1.00  0.00     0.002 C 
BRANCH  11  12
HETATM   12  C11 UNL     1     119.626  58.768  18.192  1.00  0.00     0.020 C 
BRANCH  12  13
HETATM   13  C12 UNL     1     120.633  58.118  17.270  1.00  0.00     0.133 C 
BRANCH  13  14
HETATM   14  N3  UNL     1     120.182  56.898  16.681  1.00  0.00    -0.310 N 
HETATM   15  C13 UNL     1     119.291  56.859  15.682  1.00  0.00     0.186 A 
HETATM   16  N4  UNL     1     118.855  55.732  15.113  1.00  0.00    -0.351 N 
HETATM   17  C14 UNL     1     119.309  54.543  15.535  1.00  0.00     0.060 A 
ATOM     18  H4  UNL     1     118.176  55.776  14.354  1.00  0.00     0.166 HD
HETATM   19  C15 UNL     1     120.232  54.518  16.568  1.00  0.00     0.060 A 
HETATM   20  C23 UNL     1     118.836  53.418  14.923  1.00  0.00     0.002 A 
HETATM   21  C16 UNL     1     120.683  53.299  16.982  1.00  0.00     0.020 A 
HETATM   22  C24 UNL     1     120.659  55.724  17.131  1.00  0.00     0.261 A 
HETATM   23  C17 UNL     1     120.226  52.139  16.385  1.00  0.00     0.013 A 
HETATM   24  C18 UNL     1     119.298  52.194  15.350  1.00  0.00    -0.024 A 
HETATM   25  C19 UNL     1     118.824  51.047  14.735  1.00  0.00     0.012 A 
HETATM   26  C20 UNL     1     117.898  51.137  13.704  1.00  0.00     0.001 A 
HETATM   27  C21 UNL     1     117.429  52.356  13.268  1.00  0.00     0.001 A 
HETATM   28  C22 UNL     1     117.905  53.496  13.887  1.00  0.00     0.014 A 
HETATM   29  O3  UNL     1     121.497  55.627  18.063  1.00  0.00    -0.267 OA
ENDBRANCH  13  14
ENDBRANCH  12  13
ENDBRANCH  11  12
ENDBRANCH  10  11
ENDBRANCH   9  10
ENDBRANCH   8   9
ENDBRANCH   7   8
ENDBRANCH   4   7
BRANCH   1  30
HETATM   30  C2  UNL     1     126.676  57.862  17.405  1.00  0.00     0.118 C 
HETATM   31  N2  UNL     1     126.771  57.024  16.501  1.00  0.00    -0.308 N 
ATOM     32  H2  UNL     1     127.713  56.967  16.113  1.00  0.00     0.186 HD
BRANCH  31  33
HETATM   33  N1  UNL     1     125.915  56.174  15.918  1.00  0.00    -0.266 N 
HETATM   34  C1  UNL     1     126.134  54.779  15.897  1.00  0.00     0.270 C 
HETATM   35  O1  UNL     1     127.178  54.329  16.445  1.00  0.00    -0.266 OA
ATOM     36  H1  UNL     1     125.076  56.548  15.475  1.00  0.00     0.190 HD
BRANCH  34  37
HETATM   37  C27 UNL     1     125.177  53.896  15.256  1.00  0.00     0.039 A 
HETATM   38  C28 UNL     1     123.860  54.201  15.026  1.00  0.00     0.034 A 
HETATM   39  C29 UNL     1     123.004  53.284  14.400  1.00  0.00     0.094 A 
HETATM   40  N5  UNL     1     123.426  52.076  14.000  1.00  0.00    -0.336 N 
HETATM   41  C32 UNL     1     124.713  51.763  14.219  1.00  0.00     0.142 A 
HETATM   42  C33 UNL     1     125.592  52.627  14.828  1.00  0.00     0.073 A 
BRANCH  40  43
HETATM   43  C30 UNL     1     122.488  51.176  13.365  1.00  0.00     0.156 C 
BRANCH  43  44
HETATM   44  C31 UNL     1     121.519  51.990  12.502  1.00  0.00     0.184 C 
BRANCH  44  45
HETATM   45  O4  UNL     1     122.056  51.999  11.204  1.00  0.00    -0.399 OA
ATOM     46  H4  UNL     1     121.325  52.141  10.613  1.00  0.00     0.209 HD
ENDBRANCH  44  45
ENDBRANCH  43  44
ENDBRANCH  40  43
BRANCH  41  47
HETATM   47  O5  UNL     1     125.154  50.521  13.808  1.00  0.00    -0.346 OA
ATOM     48  H5  UNL     1     125.904  50.487  13.226  1.00  0.00     0.219 HD
ENDBRANCH  41  47
ENDBRANCH  34  37
ENDBRANCH  31  33
ENDBRANCH   1  30
TORSDOF 15
ENDMDL
MODEL 3
REMARK VINA RESULT: -9.237423533      2.067      9.401
REMARK  15 active torsions:
REMARK  status: ('A' for Active; 'I' for Inactive)
REMARK       I    between atoms: C1_2  and  N1_3 
REMARK    1  A    between atoms: C1_2  and  C27_37 
REMARK    2  A    between atoms: N1_3  and  N2_5 
REMARK    3  A    between atoms: C2_7  and  C3_8 
REMARK    4  A    between atoms: C6_11  and  O2_12 
REMARK    5  A    between atoms: O2_12  and  C7_13 
REMARK    6  A    between atoms: C7_13  and  C8_14 
REMARK    7  A    between atoms: C8_14  and  C9_15 
REMARK    8  A    between atoms: C9_15  and  C10_16 
REMARK    9  A    between atoms: C10_16  and  C11_17 
REMARK   10  A    between atoms: C11_17  and  C12_18 
REMARK   11  A    between atoms: C12_18  and  N3_19 
REMARK   12  A    between atoms: N5_40  and  C30_41 
REMARK   13  A    between atoms: C30_41  and  C31_42 
REMARK   14  A    between atoms: C31_42  and  O4_43 
REMARK   15  A    between atoms: C32_45  and  O5_46 
ROOT
HETATM    1  C3  UNL     1     124.963  57.876  17.875  1.00  0.00    -0.019 A 
HETATM    2  C4  UNL     1     124.072  56.880  18.145  1.00  0.00     0.015 A 
HETATM    3  C5  UNL     1     122.962  57.090  18.912  1.00  0.00     0.037 A 
HETATM    4  C6  UNL     1     122.666  58.318  19.467  1.00  0.00     0.068 A 
HETATM    5  C25 UNL     1     123.568  59.356  19.204  1.00  0.00     0.037 A 
HETATM    6  C26 UNL     1     124.671  59.134  18.436  1.00  0.00     0.015 A 
ENDROOT
BRANCH   4   7
HETATM    7  O2  UNL     1     121.617  58.552  20.202  1.00  0.00    -0.351 OA
BRANCH   7   8
HETATM    8  C7  UNL     1     120.587  58.783  20.924  1.00  0.00     0.175 C 
BRANCH   8   9
HETATM    9  C8  UNL     1     119.464  59.663  20.342  1.00  0.00     0.027 C 
BRANCH   9  10
HETATM   10  C9  UNL     1     119.417  59.454  18.873  1.00  0.00     0.002 C 
BRANCH  10  11
HETATM   11  C10 UNL     1     118.492  58.329  18.458  1.00  0.00     0.002 C 
BRANCH  11  12
HETATM   12  C11 UNL     1     119.229  57.056  18.123  1.00  0.00     0.020 C 
BRANCH  12  13
HETATM   13  C12 UNL     1     119.757  57.082  16.706  1.00  0.00     0.133 C 
BRANCH  13  14
HETATM   14  N3  UNL     1     119.453  55.910  15.949  1.00  0.00    -0.310 N 
HETATM   15  C13 UNL     1     118.210  55.428  15.823  1.00  0.00     0.186 A 
HETATM   16  N4  UNL     1     117.899  54.336  15.120  1.00  0.00    -0.351 N 
HETATM   17  C14 UNL     1     118.858  53.646  14.485  1.00  0.00     0.060 A 
ATOM     18  H4  UNL     1     116.930  54.025  15.065  1.00  0.00     0.166 HD
HETATM   19  C15 UNL     1     120.165  54.095  14.579  1.00  0.00     0.060 A 
HETATM   20  C23 UNL     1     118.494  52.537  13.778  1.00  0.00     0.002 A 
HETATM   21  C16 UNL     1     121.127  53.381  13.925  1.00  0.00     0.020 A 
HETATM   22  C24 UNL     1     120.441  55.243  15.326  1.00  0.00     0.261 A 
HETATM   23  C17 UNL     1     120.793  52.252  13.199  1.00  0.00     0.013 A 
HETATM   24  C18 UNL     1     119.472  51.825  13.122  1.00  0.00    -0.024 A 
HETATM   25  C19 UNL     1     119.112  50.698  12.402  1.00  0.00     0.012 A 
HETATM   26  C20 UNL     1     117.783  50.298  12.345  1.00  0.00     0.001 A 
HETATM   27  C21 UNL     1     116.795  51.003  12.997  1.00  0.00     0.001 A 
HETATM   28  C22 UNL     1     117.162  52.126  13.714  1.00  0.00     0.014 A 
HETATM   29  O3  UNL     1     121.647  55.594  15.368  1.00  0.00    -0.267 OA
ENDBRANCH  13  14
ENDBRANCH  12  13
ENDBRANCH  11  12
ENDBRANCH  10  11
ENDBRANCH   9  10
ENDBRANCH   8   9
ENDBRANCH   7   8
ENDBRANCH   4   7
BRANCH   1  30
HETATM   30  C2  UNL     1     126.142  57.718  17.060  1.00  0.00     0.118 C 
HETATM   31  N2  UNL     1     126.414  56.885  16.189  1.00  0.00    -0.308 N 
ATOM     32  H2  UNL     1     127.338  57.028  15.780  1.00  0.00     0.186 HD
BRANCH  31  33
HETATM   33  N1  UNL     1     125.768  55.837  15.661  1.00  0.00    -0.266 N 
HETATM   34  C1  UNL     1     126.281  54.522  15.727  1.00  0.00     0.270 C 
HETATM   35  O1  UNL     1     127.390  54.342  16.302  1.00  0.00    -0.266 OA
ATOM     36  H1  UNL     1     124.874  55.993  15.196  1.00  0.00     0.190 HD
BRANCH  34  37
HETATM   37  C27 UNL     1     125.544  53.417  15.144  1.00  0.00     0.039 A 
HETATM   38  C28 UNL     1     125.045  52.350  15.846  1.00  0.00     0.034 A 
HETATM   39  C29 UNL     1     124.343  51.323  15.200  1.00  0.00     0.094 A 
HETATM   40  N5  UNL     1     124.128  51.332  13.876  1.00  0.00    -0.336 N 
HETATM   41  C32 UNL     1     124.611  52.371  13.176  1.00  0.00     0.142 A 
HETATM   42  C33 UNL     1     125.304  53.402  13.762  1.00  0.00     0.073 A 
BRANCH  40  43
HETATM   43  C30 UNL     1     123.401  50.237  13.272  1.00  0.00     0.156 C 
BRANCH  43  44
HETATM   44  C31 UNL     1     123.978  48.912  13.779  1.00  0.00     0.184 C 
BRANCH  44  45
HETATM   45  O4  UNL     1     124.805  48.422  12.754  1.00  0.00    -0.399 OA
ATOM     46  H4  UNL     1     125.099  47.563  13.035  1.00  0.00     0.209 HD
ENDBRANCH  44  45
ENDBRANCH  43  44
ENDBRANCH  40  43
BRANCH  41  47
HETATM   47  O5  UNL     1     124.392  52.387  11.813  1.00  0.00    -0.346 OA
ATOM     48  H5  UNL     1     124.460  53.221  11.362  1.00  0.00     0.219 HD
ENDBRANCH  41  47
ENDBRANCH  34  37
ENDBRANCH  31  33
ENDBRANCH   1  30
TORSDOF 15
ENDMDL
MODEL 4
REMARK VINA RESULT: -9.191015433      3.861     10.058
REMARK  15 active torsions:
REMARK  status: ('A' for Active; 'I' for Inactive)
REMARK       I    between atoms: C1_2  and  N1_3 
REMARK    1  A    between atoms: C1_2  and  C27_37 
REMARK    2  A    between atoms: N1_3  and  N2_5 
REMARK    3  A    between atoms: C2_7  and  C3_8 
REMARK    4  A    between atoms: C6_11  and  O2_12 
REMARK    5  A    between atoms: O2_12  and  C7_13 
REMARK    6  A    between atoms: C7_13  and  C8_14 
REMARK    7  A    between atoms: C8_14  and  C9_15 
REMARK    8  A    between atoms: C9_15  and  C10_16 
REMARK    9  A    between atoms: C10_16  and  C11_17 
REMARK   10  A    between atoms: C11_17  and  C12_18 
REMARK   11  A    between atoms: C12_18  and  N3_19 
REMARK   12  A    between atoms: N5_40  and  C30_41 
REMARK   13  A    between atoms: C30_41  and  C31_42 
REMARK   14  A    between atoms: C31_42  and  O4_43 
REMARK   15  A    between atoms: C32_45  and  O5_46 
ROOT
HETATM    1  C3  UNL     1     125.939  58.335  17.930  1.00  0.00    -0.019 A 
HETATM    2  C4  UNL     1     124.599  58.553  18.050  1.00  0.00     0.015 A 
HETATM    3  C5  UNL     1     124.086  59.427  18.966  1.00  0.00     0.037 A 
HETATM    4  C6  UNL     1     124.885  60.147  19.831  1.00  0.00     0.068 A 
HETATM    5  C25 UNL     1     126.266  59.938  19.726  1.00  0.00     0.037 A 
HETATM    6  C26 UNL     1     126.765  59.064  18.807  1.00  0.00     0.015 A 
ENDROOT
BRANCH   4   7
HETATM    7  O2  UNL     1     124.430  60.987  20.715  1.00  0.00    -0.351 OA
BRANCH   7   8
HETATM    8  C7  UNL     1     123.984  61.812  21.585  1.00  0.00     0.175 C 
BRANCH   8   9
HETATM    9  C8  UNL     1     124.980  62.444  22.576  1.00  0.00     0.027 C 
BRANCH   9  10
HETATM   10  C9  UNL     1     124.657  61.961  23.941  1.00  0.00     0.002 C 
BRANCH  10  11
HETATM   11  C10 UNL     1     123.329  62.473  24.458  1.00  0.00     0.002 C 
BRANCH  11  12
HETATM   12  C11 UNL     1     122.520  61.409  25.157  1.00  0.00     0.020 C 
BRANCH  12  13
HETATM   13  C12 UNL     1     121.097  61.373  24.645  1.00  0.00     0.133 C 
BRANCH  13  14
HETATM   14  N3  UNL     1     120.959  60.801  23.345  1.00  0.00    -0.310 N 
HETATM   15  C13 UNL     1     121.116  59.492  23.107  1.00  0.00     0.186 A 
HETATM   16  N4  UNL     1     120.991  58.931  21.901  1.00  0.00    -0.351 N 
HETATM   17  C14 UNL     1     120.690  59.685  20.834  1.00  0.00     0.060 A 
ATOM     18  H4  UNL     1     121.123  57.926  21.792  1.00  0.00     0.166 HD
HETATM   19  C15 UNL     1     120.516  61.047  21.016  1.00  0.00     0.060 A 
HETATM   20  C23 UNL     1     120.570  59.068  19.622  1.00  0.00     0.002 A 
HETATM   21  C16 UNL     1     120.208  61.797  19.919  1.00  0.00     0.020 A 
HETATM   22  C24 UNL     1     120.657  61.588  22.297  1.00  0.00     0.261 A 
HETATM   23  C17 UNL     1     120.080  61.205  18.676  1.00  0.00     0.013 A 
HETATM   24  C18 UNL     1     120.261  59.835  18.522  1.00  0.00    -0.024 A 
HETATM   25  C19 UNL     1     120.137  59.218  17.288  1.00  0.00     0.012 A 
HETATM   26  C20 UNL     1     120.323  57.847  17.169  1.00  0.00     0.001 A 
HETATM   27  C21 UNL     1     120.634  57.069  18.263  1.00  0.00     0.001 A 
HETATM   28  C22 UNL     1     120.756  57.692  19.490  1.00  0.00     0.014 A 
HETATM   29  O3  UNL     1     120.485  62.829  22.391  1.00  0.00    -0.267 OA
ENDBRANCH  13  14
ENDBRANCH  12  13
ENDBRANCH  11  12
ENDBRANCH  10  11
ENDBRANCH   9  10
ENDBRANCH   8   9
ENDBRANCH   7   8
ENDBRANCH   4   7
BRANCH   1  30
HETATM   30  C2  UNL     1     126.537  57.438  16.973  1.00  0.00     0.118 C 
HETATM   31  N2  UNL     1     126.027  56.582  16.240  1.00  0.00    -0.308 N 
ATOM     32  H2  UNL     1     126.713  56.097  15.662  1.00  0.00     0.186 HD
BRANCH  31  33
HETATM   33  N1  UNL     1     124.775  56.151  16.037  1.00  0.00    -0.266 N 
HETATM   34  C1  UNL     1     124.484  55.042  15.211  1.00  0.00     0.270 C 
HETATM   35  O1  UNL     1     125.444  54.448  14.648  1.00  0.00    -0.266 OA
ATOM     36  H1  UNL     1     124.005  56.640  16.494  1.00  0.00     0.190 HD
BRANCH  34  37
HETATM   37  C27 UNL     1     123.112  54.608  15.022  1.00  0.00     0.039 A 
HETATM   38  C28 UNL     1     122.699  53.301  15.002  1.00  0.00     0.034 A 
HETATM   39  C29 UNL     1     121.349  52.972  14.813  1.00  0.00     0.094 A 
HETATM   40  N5  UNL     1     120.406  53.909  14.643  1.00  0.00    -0.336 N 
HETATM   41  C32 UNL     1     120.796  55.194  14.661  1.00  0.00     0.142 A 
HETATM   42  C33 UNL     1     122.106  55.568  14.843  1.00  0.00     0.073 A 
BRANCH  40  43
HETATM   43  C30 UNL     1     119.032  53.500  14.447  1.00  0.00     0.156 C 
BRANCH  43  44
HETATM   44  C31 UNL     1     118.969  52.493  13.294  1.00  0.00     0.184 C 
BRANCH  44  45
HETATM   45  O4  UNL     1     117.812  52.802  12.561  1.00  0.00    -0.399 OA
ATOM     46  H4  UNL     1     117.625  53.718  12.729  1.00  0.00     0.209 HD
ENDBRANCH  44  45
ENDBRANCH  43  44
ENDBRANCH  40  43
BRANCH  41  47
HETATM   47  O5  UNL     1     119.829  56.164  14.487  1.00  0.00    -0.346 OA
ATOM     48  H5  UNL     1     120.017  56.875  13.886  1.00  0.00     0.219 HD
ENDBRANCH  41  47
ENDBRANCH  34  37
ENDBRANCH  31  33
ENDBRANCH   1  30
TORSDOF 15
ENDMDL
MODEL 5
REMARK VINA RESULT: -9.029232848      4.007      9.560
REMARK  15 active torsions:
REMARK  status: ('A' for Active; 'I' for Inactive)
REMARK       I    between atoms: C1_2  and  N1_3 
REMARK    1  A    between atoms: C1_2  and  C27_37 
REMARK    2  A    between atoms: N1_3  and  N2_5 
REMARK    3  A    between atoms: C2_7  and  C3_8 
REMARK    4  A    between atoms: C6_11  and  O2_12 
REMARK    5  A    between atoms: O2_12  and  C7_13 
REMARK    6  A    between atoms: C7_13  and  C8_14 
REMARK    7  A    between atoms: C8_14  and  C9_15 
REMARK    8  A    between atoms: C9_15  and  C10_16 
REMARK    9  A    between atoms: C10_16  and  C11_17 
REMARK   10  A    between atoms: C11_17  and  C12_18 
REMARK   11  A    between atoms: C12_18  and  N3_19 
REMARK   12  A    between atoms: N5_40  and  C30_41 
REMARK   13  A    between atoms: C30_41  and  C31_42 
REMARK   14  A    between atoms: C31_42  and  O4_43 
REMARK   15  A    between atoms: C32_45  and  O5_46 
ROOT
HETATM    1  C3  UNL     1     120.241  60.157  19.066  1.00  0.00    -0.019 A 
HETATM    2  C4  UNL     1     120.307  58.904  19.599  1.00  0.00     0.015 A 
HETATM    3  C5  UNL     1     120.511  58.695  20.933  1.00  0.00     0.037 A 
HETATM    4  C6  UNL     1     120.665  59.731  21.831  1.00  0.00     0.068 A 
HETATM    5  C25 UNL     1     120.602  61.028  21.305  1.00  0.00     0.037 A 
HETATM    6  C26 UNL     1     120.397  61.223  19.972  1.00  0.00     0.015 A 
ENDROOT
BRANCH   4   7
HETATM    7  O2  UNL     1     120.861  59.567  23.108  1.00  0.00    -0.351 OA
BRANCH   7   8
HETATM    8  C7  UNL     1     121.053  59.407  24.362  1.00  0.00     0.175 C 
BRANCH   8   9
HETATM    9  C8  UNL     1     121.240  60.658  25.242  1.00  0.00     0.027 C 
BRANCH   9  10
HETATM   10  C9  UNL     1     122.670  61.054  25.200  1.00  0.00     0.002 C 
BRANCH  10  11
HETATM   11  C10 UNL     1     122.933  62.248  24.307  1.00  0.00     0.002 C 
BRANCH  11  12
HETATM   12  C11 UNL     1     124.383  62.376  23.910  1.00  0.00     0.020 C 
BRANCH  12  13
HETATM   13  C12 UNL     1     124.523  62.859  22.483  1.00  0.00     0.133 C 
BRANCH  13  14
HETATM   14  N3  UNL     1     124.778  61.820  21.538  1.00  0.00    -0.310 N 
HETATM   15  C13 UNL     1     123.881  60.870  21.244  1.00  0.00     0.186 A 
HETATM   16  N4  UNL     1     124.093  59.889  20.363  1.00  0.00    -0.351 N 
HETATM   17  C14 UNL     1     125.261  59.809  19.709  1.00  0.00     0.060 A 
ATOM     18  H4  UNL     1     123.364  59.198  20.186  1.00  0.00     0.166 HD
HETATM   19  C15 UNL     1     126.230  60.764  19.972  1.00  0.00     0.060 A 
HETATM   20  C23 UNL     1     125.433  58.790  18.817  1.00  0.00     0.002 A 
HETATM   21  C16 UNL     1     127.411  60.668  19.295  1.00  0.00     0.020 A 
HETATM   22  C24 UNL     1     125.961  61.772  20.902  1.00  0.00     0.261 A 
HETATM   23  C17 UNL     1     127.619  59.648  18.385  1.00  0.00     0.013 A 
HETATM   24  C18 UNL     1     126.628  58.703  18.141  1.00  0.00    -0.024 A 
HETATM   25  C19 UNL     1     126.812  57.673  17.234  1.00  0.00     0.012 A 
HETATM   26  C20 UNL     1     125.802  56.746  17.013  1.00  0.00     0.001 A 
HETATM   27  C21 UNL     1     124.601  56.823  17.684  1.00  0.00     0.001 A 
HETATM   28  C22 UNL     1     124.425  57.853  18.588  1.00  0.00     0.014 A 
HETATM   29  O3  UNL     1     126.884  62.604  21.091  1.00  0.00    -0.267 OA
ENDBRANCH  13  14
ENDBRANCH  12  13
ENDBRANCH  11  12
ENDBRANCH  10  11
ENDBRANCH   9  10
ENDBRANCH   8   9
ENDBRANCH   7   8
ENDBRANCH   4   7
BRANCH   1  30
HETATM   30  C2  UNL     1     120.013  60.439  17.670  1.00  0.00     0.118 C 
HETATM   31  N2  UNL     1     120.396  59.847  16.655  1.00  0.00    -0.308 N 
ATOM     32  H2  UNL     1     120.071  60.288  15.794  1.00  0.00     0.186 HD
BRANCH  31  33
HETATM   33  N1  UNL     1     121.141  58.757  16.432  1.00  0.00    -0.266 N 
HETATM   34  C1  UNL     1     120.576  57.469  16.306  1.00  0.00     0.270 C 
HETATM   35  O1  UNL     1     119.324  57.353  16.412  1.00  0.00    -0.266 OA
ATOM     36  H1  UNL     1     122.153  58.860  16.351  1.00  0.00     0.190 HD
BRANCH  34  37
HETATM   37  C27 UNL     1     121.423  56.316  16.061  1.00  0.00     0.039 A 
HETATM   38  C28 UNL     1     121.404  55.158  16.796  1.00  0.00     0.034 A 
HETATM   39  C29 UNL     1     122.260  54.092  16.488  1.00  0.00     0.094 A 
HETATM   40  N5  UNL     1     123.132  54.151  15.471  1.00  0.00    -0.336 N 
HETATM   41  C32 UNL     1     123.162  55.279  14.742  1.00  0.00     0.142 A 
HETATM   42  C33 UNL     1     122.343  56.351  15.003  1.00  0.00     0.073 A 
BRANCH  40  43
HETATM   43  C30 UNL     1     123.992  53.016  15.211  1.00  0.00     0.156 C 
BRANCH  43  44
HETATM   44  C31 UNL     1     125.298  53.188  15.993  1.00  0.00     0.184 C 
BRANCH  44  45
HETATM   45  O4  UNL     1     126.208  53.798  15.115  1.00  0.00    -0.399 OA
ATOM     46  H4  UNL     1     125.781  53.833  14.267  1.00  0.00     0.209 HD
ENDBRANCH  44  45
ENDBRANCH  43  44
ENDBRANCH  40  43
BRANCH  41  47
HETATM   47  O5  UNL     1     124.056  55.345  13.693  1.00  0.00    -0.346 OA
ATOM     48  H5  UNL     1     124.101  54.602  13.101  1.00  0.00     0.219 HD
ENDBRANCH  41  47
ENDBRANCH  34  37
ENDBRANCH  31  33
ENDBRANCH   1  30
TORSDOF 15
ENDMDL
