MODEL 1
REMARK VINA RESULT: -8.830594945      0.000      0.000
REMARK  13 active torsions:
REMARK  status: ('A' for Active; 'I' for Inactive)
REMARK    1  A    between atoms: C2_2  and  N1_3 
REMARK    2  A    between atoms: N1_3  and  C3_4 
REMARK       I    between atoms: N1_3  and  C5_6 
REMARK    3  A    between atoms: C5_6  and  C6_8 
REMARK    4  A    between atoms: N3_11  and  C7_12 
REMARK    5  A    between atoms: C10_15  and  N4_16 
REMARK    6  A    between atoms: N4_16  and  C11_18 
REMARK    7  A    between atoms: C11_18  and  C12_19 
REMARK    8  A    between atoms: C19_30  and  N7_31 
REMARK    9  A    between atoms: N7_31  and  C20_33 
REMARK   10  A    between atoms: C20_33  and  C21_34 
REMARK   11  A    between atoms: C21_34  and  N8_35 
REMARK   12  A    between atoms: N8_35  and  C22_38 
REMARK   13  A    between atoms: C22_38  and  C23_39 
ROOT
HETATM    1  C6  UNL     1      70.534  55.436  15.379  1.00  0.00     0.146 A 
HETATM    2  N2  UNL     1      71.772  54.990  15.509  1.00  0.00    -0.291 N 
ATOM      3  H2  UNL     1      72.075  54.061  15.217  1.00  0.00     0.187 HD
HETATM    4  N3  UNL     1      72.578  55.893  16.064  1.00  0.00    -0.286 N 
HETATM    5  C9  UNL     1      71.832  56.981  16.309  1.00  0.00     0.124 A 
HETATM    6  C10 UNL     1      72.160  58.207  16.877  1.00  0.00     0.148 A 
HETATM    7  N6  UNL     1      71.203  59.125  17.007  1.00  0.00    -0.175 N 
ATOM      8  H6  UNL     1      71.424  60.030  17.422  1.00  0.00     0.186 HD
HETATM    9  C19 UNL     1      69.920  58.860  16.586  1.00  0.00     0.680 A 
HETATM   10  N10 UNL     1      69.605  57.691  16.044  1.00  0.00    -0.187 N 
ATOM     11  H10 UNL     1      68.648  57.514  15.738  1.00  0.00     0.184 HD
HETATM   12  C29 UNL     1      70.550  56.732  15.895  1.00  0.00     0.115 A 
ENDROOT
BRANCH   9  13
HETATM   13  N7  UNL     1      69.024  59.772  16.724  1.00  0.00    -0.224 N 
ATOM     14  H7  UNL     1      68.521  60.061  15.886  1.00  0.00     0.177 HD
BRANCH  13  15
HETATM   15  C20 UNL     1      68.671  60.414  17.950  1.00  0.00     0.165 C 
BRANCH  15  16
HETATM   16  C21 UNL     1      68.328  59.501  19.083  1.00  0.00     0.252 C 
BRANCH  16  17
HETATM   17  N8  UNL     1      69.121  59.647  20.272  1.00  0.00    -0.073 N 
ATOM     18  H82 UNL     1      69.087  58.811  20.855  1.00  0.00     0.277 HD
ATOM     19  H81 UNL     1      70.120  59.646  20.064  1.00  0.00     0.277 HD
BRANCH  17  20
HETATM   20  C22 UNL     1      68.720  60.844  21.013  1.00  0.00     0.237 C 
BRANCH  20  21
HETATM   21  C23 UNL     1      69.574  61.085  22.240  1.00  0.00     0.014 C 
HETATM   22  C24 UNL     1      69.044  62.278  23.021  1.00  0.00     0.036 C 
HETATM   23  C25 UNL     1      68.210  61.867  24.214  1.00  0.00     0.272 C 
HETATM   24  N9  UNL     1      69.007  61.134  25.185  1.00  0.00     0.084 N 
HETATM   25  C26 UNL     1      69.898  62.019  25.914  1.00  0.00     0.309 C 
HETATM   26  C27 UNL     1      69.789  60.095  24.557  1.00  0.00     0.272 C 
HETATM   27  C28 UNL     1      69.468  59.866  23.114  1.00  0.00     0.036 C 
ENDBRANCH  20  21
ENDBRANCH  17  20
ENDBRANCH  16  17
ENDBRANCH  15  16
ENDBRANCH  13  15
ENDBRANCH   9  13
BRANCH   6  28
HETATM   28  N4  UNL     1      73.354  58.422  17.249  1.00  0.00    -0.368 N 
ATOM     29  H4  UNL     1      74.006  58.764  16.544  1.00  0.00     0.161 HD
BRANCH  28  30
HETATM   30  C11 UNL     1      73.863  58.229  18.556  1.00  0.00     0.178 C 
BRANCH  30  31
HETATM   31  C12 UNL     1      73.881  59.487  19.367  1.00  0.00     0.033 A 
HETATM   32  N5  UNL     1      72.748  59.856  19.971  1.00  0.00    -0.367 N 
HETATM   33  C13 UNL     1      72.672  60.966  20.734  1.00  0.00     0.095 A 
ATOM     34  H5  UNL     1      71.914  59.280  19.852  1.00  0.00     0.165 HD
HETATM   35  C14 UNL     1      73.799  61.759  20.902  1.00  0.00    -0.046 A 
HETATM   36  C15 UNL     1      73.693  62.965  21.734  1.00  0.00     0.049 C 
HETATM   37  C16 UNL     1      74.991  61.407  20.289  1.00  0.00     0.017 A 
HETATM   38  C17 UNL     1      75.008  60.261  19.522  1.00  0.00    -0.037 A 
HETATM   39  C18 UNL     1      76.260  59.835  18.832  1.00  0.00     0.050 C 
ENDBRANCH  30  31
ENDBRANCH  28  30
ENDBRANCH   6  28
BRANCH   1  40
HETATM   40  C5  UNL     1      69.368  54.779  14.795  1.00  0.00     0.274 C 
HETATM   41  N1  UNL     1      69.368  53.514  14.175  1.00  0.00    -0.347 N 
HETATM   42  O1  UNL     1      68.232  55.367  14.828  1.00  0.00    -0.266 OA
BRANCH  41  43
HETATM   43  C2  UNL     1      70.540  52.675  14.014  1.00  0.00     0.121 C 
HETATM   44  C1  UNL     1      70.526  52.072  12.635  1.00  0.00     0.026 C 
ENDBRANCH  41  43
BRANCH  41  45
HETATM   45  C3  UNL     1      68.092  53.019  13.652  1.00  0.00     0.121 C 
HETATM   46  C4  UNL     1      67.496  51.993  14.583  1.00  0.00     0.026 C 
ENDBRANCH  41  45
ENDBRANCH   1  40
BRANCH   4  47
HETATM   47  C7  UNL     1      73.969  55.612  16.284  1.00  0.00     0.145 C 
HETATM   48  C8  UNL     1      74.201  54.131  16.229  1.00  0.00     0.028 C 
ENDBRANCH   4  47
TORSDOF 13
ENDMDL
MODEL 2
REMARK VINA RESULT: -8.818550061      2.905      8.440
REMARK  13 active torsions:
REMARK  status: ('A' for Active; 'I' for Inactive)
REMARK    1  A    between atoms: C2_2  and  N1_3 
REMARK    2  A    between atoms: N1_3  and  C3_4 
REMARK       I    between atoms: N1_3  and  C5_6 
REMARK    3  A    between atoms: C5_6  and  C6_8 
REMARK    4  A    between atoms: N3_11  and  C7_12 
REMARK    5  A    between atoms: C10_15  and  N4_16 
REMARK    6  A    between atoms: N4_16  and  C11_18 
REMARK    7  A    between atoms: C11_18  and  C12_19 
REMARK    8  A    between atoms: C19_30  and  N7_31 
REMARK    9  A    between atoms: N7_31  and  C20_33 
REMARK   10  A    between atoms: C20_33  and  C21_34 
REMARK   11  A    between atoms: C21_34  and  N8_35 
REMARK   12  A    between atoms: N8_35  and  C22_38 
REMARK   13  A    between atoms: C22_38  and  C23_39 
ROOT
HETATM    1  C6  UNL     1      68.725  55.778  15.961  1.00  0.00     0.146 A 
HETATM    2  N2  UNL     1      68.606  56.408  17.117  1.00  0.00    -0.291 N 
ATOM      3  H2  UNL     1      67.718  56.545  17.601  1.00  0.00     0.187 HD
HETATM    4  N3  UNL     1      69.777  56.844  17.578  1.00  0.00    -0.286 N 
HETATM    5  C9  UNL     1      70.706  56.481  16.680  1.00  0.00     0.124 A 
HETATM    6  C10 UNL     1      72.082  56.680  16.655  1.00  0.00     0.148 A 
HETATM    7  N6  UNL     1      72.775  56.209  15.620  1.00  0.00    -0.175 N 
ATOM      8  H6  UNL     1      73.785  56.345  15.584  1.00  0.00     0.186 HD
HETATM    9  C19 UNL     1      72.138  55.541  14.600  1.00  0.00     0.680 A 
HETATM   10  N10 UNL     1      70.825  55.350  14.621  1.00  0.00    -0.187 N 
ATOM     11  H10 UNL     1      70.371  54.853  13.854  1.00  0.00     0.184 HD
HETATM   12  C29 UNL     1      70.086  55.815  15.657  1.00  0.00     0.115 A 
ENDROOT
BRANCH   9  13
HETATM   13  N7  UNL     1      72.840  55.098  13.618  1.00  0.00    -0.224 N 
ATOM     14  H7  UNL     1      72.962  55.717  12.817  1.00  0.00     0.177 HD
BRANCH  13  15
HETATM   15  C20 UNL     1      73.465  53.816  13.551  1.00  0.00     0.165 C 
BRANCH  15  16
HETATM   16  C21 UNL     1      73.196  52.905  14.706  1.00  0.00     0.252 C 
BRANCH  16  17
HETATM   17  N8  UNL     1      72.236  51.863  14.476  1.00  0.00    -0.073 N 
ATOM     18  H82 UNL     1      71.925  51.435  15.348  1.00  0.00     0.277 HD
ATOM     19  H81 UNL     1      71.340  52.235  14.162  1.00  0.00     0.277 HD
BRANCH  17  20
HETATM   20  C22 UNL     1      72.770  50.869  13.543  1.00  0.00     0.237 C 
BRANCH  20  21
HETATM   21  C23 UNL     1      73.335  49.653  14.245  1.00  0.00     0.014 C 
HETATM   22  C24 UNL     1      72.337  48.506  14.190  1.00  0.00     0.036 C 
HETATM   23  C25 UNL     1      72.669  47.499  13.111  1.00  0.00     0.272 C 
HETATM   24  N9  UNL     1      73.942  46.848  13.372  1.00  0.00     0.084 N 
HETATM   25  C26 UNL     1      73.833  45.886  14.454  1.00  0.00     0.309 C 
HETATM   26  C27 UNL     1      74.973  47.805  13.698  1.00  0.00     0.272 C 
HETATM   27  C28 UNL     1      74.574  49.234  13.503  1.00  0.00     0.036 C 
ENDBRANCH  20  21
ENDBRANCH  17  20
ENDBRANCH  16  17
ENDBRANCH  15  16
ENDBRANCH  13  15
ENDBRANCH   9  13
BRANCH   6  28
HETATM   28  N4  UNL     1      72.640  57.295  17.616  1.00  0.00    -0.368 N 
ATOM     29  H4  UNL     1      72.313  57.079  18.557  1.00  0.00     0.161 HD
BRANCH  28  30
HETATM   30  C11 UNL     1      73.675  58.254  17.497  1.00  0.00     0.178 C 
BRANCH  30  31
HETATM   31  C12 UNL     1      73.582  59.341  18.522  1.00  0.00     0.033 A 
HETATM   32  N5  UNL     1      72.502  60.126  18.501  1.00  0.00    -0.367 N 
HETATM   33  C13 UNL     1      72.325  61.122  19.394  1.00  0.00     0.095 A 
ATOM     34  H5  UNL     1      71.789  59.968  17.789  1.00  0.00     0.165 HD
HETATM   35  C14 UNL     1      73.288  61.349  20.368  1.00  0.00    -0.046 A 
HETATM   36  C15 UNL     1      73.075  62.441  21.327  1.00  0.00     0.049 C 
HETATM   37  C16 UNL     1      74.421  60.554  20.417  1.00  0.00     0.017 A 
HETATM   38  C17 UNL     1      74.548  59.551  19.479  1.00  0.00    -0.037 A 
HETATM   39  C18 UNL     1      75.750  58.667  19.478  1.00  0.00     0.050 C 
ENDBRANCH  30  31
ENDBRANCH  28  30
ENDBRANCH   6  28
BRANCH   1  40
HETATM   40  C5  UNL     1      67.700  55.129  15.148  1.00  0.00     0.274 C 
HETATM   41  N1  UNL     1      67.626  53.750  14.874  1.00  0.00    -0.347 N 
HETATM   42  O1  UNL     1      66.773  55.837  14.621  1.00  0.00    -0.266 OA
BRANCH  41  43
HETATM   43  C2  UNL     1      68.572  52.762  15.355  1.00  0.00     0.121 C 
HETATM   44  C1  UNL     1      68.047  52.159  16.630  1.00  0.00     0.026 C 
ENDBRANCH  41  43
BRANCH  41  45
HETATM   45  C3  UNL     1      66.515  53.286  14.038  1.00  0.00     0.121 C 
HETATM   46  C4  UNL     1      67.010  52.347  12.967  1.00  0.00     0.026 C 
ENDBRANCH  41  45
ENDBRANCH   1  40
BRANCH   4  47
HETATM   47  C7  UNL     1      69.870  57.544  18.827  1.00  0.00     0.145 C 
HETATM   48  C8  UNL     1      68.517  58.063  19.219  1.00  0.00     0.028 C 
ENDBRANCH   4  47
TORSDOF 13
ENDMDL
MODEL 3
REMARK VINA RESULT: -8.803230278      2.789      8.080
REMARK  13 active torsions:
REMARK  status: ('A' for Active; 'I' for Inactive)
REMARK    1  A    between atoms: C2_2  and  N1_3 
REMARK    2  A    between atoms: N1_3  and  C3_4 
REMARK       I    between atoms: N1_3  and  C5_6 
REMARK    3  A    between atoms: C5_6  and  C6_8 
REMARK    4  A    between atoms: N3_11  and  C7_12 
REMARK    5  A    between atoms: C10_15  and  N4_16 
REMARK    6  A    between atoms: N4_16  and  C11_18 
REMARK    7  A    between atoms: C11_18  and  C12_19 
REMARK    8  A    between atoms: C19_30  and  N7_31 
REMARK    9  A    between atoms: N7_31  and  C20_33 
REMARK   10  A    between atoms: C20_33  and  C21_34 
REMARK   11  A    between atoms: C21_34  and  N8_35 
REMARK   12  A    between atoms: N8_35  and  C22_38 
REMARK   13  A    between atoms: C22_38  and  C23_39 
ROOT
HETATM    1  C6  UNL     1      68.700  55.803  16.023  1.00  0.00     0.146 A 
HETATM    2  N2  UNL     1      68.560  56.435  17.176  1.00  0.00    -0.291 N 
ATOM      3  H2  UNL     1      67.666  56.558  17.653  1.00  0.00     0.187 HD
HETATM    4  N3  UNL     1      69.720  56.893  17.644  1.00  0.00    -0.286 N 
HETATM    5  C9  UNL     1      70.662  56.544  16.755  1.00  0.00     0.124 A 
HETATM    6  C10 UNL     1      72.035  56.767  16.741  1.00  0.00     0.148 A 
HETATM    7  N6  UNL     1      72.744  56.304  15.713  1.00  0.00    -0.175 N 
ATOM      8  H6  UNL     1      73.752  56.458  15.683  1.00  0.00     0.186 HD
HETATM    9  C19 UNL     1      72.127  55.621  14.690  1.00  0.00     0.680 A 
HETATM   10  N10 UNL     1      70.817  55.407  14.701  1.00  0.00    -0.187 N 
ATOM     11  H10 UNL     1      70.379  54.900  13.933  1.00  0.00     0.184 HD
HETATM   12  C29 UNL     1      70.062  55.863  15.730  1.00  0.00     0.115 A 
ENDROOT
BRANCH   9  13
HETATM   13  N7  UNL     1      72.845  55.187  13.715  1.00  0.00    -0.224 N 
ATOM     14  H7  UNL     1      72.962  55.805  12.912  1.00  0.00     0.177 HD
BRANCH  13  15
HETATM   15  C20 UNL     1      73.492  53.915  13.659  1.00  0.00     0.165 C 
BRANCH  15  16
HETATM   16  C21 UNL     1      73.463  53.118  14.923  1.00  0.00     0.252 C 
BRANCH  16  17
HETATM   17  N8  UNL     1      72.554  52.006  14.945  1.00  0.00    -0.073 N 
ATOM     18  H82 UNL     1      72.160  51.858  15.874  1.00  0.00     0.277 HD
ATOM     19  H81 UNL     1      71.690  52.212  14.444  1.00  0.00     0.277 HD
BRANCH  17  20
HETATM   20  C22 UNL     1      73.207  50.800  14.433  1.00  0.00     0.237 C 
BRANCH  20  21
HETATM   21  C23 UNL     1      72.379  50.089  13.383  1.00  0.00     0.014 C 
HETATM   22  C24 UNL     1      72.432  48.584  13.605  1.00  0.00     0.036 C 
HETATM   23  C25 UNL     1      71.200  48.059  14.309  1.00  0.00     0.272 C 
HETATM   24  N9  UNL     1      70.008  48.256  13.501  1.00  0.00     0.084 N 
HETATM   25  C26 UNL     1      69.962  47.324  12.389  1.00  0.00     0.309 C 
HETATM   26  C27 UNL     1      69.929  49.602  12.987  1.00  0.00     0.272 C 
HETATM   27  C28 UNL     1      70.953  50.539  13.546  1.00  0.00     0.036 C 
ENDBRANCH  20  21
ENDBRANCH  17  20
ENDBRANCH  16  17
ENDBRANCH  15  16
ENDBRANCH  13  15
ENDBRANCH   9  13
BRANCH   6  28
HETATM   28  N4  UNL     1      72.574  57.395  17.703  1.00  0.00    -0.368 N 
ATOM     29  H4  UNL     1      72.187  57.239  18.633  1.00  0.00     0.161 HD
BRANCH  28  30
HETATM   30  C11 UNL     1      73.664  58.292  17.600  1.00  0.00     0.178 C 
BRANCH  30  31
HETATM   31  C12 UNL     1      73.606  59.398  18.607  1.00  0.00     0.033 A 
HETATM   32  N5  UNL     1      72.550  60.215  18.576  1.00  0.00    -0.367 N 
HETATM   33  C13 UNL     1      72.404  61.230  19.452  1.00  0.00     0.095 A 
ATOM     34  H5  UNL     1      71.831  60.067  17.867  1.00  0.00     0.165 HD
HETATM   35  C14 UNL     1      73.376  61.443  20.421  1.00  0.00    -0.046 A 
HETATM   36  C15 UNL     1      73.197  62.556  21.363  1.00  0.00     0.049 C 
HETATM   37  C16 UNL     1      74.484  60.615  20.482  1.00  0.00     0.017 A 
HETATM   38  C17 UNL     1      74.580  59.594  19.560  1.00  0.00    -0.037 A 
HETATM   39  C18 UNL     1      75.755  58.674  19.572  1.00  0.00     0.050 C 
ENDBRANCH  30  31
ENDBRANCH  28  30
ENDBRANCH   6  28
BRANCH   1  40
HETATM   40  C5  UNL     1      67.692  55.133  15.205  1.00  0.00     0.274 C 
HETATM   41  N1  UNL     1      67.649  53.753  14.929  1.00  0.00    -0.347 N 
HETATM   42  O1  UNL     1      66.752  55.821  14.675  1.00  0.00    -0.266 OA
BRANCH  41  43
HETATM   43  C2  UNL     1      68.615  52.785  15.413  1.00  0.00     0.121 C 
HETATM   44  C1  UNL     1      68.085  52.148  16.669  1.00  0.00     0.026 C 
ENDBRANCH  41  43
BRANCH  41  45
HETATM   45  C3  UNL     1      66.553  53.266  14.087  1.00  0.00     0.121 C 
HETATM   46  C4  UNL     1      67.068  52.308  13.043  1.00  0.00     0.026 C 
ENDBRANCH  41  45
ENDBRANCH   1  40
BRANCH   4  47
HETATM   47  C7  UNL     1      69.790  57.600  18.892  1.00  0.00     0.145 C 
HETATM   48  C8  UNL     1      68.420  58.068  19.287  1.00  0.00     0.028 C 
ENDBRANCH   4  47
TORSDOF 13
ENDMDL
MODEL 4
REMARK VINA RESULT: -8.785177950      1.707      7.181
REMARK  13 active torsions:
REMARK  status: ('A' for Active; 'I' for Inactive)
REMARK    1  A    between atoms: C2_2  and  N1_3 
REMARK    2  A    between atoms: N1_3  and  C3_4 
REMARK       I    between atoms: N1_3  and  C5_6 
REMARK    3  A    between atoms: C5_6  and  C6_8 
REMARK    4  A    between atoms: N3_11  and  C7_12 
REMARK    5  A    between atoms: C10_15  and  N4_16 
REMARK    6  A    between atoms: N4_16  and  C11_18 
REMARK    7  A    between atoms: C11_18  and  C12_19 
REMARK    8  A    between atoms: C19_30  and  N7_31 
REMARK    9  A    between atoms: N7_31  and  C20_33 
REMARK   10  A    between atoms: C20_33  and  C21_34 
REMARK   11  A    between atoms: C21_34  and  N8_35 
REMARK   12  A    between atoms: N8_35  and  C22_38 
REMARK   13  A    between atoms: C22_38  and  C23_39 
ROOT
HETATM    1  C6  UNL     1      72.689  58.364  18.641  1.00  0.00     0.146 A 
HETATM    2  N2  UNL     1      73.225  57.191  18.352  1.00  0.00    -0.291 N 
ATOM      3  H2  UNL     1      74.095  56.847  18.760  1.00  0.00     0.187 HD
HETATM    4  N3  UNL     1      72.501  56.508  17.467  1.00  0.00    -0.286 N 
HETATM    5  C9  UNL     1      71.441  57.271  17.163  1.00  0.00     0.124 A 
HETATM    6  C10 UNL     1      70.374  57.053  16.298  1.00  0.00     0.148 A 
HETATM    7  N6  UNL     1      69.444  57.999  16.182  1.00  0.00    -0.175 N 
ATOM      8  H6  UNL     1      68.654  57.858  15.553  1.00  0.00     0.186 HD
HETATM    9  C19 UNL     1      69.541  59.166  16.906  1.00  0.00     0.680 A 
HETATM   10  N10 UNL     1      70.559  59.377  17.731  1.00  0.00    -0.187 N 
ATOM     11  H10 UNL     1      70.614  60.248  18.258  1.00  0.00     0.184 HD
HETATM   12  C29 UNL     1      71.525  58.438  17.876  1.00  0.00     0.115 A 
ENDROOT
BRANCH   9  13
HETATM   13  N7  UNL     1      68.623  60.056  16.770  1.00  0.00    -0.224 N 
ATOM     14  H7  UNL     1      68.269  60.220  15.828  1.00  0.00     0.177 HD
BRANCH  13  15
HETATM   15  C20 UNL     1      68.056  60.835  17.824  1.00  0.00     0.165 C 
BRANCH  15  16
HETATM   16  C21 UNL     1      67.485  60.059  18.966  1.00  0.00     0.252 C 
BRANCH  16  17
HETATM   17  N8  UNL     1      68.284  60.012  20.158  1.00  0.00    -0.073 N 
ATOM     18  H82 UNL     1      67.790  59.561  20.928  1.00  0.00     0.277 HD
ATOM     19  H81 UNL     1      69.059  59.354  20.070  1.00  0.00     0.277 HD
BRANCH  17  20
HETATM   20  C22 UNL     1      68.747  61.353  20.520  1.00  0.00     0.237 C 
BRANCH  20  21
HETATM   21  C23 UNL     1      69.556  61.367  21.799  1.00  0.00     0.014 C 
HETATM   22  C24 UNL     1      69.012  62.420  22.752  1.00  0.00     0.036 C 
HETATM   23  C25 UNL     1      68.128  61.828  23.828  1.00  0.00     0.272 C 
HETATM   24  N9  UNL     1      68.878  60.927  24.688  1.00  0.00     0.084 N 
HETATM   25  C26 UNL     1      69.752  61.659  25.588  1.00  0.00     0.309 C 
HETATM   26  C27 UNL     1      69.671  59.996  23.921  1.00  0.00     0.272 C 
HETATM   27  C28 UNL     1      69.402  60.019  22.450  1.00  0.00     0.036 C 
ENDBRANCH  20  21
ENDBRANCH  17  20
ENDBRANCH  16  17
ENDBRANCH  15  16
ENDBRANCH  13  15
ENDBRANCH   9  13
BRANCH   6  28
HETATM   28  N4  UNL     1      70.310  55.963  15.650  1.00  0.00    -0.368 N 
ATOM     29  H4  UNL     1      70.862  55.181  16.002  1.00  0.00     0.161 HD
BRANCH  28  30
HETATM   30  C11 UNL     1      69.540  55.735  14.484  1.00  0.00     0.178 C 
BRANCH  30  31
HETATM   31  C12 UNL     1      69.094  54.313  14.348  1.00  0.00     0.033 A 
HETATM   32  N5  UNL     1      69.876  53.478  13.658  1.00  0.00    -0.367 N 
HETATM   33  C13 UNL     1      69.563  52.175  13.495  1.00  0.00     0.095 A 
ATOM     34  H5  UNL     1      70.735  53.836  13.241  1.00  0.00     0.165 HD
HETATM   35  C14 UNL     1      68.395  51.676  14.057  1.00  0.00    -0.046 A 
HETATM   36  C15 UNL     1      68.074  50.256  13.864  1.00  0.00     0.049 C 
HETATM   37  C16 UNL     1      67.562  52.515  14.778  1.00  0.00     0.017 A 
HETATM   38  C17 UNL     1      67.933  53.836  14.911  1.00  0.00    -0.037 A 
HETATM   39  C18 UNL     1      67.071  54.788  15.672  1.00  0.00     0.050 C 
ENDBRANCH  30  31
ENDBRANCH  28  30
ENDBRANCH   6  28
BRANCH   1  40
HETATM   40  C5  UNL     1      73.146  59.388  19.576  1.00  0.00     0.274 C 
HETATM   41  N1  UNL     1      74.490  59.715  19.837  1.00  0.00    -0.347 N 
HETATM   42  O1  UNL     1      72.285  60.068  20.236  1.00  0.00    -0.266 OA
BRANCH  41  43
HETATM   43  C2  UNL     1      75.631  59.069  19.216  1.00  0.00     0.121 C 
HETATM   44  C1  UNL     1      76.363  58.262  20.253  1.00  0.00     0.026 C 
ENDBRANCH  41  43
BRANCH  41  45
HETATM   45  C3  UNL     1      74.750  60.779  20.810  1.00  0.00     0.121 C 
HETATM   46  C4  UNL     1      75.312  62.001  20.126  1.00  0.00     0.026 C 
ENDBRANCH  41  45
ENDBRANCH   1  40
BRANCH   4  47
HETATM   47  C7  UNL     1      72.903  55.202  17.027  1.00  0.00     0.145 C 
HETATM   48  C8  UNL     1      73.960  55.327  15.969  1.00  0.00     0.028 C 
ENDBRANCH   4  47
TORSDOF 13
ENDMDL
MODEL 5
REMARK VINA RESULT: -8.766457290      2.933     10.763
REMARK  13 active torsions:
REMARK  status: ('A' for Active; 'I' for Inactive)
REMARK    1  A    between atoms: C2_2  and  N1_3 
REMARK    2  A    between atoms: N1_3  and  C3_4 
REMARK       I    between atoms: N1_3  and  C5_6 
REMARK    3  A    between atoms: C5_6  and  C6_8 
REMARK    4  A    between atoms: N3_11  and  C7_12 
REMARK    5  A    between atoms: C10_15  and  N4_16 
REMARK    6  A    between atoms: N4_16  and  C11_18 
REMARK    7  A    between atoms: C11_18  and  C12_19 
REMARK    8  A    between atoms: C19_30  and  N7_31 
REMARK    9  A    between atoms: N7_31  and  C20_33 
REMARK   10  A    between atoms: C20_33  and  C21_34 
REMARK   11  A    between atoms: C21_34  and  N8_35 
REMARK   12  A    between atoms: N8_35  and  C22_38 
REMARK   13  A    between atoms: C22_38  and  C23_39 
ROOT
HETATM    1  C6  UNL     1      72.327  58.312  19.164  1.00  0.00     0.146 A 
HETATM    2  N2  UNL     1      71.043  58.507  19.414  1.00  0.00    -0.291 N 
ATOM      3  H2  UNL     1      70.693  59.167  20.109  1.00  0.00     0.187 HD
HETATM    4  N3  UNL     1      70.259  57.743  18.655  1.00  0.00    -0.286 N 
HETATM    5  C9  UNL     1      71.069  57.015  17.872  1.00  0.00     0.124 A 
HETATM    6  C10 UNL     1      70.788  56.059  16.901  1.00  0.00     0.148 A 
HETATM    7  N6  UNL     1      71.804  55.477  16.267  1.00  0.00    -0.175 N 
ATOM      8  H6  UNL     1      71.619  54.774  15.552  1.00  0.00     0.186 HD
HETATM    9  C19 UNL     1      73.103  55.818  16.569  1.00  0.00     0.680 A 
HETATM   10  N10 UNL     1      73.374  56.729  17.496  1.00  0.00    -0.187 N 
ATOM     11  H10 UNL     1      74.343  56.967  17.706  1.00  0.00     0.184 HD
HETATM   12  C29 UNL     1      72.367  57.342  18.163  1.00  0.00     0.115 A 
ENDROOT
BRANCH   9  13
HETATM   13  N7  UNL     1      74.059  55.237  15.934  1.00  0.00    -0.224 N 
ATOM     14  H7  UNL     1      74.977  55.678  15.971  1.00  0.00     0.177 HD
BRANCH  13  15
HETATM   15  C20 UNL     1      73.946  54.029  15.182  1.00  0.00     0.165 C 
BRANCH  15  16
HETATM   16  C21 UNL     1      73.621  54.197  13.733  1.00  0.00     0.252 C 
BRANCH  16  17
HETATM   17  N8  UNL     1      72.873  53.131  13.127  1.00  0.00    -0.073 N 
ATOM     18  H82 UNL     1      71.968  53.451  12.783  1.00  0.00     0.277 HD
ATOM     19  H81 UNL     1      73.279  52.840  12.238  1.00  0.00     0.277 HD
BRANCH  17  20
HETATM   20  C22 UNL     1      72.736  52.007  14.056  1.00  0.00     0.237 C 
BRANCH  20  21
HETATM   21  C23 UNL     1      72.680  50.669  13.350  1.00  0.00     0.014 C 
HETATM   22  C24 UNL     1      73.709  49.719  13.945  1.00  0.00     0.036 C 
HETATM   23  C25 UNL     1      73.098  48.740  14.923  1.00  0.00     0.272 C 
HETATM   24  N9  UNL     1      72.145  47.862  14.263  1.00  0.00     0.084 N 
HETATM   25  C26 UNL     1      72.820  46.868  13.447  1.00  0.00     0.309 C 
HETATM   26  C27 UNL     1      71.225  48.602  13.433  1.00  0.00     0.272 C 
HETATM   27  C28 UNL     1      71.313  50.088  13.584  1.00  0.00     0.036 C 
ENDBRANCH  20  21
ENDBRANCH  17  20
ENDBRANCH  16  17
ENDBRANCH  15  16
ENDBRANCH  13  15
ENDBRANCH   9  13
BRANCH   6  28
HETATM   28  N4  UNL     1      69.579  55.773  16.641  1.00  0.00    -0.368 N 
ATOM     29  H4  UNL     1      69.019  55.387  17.401  1.00  0.00     0.161 HD
BRANCH  28  30
HETATM   30  C11 UNL     1      68.938  55.941  15.390  1.00  0.00     0.178 C 
BRANCH  30  31
HETATM   31  C12 UNL     1      68.575  54.641  14.742  1.00  0.00     0.033 A 
HETATM   32  N5  UNL     1      69.430  54.127  13.854  1.00  0.00    -0.367 N 
HETATM   33  C13 UNL     1      69.194  52.954  13.231  1.00  0.00     0.095 A 
ATOM     34  H5  UNL     1      70.287  54.637  13.640  1.00  0.00     0.165 HD
HETATM   35  C14 UNL     1      68.031  52.250  13.512  1.00  0.00    -0.046 A 
HETATM   36  C15 UNL     1      67.795  50.977  12.819  1.00  0.00     0.049 C 
HETATM   37  C16 UNL     1      67.122  52.755  14.427  1.00  0.00     0.017 A 
HETATM   38  C17 UNL     1      67.416  53.959  15.033  1.00  0.00    -0.037 A 
HETATM   39  C18 UNL     1      66.472  54.555  16.023  1.00  0.00     0.050 C 
ENDBRANCH  30  31
ENDBRANCH  28  30
ENDBRANCH   6  28
BRANCH   1  40
HETATM   40  C5  UNL     1      73.495  58.966  19.748  1.00  0.00     0.274 C 
HETATM   41  N1  UNL     1      73.721  60.356  19.783  1.00  0.00    -0.347 N 
HETATM   42  O1  UNL     1      74.414  58.254  20.282  1.00  0.00    -0.266 OA
BRANCH  41  43
HETATM   43  C2  UNL     1      72.823  61.352  19.230  1.00  0.00     0.121 C 
HETATM   44  C1  UNL     1      72.549  62.400  20.274  1.00  0.00     0.026 C 
ENDBRANCH  41  43
BRANCH  41  45
HETATM   45  C3  UNL     1      74.955  60.823  20.419  1.00  0.00     0.121 C 
HETATM   46  C4  UNL     1      76.054  60.983  19.398  1.00  0.00     0.026 C 
ENDBRANCH  41  45
ENDBRANCH   1  40
BRANCH   4  47
HETATM   47  C7  UNL     1      68.829  57.809  18.761  1.00  0.00     0.145 C 
HETATM   48  C8  UNL     1      68.447  58.521  20.026  1.00  0.00     0.028 C 
ENDBRANCH   4  47
TORSDOF 13
ENDMDL
