MODEL 1
REMARK VINA RESULT: -8.468730341      0.000      0.000
REMARK  14 active torsions:
REMARK  status: ('A' for Active; 'I' for Inactive)
REMARK    1  A    between atoms: C2_2  and  C3_3 
REMARK    2  A    between atoms: C5_5  and  C6_6 
REMARK    3  A    between atoms: C9_10  and  C10_11 
REMARK    4  A    between atoms: C10_11  and  C11_13 
REMARK    5  A    between atoms: C11_13  and  C12_14 
REMARK    6  A    between atoms: C12_14  and  C13_15 
REMARK    7  A    between atoms: C14_16  and  C15_17 
REMARK    8  A    between atoms: N1_19  and  C17_20 
REMARK    9  A    between atoms: C17_20  and  C18_21 
REMARK       I    between atoms: C18_21  and  N2_23 
REMARK   10  A    between atoms: N2_23  and  C19_25 
REMARK   11  A    between atoms: C19_25  and  C20_26 
REMARK   12  A    between atoms: C20_26  and  N3_27 
REMARK       I    between atoms: N4_33  and  C24_35 
REMARK       I    between atoms: C24_35  and  N5_37 
REMARK   13  A    between atoms: N5_37  and  C25_39 
REMARK   14  A    between atoms: C29_43  and  O7_44 
ROOT
HETATM    1  C12 UNL     1      70.308  59.554  19.616  1.00  0.00     0.020 C 
HETATM    2  N4  UNL     1      71.281  60.262  19.991  1.00  0.00    -0.312 N 
ATOM      3  H4  UNL     1      71.084  61.031  20.631  1.00  0.00     0.170 HD
HETATM    4  C24 UNL     1      72.614  60.074  19.597  1.00  0.00     0.321 C 
HETATM    5  O6  UNL     1      72.960  59.975  18.410  1.00  0.00    -0.247 OA
HETATM    6  N5  UNL     1      73.639  59.988  20.581  1.00  0.00    -0.335 N 
ATOM      7  H5  UNL     1      73.370  60.064  21.562  1.00  0.00     0.165 HD
ENDROOT
BRANCH   1   8
HETATM    8  C11 UNL     1      68.947  59.861  20.108  1.00  0.00     0.138 C 
BRANCH   8   9
HETATM    9  C10 UNL     1      68.821  61.158  20.792  1.00  0.00     0.163 C 
HETATM   10  O2  UNL     1      69.039  62.189  20.224  1.00  0.00    -0.295 OA
BRANCH   9  11
HETATM   11  C9  UNL     1      68.414  61.252  22.230  1.00  0.00     0.222 C 
HETATM   12  O1  UNL     1      69.208  60.477  23.043  1.00  0.00    -0.365 OA
HETATM   13  C5  UNL     1      69.933  61.355  23.854  1.00  0.00     0.165 C 
HETATM   14  C3  UNL     1      68.963  62.495  24.134  1.00  0.00     0.032 C 
HETATM   15  C4  UNL     1      69.634  63.753  24.561  1.00  0.00     0.025 C 
HETATM   16  C29 UNL     1      68.389  62.666  22.744  1.00  0.00     0.169 C 
BRANCH  13  17
HETATM   17  C6  UNL     1      70.376  60.637  25.053  1.00  0.00    -0.063 C 
HETATM   18  C7  UNL     1      69.850  59.472  25.402  1.00  0.00     0.016 C 
HETATM   19  C8  UNL     1      71.445  61.168  25.965  1.00  0.00     0.045 C 
ENDBRANCH  13  17
BRANCH  14  20
HETATM   20  C2  UNL     1      67.895  62.035  25.057  1.00  0.00    -0.022 C 
HETATM   21  C1  UNL     1      67.594  62.666  26.162  1.00  0.00     0.008 C 
ENDBRANCH  14  20
BRANCH  16  22
HETATM   22  O7  UNL     1      67.104  63.197  22.774  1.00  0.00    -0.391 OA
ATOM     23  H7  UNL     1      66.495  62.680  22.261  1.00  0.00     0.210 HD
ENDBRANCH  16  22
ENDBRANCH   9  11
ENDBRANCH   8   9
ENDBRANCH   1   8
BRANCH   1  24
HETATM   24  C13 UNL     1      70.435  58.399  18.723  1.00  0.00     0.026 C 
HETATM   25  C14 UNL     1      69.488  57.493  18.691  1.00  0.00     0.021 C 
BRANCH  25  26
HETATM   26  C15 UNL     1      69.593  56.341  17.815  1.00  0.00     0.059 A 
HETATM   27  C16 UNL     1      68.902  56.038  16.673  1.00  0.00     0.135 A 
HETATM   28  N1  UNL     1      69.369  54.862  16.232  1.00  0.00    -0.251 N 
HETATM   29  O4  UNL     1      70.297  54.421  17.024  1.00  0.00    -0.192 OA
HETATM   30  C23 UNL     1      70.471  55.266  17.988  1.00  0.00     0.316 A 
HETATM   31  O5  UNL     1      71.296  55.146  18.931  1.00  0.00    -0.257 OA
BRANCH  28  32
HETATM   32  C17 UNL     1      68.892  54.216  15.005  1.00  0.00     0.258 C 
BRANCH  32  33
HETATM   33  C18 UNL     1      70.071  53.499  14.376  1.00  0.00     0.241 C 
HETATM   34  O3  UNL     1      69.779  52.389  13.887  1.00  0.00    -0.271 OA
HETATM   35  N2  UNL     1      71.344  54.071  14.374  1.00  0.00    -0.338 N 
ATOM     36  H2  UNL     1      71.421  54.983  14.825  1.00  0.00     0.167 HD
BRANCH  35  37
HETATM   37  C19 UNL     1      72.537  53.557  13.831  1.00  0.00     0.093 C 
BRANCH  37  38
HETATM   38  C20 UNL     1      73.841  53.911  14.420  1.00  0.00     0.315 C 
BRANCH  38  39
HETATM   39  N3  UNL     1      73.916  53.980  15.841  1.00  0.00     0.084 N 
HETATM   40  C21 UNL     1      75.340  53.739  16.197  1.00  0.00     0.309 C 
HETATM   41  C22 UNL     1      73.694  55.413  16.220  1.00  0.00     0.309 C 
ENDBRANCH  38  39
ENDBRANCH  37  38
ENDBRANCH  35  37
ENDBRANCH  32  33
ENDBRANCH  28  32
ENDBRANCH  25  26
ENDBRANCH   1  24
BRANCH   6  42
HETATM   42  C25 UNL     1      75.032  59.802  20.277  1.00  0.00     0.023 C 
HETATM   43  C26 UNL     1      75.564  60.830  19.320  1.00  0.00     0.037 C 
HETATM   44  C27 UNL     1      75.228  58.444  19.630  1.00  0.00     0.037 C 
HETATM   45  C28 UNL     1      75.805  59.902  21.576  1.00  0.00     0.037 C 
ENDBRANCH   6  42
TORSDOF 14
ENDMDL
MODEL 2
REMARK VINA RESULT: -8.341775941      1.605      2.842
REMARK  14 active torsions:
REMARK  status: ('A' for Active; 'I' for Inactive)
REMARK    1  A    between atoms: C2_2  and  C3_3 
REMARK    2  A    between atoms: C5_5  and  C6_6 
REMARK    3  A    between atoms: C9_10  and  C10_11 
REMARK    4  A    between atoms: C10_11  and  C11_13 
REMARK    5  A    between atoms: C11_13  and  C12_14 
REMARK    6  A    between atoms: C12_14  and  C13_15 
REMARK    7  A    between atoms: C14_16  and  C15_17 
REMARK    8  A    between atoms: N1_19  and  C17_20 
REMARK    9  A    between atoms: C17_20  and  C18_21 
REMARK       I    between atoms: C18_21  and  N2_23 
REMARK   10  A    between atoms: N2_23  and  C19_25 
REMARK   11  A    between atoms: C19_25  and  C20_26 
REMARK   12  A    between atoms: C20_26  and  N3_27 
REMARK       I    between atoms: N4_33  and  C24_35 
REMARK       I    between atoms: C24_35  and  N5_37 
REMARK   13  A    between atoms: N5_37  and  C25_39 
REMARK   14  A    between atoms: C29_43  and  O7_44 
ROOT
HETATM    1  C12 UNL     1      70.523  59.730  19.643  1.00  0.00     0.020 C 
HETATM    2  N4  UNL     1      71.438  60.433  20.152  1.00  0.00    -0.312 N 
ATOM      3  H4  UNL     1      71.167  61.119  20.856  1.00  0.00     0.170 HD
HETATM    4  C24 UNL     1      72.798  60.345  19.825  1.00  0.00     0.321 C 
HETATM    5  O6  UNL     1      73.218  60.391  18.659  1.00  0.00    -0.247 OA
HETATM    6  N5  UNL     1      73.768  60.195  20.858  1.00  0.00    -0.335 N 
ATOM      7  H5  UNL     1      73.437  60.151  21.822  1.00  0.00     0.165 HD
ENDROOT
BRANCH   1   8
HETATM    8  C11 UNL     1      69.122  59.925  20.077  1.00  0.00     0.138 C 
BRANCH   8   9
HETATM    9  C10 UNL     1      68.862  61.208  20.751  1.00  0.00     0.163 C 
HETATM   10  O2  UNL     1      68.981  62.251  20.176  1.00  0.00    -0.295 OA
BRANCH   9  11
HETATM   11  C9  UNL     1      68.438  61.271  22.185  1.00  0.00     0.222 C 
HETATM   12  O1  UNL     1      69.238  60.500  22.994  1.00  0.00    -0.365 OA
HETATM   13  C5  UNL     1      69.935  61.379  23.828  1.00  0.00     0.165 C 
HETATM   14  C3  UNL     1      68.939  62.495  24.114  1.00  0.00     0.032 C 
HETATM   15  C4  UNL     1      69.580  63.760  24.568  1.00  0.00     0.025 C 
HETATM   16  C29 UNL     1      68.378  62.676  22.720  1.00  0.00     0.169 C 
BRANCH  13  17
HETATM   17  C6  UNL     1      70.380  60.652  25.020  1.00  0.00    -0.063 C 
HETATM   18  C7  UNL     1      69.885  59.464  25.338  1.00  0.00     0.016 C 
HETATM   19  C8  UNL     1      71.415  61.197  25.962  1.00  0.00     0.045 C 
ENDBRANCH  13  17
BRANCH  14  20
HETATM   20  C2  UNL     1      67.871  61.999  25.018  1.00  0.00    -0.022 C 
HETATM   21  C1  UNL     1      67.542  62.608  26.127  1.00  0.00     0.008 C 
ENDBRANCH  14  20
BRANCH  16  22
HETATM   22  O7  UNL     1      67.082  63.180  22.744  1.00  0.00    -0.391 OA
ATOM     23  H7  UNL     1      66.653  63.093  21.901  1.00  0.00     0.210 HD
ENDBRANCH  16  22
ENDBRANCH   9  11
ENDBRANCH   8   9
ENDBRANCH   1   8
BRANCH   1  24
HETATM   24  C13 UNL     1      70.757  58.686  18.642  1.00  0.00     0.026 C 
HETATM   25  C14 UNL     1      70.131  57.539  18.739  1.00  0.00     0.021 C 
BRANCH  25  26
HETATM   26  C15 UNL     1      70.349  56.490  17.759  1.00  0.00     0.059 A 
HETATM   27  C16 UNL     1      70.088  56.474  16.415  1.00  0.00     0.135 A 
HETATM   28  N1  UNL     1      70.471  55.275  15.956  1.00  0.00    -0.251 N 
HETATM   29  O4  UNL     1      70.946  54.553  16.924  1.00  0.00    -0.192 OA
HETATM   30  C23 UNL     1      70.896  55.231  18.024  1.00  0.00     0.316 A 
HETATM   31  O5  UNL     1      71.278  54.828  19.154  1.00  0.00    -0.257 OA
BRANCH  28  32
HETATM   32  C17 UNL     1      70.376  54.885  14.545  1.00  0.00     0.258 C 
BRANCH  32  33
HETATM   33  C18 UNL     1      69.694  53.531  14.488  1.00  0.00     0.241 C 
HETATM   34  O3  UNL     1      70.318  52.685  13.816  1.00  0.00    -0.271 OA
HETATM   35  N2  UNL     1      68.482  53.307  15.143  1.00  0.00    -0.338 N 
ATOM     36  H2  UNL     1      68.095  54.107  15.643  1.00  0.00     0.167 HD
BRANCH  35  37
HETATM   37  C19 UNL     1      67.723  52.123  15.204  1.00  0.00     0.093 C 
BRANCH  37  38
HETATM   38  C20 UNL     1      66.835  51.745  14.090  1.00  0.00     0.315 C 
BRANCH  38  39
HETATM   39  N3  UNL     1      67.390  50.924  13.066  1.00  0.00     0.084 N 
HETATM   40  C21 UNL     1      68.123  49.830  13.759  1.00  0.00     0.309 C 
HETATM   41  C22 UNL     1      66.244  50.218  12.405  1.00  0.00     0.309 C 
ENDBRANCH  38  39
ENDBRANCH  37  38
ENDBRANCH  35  37
ENDBRANCH  32  33
ENDBRANCH  28  32
ENDBRANCH  25  26
ENDBRANCH   1  24
BRANCH   6  42
HETATM   42  C25 UNL     1      75.183  60.101  20.624  1.00  0.00     0.023 C 
HETATM   43  C26 UNL     1      75.634  60.905  19.438  1.00  0.00     0.037 C 
HETATM   44  C27 UNL     1      75.553  58.655  20.353  1.00  0.00     0.037 C 
HETATM   45  C28 UNL     1      75.889  60.620  21.860  1.00  0.00     0.037 C 
ENDBRANCH   6  42
TORSDOF 14
ENDMDL
MODEL 3
REMARK VINA RESULT: -8.316628852      1.444      2.766
REMARK  14 active torsions:
REMARK  status: ('A' for Active; 'I' for Inactive)
REMARK    1  A    between atoms: C2_2  and  C3_3 
REMARK    2  A    between atoms: C5_5  and  C6_6 
REMARK    3  A    between atoms: C9_10  and  C10_11 
REMARK    4  A    between atoms: C10_11  and  C11_13 
REMARK    5  A    between atoms: C11_13  and  C12_14 
REMARK    6  A    between atoms: C12_14  and  C13_15 
REMARK    7  A    between atoms: C14_16  and  C15_17 
REMARK    8  A    between atoms: N1_19  and  C17_20 
REMARK    9  A    between atoms: C17_20  and  C18_21 
REMARK       I    between atoms: C18_21  and  N2_23 
REMARK   10  A    between atoms: N2_23  and  C19_25 
REMARK   11  A    between atoms: C19_25  and  C20_26 
REMARK   12  A    between atoms: C20_26  and  N3_27 
REMARK       I    between atoms: N4_33  and  C24_35 
REMARK       I    between atoms: C24_35  and  N5_37 
REMARK   13  A    between atoms: N5_37  and  C25_39 
REMARK   14  A    between atoms: C29_43  and  O7_44 
ROOT
HETATM    1  C12 UNL     1      70.438  59.621  19.576  1.00  0.00     0.020 C 
HETATM    2  N4  UNL     1      71.361  60.396  19.947  1.00  0.00    -0.312 N 
ATOM      3  H4  UNL     1      71.095  61.221  20.483  1.00  0.00     0.170 HD
HETATM    4  C24 UNL     1      72.724  60.211  19.678  1.00  0.00     0.321 C 
HETATM    5  O6  UNL     1      73.167  60.000  18.539  1.00  0.00    -0.247 OA
HETATM    6  N5  UNL     1      73.670  60.262  20.742  1.00  0.00    -0.335 N 
ATOM      7  H5  UNL     1      73.321  60.431  21.686  1.00  0.00     0.165 HD
ENDROOT
BRANCH   1   8
HETATM    8  C11 UNL     1      69.035  59.934  19.927  1.00  0.00     0.138 C 
BRANCH   8   9
HETATM    9  C10 UNL     1      68.851  61.206  20.645  1.00  0.00     0.163 C 
HETATM   10  O2  UNL     1      69.057  62.259  20.113  1.00  0.00    -0.295 OA
BRANCH   9  11
HETATM   11  C9  UNL     1      68.399  61.245  22.071  1.00  0.00     0.222 C 
HETATM   12  O1  UNL     1      69.185  60.463  22.883  1.00  0.00    -0.365 OA
HETATM   13  C5  UNL     1      69.865  61.330  23.744  1.00  0.00     0.165 C 
HETATM   14  C3  UNL     1      68.861  62.439  24.029  1.00  0.00     0.032 C 
HETATM   15  C4  UNL     1      69.489  63.698  24.516  1.00  0.00     0.025 C 
HETATM   16  C29 UNL     1      68.326  62.642  22.627  1.00  0.00     0.169 C 
BRANCH  13  17
HETATM   17  C6  UNL     1      70.287  60.585  24.933  1.00  0.00    -0.063 C 
HETATM   18  C7  UNL     1      69.803  59.383  25.212  1.00  0.00     0.016 C 
HETATM   19  C8  UNL     1      71.288  61.126  25.914  1.00  0.00     0.045 C 
ENDBRANCH  13  17
BRANCH  14  20
HETATM   20  C2  UNL     1      67.776  61.927  24.904  1.00  0.00    -0.022 C 
HETATM   21  C1  UNL     1      67.440  62.504  26.027  1.00  0.00     0.008 C 
ENDBRANCH  14  20
BRANCH  16  22
HETATM   22  O7  UNL     1      67.029  63.142  22.634  1.00  0.00    -0.391 OA
ATOM     23  H7  UNL     1      66.678  63.231  21.756  1.00  0.00     0.210 HD
ENDBRANCH  16  22
ENDBRANCH   9  11
ENDBRANCH   8   9
ENDBRANCH   1   8
BRANCH   1  24
HETATM   24  C13 UNL     1      70.663  58.384  18.825  1.00  0.00     0.026 C 
HETATM   25  C14 UNL     1      70.178  58.260  17.613  1.00  0.00     0.021 C 
BRANCH  25  26
HETATM   26  C15 UNL     1      70.388  57.043  16.851  1.00  0.00     0.059 A 
HETATM   27  C16 UNL     1      71.466  56.647  16.105  1.00  0.00     0.135 A 
HETATM   28  N1  UNL     1      71.171  55.441  15.601  1.00  0.00    -0.251 N 
HETATM   29  O4  UNL     1      69.989  55.070  15.983  1.00  0.00    -0.192 OA
HETATM   30  C23 UNL     1      69.475  55.990  16.732  1.00  0.00     0.316 A 
HETATM   31  O5  UNL     1      68.338  55.951  17.271  1.00  0.00    -0.257 OA
BRANCH  28  32
HETATM   32  C17 UNL     1      72.097  54.671  14.764  1.00  0.00     0.258 C 
BRANCH  32  33
HETATM   33  C18 UNL     1      71.395  53.386  14.366  1.00  0.00     0.241 C 
HETATM   34  O3  UNL     1      71.975  52.355  14.766  1.00  0.00    -0.271 OA
HETATM   35  N2  UNL     1      70.215  53.410  13.621  1.00  0.00    -0.338 N 
ATOM     36  H2  UNL     1      69.874  54.336  13.363  1.00  0.00     0.167 HD
BRANCH  35  37
HETATM   37  C19 UNL     1      69.433  52.326  13.179  1.00  0.00     0.093 C 
BRANCH  37  38
HETATM   38  C20 UNL     1      68.146  52.018  13.827  1.00  0.00     0.315 C 
BRANCH  38  39
HETATM   39  N3  UNL     1      67.012  52.775  13.414  1.00  0.00     0.084 N 
HETATM   40  C21 UNL     1      65.859  51.835  13.417  1.00  0.00     0.309 C 
HETATM   41  C22 UNL     1      66.695  53.727  14.527  1.00  0.00     0.309 C 
ENDBRANCH  38  39
ENDBRANCH  37  38
ENDBRANCH  35  37
ENDBRANCH  32  33
ENDBRANCH  28  32
ENDBRANCH  25  26
ENDBRANCH   1  24
BRANCH   6  42
HETATM   42  C25 UNL     1      75.087  60.090  20.567  1.00  0.00     0.023 C 
HETATM   43  C26 UNL     1      75.609  60.765  19.331  1.00  0.00     0.037 C 
HETATM   44  C27 UNL     1      75.401  58.612  20.439  1.00  0.00     0.037 C 
HETATM   45  C28 UNL     1      75.776  60.690  21.775  1.00  0.00     0.037 C 
ENDBRANCH   6  42
TORSDOF 14
ENDMDL
MODEL 4
REMARK VINA RESULT: -8.308437881      1.773      2.166
REMARK  14 active torsions:
REMARK  status: ('A' for Active; 'I' for Inactive)
REMARK    1  A    between atoms: C2_2  and  C3_3 
REMARK    2  A    between atoms: C5_5  and  C6_6 
REMARK    3  A    between atoms: C9_10  and  C10_11 
REMARK    4  A    between atoms: C10_11  and  C11_13 
REMARK    5  A    between atoms: C11_13  and  C12_14 
REMARK    6  A    between atoms: C12_14  and  C13_15 
REMARK    7  A    between atoms: C14_16  and  C15_17 
REMARK    8  A    between atoms: N1_19  and  C17_20 
REMARK    9  A    between atoms: C17_20  and  C18_21 
REMARK       I    between atoms: C18_21  and  N2_23 
REMARK   10  A    between atoms: N2_23  and  C19_25 
REMARK   11  A    between atoms: C19_25  and  C20_26 
REMARK   12  A    between atoms: C20_26  and  N3_27 
REMARK       I    between atoms: N4_33  and  C24_35 
REMARK       I    between atoms: C24_35  and  N5_37 
REMARK   13  A    between atoms: N5_37  and  C25_39 
REMARK   14  A    between atoms: C29_43  and  O7_44 
ROOT
HETATM    1  C12 UNL     1      70.627  59.671  19.695  1.00  0.00     0.020 C 
HETATM    2  N4  UNL     1      71.491  60.471  20.145  1.00  0.00    -0.312 N 
ATOM      3  H4  UNL     1      71.162  61.238  20.732  1.00  0.00     0.170 HD
HETATM    4  C24 UNL     1      72.870  60.389  19.902  1.00  0.00     0.321 C 
HETATM    5  O6  UNL     1      73.351  60.289  18.763  1.00  0.00    -0.247 OA
HETATM    6  N5  UNL     1      73.785  60.421  20.993  1.00  0.00    -0.335 N 
ATOM      7  H5  UNL     1      73.405  60.500  21.936  1.00  0.00     0.165 HD
ENDROOT
BRANCH   1   8
HETATM    8  C11 UNL     1      69.200  59.872  20.029  1.00  0.00     0.138 C 
BRANCH   8   9
HETATM    9  C10 UNL     1      68.899  61.151  20.693  1.00  0.00     0.163 C 
HETATM   10  O2  UNL     1      69.000  62.194  20.114  1.00  0.00    -0.295 OA
BRANCH   9  11
HETATM   11  C9  UNL     1      68.455  61.209  22.121  1.00  0.00     0.222 C 
HETATM   12  O1  UNL     1      69.250  60.443  22.941  1.00  0.00    -0.365 OA
HETATM   13  C5  UNL     1      69.929  61.327  23.784  1.00  0.00     0.165 C 
HETATM   14  C3  UNL     1      68.921  62.435  24.058  1.00  0.00     0.032 C 
HETATM   15  C4  UNL     1      69.545  63.704  24.522  1.00  0.00     0.025 C 
HETATM   16  C29 UNL     1      68.377  62.614  22.657  1.00  0.00     0.169 C 
BRANCH  13  17
HETATM   17  C6  UNL     1      70.362  60.602  24.982  1.00  0.00    -0.063 C 
HETATM   18  C7  UNL     1      71.329  61.061  25.763  1.00  0.00     0.016 C 
HETATM   19  C8  UNL     1      69.750  59.297  25.404  1.00  0.00     0.045 C 
ENDBRANCH  13  17
BRANCH  14  20
HETATM   20  C2  UNL     1      67.843  61.930  24.946  1.00  0.00    -0.022 C 
HETATM   21  C1  UNL     1      67.454  62.568  26.019  1.00  0.00     0.008 C 
ENDBRANCH  14  20
BRANCH  16  22
HETATM   22  O7  UNL     1      67.078  63.108  22.663  1.00  0.00    -0.391 OA
ATOM     23  H7  UNL     1      67.022  63.966  22.261  1.00  0.00     0.210 HD
ENDBRANCH  16  22
ENDBRANCH   9  11
ENDBRANCH   8   9
ENDBRANCH   1   8
BRANCH   1  24
HETATM   24  C13 UNL     1      70.947  58.508  18.865  1.00  0.00     0.026 C 
HETATM   25  C14 UNL     1      70.024  57.611  18.617  1.00  0.00     0.021 C 
BRANCH  25  26
HETATM   26  C15 UNL     1      70.318  56.450  17.797  1.00  0.00     0.059 A 
HETATM   27  C16 UNL     1      70.005  56.194  16.489  1.00  0.00     0.135 A 
HETATM   28  N1  UNL     1      70.502  54.985  16.196  1.00  0.00    -0.251 N 
HETATM   29  O4  UNL     1      71.096  54.480  17.232  1.00  0.00    -0.192 OA
HETATM   30  C23 UNL     1      71.016  55.313  18.218  1.00  0.00     0.316 A 
HETATM   31  O5  UNL     1      71.488  55.137  19.371  1.00  0.00    -0.257 OA
BRANCH  28  32
HETATM   32  C17 UNL     1      70.394  54.371  14.869  1.00  0.00     0.258 C 
BRANCH  32  33
HETATM   33  C18 UNL     1      71.699  53.650  14.590  1.00  0.00     0.241 C 
HETATM   34  O3  UNL     1      72.562  54.370  14.047  1.00  0.00    -0.271 OA
HETATM   35  N2  UNL     1      71.867  52.305  14.926  1.00  0.00    -0.338 N 
ATOM     36  H2  UNL     1      71.060  51.853  15.357  1.00  0.00     0.167 HD
BRANCH  35  37
HETATM   37  C19 UNL     1      73.001  51.491  14.751  1.00  0.00     0.093 C 
BRANCH  37  38
HETATM   38  C20 UNL     1      72.964  50.344  13.826  1.00  0.00     0.315 C 
BRANCH  38  39
HETATM   39  N3  UNL     1      73.050  49.043  14.399  1.00  0.00     0.084 N 
HETATM   40  C21 UNL     1      71.781  48.347  14.051  1.00  0.00     0.309 C 
HETATM   41  C22 UNL     1      74.089  48.292  13.623  1.00  0.00     0.309 C 
ENDBRANCH  38  39
ENDBRANCH  37  38
ENDBRANCH  35  37
ENDBRANCH  32  33
ENDBRANCH  28  32
ENDBRANCH  25  26
ENDBRANCH   1  24
BRANCH   6  42
HETATM   42  C25 UNL     1      75.214  60.348  20.845  1.00  0.00     0.023 C 
HETATM   43  C26 UNL     1      75.717  61.105  19.649  1.00  0.00     0.037 C 
HETATM   44  C27 UNL     1      75.627  58.900  20.667  1.00  0.00     0.037 C 
HETATM   45  C28 UNL     1      75.836  60.942  22.092  1.00  0.00     0.037 C 
ENDBRANCH   6  42
TORSDOF 14
ENDMDL
MODEL 5
REMARK VINA RESULT: -8.158628395      1.013      1.384
REMARK  14 active torsions:
REMARK  status: ('A' for Active; 'I' for Inactive)
REMARK    1  A    between atoms: C2_2  and  C3_3 
REMARK    2  A    between atoms: C5_5  and  C6_6 
REMARK    3  A    between atoms: C9_10  and  C10_11 
REMARK    4  A    between atoms: C10_11  and  C11_13 
REMARK    5  A    between atoms: C11_13  and  C12_14 
REMARK    6  A    between atoms: C12_14  and  C13_15 
REMARK    7  A    between atoms: C14_16  and  C15_17 
REMARK    8  A    between atoms: N1_19  and  C17_20 
REMARK    9  A    between atoms: C17_20  and  C18_21 
REMARK       I    between atoms: C18_21  and  N2_23 
REMARK   10  A    between atoms: N2_23  and  C19_25 
REMARK   11  A    between atoms: C19_25  and  C20_26 
REMARK   12  A    between atoms: C20_26  and  N3_27 
REMARK       I    between atoms: N4_33  and  C24_35 
REMARK       I    between atoms: C24_35  and  N5_37 
REMARK   13  A    between atoms: N5_37  and  C25_39 
REMARK   14  A    between atoms: C29_43  and  O7_44 
ROOT
HETATM    1  C12 UNL     1      70.133  59.534  19.824  1.00  0.00     0.020 C 
HETATM    2  N4  UNL     1      71.137  60.229  20.137  1.00  0.00    -0.312 N 
ATOM      3  H4  UNL     1      70.990  61.002  20.786  1.00  0.00     0.170 HD
HETATM    4  C24 UNL     1      72.440  60.023  19.661  1.00  0.00     0.321 C 
HETATM    5  O6  UNL     1      72.711  59.918  18.455  1.00  0.00    -0.247 OA
HETATM    6  N5  UNL     1      73.523  59.925  20.581  1.00  0.00    -0.335 N 
ATOM      7  H5  UNL     1      73.315  60.005  21.577  1.00  0.00     0.165 HD
ENDROOT
BRANCH   1   8
HETATM    8  C11 UNL     1      68.809  59.860  20.398  1.00  0.00     0.138 C 
BRANCH   8   9
HETATM    9  C10 UNL     1      68.720  61.193  21.017  1.00  0.00     0.163 C 
HETATM   10  O2  UNL     1      68.891  62.191  20.378  1.00  0.00    -0.295 OA
BRANCH   9  11
HETATM   11  C9  UNL     1      68.414  61.366  22.472  1.00  0.00     0.222 C 
HETATM   12  O1  UNL     1      69.222  60.586  23.265  1.00  0.00    -0.365 OA
HETATM   13  C5  UNL     1      70.039  61.458  23.990  1.00  0.00     0.165 C 
HETATM   14  C3  UNL     1      69.145  62.656  24.281  1.00  0.00     0.032 C 
HETATM   15  C4  UNL     1      69.902  63.895  24.609  1.00  0.00     0.025 C 
HETATM   16  C29 UNL     1      68.491  62.799  22.924  1.00  0.00     0.169 C 
BRANCH  13  17
HETATM   17  C6  UNL     1      70.526  60.768  25.188  1.00  0.00    -0.063 C 
HETATM   18  C7  UNL     1      69.972  59.644  25.619  1.00  0.00     0.016 C 
HETATM   19  C8  UNL     1      71.673  61.284  26.010  1.00  0.00     0.045 C 
ENDBRANCH  13  17
BRANCH  14  20
HETATM   20  C2  UNL     1      68.120  62.288  25.289  1.00  0.00    -0.022 C 
HETATM   21  C1  UNL     1      67.937  62.965  26.393  1.00  0.00     0.008 C 
ENDBRANCH  14  20
BRANCH  16  22
HETATM   22  O7  UNL     1      67.237  63.394  23.012  1.00  0.00    -0.391 OA
ATOM     23  H7  UNL     1      67.147  63.915  23.801  1.00  0.00     0.210 HD
ENDBRANCH  16  22
ENDBRANCH   9  11
ENDBRANCH   8   9
ENDBRANCH   1   8
BRANCH   1  24
HETATM   24  C13 UNL     1      70.189  58.377  18.927  1.00  0.00     0.026 C 
HETATM   25  C14 UNL     1      69.345  58.284  17.929  1.00  0.00     0.021 C 
BRANCH  25  26
HETATM   26  C15 UNL     1      69.381  57.146  17.030  1.00  0.00     0.059 A 
HETATM   27  C16 UNL     1      68.627  56.002  17.027  1.00  0.00     0.135 A 
HETATM   28  N1  UNL     1      69.043  55.262  15.991  1.00  0.00    -0.251 N 
HETATM   29  O4  UNL     1      70.000  55.868  15.360  1.00  0.00    -0.192 OA
HETATM   30  C23 UNL     1      70.243  56.999  15.938  1.00  0.00     0.316 A 
HETATM   31  O5  UNL     1      71.111  57.837  15.581  1.00  0.00    -0.257 OA
BRANCH  28  32
HETATM   32  C17 UNL     1      68.451  53.967  15.639  1.00  0.00     0.258 C 
BRANCH  32  33
HETATM   33  C18 UNL     1      69.427  53.251  14.724  1.00  0.00     0.241 C 
HETATM   34  O3  UNL     1      68.930  52.913  13.630  1.00  0.00    -0.271 OA
HETATM   35  N2  UNL     1      70.745  53.015  15.118  1.00  0.00    -0.338 N 
ATOM     36  H2  UNL     1      70.994  53.347  16.050  1.00  0.00     0.167 HD
BRANCH  35  37
HETATM   37  C19 UNL     1      71.777  52.382  14.400  1.00  0.00     0.093 C 
BRANCH  37  38
HETATM   38  C20 UNL     1      73.085  52.134  15.032  1.00  0.00     0.315 C 
BRANCH  38  39
HETATM   39  N3  UNL     1      74.060  53.169  14.936  1.00  0.00     0.084 N 
HETATM   40  C21 UNL     1      73.576  54.103  13.883  1.00  0.00     0.309 C 
HETATM   41  C22 UNL     1      73.964  53.976  16.195  1.00  0.00     0.309 C 
ENDBRANCH  38  39
ENDBRANCH  37  38
ENDBRANCH  35  37
ENDBRANCH  32  33
ENDBRANCH  28  32
ENDBRANCH  25  26
ENDBRANCH   1  24
BRANCH   6  42
HETATM   42  C25 UNL     1      74.892  59.720  20.191  1.00  0.00     0.023 C 
HETATM   43  C26 UNL     1      75.809  59.517  21.363  1.00  0.00     0.037 C 
HETATM   44  C27 UNL     1      75.388  60.939  19.438  1.00  0.00     0.037 C 
HETATM   45  C28 UNL     1      74.941  58.484  19.317  1.00  0.00     0.037 C 
ENDBRANCH   6  42
TORSDOF 14
ENDMDL
