MODEL 1
REMARK VINA RESULT: -9.409291514      0.000      0.000
REMARK  13 active torsions:
REMARK  status: ('A' for Active; 'I' for Inactive)
REMARK    1  A    between atoms: C2_2  and  O1_3 
REMARK    2  A    between atoms: O1_3  and  C3_4 
REMARK    3  A    between atoms: C5_8  and  C6_9 
REMARK    4  A    between atoms: C7_10  and  C8_11 
REMARK    5  A    between atoms: C11_14  and  N2_15 
REMARK    6  A    between atoms: C13_20  and  N5_21 
REMARK    7  A    between atoms: N5_21  and  C14_23 
REMARK    8  A    between atoms: C14_23  and  C15_25 
REMARK    9  A    between atoms: C15_25  and  N6_26 
REMARK   10  A    between atoms: N7_29  and  C18_30 
REMARK   11  A    between atoms: C18_30  and  C19_31 
REMARK   12  A    between atoms: C19_31  and  C20_32 
REMARK   13  A    between atoms: C20_32  and  N8_33 
ROOT
HETATM    1  C8  UNL     1      73.636  58.160  18.249  1.00  0.00    -0.034 A 
HETATM    2  C9  UNL     1      74.632  58.233  19.190  1.00  0.00     0.014 A 
HETATM    3  C10 UNL     1      74.572  59.225  20.137  1.00  0.00     0.033 A 
HETATM    4  C11 UNL     1      73.536  60.107  20.126  1.00  0.00     0.061 A 
HETATM    5  C13 UNL     1      72.488  60.086  19.191  1.00  0.00     0.061 A 
HETATM    6  C28 UNL     1      72.576  59.084  18.259  1.00  0.00     0.043 A 
ENDROOT
BRANCH   5   7
HETATM    7  N5  UNL     1      71.508  61.089  19.262  1.00  0.00    -0.344 N 
ATOM      8  H5  UNL     1      71.798  61.988  18.877  1.00  0.00     0.167 HD
BRANCH   7   9
HETATM    9  C14 UNL     1      70.206  61.069  19.768  1.00  0.00     0.117 C 
HETATM   10  S1  UNL     1      69.807  61.389  21.285  1.00  0.00    -0.059 SA
BRANCH   9  11
HETATM   11  C15 UNL     1      69.091  60.747  18.814  1.00  0.00     0.137 C 
BRANCH  11  12
HETATM   12  N6  UNL     1      69.071  59.435  18.321  1.00  0.00    -0.341 N 
HETATM   13  C16 UNL     1      69.194  59.281  16.946  1.00  0.00     0.112 C 
HETATM   14  C17 UNL     1      69.595  57.917  16.452  1.00  0.00     0.108 C 
HETATM   15  N7  UNL     1      69.356  56.846  17.280  1.00  0.00    -0.364 N 
HETATM   16  C26 UNL     1      69.512  57.052  18.694  1.00  0.00     0.172 C 
HETATM   17  C27 UNL     1      68.974  58.352  19.188  1.00  0.00     0.089 C 
BRANCH  15  18
HETATM   18  C18 UNL     1      68.902  55.593  16.894  1.00  0.00     0.065 C 
BRANCH  18  19
HETATM   19  C19 UNL     1      67.951  55.419  15.784  1.00  0.00     0.075 C 
BRANCH  19  20
HETATM   20  C20 UNL     1      67.277  54.120  15.597  1.00  0.00     0.277 C 
BRANCH  20  21
HETATM   21  N8  UNL     1      67.452  53.563  14.245  1.00  0.00     0.088 N 
HETATM   22  C21 UNL     1      66.399  52.604  14.067  1.00  0.00     0.272 C 
HETATM   23  C22 UNL     1      66.526  51.756  12.841  1.00  0.00     0.030 C 
HETATM   24  C23 UNL     1      67.857  51.034  12.917  1.00  0.00     0.003 C 
HETATM   25  C24 UNL     1      68.974  52.029  13.042  1.00  0.00     0.030 C 
HETATM   26  C25 UNL     1      68.776  52.987  14.188  1.00  0.00     0.272 C 
ENDBRANCH  20  21
ENDBRANCH  19  20
ENDBRANCH  18  19
ENDBRANCH  15  18
ENDBRANCH  11  12
ENDBRANCH   9  11
ENDBRANCH   7   9
ENDBRANCH   5   7
BRANCH   4  27
HETATM   27  N2  UNL     1      73.542  61.105  21.146  1.00  0.00    -0.331 N 
HETATM   28  C12 UNL     1      74.388  62.076  21.024  1.00  0.00     0.201 C 
HETATM   29  N3  UNL     1      74.379  63.066  22.057  1.00  0.00    -0.066 NA
HETATM   30  N4  UNL     1      75.288  62.193  19.954  1.00  0.00    -0.066 NA
ATOM     31  H2  UNL     1      72.905  61.054  21.941  1.00  0.00     0.168 HD
ENDBRANCH   4  27
BRANCH   1  32
HETATM   32  C7  UNL     1      73.629  57.164  17.187  1.00  0.00     0.012 C 
HETATM   33  C6  UNL     1      72.867  56.087  17.226  1.00  0.00     0.015 C 
BRANCH  33  34
HETATM   34  C5  UNL     1      72.845  55.075  16.174  1.00  0.00    -0.005 A 
HETATM   35  C4  UNL     1      72.121  55.170  15.017  1.00  0.00     0.104 A 
HETATM   36  N1  UNL     1      72.170  54.181  14.076  1.00  0.00    -0.331 N 
HETATM   37  C3  UNL     1      72.923  53.087  14.248  1.00  0.00     0.223 A 
ATOM     38  H1  UNL     1      71.621  54.279  13.223  1.00  0.00     0.168 HD
HETATM   39  N9  UNL     1      73.629  53.003  15.387  1.00  0.00    -0.331 N 
HETATM   40  C29 UNL     1      73.613  53.949  16.339  1.00  0.00     0.104 A 
ATOM     41  H9  UNL     1      74.208  52.177  15.536  1.00  0.00     0.168 HD
BRANCH  37  42
HETATM   42  O1  UNL     1      72.969  52.079  13.278  1.00  0.00    -0.322 OA
BRANCH  42  43
HETATM   43  C2  UNL     1      72.569  50.782  13.682  1.00  0.00     0.174 C 
HETATM   44  C1  UNL     1      73.742  49.831  13.739  1.00  0.00     0.034 C 
ENDBRANCH  42  43
ENDBRANCH  37  42
ENDBRANCH  33  34
ENDBRANCH   1  32
TORSDOF 13
ENDMDL
MODEL 2
REMARK VINA RESULT: -9.385116830      0.639      1.011
REMARK  13 active torsions:
REMARK  status: ('A' for Active; 'I' for Inactive)
REMARK    1  A    between atoms: C2_2  and  O1_3 
REMARK    2  A    between atoms: O1_3  and  C3_4 
REMARK    3  A    between atoms: C5_8  and  C6_9 
REMARK    4  A    between atoms: C7_10  and  C8_11 
REMARK    5  A    between atoms: C11_14  and  N2_15 
REMARK    6  A    between atoms: C13_20  and  N5_21 
REMARK    7  A    between atoms: N5_21  and  C14_23 
REMARK    8  A    between atoms: C14_23  and  C15_25 
REMARK    9  A    between atoms: C15_25  and  N6_26 
REMARK   10  A    between atoms: N7_29  and  C18_30 
REMARK   11  A    between atoms: C18_30  and  C19_31 
REMARK   12  A    between atoms: C19_31  and  C20_32 
REMARK   13  A    between atoms: C20_32  and  N8_33 
ROOT
HETATM    1  C8  UNL     1      73.496  57.981  18.067  1.00  0.00    -0.034 A 
HETATM    2  C9  UNL     1      74.530  58.005  18.967  1.00  0.00     0.014 A 
HETATM    3  C10 UNL     1      74.554  58.994  19.919  1.00  0.00     0.033 A 
HETATM    4  C11 UNL     1      73.560  59.923  19.951  1.00  0.00     0.061 A 
HETATM    5  C13 UNL     1      72.475  59.954  19.059  1.00  0.00     0.061 A 
HETATM    6  C28 UNL     1      72.480  58.953  18.121  1.00  0.00     0.043 A 
ENDROOT
BRANCH   5   7
HETATM    7  N5  UNL     1      71.546  60.999  19.172  1.00  0.00    -0.344 N 
ATOM      8  H5  UNL     1      71.869  61.892  18.798  1.00  0.00     0.167 HD
BRANCH   7   9
HETATM    9  C14 UNL     1      70.256  61.031  19.706  1.00  0.00     0.117 C 
HETATM   10  S1  UNL     1      69.903  61.355  21.234  1.00  0.00    -0.059 SA
BRANCH   9  11
HETATM   11  C15 UNL     1      69.107  60.763  18.775  1.00  0.00     0.137 C 
BRANCH  11  12
HETATM   12  N6  UNL     1      69.007  59.451  18.292  1.00  0.00    -0.341 N 
HETATM   13  C16 UNL     1      69.081  59.283  16.914  1.00  0.00     0.112 C 
HETATM   14  C17 UNL     1      69.399  57.898  16.419  1.00  0.00     0.108 C 
HETATM   15  N7  UNL     1      69.131  56.846  17.262  1.00  0.00    -0.364 N 
HETATM   16  C26 UNL     1      69.339  57.052  18.669  1.00  0.00     0.172 C 
HETATM   17  C27 UNL     1      68.883  58.379  19.169  1.00  0.00     0.089 C 
BRANCH  15  18
HETATM   18  C18 UNL     1      68.604  55.614  16.898  1.00  0.00     0.065 C 
BRANCH  18  19
HETATM   19  C19 UNL     1      67.975  55.396  15.585  1.00  0.00     0.075 C 
BRANCH  19  20
HETATM   20  C20 UNL     1      68.581  54.441  14.636  1.00  0.00     0.277 C 
BRANCH  20  21
HETATM   21  N8  UNL     1      67.889  53.141  14.600  1.00  0.00     0.088 N 
HETATM   22  C21 UNL     1      68.572  52.351  13.615  1.00  0.00     0.272 C 
HETATM   23  C22 UNL     1      67.888  51.069  13.258  1.00  0.00     0.030 C 
HETATM   24  C23 UNL     1      66.500  51.411  12.756  1.00  0.00     0.003 C 
HETATM   25  C24 UNL     1      65.752  52.186  13.802  1.00  0.00     0.030 C 
HETATM   26  C25 UNL     1      66.505  53.401  14.278  1.00  0.00     0.272 C 
ENDBRANCH  20  21
ENDBRANCH  19  20
ENDBRANCH  18  19
ENDBRANCH  15  18
ENDBRANCH  11  12
ENDBRANCH   9  11
ENDBRANCH   7   9
ENDBRANCH   5   7
BRANCH   4  27
HETATM   27  N2  UNL     1      73.652  60.915  20.973  1.00  0.00    -0.331 N 
HETATM   28  C12 UNL     1      74.507  61.870  20.800  1.00  0.00     0.201 C 
HETATM   29  N3  UNL     1      74.586  62.855  21.835  1.00  0.00    -0.066 NA
HETATM   30  N4  UNL     1      75.338  61.975  19.674  1.00  0.00    -0.066 NA
ATOM     31  H2  UNL     1      73.066  60.873  21.808  1.00  0.00     0.168 HD
ENDBRANCH   4  27
BRANCH   1  32
HETATM   32  C7  UNL     1      73.401  56.991  17.003  1.00  0.00     0.012 C 
HETATM   33  C6  UNL     1      72.590  55.953  17.069  1.00  0.00     0.015 C 
BRANCH  33  34
HETATM   34  C5  UNL     1      72.480  54.947  16.015  1.00  0.00    -0.005 A 
HETATM   35  C4  UNL     1      73.009  55.073  14.761  1.00  0.00     0.104 A 
HETATM   36  N1  UNL     1      72.872  54.075  13.838  1.00  0.00    -0.331 N 
HETATM   37  C3  UNL     1      72.217  52.942  14.124  1.00  0.00     0.223 A 
ATOM     38  H1  UNL     1      73.278  54.195  12.911  1.00  0.00     0.168 HD
HETATM   39  N9  UNL     1      71.700  52.829  15.358  1.00  0.00    -0.331 N 
HETATM   40  C29 UNL     1      71.810  53.782  16.297  1.00  0.00     0.104 A 
ATOM     41  H9  UNL     1      71.197  51.974  15.594  1.00  0.00     0.168 HD
BRANCH  37  42
HETATM   42  O1  UNL     1      72.082  51.924  13.173  1.00  0.00    -0.322 OA
BRANCH  42  43
HETATM   43  C2  UNL     1      72.181  50.591  13.643  1.00  0.00     0.174 C 
HETATM   44  C1  UNL     1      73.609  50.224  13.977  1.00  0.00     0.034 C 
ENDBRANCH  42  43
ENDBRANCH  37  42
ENDBRANCH  33  34
ENDBRANCH   1  32
TORSDOF 13
ENDMDL
MODEL 3
REMARK VINA RESULT: -9.359122829      3.327     10.109
REMARK  13 active torsions:
REMARK  status: ('A' for Active; 'I' for Inactive)
REMARK    1  A    between atoms: C2_2  and  O1_3 
REMARK    2  A    between atoms: O1_3  and  C3_4 
REMARK    3  A    between atoms: C5_8  and  C6_9 
REMARK    4  A    between atoms: C7_10  and  C8_11 
REMARK    5  A    between atoms: C11_14  and  N2_15 
REMARK    6  A    between atoms: C13_20  and  N5_21 
REMARK    7  A    between atoms: N5_21  and  C14_23 
REMARK    8  A    between atoms: C14_23  and  C15_25 
REMARK    9  A    between atoms: C15_25  and  N6_26 
REMARK   10  A    between atoms: N7_29  and  C18_30 
REMARK   11  A    between atoms: C18_30  and  C19_31 
REMARK   12  A    between atoms: C19_31  and  C20_32 
REMARK   13  A    between atoms: C20_32  and  N8_33 
ROOT
HETATM    1  C8  UNL     1      68.494  54.688  15.669  1.00  0.00    -0.034 A 
HETATM    2  C9  UNL     1      67.402  53.905  15.946  1.00  0.00     0.014 A 
HETATM    3  C10 UNL     1      67.322  52.659  15.374  1.00  0.00     0.033 A 
HETATM    4  C11 UNL     1      68.318  52.230  14.551  1.00  0.00     0.061 A 
HETATM    5  C13 UNL     1      69.459  52.982  14.228  1.00  0.00     0.061 A 
HETATM    6  C28 UNL     1      69.509  54.221  14.816  1.00  0.00     0.043 A 
ENDROOT
BRANCH   5   7
HETATM    7  N5  UNL     1      70.384  52.439  13.324  1.00  0.00    -0.344 N 
ATOM      8  H5  UNL     1      70.087  52.468  12.349  1.00  0.00     0.167 HD
BRANCH   7   9
HETATM    9  C14 UNL     1      71.642  51.867  13.528  1.00  0.00     0.117 C 
HETATM   10  S1  UNL     1      71.907  50.315  13.821  1.00  0.00    -0.059 SA
BRANCH   9  11
HETATM   11  C15 UNL     1      72.842  52.767  13.443  1.00  0.00     0.137 C 
BRANCH  11  12
HETATM   12  N6  UNL     1      72.923  53.769  14.420  1.00  0.00    -0.341 N 
HETATM   13  C16 UNL     1      72.750  55.079  13.989  1.00  0.00     0.112 C 
HETATM   14  C17 UNL     1      72.414  56.098  15.044  1.00  0.00     0.108 C 
HETATM   15  N7  UNL     1      72.755  55.802  16.343  1.00  0.00    -0.364 N 
HETATM   16  C26 UNL     1      72.649  54.433  16.764  1.00  0.00     0.172 C 
HETATM   17  C27 UNL     1      73.125  53.443  15.756  1.00  0.00     0.089 C 
BRANCH  15  18
HETATM   18  C18 UNL     1      73.269  56.689  17.279  1.00  0.00     0.065 C 
BRANCH  18  19
HETATM   19  C19 UNL     1      73.191  58.147  17.094  1.00  0.00     0.075 C 
BRANCH  19  20
HETATM   20  C20 UNL     1      73.333  59.040  18.260  1.00  0.00     0.277 C 
BRANCH  20  21
HETATM   21  N8  UNL     1      74.623  58.887  18.956  1.00  0.00     0.088 N 
HETATM   22  C21 UNL     1      74.309  58.501  20.302  1.00  0.00     0.272 C 
HETATM   23  C22 UNL     1      75.472  58.512  21.243  1.00  0.00     0.030 C 
HETATM   24  C23 UNL     1      76.052  59.913  21.241  1.00  0.00     0.003 C 
HETATM   25  C24 UNL     1      76.442  60.306  19.846  1.00  0.00     0.030 C 
HETATM   26  C25 UNL     1      75.313  60.152  18.861  1.00  0.00     0.272 C 
ENDBRANCH  20  21
ENDBRANCH  19  20
ENDBRANCH  18  19
ENDBRANCH  15  18
ENDBRANCH  11  12
ENDBRANCH   9  11
ENDBRANCH   7   9
ENDBRANCH   5   7
BRANCH   4  27
HETATM   27  N2  UNL     1      68.164  50.922  14.000  1.00  0.00    -0.331 N 
HETATM   28  C12 UNL     1      67.418  50.803  12.950  1.00  0.00     0.201 C 
HETATM   29  N3  UNL     1      67.276  49.485  12.412  1.00  0.00    -0.066 NA
HETATM   30  N4  UNL     1      66.760  51.880  12.337  1.00  0.00    -0.066 NA
ATOM     31  H2  UNL     1      68.625  50.113  14.417  1.00  0.00     0.168 HD
ENDBRANCH   4  27
BRANCH   1  32
HETATM   32  C7  UNL     1      68.653  56.034  16.204  1.00  0.00     0.012 C 
HETATM   33  C6  UNL     1      69.354  56.288  17.293  1.00  0.00     0.015 C 
BRANCH  33  34
HETATM   34  C5  UNL     1      69.525  57.628  17.847  1.00  0.00    -0.005 A 
HETATM   35  C4  UNL     1      69.421  58.787  17.128  1.00  0.00     0.104 A 
HETATM   36  N1  UNL     1      69.582  60.002  17.730  1.00  0.00    -0.331 N 
HETATM   37  C3  UNL     1      69.846  60.107  19.039  1.00  0.00     0.223 A 
ATOM     38  H1  UNL     1      69.499  60.850  17.170  1.00  0.00     0.168 HD
HETATM   39  N9  UNL     1      69.946  58.963  19.736  1.00  0.00    -0.331 N 
HETATM   40  C29 UNL     1      69.796  57.747  19.188  1.00  0.00     0.104 A 
ATOM     41  H9  UNL     1      70.147  59.022  20.734  1.00  0.00     0.168 HD
BRANCH  37  42
HETATM   42  O1  UNL     1      70.007  61.356  19.649  1.00  0.00    -0.322 OA
BRANCH  42  43
HETATM   43  C2  UNL     1      71.170  61.540  20.436  1.00  0.00     0.174 C 
HETATM   44  C1  UNL     1      72.275  62.208  19.650  1.00  0.00     0.034 C 
ENDBRANCH  42  43
ENDBRANCH  37  42
ENDBRANCH  33  34
ENDBRANCH   1  32
TORSDOF 13
ENDMDL
MODEL 4
REMARK VINA RESULT: -9.317712717      3.278     10.074
REMARK  13 active torsions:
REMARK  status: ('A' for Active; 'I' for Inactive)
REMARK    1  A    between atoms: C2_2  and  O1_3 
REMARK    2  A    between atoms: O1_3  and  C3_4 
REMARK    3  A    between atoms: C5_8  and  C6_9 
REMARK    4  A    between atoms: C7_10  and  C8_11 
REMARK    5  A    between atoms: C11_14  and  N2_15 
REMARK    6  A    between atoms: C13_20  and  N5_21 
REMARK    7  A    between atoms: N5_21  and  C14_23 
REMARK    8  A    between atoms: C14_23  and  C15_25 
REMARK    9  A    between atoms: C15_25  and  N6_26 
REMARK   10  A    between atoms: N7_29  and  C18_30 
REMARK   11  A    between atoms: C18_30  and  C19_31 
REMARK   12  A    between atoms: C19_31  and  C20_32 
REMARK   13  A    between atoms: C20_32  and  N8_33 
ROOT
HETATM    1  C8  UNL     1      67.978  55.196  16.632  1.00  0.00    -0.034 A 
HETATM    2  C9  UNL     1      66.806  54.564  16.305  1.00  0.00     0.014 A 
HETATM    3  C10 UNL     1      66.866  53.312  15.744  1.00  0.00     0.033 A 
HETATM    4  C11 UNL     1      68.076  52.728  15.526  1.00  0.00     0.061 A 
HETATM    5  C13 UNL     1      69.310  53.322  15.838  1.00  0.00     0.061 A 
HETATM    6  C28 UNL     1      69.216  54.571  16.397  1.00  0.00     0.043 A 
ENDROOT
BRANCH   5   7
HETATM    7  N5  UNL     1      70.486  52.630  15.512  1.00  0.00    -0.344 N 
ATOM      8  H5  UNL     1      70.771  51.935  16.202  1.00  0.00     0.167 HD
BRANCH   7   9
HETATM    9  C14 UNL     1      71.335  52.727  14.407  1.00  0.00     0.117 C 
HETATM   10  S1  UNL     1      71.013  52.148  12.949  1.00  0.00    -0.059 SA
BRANCH   9  11
HETATM   11  C15 UNL     1      72.640  53.449  14.589  1.00  0.00     0.137 C 
BRANCH  11  12
HETATM   12  N6  UNL     1      72.553  54.744  15.119  1.00  0.00    -0.341 N 
HETATM   13  C16 UNL     1      71.847  55.679  14.372  1.00  0.00     0.112 C 
HETATM   14  C17 UNL     1      71.387  56.915  15.098  1.00  0.00     0.108 C 
HETATM   15  N7  UNL     1      72.059  57.264  16.245  1.00  0.00    -0.364 N 
HETATM   16  C26 UNL     1      72.529  56.201  17.090  1.00  0.00     0.172 C 
HETATM   17  C27 UNL     1      73.115  55.045  16.354  1.00  0.00     0.089 C 
BRANCH  15  18
HETATM   18  C18 UNL     1      72.400  58.551  16.639  1.00  0.00     0.065 C 
BRANCH  18  19
HETATM   19  C19 UNL     1      73.223  58.805  17.833  1.00  0.00     0.075 C 
BRANCH  19  20
HETATM   20  C20 UNL     1      72.654  59.570  18.961  1.00  0.00     0.277 C 
BRANCH  20  21
HETATM   21  N8  UNL     1      73.623  59.818  20.042  1.00  0.00     0.088 N 
HETATM   22  C21 UNL     1      74.465  60.889  19.587  1.00  0.00     0.272 C 
HETATM   23  C22 UNL     1      75.664  61.148  20.443  1.00  0.00     0.030 C 
HETATM   24  C23 UNL     1      76.470  59.866  20.508  1.00  0.00     0.003 C 
HETATM   25  C24 UNL     1      75.618  58.751  21.040  1.00  0.00     0.030 C 
HETATM   26  C25 UNL     1      74.333  58.581  20.273  1.00  0.00     0.272 C 
ENDBRANCH  20  21
ENDBRANCH  19  20
ENDBRANCH  18  19
ENDBRANCH  15  18
ENDBRANCH  11  12
ENDBRANCH   9  11
ENDBRANCH   7   9
ENDBRANCH   5   7
BRANCH   4  27
HETATM   27  N2  UNL     1      68.055  51.424  14.946  1.00  0.00    -0.331 N 
HETATM   28  C12 UNL     1      67.671  51.327  13.715  1.00  0.00     0.201 C 
HETATM   29  N3  UNL     1      67.656  50.013  13.150  1.00  0.00    -0.066 NA
HETATM   30  N4  UNL     1      67.278  52.425  12.934  1.00  0.00    -0.066 NA
ATOM     31  H2  UNL     1      68.331  50.601  15.481  1.00  0.00     0.168 HD
ENDBRANCH   4  27
BRANCH   1  32
HETATM   32  C7  UNL     1      68.017  56.536  17.201  1.00  0.00     0.012 C 
HETATM   33  C6  UNL     1      68.988  56.943  17.997  1.00  0.00     0.015 C 
BRANCH  33  34
HETATM   34  C5  UNL     1      69.046  58.280  18.580  1.00  0.00    -0.005 A 
HETATM   35  C4  UNL     1      69.098  59.442  17.860  1.00  0.00     0.104 A 
HETATM   36  N1  UNL     1      69.135  60.654  18.488  1.00  0.00    -0.331 N 
HETATM   37  C3  UNL     1      69.124  60.753  19.824  1.00  0.00     0.223 A 
ATOM     38  H1  UNL     1      69.173  61.505  17.927  1.00  0.00     0.168 HD
HETATM   39  N9  UNL     1      69.074  59.607  20.521  1.00  0.00    -0.331 N 
HETATM   40  C29 UNL     1      69.035  58.393  19.949  1.00  0.00     0.104 A 
ATOM     41  H9  UNL     1      69.064  59.661  21.540  1.00  0.00     0.168 HD
BRANCH  37  42
HETATM   42  O1  UNL     1      69.161  62.000  20.459  1.00  0.00    -0.322 OA
BRANCH  42  43
HETATM   43  C2  UNL     1      68.957  62.011  21.861  1.00  0.00     0.174 C 
HETATM   44  C1  UNL     1      67.513  62.288  22.211  1.00  0.00     0.034 C 
ENDBRANCH  42  43
ENDBRANCH  37  42
ENDBRANCH  33  34
ENDBRANCH   1  32
TORSDOF 13
ENDMDL
MODEL 5
REMARK VINA RESULT: -9.054506701      3.252     10.159
REMARK  13 active torsions:
REMARK  status: ('A' for Active; 'I' for Inactive)
REMARK    1  A    between atoms: C2_2  and  O1_3 
REMARK    2  A    between atoms: O1_3  and  C3_4 
REMARK    3  A    between atoms: C5_8  and  C6_9 
REMARK    4  A    between atoms: C7_10  and  C8_11 
REMARK    5  A    between atoms: C11_14  and  N2_15 
REMARK    6  A    between atoms: C13_20  and  N5_21 
REMARK    7  A    between atoms: N5_21  and  C14_23 
REMARK    8  A    between atoms: C14_23  and  C15_25 
REMARK    9  A    between atoms: C15_25  and  N6_26 
REMARK   10  A    between atoms: N7_29  and  C18_30 
REMARK   11  A    between atoms: C18_30  and  C19_31 
REMARK   12  A    between atoms: C19_31  and  C20_32 
REMARK   13  A    between atoms: C20_32  and  N8_33 
ROOT
HETATM    1  C8  UNL     1      68.374  54.618  15.714  1.00  0.00    -0.034 A 
HETATM    2  C9  UNL     1      67.361  53.725  15.956  1.00  0.00     0.014 A 
HETATM    3  C10 UNL     1      67.425  52.482  15.376  1.00  0.00     0.033 A 
HETATM    4  C11 UNL     1      68.483  52.163  14.580  1.00  0.00     0.061 A 
HETATM    5  C13 UNL     1      69.549  53.030  14.294  1.00  0.00     0.061 A 
HETATM    6  C28 UNL     1      69.456  54.263  14.889  1.00  0.00     0.043 A 
ENDROOT
BRANCH   5   7
HETATM    7  N5  UNL     1      70.551  52.591  13.415  1.00  0.00    -0.344 N 
ATOM      8  H5  UNL     1      70.253  52.511  12.443  1.00  0.00     0.167 HD
BRANCH   7   9
HETATM    9  C14 UNL     1      71.886  52.245  13.640  1.00  0.00     0.117 C 
HETATM   10  S1  UNL     1      72.406  50.770  13.984  1.00  0.00    -0.059 SA
BRANCH   9  11
HETATM   11  C15 UNL     1      72.918  53.332  13.529  1.00  0.00     0.137 C 
BRANCH  11  12
HETATM   12  N6  UNL     1      73.005  54.204  14.623  1.00  0.00    -0.341 N 
HETATM   13  C16 UNL     1      72.646  55.528  14.399  1.00  0.00     0.112 C 
HETATM   14  C17 UNL     1      72.328  56.356  15.614  1.00  0.00     0.108 C 
HETATM   15  N7  UNL     1      72.847  55.942  16.818  1.00  0.00    -0.364 N 
HETATM   16  C26 UNL     1      72.935  54.527  17.052  1.00  0.00     0.172 C 
HETATM   17  C27 UNL     1      73.393  53.737  15.874  1.00  0.00     0.089 C 
BRANCH  15  18
HETATM   18  C18 UNL     1      73.369  56.757  17.812  1.00  0.00     0.065 C 
BRANCH  18  19
HETATM   19  C19 UNL     1      72.992  58.176  17.932  1.00  0.00     0.075 C 
BRANCH  19  20
HETATM   20  C20 UNL     1      72.515  58.696  19.228  1.00  0.00     0.277 C 
BRANCH  20  21
HETATM   21  N8  UNL     1      73.552  59.423  19.979  1.00  0.00     0.088 N 
HETATM   22  C21 UNL     1      74.073  60.418  19.085  1.00  0.00     0.272 C 
HETATM   23  C22 UNL     1      75.298  61.122  19.577  1.00  0.00     0.030 C 
HETATM   24  C23 UNL     1      76.359  60.071  19.836  1.00  0.00     0.003 C 
HETATM   25  C24 UNL     1      75.850  59.057  20.817  1.00  0.00     0.030 C 
HETATM   26  C25 UNL     1      74.535  58.452  20.401  1.00  0.00     0.272 C 
ENDBRANCH  20  21
ENDBRANCH  19  20
ENDBRANCH  18  19
ENDBRANCH  15  18
ENDBRANCH  11  12
ENDBRANCH   9  11
ENDBRANCH   7   9
ENDBRANCH   5   7
BRANCH   4  27
HETATM   27  N2  UNL     1      68.480  50.850  14.019  1.00  0.00    -0.331 N 
HETATM   28  C12 UNL     1      67.742  50.651  12.976  1.00  0.00     0.201 C 
HETATM   29  N3  UNL     1      67.752  49.329  12.427  1.00  0.00    -0.066 NA
HETATM   30  N4  UNL     1      66.955  51.647  12.379  1.00  0.00    -0.066 NA
ATOM     31  H2  UNL     1      69.037  50.099  14.426  1.00  0.00     0.168 HD
ENDBRANCH   4  27
BRANCH   1  32
HETATM   32  C7  UNL     1      68.379  55.968  16.259  1.00  0.00     0.012 C 
HETATM   33  C6  UNL     1      69.115  56.313  17.298  1.00  0.00     0.015 C 
BRANCH  33  34
HETATM   34  C5  UNL     1      69.134  57.660  17.862  1.00  0.00    -0.005 A 
HETATM   35  C4  UNL     1      69.397  58.798  17.150  1.00  0.00     0.104 A 
HETATM   36  N1  UNL     1      69.380  60.023  17.755  1.00  0.00    -0.331 N 
HETATM   37  C3  UNL     1      69.107  60.157  19.059  1.00  0.00     0.223 A 
ATOM     38  H1  UNL     1      69.579  60.855  17.200  1.00  0.00     0.168 HD
HETATM   39  N9  UNL     1      68.851  59.034  19.749  1.00  0.00    -0.331 N 
HETATM   40  C29 UNL     1      68.856  57.810  19.198  1.00  0.00     0.104 A 
ATOM     41  H9  UNL     1      68.641  59.115  20.744  1.00  0.00     0.168 HD
BRANCH  37  42
HETATM   42  O1  UNL     1      69.090  61.416  19.670  1.00  0.00    -0.322 OA
BRANCH  42  43
HETATM   43  C2  UNL     1      69.276  61.450  21.074  1.00  0.00     0.174 C 
HETATM   44  C1  UNL     1      68.024  61.903  21.790  1.00  0.00     0.034 C 
ENDBRANCH  42  43
ENDBRANCH  37  42
ENDBRANCH  33  34
ENDBRANCH   1  32
TORSDOF 13
ENDMDL
