MODEL 1
REMARK VINA RESULT: -9.481553923      0.000      0.000
REMARK  14 active torsions:
REMARK  status: ('A' for Active; 'I' for Inactive)
REMARK    1  A    between atoms: C2_2  and  C3_3 
REMARK    2  A    between atoms: C3_3  and  C4_4 
REMARK    3  A    between atoms: C4_4  and  C5_5 
REMARK    4  A    between atoms: C5_5  and  C6_6 
REMARK       I    between atoms: C6_6  and  N1_8 
REMARK    5  A    between atoms: N1_8  and  C7_10 
REMARK    6  A    between atoms: C9_14  and  C10_15 
REMARK    7  A    between atoms: C10_15  and  C11_16 
REMARK       I    between atoms: C11_16  and  N3_18 
REMARK    8  A    between atoms: N3_18  and  C12_20 
REMARK    9  A    between atoms: C13_25  and  C14_26 
REMARK   10  A    between atoms: C14_26  and  C15_27 
REMARK   11  A    between atoms: C15_27  and  C16_28 
REMARK   12  A    between atoms: C16_28  and  C17_29 
REMARK   13  A    between atoms: C17_29  and  C18_30 
REMARK       I    between atoms: N8_36  and  C20_38 
REMARK   14  A    between atoms: C20_38  and  C21_40 
ROOT
HETATM    1  C12 UNL     1      72.070  57.762  16.524  1.00  0.00     0.167 A 
HETATM    2  N4  UNL     1      71.259  58.305  15.612  1.00  0.00    -0.279 N 
ATOM      3  H4  UNL     1      71.493  58.266  14.619  1.00  0.00     0.189 HD
HETATM    4  N5  UNL     1      70.191  58.870  16.001  1.00  0.00    -0.296 N 
ATOM      5  H5  UNL     1      69.564  59.288  15.314  1.00  0.00     0.187 HD
HETATM    6  C13 UNL     1      69.882  58.923  17.282  1.00  0.00     0.069 A 
HETATM    7  S2  UNL     1      71.213  58.109  17.978  1.00  0.00    -0.038 SA
ENDROOT
BRANCH   1   8
HETATM    8  N3  UNL     1      73.203  57.128  16.375  1.00  0.00    -0.306 N 
HETATM    9  C11 UNL     1      73.165  55.715  16.454  1.00  0.00     0.228 C 
HETATM   10  O2  UNL     1      72.776  55.226  17.570  1.00  0.00    -0.273 OA
ATOM     11  H3  UNL     1      74.076  57.628  16.209  1.00  0.00     0.171 HD
BRANCH   9  12
HETATM   12  C10 UNL     1      73.551  54.836  15.323  1.00  0.00     0.150 C 
BRANCH  12  13
HETATM   13  C9  UNL     1      72.296  54.149  14.842  1.00  0.00     0.010 A 
HETATM   14  C8  UNL     1      71.136  54.708  14.375  1.00  0.00     0.105 A 
HETATM   15  N2  UNL     1      70.175  53.901  14.017  1.00  0.00    -0.345 N 
HETATM   16  C7  UNL     1      70.370  52.588  14.125  1.00  0.00     0.151 A 
ATOM     17  H2  UNL     1      69.293  54.269  13.662  1.00  0.00     0.167 HD
HETATM   18  S3  UNL     1      71.952  52.481  14.749  1.00  0.00    -0.057 SA
BRANCH  16  19
HETATM   19  N1  UNL     1      69.530  51.623  13.820  1.00  0.00    -0.307 N 
HETATM   20  C6  UNL     1      68.183  52.010  13.637  1.00  0.00     0.223 C 
HETATM   21  O1  UNL     1      67.697  52.073  12.491  1.00  0.00    -0.273 OA
ATOM     22  H1  UNL     1      69.833  50.654  13.722  1.00  0.00     0.171 HD
BRANCH  20  23
HETATM   23  C5  UNL     1      67.356  52.339  14.808  1.00  0.00     0.103 C 
BRANCH  23  24
HETATM   24  C4  UNL     1      66.447  53.482  14.471  1.00  0.00     0.009 C 
BRANCH  24  25
HETATM   25  C3  UNL     1      66.771  54.751  15.202  1.00  0.00     0.000 C 
BRANCH  25  26
HETATM   26  C2  UNL     1      67.423  54.503  16.534  1.00  0.00    -0.005 C 
HETATM   27  C1  UNL     1      68.433  55.623  16.762  1.00  0.00     0.005 C 
ENDBRANCH  25  26
ENDBRANCH  24  25
ENDBRANCH  23  24
ENDBRANCH  20  23
ENDBRANCH  16  19
ENDBRANCH  12  13
ENDBRANCH   9  12
ENDBRANCH   1   8
BRANCH   6  28
HETATM   28  C14 UNL     1      68.681  59.533  17.913  1.00  0.00     0.066 C 
BRANCH  28  29
HETATM   29  C15 UNL     1      68.246  58.915  19.180  1.00  0.00     0.007 C 
BRANCH  29  30
HETATM   30  C16 UNL     1      68.596  59.607  20.442  1.00  0.00     0.007 C 
BRANCH  30  31
HETATM   31  C17 UNL     1      69.072  61.027  20.239  1.00  0.00     0.066 C 
BRANCH  31  32
HETATM   32  C18 UNL     1      70.453  61.207  20.823  1.00  0.00     0.069 A 
HETATM   33  N6  UNL     1      70.764  61.453  22.087  1.00  0.00    -0.296 N 
HETATM   34  N7  UNL     1      71.975  61.583  22.434  1.00  0.00    -0.279 N 
ATOM     35  H6  UNL     1      70.024  61.539  22.784  1.00  0.00     0.187 HD
HETATM   36  C19 UNL     1      72.927  61.468  21.506  1.00  0.00     0.167 A 
ATOM     37  H7  UNL     1      72.219  61.772  23.406  1.00  0.00     0.189 HD
HETATM   38  N8  UNL     1      74.223  61.575  21.690  1.00  0.00    -0.306 N 
HETATM   39  S1  UNL     1      72.000  61.163  20.101  1.00  0.00    -0.038 SA
HETATM   40  C20 UNL     1      75.089  61.426  20.601  1.00  0.00     0.227 C 
ATOM     41  H8  UNL     1      74.596  61.765  22.621  1.00  0.00     0.171 HD
HETATM   42  O3  UNL     1      74.917  62.015  19.521  1.00  0.00    -0.273 OA
BRANCH  40  43
HETATM   43  C21 UNL     1      76.268  60.522  20.741  1.00  0.00     0.070 C 
HETATM   44  C22 UNL     1      76.841  60.167  19.380  1.00  0.00     0.019 C 
HETATM   45  C23 UNL     1      75.751  59.231  21.377  1.00  0.00     0.019 C 
ENDBRANCH  40  43
ENDBRANCH  31  32
ENDBRANCH  30  31
ENDBRANCH  29  30
ENDBRANCH  28  29
ENDBRANCH   6  28
TORSDOF 14
ENDMDL
MODEL 2
REMARK VINA RESULT: -9.305684812      1.725      1.954
REMARK  14 active torsions:
REMARK  status: ('A' for Active; 'I' for Inactive)
REMARK    1  A    between atoms: C2_2  and  C3_3 
REMARK    2  A    between atoms: C3_3  and  C4_4 
REMARK    3  A    between atoms: C4_4  and  C5_5 
REMARK    4  A    between atoms: C5_5  and  C6_6 
REMARK       I    between atoms: C6_6  and  N1_8 
REMARK    5  A    between atoms: N1_8  and  C7_10 
REMARK    6  A    between atoms: C9_14  and  C10_15 
REMARK    7  A    between atoms: C10_15  and  C11_16 
REMARK       I    between atoms: C11_16  and  N3_18 
REMARK    8  A    between atoms: N3_18  and  C12_20 
REMARK    9  A    between atoms: C13_25  and  C14_26 
REMARK   10  A    between atoms: C14_26  and  C15_27 
REMARK   11  A    between atoms: C15_27  and  C16_28 
REMARK   12  A    between atoms: C16_28  and  C17_29 
REMARK   13  A    between atoms: C17_29  and  C18_30 
REMARK       I    between atoms: N8_36  and  C20_38 
REMARK   14  A    between atoms: C20_38  and  C21_40 
ROOT
HETATM    1  C12 UNL     1      72.335  56.289  17.063  1.00  0.00     0.167 A 
HETATM    2  N4  UNL     1      71.996  55.905  18.297  1.00  0.00    -0.279 N 
ATOM      3  H4  UNL     1      72.649  55.375  18.874  1.00  0.00     0.189 HD
HETATM    4  N5  UNL     1      70.846  56.211  18.739  1.00  0.00    -0.296 N 
ATOM      5  H5  UNL     1      70.575  55.923  19.680  1.00  0.00     0.187 HD
HETATM    6  C13 UNL     1      69.996  56.896  17.999  1.00  0.00     0.069 A 
HETATM    7  S2  UNL     1      70.906  57.118  16.570  1.00  0.00    -0.038 SA
ENDROOT
BRANCH   1   8
HETATM    8  N3  UNL     1      73.445  56.107  16.397  1.00  0.00    -0.306 N 
HETATM    9  C11 UNL     1      73.743  54.785  15.993  1.00  0.00     0.228 C 
HETATM   10  O2  UNL     1      73.900  53.932  16.933  1.00  0.00    -0.273 OA
ATOM     11  H3  UNL     1      74.069  56.885  16.179  1.00  0.00     0.171 HD
BRANCH   9  12
HETATM   12  C10 UNL     1      73.873  54.390  14.568  1.00  0.00     0.150 C 
BRANCH  12  13
HETATM   13  C9  UNL     1      72.591  53.693  14.180  1.00  0.00     0.010 A 
HETATM   14  C8  UNL     1      71.303  54.153  14.263  1.00  0.00     0.105 A 
HETATM   15  N2  UNL     1      70.349  53.358  13.866  1.00  0.00    -0.345 N 
HETATM   16  C7  UNL     1      70.672  52.151  13.405  1.00  0.00     0.151 A 
ATOM     17  H2  UNL     1      69.374  53.656  13.907  1.00  0.00     0.167 HD
HETATM   18  S3  UNL     1      72.371  52.129  13.533  1.00  0.00    -0.057 SA
BRANCH  16  19
HETATM   19  N1  UNL     1      69.860  51.214  12.964  1.00  0.00    -0.307 N 
HETATM   20  C6  UNL     1      68.486  51.411  13.231  1.00  0.00     0.223 C 
HETATM   21  O1  UNL     1      67.713  51.766  12.319  1.00  0.00    -0.273 OA
ATOM     22  H1  UNL     1      70.202  50.397  12.460  1.00  0.00     0.171 HD
BRANCH  20  23
HETATM   23  C5  UNL     1      67.972  51.194  14.592  1.00  0.00     0.103 C 
BRANCH  23  24
HETATM   24  C4  UNL     1      67.210  52.406  15.035  1.00  0.00     0.009 C 
BRANCH  24  25
HETATM   25  C3  UNL     1      67.740  53.031  16.291  1.00  0.00     0.000 C 
BRANCH  25  26
HETATM   26  C2  UNL     1      67.220  54.424  16.512  1.00  0.00    -0.005 C 
HETATM   27  C1  UNL     1      67.666  55.271  15.325  1.00  0.00     0.005 C 
ENDBRANCH  25  26
ENDBRANCH  24  25
ENDBRANCH  23  24
ENDBRANCH  20  23
ENDBRANCH  16  19
ENDBRANCH  12  13
ENDBRANCH   9  12
ENDBRANCH   1   8
BRANCH   6  28
HETATM   28  C14 UNL     1      68.622  57.344  18.352  1.00  0.00     0.066 C 
BRANCH  28  29
HETATM   29  C15 UNL     1      68.465  58.792  18.579  1.00  0.00     0.007 C 
BRANCH  29  30
HETATM   30  C16 UNL     1      68.565  59.287  19.972  1.00  0.00     0.007 C 
BRANCH  30  31
HETATM   31  C17 UNL     1      69.001  60.730  20.069  1.00  0.00     0.066 C 
BRANCH  31  32
HETATM   32  C18 UNL     1      70.472  60.857  19.754  1.00  0.00     0.069 A 
HETATM   33  N6  UNL     1      71.127  61.954  19.406  1.00  0.00    -0.296 N 
HETATM   34  N7  UNL     1      72.370  61.910  19.168  1.00  0.00    -0.279 N 
ATOM     35  H6  UNL     1      70.627  62.840  19.328  1.00  0.00     0.187 HD
HETATM   36  C19 UNL     1      73.005  60.741  19.276  1.00  0.00     0.167 A 
ATOM     37  H7  UNL     1      72.878  62.753  18.900  1.00  0.00     0.189 HD
HETATM   38  N8  UNL     1      74.282  60.517  19.066  1.00  0.00    -0.306 N 
HETATM   39  S1  UNL     1      71.729  59.700  19.736  1.00  0.00    -0.038 SA
HETATM   40  C20 UNL     1      74.789  59.222  19.224  1.00  0.00     0.227 C 
ATOM     41  H8  UNL     1      74.899  61.281  18.790  1.00  0.00     0.171 HD
HETATM   42  O3  UNL     1      74.249  58.224  18.719  1.00  0.00    -0.273 OA
BRANCH  40  43
HETATM   43  C21 UNL     1      76.029  59.032  20.032  1.00  0.00     0.070 C 
HETATM   44  C22 UNL     1      75.696  58.518  21.421  1.00  0.00     0.019 C 
HETATM   45  C23 UNL     1      76.662  60.415  20.188  1.00  0.00     0.019 C 
ENDBRANCH  40  43
ENDBRANCH  31  32
ENDBRANCH  30  31
ENDBRANCH  29  30
ENDBRANCH  28  29
ENDBRANCH   6  28
TORSDOF 14
ENDMDL
MODEL 3
REMARK VINA RESULT: -9.113800946      2.799      9.456
REMARK  14 active torsions:
REMARK  status: ('A' for Active; 'I' for Inactive)
REMARK    1  A    between atoms: C2_2  and  C3_3 
REMARK    2  A    between atoms: C3_3  and  C4_4 
REMARK    3  A    between atoms: C4_4  and  C5_5 
REMARK    4  A    between atoms: C5_5  and  C6_6 
REMARK       I    between atoms: C6_6  and  N1_8 
REMARK    5  A    between atoms: N1_8  and  C7_10 
REMARK    6  A    between atoms: C9_14  and  C10_15 
REMARK    7  A    between atoms: C10_15  and  C11_16 
REMARK       I    between atoms: C11_16  and  N3_18 
REMARK    8  A    between atoms: N3_18  and  C12_20 
REMARK    9  A    between atoms: C13_25  and  C14_26 
REMARK   10  A    between atoms: C14_26  and  C15_27 
REMARK   11  A    between atoms: C15_27  and  C16_28 
REMARK   12  A    between atoms: C16_28  and  C17_29 
REMARK   13  A    between atoms: C17_29  and  C18_30 
REMARK       I    between atoms: N8_36  and  C20_38 
REMARK   14  A    between atoms: C20_38  and  C21_40 
ROOT
HETATM    1  C12 UNL     1      69.890  61.514  23.479  1.00  0.00     0.167 A 
HETATM    2  N4  UNL     1      70.110  60.204  23.339  1.00  0.00    -0.279 N 
ATOM      3  H4  UNL     1      70.658  59.692  24.031  1.00  0.00     0.189 HD
HETATM    4  N5  UNL     1      69.627  59.607  22.328  1.00  0.00    -0.296 N 
ATOM      5  H5  UNL     1      69.789  58.607  22.209  1.00  0.00     0.187 HD
HETATM    6  C13 UNL     1      68.918  60.262  21.430  1.00  0.00     0.069 A 
HETATM    7  S2  UNL     1      68.946  61.844  22.075  1.00  0.00    -0.038 SA
ENDROOT
BRANCH   1   8
HETATM    8  N3  UNL     1      70.267  62.337  24.422  1.00  0.00    -0.306 N 
HETATM    9  C11 UNL     1      71.492  62.053  25.071  1.00  0.00     0.228 C 
HETATM   10  O2  UNL     1      71.548  60.943  25.704  1.00  0.00    -0.273 OA
ATOM     11  H3  UNL     1      69.704  63.148  24.678  1.00  0.00     0.171 HD
BRANCH   9  12
HETATM   12  C10 UNL     1      72.654  62.976  25.035  1.00  0.00     0.150 C 
BRANCH  12  13
HETATM   13  C9  UNL     1      73.464  62.626  23.810  1.00  0.00     0.010 A 
HETATM   14  C8  UNL     1      73.137  62.785  22.489  1.00  0.00     0.105 A 
HETATM   15  N2  UNL     1      74.008  62.400  21.599  1.00  0.00    -0.345 N 
HETATM   16  C7  UNL     1      75.159  61.876  22.015  1.00  0.00     0.151 A 
ATOM     17  H2  UNL     1      73.812  62.498  20.603  1.00  0.00     0.167 HD
HETATM   18  S3  UNL     1      75.016  61.925  23.712  1.00  0.00    -0.057 SA
BRANCH  16  19
HETATM   19  N1  UNL     1      76.155  61.432  21.278  1.00  0.00    -0.307 N 
HETATM   20  C6  UNL     1      75.792  60.757  20.091  1.00  0.00     0.223 C 
HETATM   21  O1  UNL     1      75.922  61.316  18.984  1.00  0.00    -0.273 OA
ATOM     22  H1  UNL     1      77.129  61.566  21.548  1.00  0.00     0.171 HD
BRANCH  20  23
HETATM   23  C5  UNL     1      75.257  59.388  20.167  1.00  0.00     0.103 C 
BRANCH  23  24
HETATM   24  C4  UNL     1      74.585  59.044  18.872  1.00  0.00     0.009 C 
BRANCH  24  25
HETATM   25  C3  UNL     1      73.198  58.496  19.035  1.00  0.00     0.000 C 
BRANCH  25  26
HETATM   26  C2  UNL     1      72.348  59.331  19.951  1.00  0.00    -0.005 C 
HETATM   27  C1  UNL     1      72.006  60.619  19.209  1.00  0.00     0.005 C 
ENDBRANCH  25  26
ENDBRANCH  24  25
ENDBRANCH  23  24
ENDBRANCH  20  23
ENDBRANCH  16  19
ENDBRANCH  12  13
ENDBRANCH   9  12
ENDBRANCH   1   8
BRANCH   6  28
HETATM   28  C14 UNL     1      68.276  59.730  20.198  1.00  0.00     0.066 C 
BRANCH  28  29
HETATM   29  C15 UNL     1      68.275  58.261  20.067  1.00  0.00     0.007 C 
BRANCH  29  30
HETATM   30  C16 UNL     1      68.980  57.671  18.904  1.00  0.00     0.007 C 
BRANCH  30  31
HETATM   31  C17 UNL     1      69.252  58.663  17.798  1.00  0.00     0.066 C 
BRANCH  31  32
HETATM   32  C18 UNL     1      70.051  58.013  16.694  1.00  0.00     0.069 A 
HETATM   33  N6  UNL     1      70.535  58.592  15.605  1.00  0.00    -0.296 N 
HETATM   34  N7  UNL     1      71.190  57.916  14.758  1.00  0.00    -0.279 N 
ATOM     35  H6  UNL     1      70.379  59.588  15.448  1.00  0.00     0.187 HD
HETATM   36  C19 UNL     1      71.382  56.614  14.982  1.00  0.00     0.167 A 
ATOM     37  H7  UNL     1      71.565  58.359  13.919  1.00  0.00     0.189 HD
HETATM   38  N8  UNL     1      72.031  55.771  14.213  1.00  0.00    -0.306 N 
HETATM   39  S1  UNL     1      70.575  56.402  16.475  1.00  0.00    -0.038 SA
HETATM   40  C20 UNL     1      72.140  54.430  14.599  1.00  0.00     0.227 C 
ATOM     41  H8  UNL     1      72.454  56.091  13.341  1.00  0.00     0.171 HD
HETATM   42  O3  UNL     1      71.166  53.760  14.979  1.00  0.00    -0.273 OA
BRANCH  40  43
HETATM   43  C21 UNL     1      73.481  53.777  14.553  1.00  0.00     0.070 C 
HETATM   44  C22 UNL     1      73.349  52.266  14.612  1.00  0.00     0.019 C 
HETATM   45  C23 UNL     1      74.225  54.227  15.811  1.00  0.00     0.019 C 
ENDBRANCH  40  43
ENDBRANCH  31  32
ENDBRANCH  30  31
ENDBRANCH  29  30
ENDBRANCH  28  29
ENDBRANCH   6  28
TORSDOF 14
ENDMDL
MODEL 4
REMARK VINA RESULT: -8.869796564      1.906     10.587
REMARK  14 active torsions:
REMARK  status: ('A' for Active; 'I' for Inactive)
REMARK    1  A    between atoms: C2_2  and  C3_3 
REMARK    2  A    between atoms: C3_3  and  C4_4 
REMARK    3  A    between atoms: C4_4  and  C5_5 
REMARK    4  A    between atoms: C5_5  and  C6_6 
REMARK       I    between atoms: C6_6  and  N1_8 
REMARK    5  A    between atoms: N1_8  and  C7_10 
REMARK    6  A    between atoms: C9_14  and  C10_15 
REMARK    7  A    between atoms: C10_15  and  C11_16 
REMARK       I    between atoms: C11_16  and  N3_18 
REMARK    8  A    between atoms: N3_18  and  C12_20 
REMARK    9  A    between atoms: C13_25  and  C14_26 
REMARK   10  A    between atoms: C14_26  and  C15_27 
REMARK   11  A    between atoms: C15_27  and  C16_28 
REMARK   12  A    between atoms: C16_28  and  C17_29 
REMARK   13  A    between atoms: C17_29  and  C18_30 
REMARK       I    between atoms: N8_36  and  C20_38 
REMARK   14  A    between atoms: C20_38  and  C21_40 
ROOT
HETATM    1  C12 UNL     1      70.166  58.363  17.360  1.00  0.00     0.167 A 
HETATM    2  N4  UNL     1      71.131  58.998  16.688  1.00  0.00    -0.279 N 
ATOM      3  H4  UNL     1      71.116  60.014  16.595  1.00  0.00     0.189 HD
HETATM    4  N5  UNL     1      72.066  58.316  16.168  1.00  0.00    -0.296 N 
ATOM      5  H5  UNL     1      72.808  58.790  15.652  1.00  0.00     0.187 HD
HETATM    6  C13 UNL     1      72.091  57.003  16.285  1.00  0.00     0.069 A 
HETATM    7  S2  UNL     1      70.677  56.724  17.203  1.00  0.00    -0.038 SA
ENDROOT
BRANCH   1   8
HETATM    8  N3  UNL     1      69.118  58.836  17.983  1.00  0.00    -0.306 N 
HETATM    9  C11 UNL     1      69.307  59.279  19.313  1.00  0.00     0.228 C 
HETATM   10  O2  UNL     1      69.689  58.393  20.152  1.00  0.00    -0.273 OA
ATOM     11  H3  UNL     1      68.206  58.883  17.530  1.00  0.00     0.171 HD
BRANCH   9  12
HETATM   12  C10 UNL     1      69.079  60.685  19.731  1.00  0.00     0.150 C 
BRANCH  12  13
HETATM   13  C9  UNL     1      70.365  61.182  20.347  1.00  0.00     0.010 A 
HETATM   14  C8  UNL     1      70.739  61.190  21.665  1.00  0.00     0.105 A 
HETATM   15  N2  UNL     1      71.912  61.679  21.959  1.00  0.00    -0.345 N 
HETATM   16  C7  UNL     1      72.677  62.141  20.972  1.00  0.00     0.151 A 
ATOM     17  H2  UNL     1      72.237  61.706  22.925  1.00  0.00     0.167 HD
HETATM   18  S3  UNL     1      71.721  61.882  19.586  1.00  0.00    -0.057 SA
BRANCH  16  19
HETATM   19  N1  UNL     1      73.879  62.669  21.065  1.00  0.00    -0.307 N 
HETATM   20  C6  UNL     1      74.951  61.840  20.664  1.00  0.00     0.223 C 
HETATM   21  O1  UNL     1      75.527  62.039  19.577  1.00  0.00    -0.273 OA
ATOM     22  H1  UNL     1      74.027  63.618  21.406  1.00  0.00     0.171 HD
BRANCH  20  23
HETATM   23  C5  UNL     1      75.384  60.738  21.537  1.00  0.00     0.103 C 
BRANCH  23  24
HETATM   24  C4  UNL     1      76.283  59.817  20.769  1.00  0.00     0.009 C 
BRANCH  24  25
HETATM   25  C3  UNL     1      75.651  58.502  20.422  1.00  0.00     0.000 C 
BRANCH  25  26
HETATM   26  C2  UNL     1      74.834  58.564  19.162  1.00  0.00    -0.005 C 
HETATM   27  C1  UNL     1      73.374  58.364  19.554  1.00  0.00     0.005 C 
ENDBRANCH  25  26
ENDBRANCH  24  25
ENDBRANCH  23  24
ENDBRANCH  20  23
ENDBRANCH  16  19
ENDBRANCH  12  13
ENDBRANCH   9  12
ENDBRANCH   1   8
BRANCH   6  28
HETATM   28  C14 UNL     1      73.102  56.051  15.751  1.00  0.00     0.066 C 
BRANCH  28  29
HETATM   29  C15 UNL     1      73.683  55.121  16.737  1.00  0.00     0.007 C 
BRANCH  29  30
HETATM   30  C16 UNL     1      73.607  53.670  16.447  1.00  0.00     0.007 C 
BRANCH  30  31
HETATM   31  C17 UNL     1      74.169  53.297  15.095  1.00  0.00     0.066 C 
BRANCH  31  32
HETATM   32  C18 UNL     1      73.054  52.931  14.144  1.00  0.00     0.069 A 
HETATM   33  N6  UNL     1      73.158  52.658  12.853  1.00  0.00    -0.296 N 
HETATM   34  N7  UNL     1      72.128  52.366  12.175  1.00  0.00    -0.279 N 
ATOM     35  H6  UNL     1      74.072  52.682  12.401  1.00  0.00     0.187 HD
HETATM   36  C19 UNL     1      70.942  52.341  12.786  1.00  0.00     0.167 A 
ATOM     37  H7  UNL     1      72.204  52.155  11.180  1.00  0.00     0.189 HD
HETATM   38  N8  UNL     1      69.781  52.062  12.239  1.00  0.00    -0.306 N 
HETATM   39  S1  UNL     1      71.372  52.756  14.388  1.00  0.00    -0.038 SA
HETATM   40  C20 UNL     1      68.625  52.080  13.027  1.00  0.00     0.227 C 
ATOM     41  H8  UNL     1      69.722  51.834  11.246  1.00  0.00     0.171 HD
HETATM   42  O3  UNL     1      68.349  53.019  13.792  1.00  0.00    -0.273 OA
BRANCH  40  43
HETATM   43  C21 UNL     1      67.685  50.924  12.948  1.00  0.00     0.070 C 
HETATM   44  C22 UNL     1      66.279  51.343  13.337  1.00  0.00     0.019 C 
HETATM   45  C23 UNL     1      68.166  49.902  13.979  1.00  0.00     0.019 C 
ENDBRANCH  40  43
ENDBRANCH  31  32
ENDBRANCH  30  31
ENDBRANCH  29  30
ENDBRANCH  28  29
ENDBRANCH   6  28
TORSDOF 14
ENDMDL
MODEL 5
REMARK VINA RESULT: -8.851540169      3.051      5.511
REMARK  14 active torsions:
REMARK  status: ('A' for Active; 'I' for Inactive)
REMARK    1  A    between atoms: C2_2  and  C3_3 
REMARK    2  A    between atoms: C3_3  and  C4_4 
REMARK    3  A    between atoms: C4_4  and  C5_5 
REMARK    4  A    between atoms: C5_5  and  C6_6 
REMARK       I    between atoms: C6_6  and  N1_8 
REMARK    5  A    between atoms: N1_8  and  C7_10 
REMARK    6  A    between atoms: C9_14  and  C10_15 
REMARK    7  A    between atoms: C10_15  and  C11_16 
REMARK       I    between atoms: C11_16  and  N3_18 
REMARK    8  A    between atoms: N3_18  and  C12_20 
REMARK    9  A    between atoms: C13_25  and  C14_26 
REMARK   10  A    between atoms: C14_26  and  C15_27 
REMARK   11  A    between atoms: C15_27  and  C16_28 
REMARK   12  A    between atoms: C16_28  and  C17_29 
REMARK   13  A    between atoms: C17_29  and  C18_30 
REMARK       I    between atoms: N8_36  and  C20_38 
REMARK   14  A    between atoms: C20_38  and  C21_40 
ROOT
HETATM    1  C12 UNL     1      69.036  56.725  16.966  1.00  0.00     0.167 A 
HETATM    2  N4  UNL     1      69.301  57.791  16.206  1.00  0.00    -0.279 N 
ATOM      3  H4  UNL     1      69.491  57.684  15.209  1.00  0.00     0.189 HD
HETATM    4  N5  UNL     1      69.312  58.941  16.745  1.00  0.00    -0.296 N 
ATOM      5  H5  UNL     1      69.514  59.762  16.175  1.00  0.00     0.187 HD
HETATM    6  C13 UNL     1      69.067  59.086  18.032  1.00  0.00     0.069 A 
HETATM    7  S2  UNL     1      68.802  57.466  18.505  1.00  0.00    -0.038 SA
ENDROOT
BRANCH   1   8
HETATM    8  N3  UNL     1      68.959  55.460  16.649  1.00  0.00    -0.306 N 
HETATM    9  C11 UNL     1      68.578  55.152  15.321  1.00  0.00     0.228 C 
HETATM   10  O2  UNL     1      67.415  55.547  14.964  1.00  0.00    -0.273 OA
ATOM     11  H3  UNL     1      69.163  54.726  17.328  1.00  0.00     0.171 HD
BRANCH   9  12
HETATM   12  C10 UNL     1      69.460  54.413  14.383  1.00  0.00     0.150 C 
BRANCH  12  13
HETATM   13  C9  UNL     1      68.954  52.992  14.320  1.00  0.00     0.010 A 
HETATM   14  C8  UNL     1      68.235  52.294  15.255  1.00  0.00     0.105 A 
HETATM   15  N2  UNL     1      67.912  51.062  14.974  1.00  0.00    -0.345 N 
HETATM   16  C7  UNL     1      68.294  50.551  13.805  1.00  0.00     0.151 A 
ATOM     17  H2  UNL     1      67.377  50.501  15.637  1.00  0.00     0.167 HD
HETATM   18  S3  UNL     1      69.135  51.841  13.075  1.00  0.00    -0.057 SA
BRANCH  16  19
HETATM   19  N1  UNL     1      68.069  49.340  13.344  1.00  0.00    -0.307 N 
HETATM   20  C6  UNL     1      68.920  48.323  13.834  1.00  0.00     0.223 C 
HETATM   21  O1  UNL     1      68.502  47.505  14.677  1.00  0.00    -0.273 OA
ATOM     22  H1  UNL     1      67.325  49.146  12.674  1.00  0.00     0.171 HD
BRANCH  20  23
HETATM   23  C5  UNL     1      70.304  48.236  13.344  1.00  0.00     0.103 C 
BRANCH  23  24
HETATM   24  C4  UNL     1      71.159  47.574  14.383  1.00  0.00     0.009 C 
BRANCH  24  25
HETATM   25  C3  UNL     1      72.426  48.316  14.689  1.00  0.00     0.000 C 
BRANCH  25  26
HETATM   26  C2  UNL     1      72.467  49.680  14.058  1.00  0.00    -0.005 C 
HETATM   27  C1  UNL     1      73.929  50.006  13.770  1.00  0.00     0.005 C 
ENDBRANCH  25  26
ENDBRANCH  24  25
ENDBRANCH  23  24
ENDBRANCH  20  23
ENDBRANCH  16  19
ENDBRANCH  12  13
ENDBRANCH   9  12
ENDBRANCH   1   8
BRANCH   6  28
HETATM   28  C14 UNL     1      69.033  60.345  18.825  1.00  0.00     0.066 C 
BRANCH  28  29
HETATM   29  C15 UNL     1      70.322  60.765  19.404  1.00  0.00     0.007 C 
BRANCH  29  30
HETATM   30  C16 UNL     1      71.043  59.795  20.261  1.00  0.00     0.007 C 
BRANCH  30  31
HETATM   31  C17 UNL     1      72.489  59.602  19.867  1.00  0.00     0.066 C 
BRANCH  31  32
HETATM   32  C18 UNL     1      72.586  58.756  18.620  1.00  0.00     0.069 A 
HETATM   33  N6  UNL     1      72.758  59.176  17.376  1.00  0.00    -0.296 N 
HETATM   34  N7  UNL     1      72.820  58.345  16.422  1.00  0.00    -0.279 N 
ATOM     35  H6  UNL     1      72.840  60.175  17.185  1.00  0.00     0.187 HD
HETATM   36  C19 UNL     1      72.709  57.043  16.695  1.00  0.00     0.167 A 
ATOM     37  H7  UNL     1      72.952  58.665  15.463  1.00  0.00     0.189 HD
HETATM   38  N8  UNL     1      72.749  56.053  15.833  1.00  0.00    -0.306 N 
HETATM   39  S1  UNL     1      72.511  57.064  18.393  1.00  0.00    -0.038 SA
HETATM   40  C20 UNL     1      72.616  54.737  16.288  1.00  0.00     0.227 C 
ATOM     41  H8  UNL     1      72.876  56.242  14.838  1.00  0.00     0.171 HD
HETATM   42  O3  UNL     1      71.716  54.384  17.069  1.00  0.00    -0.273 OA
BRANCH  40  43
HETATM   43  C21 UNL     1      73.595  53.713  15.820  1.00  0.00     0.070 C 
HETATM   44  C22 UNL     1      74.991  54.029  16.326  1.00  0.00     0.019 C 
HETATM   45  C23 UNL     1      73.623  53.806  14.294  1.00  0.00     0.019 C 
ENDBRANCH  40  43
ENDBRANCH  31  32
ENDBRANCH  30  31
ENDBRANCH  29  30
ENDBRANCH  28  29
ENDBRANCH   6  28
TORSDOF 14
ENDMDL
