MODEL 1
REMARK VINA RESULT: -9.515151430      0.000      0.000
REMARK  12 active torsions:
REMARK  status: ('A' for Active; 'I' for Inactive)
REMARK    1  A    between atoms: O1_2  and  C2_3 
REMARK    2  A    between atoms: C2_3  and  C3_4 
REMARK    3  A    between atoms: N1_6  and  C5_7 
REMARK    4  A    between atoms: C5_7  and  C6_8 
REMARK    5  A    between atoms: C7_9  and  C8_10 
REMARK    6  A    between atoms: C9_18  and  C10_19 
REMARK    7  A    between atoms: C10_19  and  C11_20 
REMARK    8  A    between atoms: C11_20  and  C12_21 
REMARK    9  A    between atoms: C12_21  and  C13_22 
REMARK   10  A    between atoms: C13_22  and  C14_23 
REMARK       I    between atoms: N7_29  and  C16_31 
REMARK   11  A    between atoms: C16_31  and  C17_33 
REMARK   12  A    between atoms: C17_33  and  C18_34 
ROOT
HETATM    1  C10 UNL     1      73.995  59.005  18.421  1.00  0.00     0.048 C 
ENDROOT
BRANCH   1   2
HETATM    2  C9  UNL     1      74.320  59.725  19.678  1.00  0.00     0.010 A 
HETATM    3  C6  UNL     1      73.836  60.847  20.304  1.00  0.00     0.005 A 
HETATM    4  C7  UNL     1      74.463  61.225  21.438  1.00  0.00     0.088 A 
HETATM    5  N4  UNL     1      75.499  60.446  21.848  1.00  0.00    -0.323 N 
HETATM    6  S1  UNL     1      75.622  59.249  20.724  1.00  0.00    -0.018 SA
ATOM      7  H4  UNL     1      76.077  60.576  22.678  1.00  0.00     0.174 HD
BRANCH   3   8
HETATM    8  C5  UNL     1      72.566  61.497  19.780  1.00  0.00     0.170 C 
BRANCH   8   9
HETATM    9  N1  UNL     1      71.342  60.847  20.119  1.00  0.00    -0.359 N 
HETATM   10  C4  UNL     1      70.619  60.013  19.374  1.00  0.00     0.118 A 
HETATM   11  C3  UNL     1      69.480  59.334  19.789  1.00  0.00     0.048 A 
HETATM   12  N8  UNL     1      69.069  59.533  21.050  1.00  0.00    -0.365 N 
HETATM   13  C27 UNL     1      69.779  60.379  21.853  1.00  0.00     0.105 A 
ATOM     14  H8  UNL     1      68.238  59.058  21.405  1.00  0.00     0.165 HD
HETATM   15  C26 UNL     1      70.890  61.019  21.393  1.00  0.00     0.107 A 
BRANCH  11  16
HETATM   16  C2  UNL     1      68.761  58.428  18.859  1.00  0.00     0.225 C 
BRANCH  16  17
HETATM   17  O1  UNL     1      69.213  57.128  18.898  1.00  0.00    -0.390 OA
HETATM   18  C1  UNL     1      69.017  56.606  17.599  1.00  0.00     0.201 C 
ENDBRANCH  16  17
ENDBRANCH  11  16
ENDBRANCH   8   9
ENDBRANCH   3   8
BRANCH   4  19
HETATM   19  C8  UNL     1      74.265  62.461  22.246  1.00  0.00     0.138 C 
HETATM   20  N2  UNL     1      74.705  63.608  22.026  1.00  0.00    -0.386 N 
ATOM     21  H22 UNL     1      75.269  63.671  21.178  1.00  0.00     0.157 HD
ATOM     22  H21 UNL     1      74.570  64.455  22.579  1.00  0.00     0.157 HD
HETATM   23  N3  UNL     1      73.453  62.370  23.466  1.00  0.00    -0.081 NA
ENDBRANCH   4  19
ENDBRANCH   1   2
BRANCH   1  24
HETATM   24  C11 UNL     1      73.344  57.654  18.664  1.00  0.00     0.006 C 
BRANCH  24  25
HETATM   25  C12 UNL     1      72.664  57.126  17.442  1.00  0.00     0.007 C 
BRANCH  25  26
HETATM   26  C13 UNL     1      73.651  56.392  16.590  1.00  0.00     0.066 C 
BRANCH  26  27
HETATM   27  C14 UNL     1      73.009  55.242  15.852  1.00  0.00     0.069 A 
HETATM   28  N5  UNL     1      72.109  55.320  14.890  1.00  0.00    -0.296 N 
HETATM   29  N6  UNL     1      71.646  54.269  14.350  1.00  0.00    -0.279 N 
ATOM     30  H5  UNL     1      71.783  56.233  14.576  1.00  0.00     0.187 HD
HETATM   31  C15 UNL     1      72.072  53.074  14.761  1.00  0.00     0.167 A 
ATOM     32  H6  UNL     1      70.952  54.338  13.605  1.00  0.00     0.189 HD
HETATM   33  N7  UNL     1      71.784  51.874  14.407  1.00  0.00    -0.306 N 
HETATM   34  S2  UNL     1      73.205  53.557  15.998  1.00  0.00    -0.038 SA
HETATM   35  C16 UNL     1      70.938  51.349  13.478  1.00  0.00     0.227 C 
ATOM     36  H7  UNL     1      72.296  51.164  14.931  1.00  0.00     0.171 HD
HETATM   37  O2  UNL     1      70.902  50.067  13.380  1.00  0.00    -0.273 OA
BRANCH  35  38
HETATM   38  C17 UNL     1      70.043  52.066  12.553  1.00  0.00     0.141 C 
BRANCH  38  39
HETATM   39  C18 UNL     1      68.648  52.154  13.058  1.00  0.00    -0.048 A 
HETATM   40  C19 UNL     1      67.646  51.324  12.596  1.00  0.00     0.014 A 
HETATM   41  C20 UNL     1      66.335  51.409  13.071  1.00  0.00    -0.061 A 
HETATM   42  C21 UNL     1      65.291  50.493  12.539  1.00  0.00     0.048 C 
HETATM   43  C22 UNL     1      66.019  52.345  14.033  1.00  0.00     0.013 A 
HETATM   44  C23 UNL     1      67.002  53.188  14.514  1.00  0.00    -0.061 A 
HETATM   45  C24 UNL     1      66.698  54.208  15.548  1.00  0.00     0.048 C 
HETATM   46  C25 UNL     1      68.277  53.079  14.027  1.00  0.00     0.014 A 
ENDBRANCH  38  39
ENDBRANCH  35  38
ENDBRANCH  26  27
ENDBRANCH  25  26
ENDBRANCH  24  25
ENDBRANCH   1  24
TORSDOF 12
ENDMDL
MODEL 2
REMARK VINA RESULT: -9.352282125      1.695      3.054
REMARK  12 active torsions:
REMARK  status: ('A' for Active; 'I' for Inactive)
REMARK    1  A    between atoms: O1_2  and  C2_3 
REMARK    2  A    between atoms: C2_3  and  C3_4 
REMARK    3  A    between atoms: N1_6  and  C5_7 
REMARK    4  A    between atoms: C5_7  and  C6_8 
REMARK    5  A    between atoms: C7_9  and  C8_10 
REMARK    6  A    between atoms: C9_18  and  C10_19 
REMARK    7  A    between atoms: C10_19  and  C11_20 
REMARK    8  A    between atoms: C11_20  and  C12_21 
REMARK    9  A    between atoms: C12_21  and  C13_22 
REMARK   10  A    between atoms: C13_22  and  C14_23 
REMARK       I    between atoms: N7_29  and  C16_31 
REMARK   11  A    between atoms: C16_31  and  C17_33 
REMARK   12  A    between atoms: C17_33  and  C18_34 
ROOT
HETATM    1  C10 UNL     1      73.624  58.252  19.026  1.00  0.00     0.048 C 
ENDROOT
BRANCH   1   2
HETATM    2  C9  UNL     1      72.931  59.434  19.599  1.00  0.00     0.010 A 
HETATM    3  C6  UNL     1      71.633  59.722  19.942  1.00  0.00     0.005 A 
HETATM    4  C7  UNL     1      71.389  60.974  20.385  1.00  0.00     0.088 A 
HETATM    5  N4  UNL     1      72.457  61.811  20.460  1.00  0.00    -0.323 N 
HETATM    6  S1  UNL     1      73.745  60.931  19.933  1.00  0.00    -0.018 SA
ATOM      7  H4  UNL     1      72.459  62.780  20.775  1.00  0.00     0.174 HD
BRANCH   3   8
HETATM    8  C5  UNL     1      70.602  58.606  19.941  1.00  0.00     0.170 C 
BRANCH   8   9
HETATM    9  N1  UNL     1      70.065  58.247  18.669  1.00  0.00    -0.359 N 
HETATM   10  C4  UNL     1      69.601  57.063  18.276  1.00  0.00     0.118 A 
HETATM   11  C3  UNL     1      69.000  56.792  17.052  1.00  0.00     0.048 A 
HETATM   12  N8  UNL     1      68.874  57.810  16.188  1.00  0.00    -0.365 N 
HETATM   13  C27 UNL     1      69.335  59.045  16.547  1.00  0.00     0.105 A 
ATOM     14  H8  UNL     1      68.441  57.665  15.276  1.00  0.00     0.165 HD
HETATM   15  C26 UNL     1      69.915  59.254  17.762  1.00  0.00     0.107 A 
BRANCH  11  16
HETATM   16  C2  UNL     1      68.522  55.424  16.733  1.00  0.00     0.225 C 
BRANCH  16  17
HETATM   17  O1  UNL     1      69.511  54.595  16.251  1.00  0.00    -0.390 OA
HETATM   18  C1  UNL     1      69.208  53.302  16.736  1.00  0.00     0.201 C 
ENDBRANCH  16  17
ENDBRANCH  11  16
ENDBRANCH   8   9
ENDBRANCH   3   8
BRANCH   4  19
HETATM   19  C8  UNL     1      70.080  61.617  20.686  1.00  0.00     0.138 C 
HETATM   20  N2  UNL     1      69.469  61.659  21.774  1.00  0.00    -0.386 N 
ATOM     21  H22 UNL     1      69.957  61.181  22.532  1.00  0.00     0.157 HD
ATOM     22  H21 UNL     1      68.573  62.100  21.980  1.00  0.00     0.157 HD
HETATM   23  N3  UNL     1      69.378  62.306  19.595  1.00  0.00    -0.081 NA
ENDBRANCH   4  19
ENDBRANCH   1   2
BRANCH   1  24
HETATM   24  C11 UNL     1      73.474  58.152  17.517  1.00  0.00     0.006 C 
BRANCH  24  25
HETATM   25  C12 UNL     1      72.808  56.881  17.099  1.00  0.00     0.007 C 
BRANCH  25  26
HETATM   26  C13 UNL     1      73.760  56.051  16.295  1.00  0.00     0.066 C 
BRANCH  26  27
HETATM   27  C14 UNL     1      73.058  54.909  15.601  1.00  0.00     0.069 A 
HETATM   28  N5  UNL     1      72.183  54.995  14.617  1.00  0.00    -0.296 N 
HETATM   29  N6  UNL     1      71.663  53.949  14.120  1.00  0.00    -0.279 N 
ATOM     30  H5  UNL     1      71.921  55.910  14.253  1.00  0.00     0.187 HD
HETATM   31  C15 UNL     1      72.004  52.753  14.597  1.00  0.00     0.167 A 
ATOM     32  H6  UNL     1      70.988  54.025  13.358  1.00  0.00     0.189 HD
HETATM   33  N7  UNL     1      71.647  51.556  14.296  1.00  0.00    -0.306 N 
HETATM   34  S2  UNL     1      73.143  53.224  15.832  1.00  0.00    -0.038 SA
HETATM   35  C16 UNL     1      70.785  51.040  13.376  1.00  0.00     0.227 C 
ATOM     36  H7  UNL     1      72.103  50.843  14.865  1.00  0.00     0.171 HD
HETATM   37  O2  UNL     1      70.669  49.759  13.340  1.00  0.00    -0.273 OA
BRANCH  35  38
HETATM   38  C17 UNL     1      69.954  51.765  12.399  1.00  0.00     0.141 C 
BRANCH  38  39
HETATM   39  C18 UNL     1      68.511  51.751  12.753  1.00  0.00    -0.048 A 
HETATM   40  C19 UNL     1      67.931  52.750  13.510  1.00  0.00     0.014 A 
HETATM   41  C20 UNL     1      66.574  52.735  13.843  1.00  0.00    -0.061 A 
HETATM   42  C21 UNL     1      65.998  53.834  14.662  1.00  0.00     0.048 C 
HETATM   43  C22 UNL     1      65.778  51.697  13.405  1.00  0.00     0.013 A 
HETATM   44  C23 UNL     1      66.331  50.685  12.646  1.00  0.00    -0.061 A 
HETATM   45  C24 UNL     1      65.506  49.552  12.160  1.00  0.00     0.048 C 
HETATM   46  C25 UNL     1      67.665  50.730  12.338  1.00  0.00     0.014 A 
ENDBRANCH  38  39
ENDBRANCH  35  38
ENDBRANCH  26  27
ENDBRANCH  25  26
ENDBRANCH  24  25
ENDBRANCH   1  24
TORSDOF 12
ENDMDL
MODEL 3
REMARK VINA RESULT: -9.282879607      2.151      4.089
REMARK  12 active torsions:
REMARK  status: ('A' for Active; 'I' for Inactive)
REMARK    1  A    between atoms: O1_2  and  C2_3 
REMARK    2  A    between atoms: C2_3  and  C3_4 
REMARK    3  A    between atoms: N1_6  and  C5_7 
REMARK    4  A    between atoms: C5_7  and  C6_8 
REMARK    5  A    between atoms: C7_9  and  C8_10 
REMARK    6  A    between atoms: C9_18  and  C10_19 
REMARK    7  A    between atoms: C10_19  and  C11_20 
REMARK    8  A    between atoms: C11_20  and  C12_21 
REMARK    9  A    between atoms: C12_21  and  C13_22 
REMARK   10  A    between atoms: C13_22  and  C14_23 
REMARK       I    between atoms: N7_29  and  C16_31 
REMARK   11  A    between atoms: C16_31  and  C17_33 
REMARK   12  A    between atoms: C17_33  and  C18_34 
ROOT
HETATM    1  C10 UNL     1      72.469  58.894  17.705  1.00  0.00     0.048 C 
ENDROOT
BRANCH   1   2
HETATM    2  C9  UNL     1      71.524  59.258  18.792  1.00  0.00     0.010 A 
HETATM    3  C6  UNL     1      71.411  60.313  19.663  1.00  0.00     0.005 A 
HETATM    4  C7  UNL     1      70.419  60.241  20.575  1.00  0.00     0.088 A 
HETATM    5  N4  UNL     1      69.627  59.138  20.524  1.00  0.00    -0.323 N 
HETATM    6  S1  UNL     1      70.219  58.226  19.287  1.00  0.00    -0.018 SA
ATOM      7  H4  UNL     1      68.832  58.921  21.126  1.00  0.00     0.174 HD
BRANCH   3   8
HETATM    8  C5  UNL     1      72.293  61.534  19.463  1.00  0.00     0.170 C 
BRANCH   8   9
HETATM    9  N1  UNL     1      73.475  61.594  20.261  1.00  0.00    -0.359 N 
HETATM   10  C4  UNL     1      73.612  62.079  21.493  1.00  0.00     0.118 A 
HETATM   11  C3  UNL     1      74.768  62.027  22.263  1.00  0.00     0.048 A 
HETATM   12  N8  UNL     1      75.843  61.437  21.719  1.00  0.00    -0.365 N 
HETATM   13  C27 UNL     1      75.751  60.923  20.457  1.00  0.00     0.105 A 
ATOM     14  H8  UNL     1      76.718  61.372  22.241  1.00  0.00     0.165 HD
HETATM   15  C26 UNL     1      74.590  61.002  19.749  1.00  0.00     0.107 A 
BRANCH  11  16
HETATM   16  C2  UNL     1      74.793  62.606  23.628  1.00  0.00     0.225 C 
BRANCH  16  17
HETATM   17  O1  UNL     1      75.119  61.693  24.607  1.00  0.00    -0.390 OA
HETATM   18  C1  UNL     1      75.598  62.447  25.703  1.00  0.00     0.201 C 
ENDBRANCH  16  17
ENDBRANCH  11  16
ENDBRANCH   8   9
ENDBRANCH   3   8
BRANCH   4  19
HETATM   19  C8  UNL     1      70.143  61.145  21.726  1.00  0.00     0.138 C 
HETATM   20  N2  UNL     1      70.645  61.119  22.868  1.00  0.00    -0.386 N 
ATOM     21  H22 UNL     1      71.327  60.370  22.996  1.00  0.00     0.157 HD
ATOM     22  H21 UNL     1      70.457  61.738  23.657  1.00  0.00     0.157 HD
HETATM   23  N3  UNL     1      69.163  62.222  21.543  1.00  0.00    -0.081 NA
ENDBRANCH   4  19
ENDBRANCH   1   2
BRANCH   1  24
HETATM   24  C11 UNL     1      73.441  57.799  18.110  1.00  0.00     0.006 C 
BRANCH  24  25
HETATM   25  C12 UNL     1      73.033  56.459  17.586  1.00  0.00     0.007 C 
BRANCH  25  26
HETATM   26  C13 UNL     1      73.462  56.321  16.158  1.00  0.00     0.066 C 
BRANCH  26  27
HETATM   27  C14 UNL     1      72.836  55.116  15.500  1.00  0.00     0.069 A 
HETATM   28  N5  UNL     1      71.966  55.115  14.508  1.00  0.00    -0.296 N 
HETATM   29  N6  UNL     1      71.514  54.024  14.043  1.00  0.00    -0.279 N 
ATOM     30  H5  UNL     1      71.653  56.001  14.110  1.00  0.00     0.187 HD
HETATM   31  C15 UNL     1      71.921  52.867  14.565  1.00  0.00     0.167 A 
ATOM     32  H6  UNL     1      70.842  54.033  13.275  1.00  0.00     0.189 HD
HETATM   33  N7  UNL     1      71.638  51.642  14.303  1.00  0.00    -0.306 N 
HETATM   34  S2  UNL     1      73.019  53.448  15.791  1.00  0.00    -0.038 SA
HETATM   35  C16 UNL     1      70.817  51.043  13.396  1.00  0.00     0.227 C 
ATOM     36  H7  UNL     1      72.131  50.977  14.900  1.00  0.00     0.171 HD
HETATM   37  O2  UNL     1      70.778  49.758  13.404  1.00  0.00    -0.273 OA
BRANCH  35  38
HETATM   38  C17 UNL     1      69.953  51.683  12.389  1.00  0.00     0.141 C 
BRANCH  38  39
HETATM   39  C18 UNL     1      68.538  51.788  12.830  1.00  0.00    -0.048 A 
HETATM   40  C19 UNL     1      67.566  50.911  12.392  1.00  0.00     0.014 A 
HETATM   41  C20 UNL     1      66.236  51.011  12.807  1.00  0.00    -0.061 A 
HETATM   42  C21 UNL     1      65.226  50.042  12.305  1.00  0.00     0.048 C 
HETATM   43  C22 UNL     1      65.870  52.012  13.683  1.00  0.00     0.013 A 
HETATM   44  C23 UNL     1      66.822  52.903  14.137  1.00  0.00    -0.061 A 
HETATM   45  C24 UNL     1      66.464  53.993  15.079  1.00  0.00     0.048 C 
HETATM   46  C25 UNL     1      68.117  52.777  13.711  1.00  0.00     0.014 A 
ENDBRANCH  38  39
ENDBRANCH  35  38
ENDBRANCH  26  27
ENDBRANCH  25  26
ENDBRANCH  24  25
ENDBRANCH   1  24
TORSDOF 12
ENDMDL
MODEL 4
REMARK VINA RESULT: -9.262682454      2.077      4.182
REMARK  12 active torsions:
REMARK  status: ('A' for Active; 'I' for Inactive)
REMARK    1  A    between atoms: O1_2  and  C2_3 
REMARK    2  A    between atoms: C2_3  and  C3_4 
REMARK    3  A    between atoms: N1_6  and  C5_7 
REMARK    4  A    between atoms: C5_7  and  C6_8 
REMARK    5  A    between atoms: C7_9  and  C8_10 
REMARK    6  A    between atoms: C9_18  and  C10_19 
REMARK    7  A    between atoms: C10_19  and  C11_20 
REMARK    8  A    between atoms: C11_20  and  C12_21 
REMARK    9  A    between atoms: C12_21  and  C13_22 
REMARK   10  A    between atoms: C13_22  and  C14_23 
REMARK       I    between atoms: N7_29  and  C16_31 
REMARK   11  A    between atoms: C16_31  and  C17_33 
REMARK   12  A    between atoms: C17_33  and  C18_34 
ROOT
HETATM    1  C10 UNL     1      72.238  58.973  17.795  1.00  0.00     0.048 C 
ENDROOT
BRANCH   1   2
HETATM    2  C9  UNL     1      71.396  59.400  18.941  1.00  0.00     0.010 A 
HETATM    3  C6  UNL     1      71.427  60.448  19.828  1.00  0.00     0.005 A 
HETATM    4  C7  UNL     1      70.490  60.446  20.799  1.00  0.00     0.088 A 
HETATM    5  N4  UNL     1      69.606  59.414  20.788  1.00  0.00    -0.323 N 
HETATM    6  S1  UNL     1      70.042  58.473  19.509  1.00  0.00    -0.018 SA
ATOM      7  H4  UNL     1      68.835  59.255  21.436  1.00  0.00     0.174 HD
BRANCH   3   8
HETATM    8  C5  UNL     1      72.394  61.594  19.584  1.00  0.00     0.170 C 
BRANCH   8   9
HETATM    9  N1  UNL     1      73.640  61.524  20.276  1.00  0.00    -0.359 N 
HETATM   10  C4  UNL     1      73.876  61.735  21.569  1.00  0.00     0.118 A 
HETATM   11  C3  UNL     1      75.097  61.560  22.211  1.00  0.00     0.048 A 
HETATM   12  N8  UNL     1      76.130  61.142  21.465  1.00  0.00    -0.365 N 
HETATM   13  C27 UNL     1      75.936  60.911  20.133  1.00  0.00     0.105 A 
ATOM     14  H8  UNL     1      77.048  60.998  21.886  1.00  0.00     0.165 HD
HETATM   15  C26 UNL     1      74.716  61.098  19.556  1.00  0.00     0.107 A 
BRANCH  11  16
HETATM   16  C2  UNL     1      75.232  61.830  23.663  1.00  0.00     0.225 C 
BRANCH  16  17
HETATM   17  O1  UNL     1      74.052  61.690  24.360  1.00  0.00    -0.390 OA
HETATM   18  C1  UNL     1      73.805  62.942  24.969  1.00  0.00     0.201 C 
ENDBRANCH  16  17
ENDBRANCH  11  16
ENDBRANCH   8   9
ENDBRANCH   3   8
BRANCH   4  19
HETATM   19  C8  UNL     1      70.363  61.353  21.974  1.00  0.00     0.138 C 
HETATM   20  N2  UNL     1      71.029  61.351  23.029  1.00  0.00    -0.386 N 
ATOM     21  H22 UNL     1      71.741  60.622  23.059  1.00  0.00     0.157 HD
ATOM     22  H21 UNL     1      70.942  61.973  23.834  1.00  0.00     0.157 HD
HETATM   23  N3  UNL     1      69.338  62.404  21.931  1.00  0.00    -0.081 NA
ENDBRANCH   4  19
ENDBRANCH   1   2
BRANCH   1  24
HETATM   24  C11 UNL     1      73.261  57.916  18.173  1.00  0.00     0.006 C 
BRANCH  24  25
HETATM   25  C12 UNL     1      72.865  56.553  17.703  1.00  0.00     0.007 C 
BRANCH  25  26
HETATM   26  C13 UNL     1      73.552  56.243  16.410  1.00  0.00     0.066 C 
BRANCH  26  27
HETATM   27  C14 UNL     1      72.913  55.072  15.704  1.00  0.00     0.069 A 
HETATM   28  N5  UNL     1      72.042  55.121  14.713  1.00  0.00    -0.296 N 
HETATM   29  N6  UNL     1      71.579  54.054  14.205  1.00  0.00    -0.279 N 
ATOM     30  H5  UNL     1      71.738  56.024  14.353  1.00  0.00     0.187 HD
HETATM   31  C15 UNL     1      71.975  52.872  14.679  1.00  0.00     0.167 A 
ATOM     32  H6  UNL     1      70.907  54.101  13.439  1.00  0.00     0.189 HD
HETATM   33  N7  UNL     1      71.680  51.662  14.367  1.00  0.00    -0.306 N 
HETATM   34  S2  UNL     1      73.080  53.392  15.926  1.00  0.00    -0.038 SA
HETATM   35  C16 UNL     1      70.853  51.109  13.437  1.00  0.00     0.227 C 
ATOM     36  H7  UNL     1      72.167  50.968  14.936  1.00  0.00     0.171 HD
HETATM   37  O2  UNL     1      70.800  49.825  13.393  1.00  0.00    -0.273 OA
BRANCH  35  38
HETATM   38  C17 UNL     1      69.994  51.798  12.458  1.00  0.00     0.141 C 
BRANCH  38  39
HETATM   39  C18 UNL     1      68.586  51.919  12.916  1.00  0.00    -0.048 A 
HETATM   40  C19 UNL     1      68.182  52.905  13.793  1.00  0.00     0.014 A 
HETATM   41  C20 UNL     1      66.857  53.018  14.224  1.00  0.00    -0.061 A 
HETATM   42  C21 UNL     1      66.472  54.097  15.171  1.00  0.00     0.048 C 
HETATM   43  C22 UNL     1      65.914  52.123  13.763  1.00  0.00     0.013 A 
HETATM   44  C23 UNL     1      66.290  51.126  12.884  1.00  0.00    -0.061 A 
HETATM   45  C24 UNL     1      65.304  50.145  12.369  1.00  0.00     0.048 C 
HETATM   46  C25 UNL     1      67.597  51.044  12.483  1.00  0.00     0.014 A 
ENDBRANCH  38  39
ENDBRANCH  35  38
ENDBRANCH  26  27
ENDBRANCH  25  26
ENDBRANCH  24  25
ENDBRANCH   1  24
TORSDOF 12
ENDMDL
MODEL 5
REMARK VINA RESULT: -9.221009104      1.926      3.857
REMARK  12 active torsions:
REMARK  status: ('A' for Active; 'I' for Inactive)
REMARK    1  A    between atoms: O1_2  and  C2_3 
REMARK    2  A    between atoms: C2_3  and  C3_4 
REMARK    3  A    between atoms: N1_6  and  C5_7 
REMARK    4  A    between atoms: C5_7  and  C6_8 
REMARK    5  A    between atoms: C7_9  and  C8_10 
REMARK    6  A    between atoms: C9_18  and  C10_19 
REMARK    7  A    between atoms: C10_19  and  C11_20 
REMARK    8  A    between atoms: C11_20  and  C12_21 
REMARK    9  A    between atoms: C12_21  and  C13_22 
REMARK   10  A    between atoms: C13_22  and  C14_23 
REMARK       I    between atoms: N7_29  and  C16_31 
REMARK   11  A    between atoms: C16_31  and  C17_33 
REMARK   12  A    between atoms: C17_33  and  C18_34 
ROOT
HETATM    1  C10 UNL     1      70.913  59.247  17.895  1.00  0.00     0.048 C 
ENDROOT
BRANCH   1   2
HETATM    2  C9  UNL     1      70.330  59.596  19.215  1.00  0.00     0.010 A 
HETATM    3  C6  UNL     1      70.521  60.611  20.120  1.00  0.00     0.005 A 
HETATM    4  C7  UNL     1      69.821  60.534  21.271  1.00  0.00     0.088 A 
HETATM    5  N4  UNL     1      68.990  59.468  21.407  1.00  0.00    -0.323 N 
HETATM    6  S1  UNL     1      69.164  58.594  20.022  1.00  0.00    -0.018 SA
ATOM      7  H4  UNL     1      68.386  59.254  22.200  1.00  0.00     0.174 HD
BRANCH   3   8
HETATM    8  C5  UNL     1      71.373  61.805  19.722  1.00  0.00     0.170 C 
BRANCH   8   9
HETATM    9  N1  UNL     1      72.741  61.762  20.126  1.00  0.00    -0.359 N 
HETATM   10  C4  UNL     1      73.754  61.133  19.535  1.00  0.00     0.118 A 
HETATM   11  C3  UNL     1      75.088  61.202  19.919  1.00  0.00     0.048 A 
HETATM   12  N8  UNL     1      75.385  61.970  20.978  1.00  0.00    -0.365 N 
HETATM   13  C27 UNL     1      74.379  62.637  21.617  1.00  0.00     0.105 A 
ATOM     14  H8  UNL     1      76.349  62.056  21.301  1.00  0.00     0.165 HD
HETATM   15  C26 UNL     1      73.087  62.533  21.195  1.00  0.00     0.107 A 
BRANCH  11  16
HETATM   16  C2  UNL     1      76.128  60.449  19.175  1.00  0.00     0.225 C 
BRANCH  16  17
HETATM   17  O1  UNL     1      75.813  59.123  18.980  1.00  0.00    -0.390 OA
HETATM   18  C1  UNL     1      75.881  58.513  20.254  1.00  0.00     0.201 C 
ENDBRANCH  16  17
ENDBRANCH  11  16
ENDBRANCH   8   9
ENDBRANCH   3   8
BRANCH   4  19
HETATM   19  C8  UNL     1      69.925  61.392  22.484  1.00  0.00     0.138 C 
HETATM   20  N2  UNL     1      70.611  61.203  23.510  1.00  0.00    -0.386 N 
ATOM     21  H22 UNL     1      71.157  60.341  23.480  1.00  0.00     0.157 HD
ATOM     22  H21 UNL     1      70.683  61.790  24.341  1.00  0.00     0.157 HD
HETATM   23  N3  UNL     1      69.141  62.633  22.527  1.00  0.00    -0.081 NA
ENDBRANCH   4  19
ENDBRANCH   1   2
BRANCH   1  24
HETATM   24  C11 UNL     1      71.974  58.164  17.984  1.00  0.00     0.006 C 
BRANCH  24  25
HETATM   25  C12 UNL     1      72.598  57.873  16.657  1.00  0.00     0.007 C 
BRANCH  25  26
HETATM   26  C13 UNL     1      73.490  56.676  16.768  1.00  0.00     0.066 C 
BRANCH  26  27
HETATM   27  C14 UNL     1      72.937  55.494  16.010  1.00  0.00     0.069 A 
HETATM   28  N5  UNL     1      72.074  55.523  15.012  1.00  0.00    -0.296 N 
HETATM   29  N6  UNL     1      71.688  54.448  14.458  1.00  0.00    -0.279 N 
ATOM     30  H5  UNL     1      71.714  56.417  14.682  1.00  0.00     0.187 HD
HETATM   31  C15 UNL     1      72.157  53.278  14.891  1.00  0.00     0.167 A 
ATOM     32  H6  UNL     1      71.021  54.480  13.686  1.00  0.00     0.189 HD
HETATM   33  N7  UNL     1      71.946  52.063  14.531  1.00  0.00    -0.306 N 
HETATM   34  S2  UNL     1      73.213  53.820  16.170  1.00  0.00    -0.038 SA
HETATM   35  C16 UNL     1      71.166  51.493  13.571  1.00  0.00     0.227 C 
ATOM     36  H7  UNL     1      72.473  51.382  15.078  1.00  0.00     0.171 HD
HETATM   37  O2  UNL     1      71.200  50.211  13.477  1.00  0.00    -0.273 OA
BRANCH  35  38
HETATM   38  C17 UNL     1      70.273  52.161  12.608  1.00  0.00     0.141 C 
BRANCH  38  39
HETATM   39  C18 UNL     1      68.859  52.194  13.065  1.00  0.00    -0.048 A 
HETATM   40  C19 UNL     1      68.413  53.098  14.008  1.00  0.00     0.014 A 
HETATM   41  C20 UNL     1      67.084  53.127  14.438  1.00  0.00    -0.061 A 
HETATM   42  C21 UNL     1      66.653  54.120  15.457  1.00  0.00     0.048 C 
HETATM   43  C22 UNL     1      66.179  52.230  13.909  1.00  0.00     0.013 A 
HETATM   44  C23 UNL     1      66.597  51.314  12.964  1.00  0.00    -0.061 A 
HETATM   45  C24 UNL     1      65.652  50.334  12.375  1.00  0.00     0.048 C 
HETATM   46  C25 UNL     1      67.907  51.313  12.565  1.00  0.00     0.014 A 
ENDBRANCH  38  39
ENDBRANCH  35  38
ENDBRANCH  26  27
ENDBRANCH  25  26
ENDBRANCH  24  25
ENDBRANCH   1  24
TORSDOF 12
ENDMDL
