MODEL 1
REMARK VINA RESULT: -9.338376855      0.000      0.000
REMARK  12 active torsions:
REMARK  status: ('A' for Active; 'I' for Inactive)
REMARK    1  A    between atoms: O1_2  and  C2_3 
REMARK    2  A    between atoms: C2_3  and  C3_4 
REMARK    3  A    between atoms: C3_4  and  N1_5 
REMARK    4  A    between atoms: N1_5  and  C4_6 
REMARK    5  A    between atoms: N1_5  and  C26_43 
REMARK    6  A    between atoms: C4_6  and  C5_7 
REMARK    7  A    between atoms: N3_10  and  C6_11 
REMARK    8  A    between atoms: C6_11  and  C7_12 
REMARK       I    between atoms: C7_12  and  N4_14 
REMARK    9  A    between atoms: C10_17  and  C11_18 
REMARK   10  A    between atoms: C11_18  and  C12_19 
REMARK   11  A    between atoms: C12_19  and  N5_20 
REMARK   12  A    between atoms: C21_31  and  N7_32 
ROOT
HETATM    1  C5  UNL     1      70.549  56.020  15.419  1.00  0.00     0.054 A 
HETATM    2  N2  UNL     1      70.548  57.170  16.130  1.00  0.00    -0.300 N 
ATOM      3  H2  UNL     1      71.391  57.699  16.359  1.00  0.00     0.187 HD
HETATM    4  N3  UNL     1      69.338  57.527  16.490  1.00  0.00    -0.293 N 
HETATM    5  C18 UNL     1      68.518  56.599  16.015  1.00  0.00     0.128 A 
HETATM    6  C19 UNL     1      69.229  55.601  15.317  1.00  0.00     0.050 A 
HETATM    7  C20 UNL     1      68.615  54.454  14.689  1.00  0.00     0.122 A 
HETATM    8  N6  UNL     1      67.268  54.351  14.790  1.00  0.00    -0.327 N 
ATOM      9  H6  UNL     1      66.755  55.075  15.293  1.00  0.00     0.169 HD
HETATM   10  C21 UNL     1      66.586  53.329  14.251  1.00  0.00     0.114 A 
HETATM   11  C22 UNL     1      67.257  52.342  13.567  1.00  0.00     0.053 A 
HETATM   12  C23 UNL     1      66.835  51.184  12.908  1.00  0.00     0.036 A 
HETATM   13  C24 UNL     1      67.990  50.610  12.415  1.00  0.00     0.091 A 
HETATM   14  N8  UNL     1      69.035  51.368  12.752  1.00  0.00    -0.351 N 
ATOM     15  H8  UNL     1      70.007  51.172  12.512  1.00  0.00     0.166 HD
HETATM   16  C25 UNL     1      68.610  52.423  13.452  1.00  0.00     0.120 A 
HETATM   17  N9  UNL     1      69.239  53.505  14.035  1.00  0.00    -0.327 N 
ATOM     18  H9  UNL     1      70.254  53.570  13.951  1.00  0.00     0.169 HD
ENDROOT
BRANCH   4  19
HETATM   19  C6  UNL     1      68.985  58.737  17.253  1.00  0.00     0.251 C 
BRANCH  19  20
HETATM   20  C7  UNL     1      69.390  58.549  18.659  1.00  0.00     0.239 C 
HETATM   21  O2  UNL     1      69.468  57.401  19.172  1.00  0.00    -0.271 OA
HETATM   22  N4  UNL     1      69.708  59.705  19.469  1.00  0.00    -0.350 N 
HETATM   23  C8  UNL     1      70.112  59.652  20.858  1.00  0.00     0.126 C 
HETATM   24  C17 UNL     1      69.671  61.072  18.993  1.00  0.00     0.130 C 
HETATM   25  C9  UNL     1      70.149  61.078  21.274  1.00  0.00     0.026 C 
HETATM   26  C10 UNL     1      70.432  61.871  20.059  1.00  0.00     0.007 C 
BRANCH  26  27
HETATM   27  C11 UNL     1      71.848  61.936  19.625  1.00  0.00     0.036 C 
BRANCH  27  28
HETATM   28  C12 UNL     1      72.867  62.096  20.701  1.00  0.00     0.273 C 
BRANCH  28  29
HETATM   29  N5  UNL     1      73.951  61.155  20.645  1.00  0.00     0.088 N 
HETATM   30  C13 UNL     1      75.228  61.706  20.334  1.00  0.00     0.272 C 
HETATM   31  C14 UNL     1      75.848  60.858  19.245  1.00  0.00     0.032 C 
HETATM   32  C15 UNL     1      74.953  59.663  19.116  1.00  0.00     0.032 C 
HETATM   33  C16 UNL     1      73.618  60.201  19.587  1.00  0.00     0.272 C 
ENDBRANCH  28  29
ENDBRANCH  27  28
ENDBRANCH  26  27
ENDBRANCH  19  20
ENDBRANCH   4  19
BRANCH   1  34
HETATM   34  C4  UNL     1      71.705  55.338  14.866  1.00  0.00     0.155 C 
BRANCH  34  35
HETATM   35  N1  UNL     1      72.065  54.116  15.673  1.00  0.00    -0.281 NA
BRANCH  35  36
HETATM   36  C3  UNL     1      72.754  54.506  16.825  1.00  0.00     0.084 C 
BRANCH  36  37
HETATM   37  C2  UNL     1      73.679  55.655  16.718  1.00  0.00     0.145 C 
BRANCH  37  38
HETATM   38  O1  UNL     1      73.475  56.812  17.367  1.00  0.00    -0.367 OA
HETATM   39  C1  UNL     1      72.766  56.705  18.561  1.00  0.00     0.208 C 
ENDBRANCH  37  38
ENDBRANCH  36  37
ENDBRANCH  35  36
BRANCH  35  40
HETATM   40  C26 UNL     1      72.477  53.148  14.773  1.00  0.00     0.063 C 
HETATM   41  C27 UNL     1      73.252  53.567  13.548  1.00  0.00     0.020 C 
HETATM   42  C28 UNL     1      73.194  52.299  12.718  1.00  0.00     0.002 C 
HETATM   43  C29 UNL     1      72.785  51.165  13.648  1.00  0.00     0.002 C 
HETATM   44  C30 UNL     1      72.973  51.806  15.078  1.00  0.00     0.020 C 
ENDBRANCH  35  40
ENDBRANCH  34  35
ENDBRANCH   1  34
BRANCH  10  45
HETATM   45  N7  UNL     1      65.305  53.223  14.352  1.00  0.00    -0.385 N 
ATOM     46  H72 UNL     1      64.885  52.323  14.121  1.00  0.00     0.157 HD
ATOM     47  H71 UNL     1      64.714  53.997  14.656  1.00  0.00     0.157 HD
ENDBRANCH  10  45
TORSDOF 12
ENDMDL
MODEL 2
REMARK VINA RESULT: -8.949142982      1.517      1.998
REMARK  12 active torsions:
REMARK  status: ('A' for Active; 'I' for Inactive)
REMARK    1  A    between atoms: O1_2  and  C2_3 
REMARK    2  A    between atoms: C2_3  and  C3_4 
REMARK    3  A    between atoms: C3_4  and  N1_5 
REMARK    4  A    between atoms: N1_5  and  C4_6 
REMARK    5  A    between atoms: N1_5  and  C26_43 
REMARK    6  A    between atoms: C4_6  and  C5_7 
REMARK    7  A    between atoms: N3_10  and  C6_11 
REMARK    8  A    between atoms: C6_11  and  C7_12 
REMARK       I    between atoms: C7_12  and  N4_14 
REMARK    9  A    between atoms: C10_17  and  C11_18 
REMARK   10  A    between atoms: C11_18  and  C12_19 
REMARK   11  A    between atoms: C12_19  and  N5_20 
REMARK   12  A    between atoms: C21_31  and  N7_32 
ROOT
HETATM    1  C5  UNL     1      70.059  55.676  17.758  1.00  0.00     0.054 A 
HETATM    2  N2  UNL     1      70.063  56.883  18.370  1.00  0.00    -0.300 N 
ATOM      3  H2  UNL     1      70.801  57.201  18.999  1.00  0.00     0.187 HD
HETATM    4  N3  UNL     1      69.007  57.597  18.059  1.00  0.00    -0.293 N 
HETATM    5  C18 UNL     1      68.284  56.854  17.230  1.00  0.00     0.128 A 
HETATM    6  C19 UNL     1      68.902  55.608  16.994  1.00  0.00     0.050 A 
HETATM    7  C20 UNL     1      68.356  54.580  16.140  1.00  0.00     0.122 A 
HETATM    8  N6  UNL     1      67.175  54.851  15.536  1.00  0.00    -0.327 N 
ATOM      9  H6  UNL     1      66.731  55.753  15.705  1.00  0.00     0.169 HD
HETATM   10  C21 UNL     1      66.568  53.973  14.722  1.00  0.00     0.114 A 
HETATM   11  C22 UNL     1      67.150  52.750  14.479  1.00  0.00     0.053 A 
HETATM   12  C23 UNL     1      66.773  51.655  13.695  1.00  0.00     0.036 A 
HETATM   13  C24 UNL     1      67.783  50.729  13.864  1.00  0.00     0.091 A 
HETATM   14  N8  UNL     1      68.704  51.229  14.689  1.00  0.00    -0.351 N 
ATOM     15  H8  UNL     1      69.556  50.750  14.981  1.00  0.00     0.166 HD
HETATM   16  C25 UNL     1      68.337  52.454  15.073  1.00  0.00     0.120 A 
HETATM   17  N9  UNL     1      68.897  53.410  15.897  1.00  0.00    -0.327 N 
ATOM     18  H9  UNL     1      69.787  53.193  16.346  1.00  0.00     0.169 HD
ENDROOT
BRANCH   4  19
HETATM   19  C6  UNL     1      68.714  58.960  18.534  1.00  0.00     0.251 C 
BRANCH  19  20
HETATM   20  C7  UNL     1      68.869  58.998  20.000  1.00  0.00     0.239 C 
HETATM   21  O2  UNL     1      68.333  58.129  20.740  1.00  0.00    -0.271 OA
HETATM   22  N4  UNL     1      69.652  60.051  20.607  1.00  0.00    -0.350 N 
HETATM   23  C8  UNL     1      69.873  60.199  22.030  1.00  0.00     0.126 C 
HETATM   24  C17 UNL     1      70.329  61.097  19.868  1.00  0.00     0.130 C 
HETATM   25  C9  UNL     1      70.576  61.502  22.150  1.00  0.00     0.026 C 
HETATM   26  C10 UNL     1      71.302  61.716  20.881  1.00  0.00     0.007 C 
BRANCH  26  27
HETATM   27  C11 UNL     1      72.594  61.005  20.730  1.00  0.00     0.036 C 
BRANCH  27  28
HETATM   28  C12 UNL     1      73.085  60.806  19.336  1.00  0.00     0.273 C 
BRANCH  28  29
HETATM   29  N5  UNL     1      74.343  60.120  19.236  1.00  0.00     0.088 N 
HETATM   30  C13 UNL     1      74.501  58.996  20.098  1.00  0.00     0.272 C 
HETATM   31  C14 UNL     1      75.843  59.123  20.787  1.00  0.00     0.032 C 
HETATM   32  C15 UNL     1      76.535  60.259  20.097  1.00  0.00     0.032 C 
HETATM   33  C16 UNL     1      75.376  61.092  19.593  1.00  0.00     0.272 C 
ENDBRANCH  28  29
ENDBRANCH  27  28
ENDBRANCH  26  27
ENDBRANCH  19  20
ENDBRANCH   4  19
BRANCH   1  34
HETATM   34  C4  UNL     1      71.066  54.637  17.876  1.00  0.00     0.155 C 
BRANCH  34  35
HETATM   35  N1  UNL     1      72.448  55.171  17.596  1.00  0.00    -0.281 NA
BRANCH  35  36
HETATM   36  C3  UNL     1      72.530  56.498  18.029  1.00  0.00     0.084 C 
BRANCH  36  37
HETATM   37  C2  UNL     1      73.083  57.496  17.087  1.00  0.00     0.145 C 
BRANCH  37  38
HETATM   38  O1  UNL     1      72.376  58.552  16.654  1.00  0.00    -0.367 OA
HETATM   39  C1  UNL     1      71.475  58.282  15.627  1.00  0.00     0.208 C 
ENDBRANCH  37  38
ENDBRANCH  36  37
ENDBRANCH  35  36
BRANCH  35  40
HETATM   40  C26 UNL     1      72.813  54.704  16.345  1.00  0.00     0.063 C 
HETATM   41  C27 UNL     1      73.793  53.561  16.246  1.00  0.00     0.020 C 
HETATM   42  C28 UNL     1      74.150  53.610  14.773  1.00  0.00     0.002 C 
HETATM   43  C29 UNL     1      73.088  54.450  14.075  1.00  0.00     0.002 C 
HETATM   44  C30 UNL     1      71.955  54.554  15.169  1.00  0.00     0.020 C 
ENDBRANCH  35  40
ENDBRANCH  34  35
ENDBRANCH   1  34
BRANCH  10  45
HETATM   45  N7  UNL     1      65.440  54.224  14.152  1.00  0.00    -0.385 N 
ATOM     46  H72 UNL     1      65.266  53.801  13.240  1.00  0.00     0.157 HD
ATOM     47  H71 UNL     1      64.729  54.815  14.582  1.00  0.00     0.157 HD
ENDBRANCH  10  45
TORSDOF 12
ENDMDL
MODEL 3
REMARK VINA RESULT: -8.931810225      1.609      2.821
REMARK  12 active torsions:
REMARK  status: ('A' for Active; 'I' for Inactive)
REMARK    1  A    between atoms: O1_2  and  C2_3 
REMARK    2  A    between atoms: C2_3  and  C3_4 
REMARK    3  A    between atoms: C3_4  and  N1_5 
REMARK    4  A    between atoms: N1_5  and  C4_6 
REMARK    5  A    between atoms: N1_5  and  C26_43 
REMARK    6  A    between atoms: C4_6  and  C5_7 
REMARK    7  A    between atoms: N3_10  and  C6_11 
REMARK    8  A    between atoms: C6_11  and  C7_12 
REMARK       I    between atoms: C7_12  and  N4_14 
REMARK    9  A    between atoms: C10_17  and  C11_18 
REMARK   10  A    between atoms: C11_18  and  C12_19 
REMARK   11  A    between atoms: C12_19  and  N5_20 
REMARK   12  A    between atoms: C21_31  and  N7_32 
ROOT
HETATM    1  C5  UNL     1      69.877  55.632  17.733  1.00  0.00     0.054 A 
HETATM    2  N2  UNL     1      69.714  56.783  18.426  1.00  0.00    -0.300 N 
ATOM      3  H2  UNL     1      70.412  57.169  19.062  1.00  0.00     0.187 HD
HETATM    4  N3  UNL     1      68.552  57.343  18.184  1.00  0.00    -0.293 N 
HETATM    5  C18 UNL     1      67.929  56.553  17.319  1.00  0.00     0.128 A 
HETATM    6  C19 UNL     1      68.724  55.436  16.987  1.00  0.00     0.050 A 
HETATM    7  C20 UNL     1      68.317  54.393  16.074  1.00  0.00     0.122 A 
HETATM    8  N6  UNL     1      67.092  54.517  15.512  1.00  0.00    -0.327 N 
ATOM      9  H6  UNL     1      66.520  55.326  15.751  1.00  0.00     0.169 HD
HETATM   10  C21 UNL     1      66.604  53.610  14.651  1.00  0.00     0.114 A 
HETATM   11  C22 UNL     1      67.359  52.510  14.313  1.00  0.00     0.053 A 
HETATM   12  C23 UNL     1      67.132  51.423  13.464  1.00  0.00     0.036 A 
HETATM   13  C24 UNL     1      68.276  50.656  13.550  1.00  0.00     0.091 A 
HETATM   14  N8  UNL     1      69.133  51.237  14.391  1.00  0.00    -0.351 N 
ATOM     15  H8  UNL     1      70.056  50.878  14.634  1.00  0.00     0.166 HD
HETATM   16  C25 UNL     1      68.593  52.364  14.865  1.00  0.00     0.120 A 
HETATM   17  N9  UNL     1      69.023  53.339  15.742  1.00  0.00    -0.327 N 
ATOM     18  H9  UNL     1      69.949  53.233  16.159  1.00  0.00     0.169 HD
ENDROOT
BRANCH   4  19
HETATM   19  C6  UNL     1      68.068  58.611  18.756  1.00  0.00     0.251 C 
BRANCH  19  20
HETATM   20  C7  UNL     1      68.599  58.749  20.126  1.00  0.00     0.239 C 
HETATM   21  O2  UNL     1      68.333  57.903  21.022  1.00  0.00    -0.271 OA
HETATM   22  N4  UNL     1      69.444  59.876  20.452  1.00  0.00    -0.350 N 
HETATM   23  C8  UNL     1      70.020  60.124  21.757  1.00  0.00     0.126 C 
HETATM   24  C17 UNL     1      69.835  60.905  19.511  1.00  0.00     0.130 C 
HETATM   25  C9  UNL     1      70.644  61.466  21.624  1.00  0.00     0.026 C 
HETATM   26  C10 UNL     1      70.997  61.634  20.198  1.00  0.00     0.007 C 
BRANCH  26  27
HETATM   27  C11 UNL     1      72.248  60.980  19.744  1.00  0.00     0.036 C 
BRANCH  27  28
HETATM   28  C12 UNL     1      73.524  61.653  20.120  1.00  0.00     0.273 C 
BRANCH  28  29
HETATM   29  N5  UNL     1      74.631  60.762  20.333  1.00  0.00     0.088 N 
HETATM   30  C13 UNL     1      75.792  61.024  19.549  1.00  0.00     0.272 C 
HETATM   31  C14 UNL     1      76.242  59.717  18.933  1.00  0.00     0.032 C 
HETATM   32  C15 UNL     1      75.410  58.661  19.595  1.00  0.00     0.032 C 
HETATM   33  C16 UNL     1      74.160  59.423  19.981  1.00  0.00     0.272 C 
ENDBRANCH  28  29
ENDBRANCH  27  28
ENDBRANCH  26  27
ENDBRANCH  19  20
ENDBRANCH   4  19
BRANCH   1  34
HETATM   34  C4  UNL     1      71.035  54.756  17.761  1.00  0.00     0.155 C 
BRANCH  34  35
HETATM   35  N1  UNL     1      71.905  54.950  16.546  1.00  0.00    -0.281 NA
BRANCH  35  36
HETATM   36  C3  UNL     1      72.993  54.075  16.609  1.00  0.00     0.084 C 
BRANCH  36  37
HETATM   37  C2  UNL     1      73.100  53.034  15.563  1.00  0.00     0.145 C 
BRANCH  37  38
HETATM   38  O1  UNL     1      72.065  52.679  14.787  1.00  0.00    -0.367 OA
HETATM   39  C1  UNL     1      72.404  52.239  13.510  1.00  0.00     0.208 C 
ENDBRANCH  37  38
ENDBRANCH  36  37
ENDBRANCH  35  36
BRANCH  35  40
HETATM   40  C26 UNL     1      71.976  56.313  16.316  1.00  0.00     0.063 C 
HETATM   41  C27 UNL     1      73.176  57.080  16.814  1.00  0.00     0.020 C 
HETATM   42  C28 UNL     1      72.694  58.510  16.660  1.00  0.00     0.002 C 
HETATM   43  C29 UNL     1      71.485  58.484  15.734  1.00  0.00     0.002 C 
HETATM   44  C30 UNL     1      71.553  57.034  15.115  1.00  0.00     0.020 C 
ENDBRANCH  35  40
ENDBRANCH  34  35
ENDBRANCH   1  34
BRANCH  10  45
HETATM   45  N7  UNL     1      65.434  53.720  14.120  1.00  0.00    -0.385 N 
ATOM     46  H72 UNL     1      65.384  53.968  13.132  1.00  0.00     0.157 HD
ATOM     47  H71 UNL     1      64.576  53.562  14.648  1.00  0.00     0.157 HD
ENDBRANCH  10  45
TORSDOF 12
ENDMDL
MODEL 4
REMARK VINA RESULT: -8.922135218      2.809     10.218
REMARK  12 active torsions:
REMARK  status: ('A' for Active; 'I' for Inactive)
REMARK    1  A    between atoms: O1_2  and  C2_3 
REMARK    2  A    between atoms: C2_3  and  C3_4 
REMARK    3  A    between atoms: C3_4  and  N1_5 
REMARK    4  A    between atoms: N1_5  and  C4_6 
REMARK    5  A    between atoms: N1_5  and  C26_43 
REMARK    6  A    between atoms: C4_6  and  C5_7 
REMARK    7  A    between atoms: N3_10  and  C6_11 
REMARK    8  A    between atoms: C6_11  and  C7_12 
REMARK       I    between atoms: C7_12  and  N4_14 
REMARK    9  A    between atoms: C10_17  and  C11_18 
REMARK   10  A    between atoms: C11_18  and  C12_19 
REMARK   11  A    between atoms: C12_19  and  N5_20 
REMARK   12  A    between atoms: C21_31  and  N7_32 
ROOT
HETATM    1  C5  UNL     1      71.945  60.881  19.858  1.00  0.00     0.054 A 
HETATM    2  N2  UNL     1      71.793  60.250  18.671  1.00  0.00    -0.300 N 
ATOM      3  H2  UNL     1      72.307  60.497  17.824  1.00  0.00     0.187 HD
HETATM    4  N3  UNL     1      70.909  59.283  18.735  1.00  0.00    -0.293 N 
HETATM    5  C18 UNL     1      70.460  59.270  19.984  1.00  0.00     0.128 A 
HETATM    6  C19 UNL     1      71.083  60.270  20.759  1.00  0.00     0.050 A 
HETATM    7  C20 UNL     1      70.801  60.510  22.155  1.00  0.00     0.122 A 
HETATM    8  N6  UNL     1      69.876  59.710  22.737  1.00  0.00    -0.327 N 
ATOM      9  H6  UNL     1      69.429  58.985  22.177  1.00  0.00     0.169 HD
HETATM   10  C21 UNL     1      69.529  59.838  24.027  1.00  0.00     0.114 A 
HETATM   11  C22 UNL     1      70.120  60.809  24.803  1.00  0.00     0.053 A 
HETATM   12  C23 UNL     1      69.975  61.176  26.144  1.00  0.00     0.036 A 
HETATM   13  C24 UNL     1      70.853  62.226  26.325  1.00  0.00     0.091 A 
HETATM   14  N8  UNL     1      71.485  62.474  25.177  1.00  0.00    -0.351 N 
ATOM     15  H8  UNL     1      72.188  63.199  25.035  1.00  0.00     0.166 HD
HETATM   16  C25 UNL     1      71.053  61.624  24.241  1.00  0.00     0.120 A 
HETATM   17  N9  UNL     1      71.355  61.429  22.908  1.00  0.00    -0.327 N 
ATOM     18  H9  UNL     1      72.054  62.038  22.482  1.00  0.00     0.169 HD
ENDROOT
BRANCH   4  19
HETATM   19  C6  UNL     1      70.524  58.388  17.631  1.00  0.00     0.251 C 
BRANCH  19  20
HETATM   20  C7  UNL     1      71.683  57.550  17.271  1.00  0.00     0.239 C 
HETATM   21  O2  UNL     1      72.800  57.694  17.837  1.00  0.00    -0.271 OA
HETATM   22  N4  UNL     1      71.540  56.537  16.248  1.00  0.00    -0.350 N 
HETATM   23  C8  UNL     1      72.601  55.657  15.805  1.00  0.00     0.126 C 
HETATM   24  C17 UNL     1      70.309  56.262  15.536  1.00  0.00     0.130 C 
HETATM   25  C9  UNL     1      72.009  54.940  14.645  1.00  0.00     0.026 C 
HETATM   26  C10 UNL     1      70.548  54.903  14.864  1.00  0.00     0.007 C 
BRANCH  26  27
HETATM   27  C11 UNL     1      70.044  53.865  15.794  1.00  0.00     0.036 C 
BRANCH  27  28
HETATM   28  C12 UNL     1      68.838  54.219  16.595  1.00  0.00     0.273 C 
BRANCH  28  29
HETATM   29  N5  UNL     1      67.628  53.567  16.177  1.00  0.00     0.088 N 
HETATM   30  C13 UNL     1      67.801  52.429  15.337  1.00  0.00     0.272 C 
HETATM   31  C14 UNL     1      66.865  52.575  14.157  1.00  0.00     0.032 C 
HETATM   32  C15 UNL     1      65.988  53.744  14.490  1.00  0.00     0.032 C 
HETATM   33  C16 UNL     1      66.864  54.558  15.418  1.00  0.00     0.272 C 
ENDBRANCH  28  29
ENDBRANCH  27  28
ENDBRANCH  26  27
ENDBRANCH  19  20
ENDBRANCH   4  19
BRANCH   1  34
HETATM   34  C4  UNL     1      72.833  61.992  20.146  1.00  0.00     0.155 C 
BRANCH  34  35
HETATM   35  N1  UNL     1      73.894  61.608  21.146  1.00  0.00    -0.281 NA
BRANCH  35  36
HETATM   36  C3  UNL     1      74.324  62.749  21.830  1.00  0.00     0.084 C 
BRANCH  36  37
HETATM   37  C2  UNL     1      75.025  62.556  23.118  1.00  0.00     0.145 C 
BRANCH  37  38
HETATM   38  O1  UNL     1      74.427  62.018  24.193  1.00  0.00    -0.367 OA
HETATM   39  C1  UNL     1      75.048  62.281  25.411  1.00  0.00     0.208 C 
ENDBRANCH  37  38
ENDBRANCH  36  37
ENDBRANCH  35  36
BRANCH  35  40
HETATM   40  C26 UNL     1      74.712  60.679  20.527  1.00  0.00     0.063 C 
HETATM   41  C27 UNL     1      75.727  61.155  19.516  1.00  0.00     0.020 C 
HETATM   42  C28 UNL     1      76.135  59.843  18.874  1.00  0.00     0.002 C 
HETATM   43  C29 UNL     1      75.676  58.722  19.796  1.00  0.00     0.002 C 
HETATM   44  C30 UNL     1      75.322  59.493  21.128  1.00  0.00     0.020 C 
ENDBRANCH  35  40
ENDBRANCH  34  35
ENDBRANCH   1  34
BRANCH  10  45
HETATM   45  N7  UNL     1      68.643  59.085  24.583  1.00  0.00    -0.385 N 
ATOM     46  H72 UNL     1      67.670  59.389  24.543  1.00  0.00     0.157 HD
ATOM     47  H71 UNL     1      68.882  58.208  25.045  1.00  0.00     0.157 HD
ENDBRANCH  10  45
TORSDOF 12
ENDMDL
MODEL 5
REMARK VINA RESULT: -8.902544883      3.074      5.993
REMARK  12 active torsions:
REMARK  status: ('A' for Active; 'I' for Inactive)
REMARK    1  A    between atoms: O1_2  and  C2_3 
REMARK    2  A    between atoms: C2_3  and  C3_4 
REMARK    3  A    between atoms: C3_4  and  N1_5 
REMARK    4  A    between atoms: N1_5  and  C4_6 
REMARK    5  A    between atoms: N1_5  and  C26_43 
REMARK    6  A    between atoms: C4_6  and  C5_7 
REMARK    7  A    between atoms: N3_10  and  C6_11 
REMARK    8  A    between atoms: C6_11  and  C7_12 
REMARK       I    between atoms: C7_12  and  N4_14 
REMARK    9  A    between atoms: C10_17  and  C11_18 
REMARK   10  A    between atoms: C11_18  and  C12_19 
REMARK   11  A    between atoms: C12_19  and  N5_20 
REMARK   12  A    between atoms: C21_31  and  N7_32 
ROOT
HETATM    1  C5  UNL     1      70.241  52.550  13.679  1.00  0.00     0.054 A 
HETATM    2  N2  UNL     1      70.807  53.747  13.956  1.00  0.00    -0.300 N 
ATOM      3  H2  UNL     1      70.334  54.643  13.833  1.00  0.00     0.187 HD
HETATM    4  N3  UNL     1      72.034  53.621  14.403  1.00  0.00    -0.293 N 
HETATM    5  C18 UNL     1      72.293  52.320  14.422  1.00  0.00     0.128 A 
HETATM    6  C19 UNL     1      71.185  51.574  13.969  1.00  0.00     0.050 A 
HETATM    7  C20 UNL     1      71.162  50.133  13.869  1.00  0.00     0.122 A 
HETATM    8  N6  UNL     1      72.287  49.477  14.240  1.00  0.00    -0.327 N 
ATOM      9  H6  UNL     1      73.086  50.018  14.570  1.00  0.00     0.169 HD
HETATM   10  C21 UNL     1      72.386  48.140  14.189  1.00  0.00     0.114 A 
HETATM   11  C22 UNL     1      71.319  47.390  13.747  1.00  0.00     0.053 A 
HETATM   12  C23 UNL     1      71.122  46.016  13.589  1.00  0.00     0.036 A 
HETATM   13  C24 UNL     1      69.834  45.891  13.110  1.00  0.00     0.091 A 
HETATM   14  N8  UNL     1      69.291  47.104  12.988  1.00  0.00    -0.351 N 
ATOM     15  H8  UNL     1      68.346  47.296  12.655  1.00  0.00     0.166 HD
HETATM   16  C25 UNL     1      70.178  48.026  13.370  1.00  0.00     0.120 A 
HETATM   17  N9  UNL     1      70.155  49.404  13.451  1.00  0.00    -0.327 N 
ATOM     18  H9  UNL     1      69.301  49.886  13.168  1.00  0.00     0.169 HD
ENDROOT
BRANCH   4  19
HETATM   19  C6  UNL     1      72.920  54.722  14.817  1.00  0.00     0.251 C 
BRANCH  19  20
HETATM   20  C7  UNL     1      72.973  54.762  16.291  1.00  0.00     0.239 C 
HETATM   21  O2  UNL     1      73.570  53.870  16.952  1.00  0.00    -0.271 OA
HETATM   22  N4  UNL     1      72.331  55.848  16.998  1.00  0.00    -0.350 N 
HETATM   23  C8  UNL     1      72.309  55.996  18.438  1.00  0.00     0.126 C 
HETATM   24  C17 UNL     1      71.628  56.940  16.356  1.00  0.00     0.130 C 
HETATM   25  C9  UNL     1      71.396  57.146  18.666  1.00  0.00     0.026 C 
HETATM   26  C10 UNL     1      71.467  57.995  17.458  1.00  0.00     0.007 C 
BRANCH  26  27
HETATM   27  C11 UNL     1      72.631  58.908  17.358  1.00  0.00     0.036 C 
BRANCH  27  28
HETATM   28  C12 UNL     1      73.087  59.546  18.626  1.00  0.00     0.273 C 
BRANCH  28  29
HETATM   29  N5  UNL     1      74.435  59.226  19.007  1.00  0.00     0.088 N 
HETATM   30  C13 UNL     1      74.571  58.457  20.199  1.00  0.00     0.272 C 
HETATM   31  C14 UNL     1      75.621  59.122  21.064  1.00  0.00     0.032 C 
HETATM   32  C15 UNL     1      76.235  60.179  20.197  1.00  0.00     0.032 C 
HETATM   33  C16 UNL     1      75.116  60.501  19.229  1.00  0.00     0.272 C 
ENDBRANCH  28  29
ENDBRANCH  27  28
ENDBRANCH  26  27
ENDBRANCH  19  20
ENDBRANCH   4  19
BRANCH   1  34
HETATM   34  C4  UNL     1      68.902  52.316  13.168  1.00  0.00     0.155 C 
BRANCH  34  35
HETATM   35  N1  UNL     1      67.956  51.900  14.265  1.00  0.00    -0.281 NA
BRANCH  35  36
HETATM   36  C3  UNL     1      66.980  51.049  13.740  1.00  0.00     0.084 C 
BRANCH  36  37
HETATM   37  C2  UNL     1      67.148  50.587  12.344  1.00  0.00     0.145 C 
BRANCH  37  38
HETATM   38  O1  UNL     1      67.313  49.294  12.025  1.00  0.00    -0.367 OA
HETATM   39  C1  UNL     1      66.137  48.577  11.827  1.00  0.00     0.208 C 
ENDBRANCH  37  38
ENDBRANCH  36  37
ENDBRANCH  35  36
BRANCH  35  40
HETATM   40  C26 UNL     1      67.719  53.023  15.038  1.00  0.00     0.063 C 
HETATM   41  C27 UNL     1      66.511  53.878  14.740  1.00  0.00     0.020 C 
HETATM   42  C28 UNL     1      66.821  55.117  15.557  1.00  0.00     0.002 C 
HETATM   43  C29 UNL     1      67.911  54.744  16.553  1.00  0.00     0.002 C 
HETATM   44  C30 UNL     1      67.922  53.168  16.480  1.00  0.00     0.020 C 
ENDBRANCH  35  40
ENDBRANCH  34  35
ENDBRANCH   1  34
BRANCH  10  45
HETATM   45  N7  UNL     1      73.458  47.512  14.533  1.00  0.00    -0.385 N 
ATOM     46  H72 UNL     1      74.087  47.974  15.189  1.00  0.00     0.157 HD
ATOM     47  H71 UNL     1      73.686  46.583  14.179  1.00  0.00     0.157 HD
ENDBRANCH  10  45
TORSDOF 12
ENDMDL
