MODEL 1
REMARK VINA RESULT: -9.494623819      0.000      0.000
REMARK  15 active torsions:
REMARK  status: ('A' for Active; 'I' for Inactive)
REMARK    1  A    between atoms: C2_2  and  N1_3 
REMARK    2  A    between atoms: N1_3  and  C3_5 
REMARK    3  A    between atoms: C4_8  and  C5_9 
REMARK    4  A    between atoms: C6_10  and  C7_11 
REMARK    5  A    between atoms: C7_11  and  C8_12 
REMARK    6  A    between atoms: C8_12  and  C9_13 
REMARK    7  A    between atoms: N5_21  and  C12_22 
REMARK    8  A    between atoms: C12_22  and  C13_23 
REMARK    9  A    between atoms: C13_23  and  C14_24 
REMARK   10  A    between atoms: C26_40  and  N8_41 
REMARK   11  A    between atoms: N8_41  and  C27_43 
REMARK   12  A    between atoms: C27_43  and  C28_44 
REMARK   13  A    between atoms: C28_44  and  N9_45 
REMARK   14  A    between atoms: N9_45  and  C29_46 
REMARK   15  A    between atoms: N9_45  and  C31_48 
ROOT
HETATM    1  C8  UNL     1      75.142 112.905  16.935  1.00  0.00     0.080 C 
ENDROOT
BRANCH   1   2
HETATM    2  C7  UNL     1      75.398 112.782  18.407  1.00  0.00     0.035 C 
BRANCH   2   3
HETATM    3  C6  UNL     1      75.011 114.038  19.099  1.00  0.00    -0.022 C 
HETATM    4  C5  UNL     1      75.012 115.166  18.440  1.00  0.00     0.045 C 
BRANCH   4   5
HETATM    5  C4  UNL     1      74.648 116.443  19.035  1.00  0.00     0.136 A 
HETATM    6  N2  UNL     1      75.493 117.100  19.860  1.00  0.00    -0.176 N 
HETATM    7  C3  UNL     1      75.181 118.281  20.418  1.00  0.00     0.694 A 
ATOM      8  H2  UNL     1      76.400 116.682  20.066  1.00  0.00     0.186 HD
HETATM    9  N10 UNL     1      73.977 118.830  20.142  1.00  0.00    -0.022 N 
HETATM   10  C26 UNL     1      73.120 118.215  19.336  1.00  0.00     0.694 A 
ATOM     11  H10 UNL     1      73.725 119.727  20.557  1.00  0.00     0.203 HD
HETATM   12  N7  UNL     1      73.469 117.009  18.782  1.00  0.00    -0.176 N 
ATOM     13  H7  UNL     1      72.812 116.535  18.164  1.00  0.00     0.186 HD
BRANCH   7  14
HETATM   14  N1  UNL     1      76.016 118.880  21.200  1.00  0.00    -0.226 N 
ATOM     15  H1  UNL     1      76.973 119.020  20.876  1.00  0.00     0.177 HD
BRANCH  14  16
HETATM   16  C2  UNL     1      75.658 119.359  22.512  1.00  0.00     0.133 C 
HETATM   17  C1  UNL     1      76.375 118.607  23.612  1.00  0.00     0.027 C 
ENDBRANCH  14  16
ENDBRANCH   7  14
BRANCH  10  18
HETATM   18  N8  UNL     1      71.978 118.713  19.060  1.00  0.00    -0.221 N 
ATOM     19  H8  UNL     1      71.947 119.548  18.476  1.00  0.00     0.178 HD
BRANCH  18  20
HETATM   20  C27 UNL     1      70.740 118.170  19.522  1.00  0.00     0.182 C 
BRANCH  20  21
HETATM   21  C28 UNL     1      69.749 117.901  18.444  1.00  0.00     0.083 C 
BRANCH  21  22
HETATM   22  N9  UNL     1      69.497 116.554  18.181  1.00  0.00    -0.373 N 
BRANCH  22  23
HETATM   23  C29 UNL     1      69.747 115.699  19.354  1.00  0.00     0.122 C 
HETATM   24  C30 UNL     1      68.437 115.220  19.906  1.00  0.00     0.027 C 
ENDBRANCH  22  23
BRANCH  22  25
HETATM   25  C31 UNL     1      69.857 115.918  16.987  1.00  0.00     0.058 C 
HETATM   26  C32 UNL     1      70.863 114.789  17.114  1.00  0.00     0.055 C 
ENDBRANCH  22  25
ENDBRANCH  21  22
ENDBRANCH  20  21
ENDBRANCH  18  20
ENDBRANCH  10  18
ENDBRANCH   4   5
ENDBRANCH   2   3
ENDBRANCH   1   2
BRANCH   1  27
HETATM   27  C9  UNL     1      74.079 111.913  16.584  1.00  0.00     0.084 A 
HETATM   28  N3  UNL     1      74.273 111.050  15.580  1.00  0.00    -0.311 N 
HETATM   29  C10 UNL     1      73.333 110.139  15.236  1.00  0.00     0.277 A 
ATOM     30  H3  UNL     1      75.150 111.079  15.061  1.00  0.00     0.170 HD
HETATM   31  O1  UNL     1      73.479 109.315  14.303  1.00  0.00    -0.266 OA
HETATM   32  C11 UNL     1      72.171 110.132  15.954  1.00  0.00     0.144 A 
HETATM   33  N4  UNL     1      71.029 109.385  15.905  1.00  0.00    -0.292 N 
HETATM   34  C25 UNL     1      72.006 111.035  16.980  1.00  0.00     0.084 A 
HETATM   35  N5  UNL     1      70.185 109.774  16.830  1.00  0.00    -0.300 N 
ATOM     36  H4  UNL     1      70.856 108.630  15.241  1.00  0.00     0.187 HD
HETATM   37  C24 UNL     1      70.759 110.782  17.501  1.00  0.00     0.142 A 
HETATM   38  N6  UNL     1      72.953 111.923  17.297  1.00  0.00    -0.343 N 
ATOM     39  H6  UNL     1      72.818 112.587  18.060  1.00  0.00     0.167 HD
BRANCH  35  40
HETATM   40  C12 UNL     1      68.885 109.223  17.083  1.00  0.00     0.153 C 
BRANCH  40  41
HETATM   41  C13 UNL     1      67.984 109.685  15.956  1.00  0.00     0.060 C 
BRANCH  41  42
HETATM   42  C14 UNL     1      67.581 108.585  15.048  1.00  0.00    -0.056 A 
HETATM   43  C15 UNL     1      66.369 108.655  14.383  1.00  0.00     0.008 A 
HETATM   44  C16 UNL     1      65.988 107.635  13.540  1.00  0.00     0.013 A 
HETATM   45  C17 UNL     1      66.770 106.519  13.320  1.00  0.00    -0.026 A 
HETATM   46  C18 UNL     1      66.393 105.497  12.478  1.00  0.00     0.012 A 
HETATM   47  C22 UNL     1      67.983 106.449  13.986  1.00  0.00    -0.025 A 
HETATM   48  C19 UNL     1      67.187 104.369  12.257  1.00  0.00     0.001 A 
HETATM   49  C20 UNL     1      68.399 104.321  12.936  1.00  0.00     0.001 A 
HETATM   50  C21 UNL     1      68.770 105.342  13.774  1.00  0.00     0.012 A 
HETATM   51  C23 UNL     1      68.374 107.477  14.840  1.00  0.00     0.019 A 
ENDBRANCH  41  42
ENDBRANCH  40  41
ENDBRANCH  35  40
ENDBRANCH   1  27
TORSDOF 15
ENDMDL
MODEL 2
REMARK VINA RESULT: -9.448690023      1.209      1.842
REMARK  15 active torsions:
REMARK  status: ('A' for Active; 'I' for Inactive)
REMARK    1  A    between atoms: C2_2  and  N1_3 
REMARK    2  A    between atoms: N1_3  and  C3_5 
REMARK    3  A    between atoms: C4_8  and  C5_9 
REMARK    4  A    between atoms: C6_10  and  C7_11 
REMARK    5  A    between atoms: C7_11  and  C8_12 
REMARK    6  A    between atoms: C8_12  and  C9_13 
REMARK    7  A    between atoms: N5_21  and  C12_22 
REMARK    8  A    between atoms: C12_22  and  C13_23 
REMARK    9  A    between atoms: C13_23  and  C14_24 
REMARK   10  A    between atoms: C26_40  and  N8_41 
REMARK   11  A    between atoms: N8_41  and  C27_43 
REMARK   12  A    between atoms: C27_43  and  C28_44 
REMARK   13  A    between atoms: C28_44  and  N9_45 
REMARK   14  A    between atoms: N9_45  and  C29_46 
REMARK   15  A    between atoms: N9_45  and  C31_48 
ROOT
HETATM    1  C8  UNL     1      74.559 111.780  18.081  1.00  0.00     0.080 C 
ENDROOT
BRANCH   1   2
HETATM    2  C7  UNL     1      75.328 113.008  17.697  1.00  0.00     0.035 C 
BRANCH   2   3
HETATM    3  C6  UNL     1      74.710 114.210  18.315  1.00  0.00    -0.022 C 
HETATM    4  C5  UNL     1      75.431 115.283  18.506  1.00  0.00     0.045 C 
BRANCH   4   5
HETATM    5  C4  UNL     1      74.911 116.503  19.101  1.00  0.00     0.136 A 
HETATM    6  N2  UNL     1      75.622 117.193  20.021  1.00  0.00    -0.176 N 
HETATM    7  C3  UNL     1      75.165 118.325  20.582  1.00  0.00     0.694 A 
ATOM      8  H2  UNL     1      76.538 116.842  20.298  1.00  0.00     0.186 HD
HETATM    9  N10 UNL     1      73.950 118.787  20.212  1.00  0.00    -0.022 N 
HETATM   10  C26 UNL     1      73.222 118.136  19.312  1.00  0.00     0.694 A 
ATOM     11  H10 UNL     1      73.588 119.645  20.629  1.00  0.00     0.203 HD
HETATM   12  N7  UNL     1      73.717 116.983  18.758  1.00  0.00    -0.176 N 
ATOM     13  H7  UNL     1      73.159 116.483  18.067  1.00  0.00     0.186 HD
BRANCH   7  14
HETATM   14  N1  UNL     1      75.874 118.958  21.457  1.00  0.00    -0.226 N 
ATOM     15  H1  UNL     1      76.750 119.385  21.156  1.00  0.00     0.177 HD
BRANCH  14  16
HETATM   16  C2  UNL     1      75.484 119.089  22.838  1.00  0.00     0.133 C 
HETATM   17  C1  UNL     1      76.588 118.674  23.787  1.00  0.00     0.027 C 
ENDBRANCH  14  16
ENDBRANCH   7  14
BRANCH  10  18
HETATM   18  N8  UNL     1      72.072 118.553  18.947  1.00  0.00    -0.221 N 
ATOM     19  H8  UNL     1      72.025 119.214  18.172  1.00  0.00     0.178 HD
BRANCH  18  20
HETATM   20  C27 UNL     1      70.847 118.149  19.561  1.00  0.00     0.182 C 
BRANCH  20  21
HETATM   21  C28 UNL     1      70.116 117.081  18.823  1.00  0.00     0.083 C 
BRANCH  21  22
HETATM   22  N9  UNL     1      70.442 115.772  19.181  1.00  0.00    -0.373 N 
BRANCH  22  23
HETATM   23  C29 UNL     1      70.951 114.992  18.040  1.00  0.00     0.122 C 
HETATM   24  C30 UNL     1      70.194 115.373  16.802  1.00  0.00     0.027 C 
ENDBRANCH  22  23
BRANCH  22  25
HETATM   25  C31 UNL     1      69.664 114.988  20.042  1.00  0.00     0.058 C 
HETATM   26  C32 UNL     1      68.161 115.103  19.867  1.00  0.00     0.055 C 
ENDBRANCH  22  25
ENDBRANCH  21  22
ENDBRANCH  20  21
ENDBRANCH  18  20
ENDBRANCH  10  18
ENDBRANCH   4   5
ENDBRANCH   2   3
ENDBRANCH   1   2
BRANCH   1  27
HETATM   27  C9  UNL     1      73.269 111.807  17.322  1.00  0.00     0.084 A 
HETATM   28  N3  UNL     1      73.210 112.393  16.120  1.00  0.00    -0.311 N 
HETATM   29  C10 UNL     1      72.060 112.435  15.408  1.00  0.00     0.277 A 
ATOM     30  H3  UNL     1      74.052 112.818  15.732  1.00  0.00     0.170 HD
HETATM   31  O1  UNL     1      71.967 112.973  14.280  1.00  0.00    -0.266 OA
HETATM   32  C11 UNL     1      70.955 111.855  15.963  1.00  0.00     0.144 A 
HETATM   33  N4  UNL     1      69.659 111.702  15.558  1.00  0.00    -0.292 N 
HETATM   34  C25 UNL     1      71.053 111.262  17.201  1.00  0.00     0.084 A 
HETATM   35  N5  UNL     1      68.968 111.058  16.468  1.00  0.00    -0.300 N 
ATOM     36  H4  UNL     1      69.282 112.042  14.673  1.00  0.00     0.187 HD
HETATM   37  C24 UNL     1      69.798 110.778  17.482  1.00  0.00     0.142 A 
HETATM   38  N6  UNL     1      72.203 111.236  17.882  1.00  0.00    -0.343 N 
ATOM     39  H6  UNL     1      72.262 110.793  18.799  1.00  0.00     0.167 HD
BRANCH  35  40
HETATM   40  C12 UNL     1      67.577 110.711  16.393  1.00  0.00     0.153 C 
BRANCH  40  41
HETATM   41  C13 UNL     1      67.295 110.337  14.952  1.00  0.00     0.060 C 
BRANCH  41  42
HETATM   42  C14 UNL     1      67.583 108.912  14.657  1.00  0.00    -0.056 A 
HETATM   43  C15 UNL     1      68.628 108.275  15.303  1.00  0.00     0.008 A 
HETATM   44  C16 UNL     1      68.900 106.953  15.031  1.00  0.00     0.013 A 
HETATM   45  C17 UNL     1      68.168 106.214  14.124  1.00  0.00    -0.026 A 
HETATM   46  C18 UNL     1      68.438 104.891  13.849  1.00  0.00     0.012 A 
HETATM   47  C22 UNL     1      67.122 106.851  13.477  1.00  0.00    -0.025 A 
HETATM   48  C19 UNL     1      67.695 104.145  12.931  1.00  0.00     0.001 A 
HETATM   49  C20 UNL     1      66.651 104.806  12.294  1.00  0.00     0.001 A 
HETATM   50  C21 UNL     1      66.387 106.124  12.572  1.00  0.00     0.012 A 
HETATM   51  C23 UNL     1      66.841 108.188  13.748  1.00  0.00     0.019 A 
ENDBRANCH  41  42
ENDBRANCH  40  41
ENDBRANCH  35  40
ENDBRANCH   1  27
TORSDOF 15
ENDMDL
MODEL 3
REMARK VINA RESULT: -9.365307247      1.596      2.281
REMARK  15 active torsions:
REMARK  status: ('A' for Active; 'I' for Inactive)
REMARK    1  A    between atoms: C2_2  and  N1_3 
REMARK    2  A    between atoms: N1_3  and  C3_5 
REMARK    3  A    between atoms: C4_8  and  C5_9 
REMARK    4  A    between atoms: C6_10  and  C7_11 
REMARK    5  A    between atoms: C7_11  and  C8_12 
REMARK    6  A    between atoms: C8_12  and  C9_13 
REMARK    7  A    between atoms: N5_21  and  C12_22 
REMARK    8  A    between atoms: C12_22  and  C13_23 
REMARK    9  A    between atoms: C13_23  and  C14_24 
REMARK   10  A    between atoms: C26_40  and  N8_41 
REMARK   11  A    between atoms: N8_41  and  C27_43 
REMARK   12  A    between atoms: C27_43  and  C28_44 
REMARK   13  A    between atoms: C28_44  and  N9_45 
REMARK   14  A    between atoms: N9_45  and  C29_46 
REMARK   15  A    between atoms: N9_45  and  C31_48 
ROOT
HETATM    1  C8  UNL     1      74.397 110.114  16.991  1.00  0.00     0.080 C 
ENDROOT
BRANCH   1   2
HETATM    2  C7  UNL     1      75.292 111.280  16.701  1.00  0.00     0.035 C 
BRANCH   2   3
HETATM    3  C6  UNL     1      75.139 112.316  17.755  1.00  0.00    -0.022 C 
HETATM    4  C5  UNL     1      74.827 113.539  17.419  1.00  0.00     0.045 C 
BRANCH   4   5
HETATM    5  C4  UNL     1      74.655 114.616  18.382  1.00  0.00     0.136 A 
HETATM    6  N2  UNL     1      75.393 114.670  19.513  1.00  0.00    -0.176 N 
HETATM    7  C3  UNL     1      75.256 115.656  20.415  1.00  0.00     0.694 A 
ATOM      8  H2  UNL     1      76.078 113.935  19.688  1.00  0.00     0.186 HD
HETATM    9  N10 UNL     1      74.346 116.628  20.179  1.00  0.00    -0.022 N 
HETATM   10  C26 UNL     1      73.603 116.609  19.079  1.00  0.00     0.694 A 
ATOM     11  H10 UNL     1      74.230 117.384  20.854  1.00  0.00     0.203 HD
HETATM   12  N7  UNL     1      73.768 115.588  18.178  1.00  0.00    -0.176 N 
ATOM     13  H7  UNL     1      73.198 115.572  17.333  1.00  0.00     0.186 HD
BRANCH   7  14
HETATM   14  N1  UNL     1      75.980 115.675  21.484  1.00  0.00    -0.226 N 
ATOM     15  H1  UNL     1      75.840 114.942  22.180  1.00  0.00     0.177 HD
BRANCH  14  16
HETATM   16  C2  UNL     1      76.976 116.684  21.740  1.00  0.00     0.133 C 
HETATM   17  C1  UNL     1      78.086 116.668  20.711  1.00  0.00     0.027 C 
ENDBRANCH  14  16
ENDBRANCH   7  14
BRANCH  10  18
HETATM   18  N8  UNL     1      72.739 117.515  18.834  1.00  0.00    -0.221 N 
ATOM     19  H8  UNL     1      72.979 118.237  18.155  1.00  0.00     0.178 HD
BRANCH  18  20
HETATM   20  C27 UNL     1      71.454 117.578  19.456  1.00  0.00     0.182 C 
BRANCH  20  21
HETATM   21  C28 UNL     1      70.397 116.793  18.760  1.00  0.00     0.083 C 
BRANCH  21  22
HETATM   22  N9  UNL     1      70.273 115.462  19.162  1.00  0.00    -0.373 N 
BRANCH  22  23
HETATM   23  C29 UNL     1      70.354 114.525  18.029  1.00  0.00     0.122 C 
HETATM   24  C30 UNL     1      70.988 113.246  18.489  1.00  0.00     0.027 C 
ENDBRANCH  22  23
BRANCH  22  25
HETATM   25  C31 UNL     1      69.360 115.029  20.131  1.00  0.00     0.058 C 
HETATM   26  C32 UNL     1      67.900 115.037  19.718  1.00  0.00     0.055 C 
ENDBRANCH  22  25
ENDBRANCH  21  22
ENDBRANCH  20  21
ENDBRANCH  18  20
ENDBRANCH  10  18
ENDBRANCH   4   5
ENDBRANCH   2   3
ENDBRANCH   1   2
BRANCH   1  27
HETATM   27  C9  UNL     1      73.057 110.422  16.401  1.00  0.00     0.084 A 
HETATM   28  N3  UNL     1      72.910 111.471  15.583  1.00  0.00    -0.311 N 
HETATM   29  C10 UNL     1      71.712 111.778  15.032  1.00  0.00     0.277 A 
ATOM     30  H3  UNL     1      73.720 112.052  15.369  1.00  0.00     0.170 HD
HETATM   31  O1  UNL     1      71.537 112.750  14.261  1.00  0.00    -0.266 OA
HETATM   32  C11 UNL     1      70.652 110.974  15.344  1.00  0.00     0.144 A 
HETATM   33  N4  UNL     1      69.332 110.967  14.993  1.00  0.00    -0.292 N 
HETATM   34  C25 UNL     1      70.841 109.906  16.190  1.00  0.00     0.084 A 
HETATM   35  N5  UNL     1      68.710 109.966  15.570  1.00  0.00    -0.300 N 
ATOM     36  H4  UNL     1      68.892 111.645  14.371  1.00  0.00     0.187 HD
HETATM   37  C24 UNL     1      69.611 109.303  16.307  1.00  0.00     0.142 A 
HETATM   38  N6  UNL     1      72.036 109.626  16.719  1.00  0.00    -0.343 N 
ATOM     39  H6  UNL     1      72.162 108.831  17.345  1.00  0.00     0.167 HD
BRANCH  35  40
HETATM   40  C12 UNL     1      67.320 109.638  15.436  1.00  0.00     0.153 C 
BRANCH  40  41
HETATM   41  C13 UNL     1      67.076 109.348  13.969  1.00  0.00     0.060 C 
BRANCH  41  42
HETATM   42  C14 UNL     1      67.197 107.909  13.634  1.00  0.00    -0.056 A 
HETATM   43  C15 UNL     1      66.096 107.223  13.150  1.00  0.00     0.008 A 
HETATM   44  C16 UNL     1      66.202 105.886  12.840  1.00  0.00     0.013 A 
HETATM   45  C17 UNL     1      67.377 105.177  12.991  1.00  0.00    -0.026 A 
HETATM   46  C18 UNL     1      67.487 103.839  12.681  1.00  0.00     0.012 A 
HETATM   47  C22 UNL     1      68.479 105.863  13.475  1.00  0.00    -0.025 A 
HETATM   48  C19 UNL     1      68.678 103.125  12.834  1.00  0.00     0.001 A 
HETATM   49  C20 UNL     1      69.769 103.835  13.322  1.00  0.00     0.001 A 
HETATM   50  C21 UNL     1      69.654 105.167  13.629  1.00  0.00     0.012 A 
HETATM   51  C23 UNL     1      68.378 107.216  13.791  1.00  0.00     0.019 A 
ENDBRANCH  41  42
ENDBRANCH  40  41
ENDBRANCH  35  40
ENDBRANCH   1  27
TORSDOF 15
ENDMDL
MODEL 4
REMARK VINA RESULT: -9.327494470      1.268      1.650
REMARK  15 active torsions:
REMARK  status: ('A' for Active; 'I' for Inactive)
REMARK    1  A    between atoms: C2_2  and  N1_3 
REMARK    2  A    between atoms: N1_3  and  C3_5 
REMARK    3  A    between atoms: C4_8  and  C5_9 
REMARK    4  A    between atoms: C6_10  and  C7_11 
REMARK    5  A    between atoms: C7_11  and  C8_12 
REMARK    6  A    between atoms: C8_12  and  C9_13 
REMARK    7  A    between atoms: N5_21  and  C12_22 
REMARK    8  A    between atoms: C12_22  and  C13_23 
REMARK    9  A    between atoms: C13_23  and  C14_24 
REMARK   10  A    between atoms: C26_40  and  N8_41 
REMARK   11  A    between atoms: N8_41  and  C27_43 
REMARK   12  A    between atoms: C27_43  and  C28_44 
REMARK   13  A    between atoms: C28_44  and  N9_45 
REMARK   14  A    between atoms: N9_45  and  C29_46 
REMARK   15  A    between atoms: N9_45  and  C31_48 
ROOT
HETATM    1  C8  UNL     1      74.816 114.121  17.533  1.00  0.00     0.080 C 
ENDROOT
BRANCH   1   2
HETATM    2  C7  UNL     1      75.509 113.801  18.824  1.00  0.00     0.035 C 
BRANCH   2   3
HETATM    3  C6  UNL     1      75.183 114.829  19.845  1.00  0.00    -0.022 C 
HETATM    4  C5  UNL     1      74.772 116.010  19.466  1.00  0.00     0.045 C 
BRANCH   4   5
HETATM    5  C4  UNL     1      74.430 117.076  20.394  1.00  0.00     0.136 A 
HETATM    6  N2  UNL     1      75.345 117.998  20.771  1.00  0.00    -0.176 N 
HETATM    7  C3  UNL     1      75.053 118.995  21.623  1.00  0.00     0.694 A 
ATOM      8  H2  UNL     1      76.290 117.934  20.395  1.00  0.00     0.186 HD
HETATM    9  N10 UNL     1      73.798 119.076  22.120  1.00  0.00    -0.022 N 
HETATM   10  C26 UNL     1      72.872 118.188  21.772  1.00  0.00     0.694 A 
ATOM     11  H10 UNL     1      73.559 119.826  22.768  1.00  0.00     0.203 HD
HETATM   12  N7  UNL     1      73.204 117.183  20.900  1.00  0.00    -0.176 N 
ATOM     13  H7  UNL     1      72.494 116.501  20.633  1.00  0.00     0.186 HD
BRANCH   7  14
HETATM   14  N1  UNL     1      75.953 119.857  21.959  1.00  0.00    -0.226 N 
ATOM     15  H1  UNL     1      76.520 120.281  21.225  1.00  0.00     0.177 HD
BRANCH  14  16
HETATM   16  C2  UNL     1      76.193 120.249  23.326  1.00  0.00     0.133 C 
HETATM   17  C1  UNL     1      76.879 119.160  24.122  1.00  0.00     0.027 C 
ENDBRANCH  14  16
ENDBRANCH   7  14
BRANCH  10  18
HETATM   18  N8  UNL     1      71.682 118.245  22.227  1.00  0.00    -0.221 N 
ATOM     19  H8  UNL     1      71.391 119.096  22.707  1.00  0.00     0.178 HD
BRANCH  18  20
HETATM   20  C27 UNL     1      70.732 117.185  22.104  1.00  0.00     0.182 C 
BRANCH  20  21
HETATM   21  C28 UNL     1      69.770 117.352  20.979  1.00  0.00     0.083 C 
BRANCH  21  22
HETATM   22  N9  UNL     1      69.915 116.449  19.925  1.00  0.00    -0.373 N 
BRANCH  22  23
HETATM   23  C29 UNL     1      69.680 117.078  18.614  1.00  0.00     0.122 C 
HETATM   24  C30 UNL     1      70.075 118.524  18.681  1.00  0.00     0.027 C 
ENDBRANCH  22  23
BRANCH  22  25
HETATM   25  C31 UNL     1      69.441 115.132  19.963  1.00  0.00     0.058 C 
HETATM   26  C32 UNL     1      67.970 114.947  19.641  1.00  0.00     0.055 C 
ENDBRANCH  22  25
ENDBRANCH  21  22
ENDBRANCH  20  21
ENDBRANCH  18  20
ENDBRANCH  10  18
ENDBRANCH   4   5
ENDBRANCH   2   3
ENDBRANCH   1   2
BRANCH   1  27
HETATM   27  C9  UNL     1      73.947 112.952  17.192  1.00  0.00     0.084 A 
HETATM   28  N3  UNL     1      74.358 112.048  16.295  1.00  0.00    -0.311 N 
HETATM   29  C10 UNL     1      73.597 110.979  15.964  1.00  0.00     0.277 A 
ATOM     30  H3  UNL     1      75.268 112.168  15.850  1.00  0.00     0.170 HD
HETATM   31  O1  UNL     1      73.950 110.113  15.131  1.00  0.00    -0.266 OA
HETATM   32  C11 UNL     1      72.385 110.856  16.582  1.00  0.00     0.144 A 
HETATM   33  N4  UNL     1      71.372 109.941  16.510  1.00  0.00    -0.292 N 
HETATM   34  C25 UNL     1      71.994 111.805  17.498  1.00  0.00     0.084 A 
HETATM   35  N5  UNL     1      70.396 110.274  17.321  1.00  0.00    -0.300 N 
ATOM     36  H4  UNL     1      71.375 109.116  15.910  1.00  0.00     0.187 HD
HETATM   37  C24 UNL     1      70.752 111.409  17.936  1.00  0.00     0.142 A 
HETATM   38  N6  UNL     1      72.767 112.850  17.806  1.00  0.00    -0.343 N 
ATOM     39  H6  UNL     1      72.466 113.547  18.487  1.00  0.00     0.167 HD
BRANCH  35  40
HETATM   40  C12 UNL     1      69.171 109.554  17.518  1.00  0.00     0.153 C 
BRANCH  40  41
HETATM   41  C13 UNL     1      68.181 110.084  16.501  1.00  0.00     0.060 C 
BRANCH  41  42
HETATM   42  C14 UNL     1      67.763 109.062  15.511  1.00  0.00    -0.056 A 
HETATM   43  C15 UNL     1      66.602 109.251  14.780  1.00  0.00     0.008 A 
HETATM   44  C16 UNL     1      66.208 108.304  13.862  1.00  0.00     0.013 A 
HETATM   45  C17 UNL     1      66.927 107.149  13.628  1.00  0.00    -0.026 A 
HETATM   46  C18 UNL     1      66.535 106.199  12.709  1.00  0.00     0.012 A 
HETATM   47  C22 UNL     1      68.088 106.960  14.359  1.00  0.00    -0.025 A 
HETATM   48  C19 UNL     1      67.265 105.032  12.475  1.00  0.00     0.001 A 
HETATM   49  C20 UNL     1      68.425 104.864  13.220  1.00  0.00     0.001 A 
HETATM   50  C21 UNL     1      68.811 105.813  14.134  1.00  0.00     0.012 A 
HETATM   51  C23 UNL     1      68.492 107.913  15.290  1.00  0.00     0.019 A 
ENDBRANCH  41  42
ENDBRANCH  40  41
ENDBRANCH  35  40
ENDBRANCH   1  27
TORSDOF 15
ENDMDL
MODEL 5
REMARK VINA RESULT: -9.262700228      3.049     11.575
REMARK  15 active torsions:
REMARK  status: ('A' for Active; 'I' for Inactive)
REMARK    1  A    between atoms: C2_2  and  N1_3 
REMARK    2  A    between atoms: N1_3  and  C3_5 
REMARK    3  A    between atoms: C4_8  and  C5_9 
REMARK    4  A    between atoms: C6_10  and  C7_11 
REMARK    5  A    between atoms: C7_11  and  C8_12 
REMARK    6  A    between atoms: C8_12  and  C9_13 
REMARK    7  A    between atoms: N5_21  and  C12_22 
REMARK    8  A    between atoms: C12_22  and  C13_23 
REMARK    9  A    between atoms: C13_23  and  C14_24 
REMARK   10  A    between atoms: C26_40  and  N8_41 
REMARK   11  A    between atoms: N8_41  and  C27_43 
REMARK   12  A    between atoms: C27_43  and  C28_44 
REMARK   13  A    between atoms: C28_44  and  N9_45 
REMARK   14  A    between atoms: N9_45  and  C29_46 
REMARK   15  A    between atoms: N9_45  and  C31_48 
ROOT
HETATM    1  C8  UNL     1      73.225 108.145  13.299  1.00  0.00     0.080 C 
ENDROOT
BRANCH   1   2
HETATM    2  C7  UNL     1      72.798 106.871  13.965  1.00  0.00     0.035 C 
BRANCH   2   3
HETATM    3  C6  UNL     1      71.316 106.811  14.046  1.00  0.00    -0.022 C 
HETATM    4  C5  UNL     1      70.595 107.613  13.308  1.00  0.00     0.045 C 
BRANCH   4   5
HETATM    5  C4  UNL     1      69.140 107.624  13.321  1.00  0.00     0.136 A 
HETATM    6  N2  UNL     1      68.426 106.598  12.806  1.00  0.00    -0.176 N 
HETATM    7  C3  UNL     1      67.083 106.582  12.810  1.00  0.00     0.694 A 
ATOM      8  H2  UNL     1      68.926 105.807  12.401  1.00  0.00     0.186 HD
HETATM    9  N10 UNL     1      66.425 107.633  13.348  1.00  0.00    -0.022 N 
HETATM   10  C26 UNL     1      67.092 108.660  13.863  1.00  0.00     0.694 A 
ATOM     11  H10 UNL     1      65.405 107.637  13.359  1.00  0.00     0.203 HD
HETATM   12  N7  UNL     1      68.463 108.644  13.843  1.00  0.00    -0.176 N 
ATOM     13  H7  UNL     1      68.976 109.432  14.238  1.00  0.00     0.186 HD
BRANCH   7  14
HETATM   14  N1  UNL     1      66.435 105.583  12.310  1.00  0.00    -0.226 N 
ATOM     15  H1  UNL     1      65.537 105.760  11.861  1.00  0.00     0.177 HD
BRANCH  14  16
HETATM   16  C2  UNL     1      66.924 104.228  12.358  1.00  0.00     0.133 C 
HETATM   17  C1  UNL     1      67.095 103.631  10.978  1.00  0.00     0.027 C 
ENDBRANCH  14  16
ENDBRANCH   7  14
BRANCH  10  18
HETATM   18  N8  UNL     1      66.492 109.662  14.376  1.00  0.00    -0.221 N 
ATOM     19  H8  UNL     1      65.481 109.608  14.495  1.00  0.00     0.178 HD
BRANCH  18  20
HETATM   20  C27 UNL     1      67.155 110.857  14.796  1.00  0.00     0.182 C 
BRANCH  20  21
HETATM   21  C28 UNL     1      67.723 110.791  16.171  1.00  0.00     0.083 C 
BRANCH  21  22
HETATM   22  N9  UNL     1      69.077 111.111  16.278  1.00  0.00    -0.373 N 
BRANCH  22  23
HETATM   23  C29 UNL     1      69.796 110.201  17.186  1.00  0.00     0.122 C 
HETATM   24  C30 UNL     1      68.844 109.161  17.701  1.00  0.00     0.027 C 
ENDBRANCH  22  23
BRANCH  22  25
HETATM   25  C31 UNL     1      69.557 112.423  16.368  1.00  0.00     0.058 C 
HETATM   26  C32 UNL     1      69.874 112.919  17.767  1.00  0.00     0.055 C 
ENDBRANCH  22  25
ENDBRANCH  21  22
ENDBRANCH  20  21
ENDBRANCH  18  20
ENDBRANCH  10  18
ENDBRANCH   4   5
ENDBRANCH   2   3
ENDBRANCH   1   2
BRANCH   1  27
HETATM   27  C9  UNL     1      73.839 109.014  14.351  1.00  0.00     0.084 A 
HETATM   28  N3  UNL     1      75.089 108.779  14.770  1.00  0.00    -0.311 N 
HETATM   29  C10 UNL     1      75.674 109.545  15.719  1.00  0.00     0.277 A 
ATOM     30  H3  UNL     1      75.612 108.004  14.363  1.00  0.00     0.170 HD
HETATM   31  O1  UNL     1      76.841 109.357  16.135  1.00  0.00    -0.266 OA
HETATM   32  C11 UNL     1      74.939 110.573  16.239  1.00  0.00     0.144 A 
HETATM   33  N4  UNL     1      75.182 111.531  17.182  1.00  0.00    -0.292 N 
HETATM   34  C25 UNL     1      73.657 110.784  15.785  1.00  0.00     0.084 A 
HETATM   35  N5  UNL     1      74.134 112.306  17.329  1.00  0.00    -0.300 N 
ATOM     36  H4  UNL     1      76.056 111.629  17.700  1.00  0.00     0.187 HD
HETATM   37  C24 UNL     1      73.189 111.870  16.486  1.00  0.00     0.142 A 
HETATM   38  N6  UNL     1      73.105 110.011  14.846  1.00  0.00    -0.343 N 
ATOM     39  H6  UNL     1      72.154 110.178  14.518  1.00  0.00     0.167 HD
BRANCH  35  40
HETATM   40  C12 UNL     1      74.019 113.420  18.226  1.00  0.00     0.153 C 
BRANCH  40  41
HETATM   41  C13 UNL     1      75.136 114.381  17.878  1.00  0.00     0.060 C 
BRANCH  41  42
HETATM   42  C14 UNL     1      75.529 115.250  19.014  1.00  0.00    -0.056 A 
HETATM   43  C15 UNL     1      76.674 114.960  19.736  1.00  0.00     0.008 A 
HETATM   44  C16 UNL     1      77.041 115.762  20.793  1.00  0.00     0.013 A 
HETATM   45  C17 UNL     1      76.308 116.866  21.179  1.00  0.00    -0.026 A 
HETATM   46  C18 UNL     1      76.673 117.671  22.237  1.00  0.00     0.012 A 
HETATM   47  C22 UNL     1      75.162 117.157  20.457  1.00  0.00    -0.025 A 
HETATM   48  C19 UNL     1      75.930 118.788  22.625  1.00  0.00     0.001 A 
HETATM   49  C20 UNL     1      74.785 119.060  21.886  1.00  0.00     0.001 A 
HETATM   50  C21 UNL     1      74.426 118.254  20.834  1.00  0.00     0.012 A 
HETATM   51  C23 UNL     1      74.785 116.350  19.387  1.00  0.00     0.019 A 
ENDBRANCH  41  42
ENDBRANCH  40  41
ENDBRANCH  35  40
ENDBRANCH   1  27
TORSDOF 15
ENDMDL
