MODEL 1
REMARK VINA RESULT: -9.948730708      0.000      0.000
REMARK  16 active torsions:
REMARK  status: ('A' for Active; 'I' for Inactive)
REMARK    1  A    between atoms: O1_2  and  C2_3 
REMARK    2  A    between atoms: C4_5  and  C5_6 
REMARK    3  A    between atoms: C5_6  and  C6_7 
REMARK    4  A    between atoms: C6_7  and  C7_8 
REMARK    5  A    between atoms: C7_8  and  O2_9 
REMARK    6  A    between atoms: C7_8  and  N1_11 
REMARK    7  A    between atoms: N1_11  and  C8_13 
REMARK    8  A    between atoms: C8_13  and  C9_14 
REMARK    9  A    between atoms: C16_23  and  O3_24 
REMARK   10  A    between atoms: O3_24  and  C17_25 
REMARK   11  A    between atoms: C17_25  and  C18_26 
REMARK   12  A    between atoms: C19_31  and  C20_32 
REMARK   13  A    between atoms: C20_32  and  N5_33 
REMARK   14  A    between atoms: N8_38  and  C22_39 
REMARK   15  A    between atoms: C22_39  and  C23_40 
REMARK   16  A    between atoms: C23_40  and  C24_41 
ROOT
HETATM    1  C18 UNL     1      73.417 114.234  17.027  1.00  0.00     0.124 A 
HETATM    2  N3  UNL     1      72.845 114.548  15.861  1.00  0.00    -0.286 N 
ATOM      3  H3  UNL     1      73.299 114.461  14.952  1.00  0.00     0.188 HD
HETATM    4  N4  UNL     1      71.637 114.979  16.039  1.00  0.00    -0.286 N 
ATOM      5  H4  UNL     1      70.984 115.283  15.316  1.00  0.00     0.188 HD
HETATM    6  C19 UNL     1      71.411 114.947  17.367  1.00  0.00     0.117 A 
HETATM    7  N8  UNL     1      72.488 114.491  18.017  1.00  0.00    -0.321 N 
ENDROOT
BRANCH   1   8
HETATM    8  C17 UNL     1      74.754 113.726  17.378  1.00  0.00     0.253 C 
BRANCH   8   9
HETATM    9  O3  UNL     1      74.814 112.435  17.840  1.00  0.00    -0.341 OA
BRANCH   9  10
HETATM   10  C16 UNL     1      74.742 111.259  17.168  1.00  0.00     0.102 A 
HETATM   11  C2  UNL     1      73.565 110.497  17.261  1.00  0.00     0.102 A 
HETATM   12  C3  UNL     1      73.430 109.311  16.607  1.00  0.00     0.051 A 
HETATM   13  C4  UNL     1      74.440 108.750  15.793  1.00  0.00    -0.033 A 
HETATM   14  C14 UNL     1      75.564 109.507  15.719  1.00  0.00     0.014 A 
HETATM   15  C15 UNL     1      75.723 110.727  16.384  1.00  0.00     0.040 A 
BRANCH  11  16
HETATM   16  O1  UNL     1      72.546 111.019  18.055  1.00  0.00    -0.353 OA
HETATM   17  C1  UNL     1      71.229 111.197  17.575  1.00  0.00     0.210 C 
ENDBRANCH  11  16
BRANCH  13  18
HETATM   18  C5  UNL     1      74.152 107.530  15.072  1.00  0.00     0.015 C 
BRANCH  18  19
HETATM   19  C6  UNL     1      73.228 107.018  14.395  1.00  0.00     0.056 C 
BRANCH  19  20
HETATM   20  C7  UNL     1      71.962 107.338  13.883  1.00  0.00     0.135 C 
BRANCH  20  21
HETATM   21  O2  UNL     1      71.991 107.860  12.646  1.00  0.00    -0.346 OA
ATOM     22  H2  UNL     1      72.106 108.803  12.629  1.00  0.00     0.219 HD
ENDBRANCH  20  21
BRANCH  20  23
HETATM   23  N1  UNL     1      70.679 107.234  14.392  1.00  0.00    -0.367 N 
ATOM     24  H1  UNL     1      70.520 107.017  15.376  1.00  0.00     0.161 HD
BRANCH  23  25
HETATM   25  C8  UNL     1      69.540 107.447  13.457  1.00  0.00     0.161 C 
BRANCH  25  26
HETATM   26  C9  UNL     1      68.700 108.497  14.068  1.00  0.00    -0.025 A 
HETATM   27  C10 UNL     1      67.334 108.321  14.149  1.00  0.00     0.011 A 
HETATM   28  C11 UNL     1      66.600 109.339  14.744  1.00  0.00     0.018 A 
HETATM   29  C12 UNL     1      67.180 110.478  15.237  1.00  0.00     0.087 A 
HETATM   30  N2  UNL     1      68.510 110.630  15.148  1.00  0.00    -0.375 N 
HETATM   31  C13 UNL     1      69.230 109.660  14.579  1.00  0.00     0.096 A 
ATOM     32  H2  UNL     1      68.963 111.469  15.509  1.00  0.00     0.164 HD
ENDBRANCH  25  26
ENDBRANCH  23  25
ENDBRANCH  20  23
ENDBRANCH  19  20
ENDBRANCH  18  19
ENDBRANCH  13  18
ENDBRANCH   9  10
ENDBRANCH   8   9
ENDBRANCH   1   8
BRANCH   7  33
HETATM   33  C22 UNL     1      72.679 114.316  19.429  1.00  0.00     0.136 C 
BRANCH  33  34
HETATM   34  C23 UNL     1      72.400 115.565  20.227  1.00  0.00     0.061 C 
BRANCH  34  35
HETATM   35  C24 UNL     1      73.520 116.519  19.928  1.00  0.00    -0.029 A 
HETATM   36  C25 UNL     1      73.384 117.770  19.444  1.00  0.00     0.096 A 
HETATM   37  N9  UNL     1      74.633 118.296  19.326  1.00  0.00    -0.365 N 
HETATM   38  C26 UNL     1      75.529 117.363  19.739  1.00  0.00     0.042 A 
ATOM     39  H9  UNL     1      74.858 119.231  18.985  1.00  0.00     0.165 HD
HETATM   40  C27 UNL     1      76.898 117.323  19.847  1.00  0.00     0.030 A 
HETATM   41  C31 UNL     1      74.831 116.211  20.130  1.00  0.00    -0.002 A 
HETATM   42  C28 UNL     1      77.592 116.221  20.313  1.00  0.00     0.002 A 
HETATM   43  C29 UNL     1      76.871 115.108  20.687  1.00  0.00     0.001 A 
HETATM   44  C30 UNL     1      75.492 115.098  20.598  1.00  0.00     0.014 A 
ENDBRANCH  34  35
ENDBRANCH  33  34
ENDBRANCH   7  33
BRANCH   6  45
HETATM   45  C20 UNL     1      70.134 115.365  18.030  1.00  0.00     0.199 C 
BRANCH  45  46
HETATM   46  N5  UNL     1      69.965 116.795  17.971  1.00  0.00    -0.360 N 
HETATM   47  C21 UNL     1      69.497 117.484  18.939  1.00  0.00     0.197 C 
HETATM   48  N6  UNL     1      69.361 118.888  18.806  1.00  0.00    -0.067 NA
HETATM   49  N7  UNL     1      69.112 116.856  20.148  1.00  0.00    -0.067 NA
ATOM     50  H5  UNL     1      70.232 117.281  17.114  1.00  0.00     0.162 HD
ENDBRANCH  45  46
ENDBRANCH   6  45
TORSDOF 16
ENDMDL
MODEL 2
REMARK VINA RESULT: -9.770004914      2.981     10.711
REMARK  16 active torsions:
REMARK  status: ('A' for Active; 'I' for Inactive)
REMARK    1  A    between atoms: O1_2  and  C2_3 
REMARK    2  A    between atoms: C4_5  and  C5_6 
REMARK    3  A    between atoms: C5_6  and  C6_7 
REMARK    4  A    between atoms: C6_7  and  C7_8 
REMARK    5  A    between atoms: C7_8  and  O2_9 
REMARK    6  A    between atoms: C7_8  and  N1_11 
REMARK    7  A    between atoms: N1_11  and  C8_13 
REMARK    8  A    between atoms: C8_13  and  C9_14 
REMARK    9  A    between atoms: C16_23  and  O3_24 
REMARK   10  A    between atoms: O3_24  and  C17_25 
REMARK   11  A    between atoms: C17_25  and  C18_26 
REMARK   12  A    between atoms: C19_31  and  C20_32 
REMARK   13  A    between atoms: C20_32  and  N5_33 
REMARK   14  A    between atoms: N8_38  and  C22_39 
REMARK   15  A    between atoms: C22_39  and  C23_40 
REMARK   16  A    between atoms: C23_40  and  C24_41 
ROOT
HETATM    1  C18 UNL     1      71.839 111.119  17.585  1.00  0.00     0.124 A 
HETATM    2  N3  UNL     1      73.155 110.932  17.716  1.00  0.00    -0.286 N 
ATOM      3  H3  UNL     1      73.713 111.274  18.498  1.00  0.00     0.188 HD
HETATM    4  N4  UNL     1      73.629 110.257  16.717  1.00  0.00    -0.286 N 
ATOM      5  H4  UNL     1      74.600 109.979  16.575  1.00  0.00     0.188 HD
HETATM    6  C19 UNL     1      72.587 109.996  15.904  1.00  0.00     0.117 A 
HETATM    7  N8  UNL     1      71.458 110.512  16.404  1.00  0.00    -0.321 N 
ENDROOT
BRANCH   1   8
HETATM    8  C17 UNL     1      70.843 111.819  18.414  1.00  0.00     0.253 C 
BRANCH   8   9
HETATM    9  O3  UNL     1      71.335 112.602  19.428  1.00  0.00    -0.341 OA
BRANCH   9  10
HETATM   10  C16 UNL     1      71.822 113.867  19.400  1.00  0.00     0.102 A 
HETATM   11  C2  UNL     1      71.013 114.915  19.873  1.00  0.00     0.102 A 
HETATM   12  C3  UNL     1      71.446 116.206  19.875  1.00  0.00     0.051 A 
HETATM   13  C4  UNL     1      72.720 116.601  19.411  1.00  0.00    -0.033 A 
HETATM   14  C14 UNL     1      73.482 115.570  18.962  1.00  0.00     0.014 A 
HETATM   15  C15 UNL     1      73.055 114.239  18.950  1.00  0.00     0.040 A 
BRANCH  11  16
HETATM   16  O1  UNL     1      69.748 114.562  20.340  1.00  0.00    -0.353 OA
HETATM   17  C1  UNL     1      68.568 115.177  19.862  1.00  0.00     0.210 C 
ENDBRANCH  11  16
BRANCH  13  18
HETATM   18  C5  UNL     1      73.108 117.987  19.546  1.00  0.00     0.015 C 
BRANCH  18  19
HETATM   19  C6  UNL     1      73.851 118.705  20.259  1.00  0.00     0.056 C 
BRANCH  19  20
HETATM   20  C7  UNL     1      74.279 118.825  21.590  1.00  0.00     0.135 C 
BRANCH  20  21
HETATM   21  O2  UNL     1      73.838 119.933  22.206  1.00  0.00    -0.346 OA
ATOM     22  H2  UNL     1      73.990 119.938  23.144  1.00  0.00     0.219 HD
ENDBRANCH  20  21
BRANCH  20  23
HETATM   23  N1  UNL     1      75.072 118.036  22.405  1.00  0.00    -0.367 N 
ATOM     24  H1  UNL     1      74.666 117.489  23.164  1.00  0.00     0.161 HD
BRANCH  23  25
HETATM   25  C8  UNL     1      76.537 118.012  22.138  1.00  0.00     0.161 C 
BRANCH  25  26
HETATM   26  C9  UNL     1      76.742 117.009  21.073  1.00  0.00    -0.025 A 
HETATM   27  C10 UNL     1      76.436 115.685  21.312  1.00  0.00     0.011 A 
HETATM   28  C11 UNL     1      76.640 114.791  20.268  1.00  0.00     0.018 A 
HETATM   29  C12 UNL     1      77.124 115.179  19.047  1.00  0.00     0.087 A 
HETATM   30  N2  UNL     1      77.415 116.471  18.835  1.00  0.00    -0.375 N 
HETATM   31  C13 UNL     1      77.224 117.343  19.829  1.00  0.00     0.096 A 
ATOM     32  H2  UNL     1      77.776 116.782  17.934  1.00  0.00     0.164 HD
ENDBRANCH  25  26
ENDBRANCH  23  25
ENDBRANCH  20  23
ENDBRANCH  19  20
ENDBRANCH  18  19
ENDBRANCH  13  18
ENDBRANCH   9  10
ENDBRANCH   8   9
ENDBRANCH   1   8
BRANCH   7  33
HETATM   33  C22 UNL     1      70.133 110.478  15.853  1.00  0.00     0.136 C 
BRANCH  33  34
HETATM   34  C23 UNL     1      69.269 109.394  16.447  1.00  0.00     0.061 C 
BRANCH  34  35
HETATM   35  C24 UNL     1      68.111 109.212  15.510  1.00  0.00    -0.029 A 
HETATM   36  C25 UNL     1      67.144 110.119  15.264  1.00  0.00     0.096 A 
HETATM   37  N9  UNL     1      66.296 109.569  14.353  1.00  0.00    -0.365 N 
HETATM   38  C26 UNL     1      66.747 108.325  14.047  1.00  0.00     0.042 A 
ATOM     39  H9  UNL     1      65.462 110.013  13.968  1.00  0.00     0.165 HD
HETATM   40  C27 UNL     1      66.320 107.323  13.211  1.00  0.00     0.030 A 
HETATM   41  C31 UNL     1      67.915 108.077  14.783  1.00  0.00    -0.002 A 
HETATM   42  C28 UNL     1      66.978 106.114  13.073  1.00  0.00     0.002 A 
HETATM   43  C29 UNL     1      68.122 105.908  13.812  1.00  0.00     0.001 A 
HETATM   44  C30 UNL     1      68.594 106.885  14.668  1.00  0.00     0.014 A 
ENDBRANCH  34  35
ENDBRANCH  33  34
ENDBRANCH   7  33
BRANCH   6  45
HETATM   45  C20 UNL     1      72.675 109.235  14.616  1.00  0.00     0.199 C 
BRANCH  45  46
HETATM   46  N5  UNL     1      72.649 107.813  14.853  1.00  0.00    -0.360 N 
HETATM   47  C21 UNL     1      72.137 106.978  14.035  1.00  0.00     0.197 C 
HETATM   48  N6  UNL     1      72.151 105.593  14.337  1.00  0.00    -0.067 NA
HETATM   49  N7  UNL     1      71.552 107.422  12.825  1.00  0.00    -0.067 NA
ATOM     50  H5  UNL     1      73.062 107.457  15.716  1.00  0.00     0.162 HD
ENDBRANCH  45  46
ENDBRANCH   6  45
TORSDOF 16
ENDMDL
MODEL 3
REMARK VINA RESULT: -9.759633242      2.500      9.661
REMARK  16 active torsions:
REMARK  status: ('A' for Active; 'I' for Inactive)
REMARK    1  A    between atoms: O1_2  and  C2_3 
REMARK    2  A    between atoms: C4_5  and  C5_6 
REMARK    3  A    between atoms: C5_6  and  C6_7 
REMARK    4  A    between atoms: C6_7  and  C7_8 
REMARK    5  A    between atoms: C7_8  and  O2_9 
REMARK    6  A    between atoms: C7_8  and  N1_11 
REMARK    7  A    between atoms: N1_11  and  C8_13 
REMARK    8  A    between atoms: C8_13  and  C9_14 
REMARK    9  A    between atoms: C16_23  and  O3_24 
REMARK   10  A    between atoms: O3_24  and  C17_25 
REMARK   11  A    between atoms: C17_25  and  C18_26 
REMARK   12  A    between atoms: C19_31  and  C20_32 
REMARK   13  A    between atoms: C20_32  and  N5_33 
REMARK   14  A    between atoms: N8_38  and  C22_39 
REMARK   15  A    between atoms: C22_39  and  C23_40 
REMARK   16  A    between atoms: C23_40  and  C24_41 
ROOT
HETATM    1  C18 UNL     1      71.519 112.551  15.629  1.00  0.00     0.124 A 
HETATM    2  N3  UNL     1      72.337 112.672  14.580  1.00  0.00    -0.286 N 
ATOM      3  H3  UNL     1      72.422 113.511  14.007  1.00  0.00     0.188 HD
HETATM    4  N4  UNL     1      73.007 111.581  14.387  1.00  0.00    -0.286 N 
ATOM      5  H4  UNL     1      73.697 111.410  13.656  1.00  0.00     0.188 HD
HETATM    6  C19 UNL     1      72.612 110.716  15.342  1.00  0.00     0.117 A 
HETATM    7  N8  UNL     1      71.691 111.277  16.134  1.00  0.00    -0.321 N 
ENDROOT
BRANCH   1   8
HETATM    8  C17 UNL     1      70.549 113.470  16.250  1.00  0.00     0.253 C 
BRANCH   8   9
HETATM    9  O3  UNL     1      71.074 114.539  16.933  1.00  0.00    -0.341 OA
BRANCH   9  10
HETATM   10  C16 UNL     1      72.200 114.633  17.682  1.00  0.00     0.102 A 
HETATM   11  C2  UNL     1      72.136 114.299  19.046  1.00  0.00     0.102 A 
HETATM   12  C3  UNL     1      73.234 114.369  19.849  1.00  0.00     0.051 A 
HETATM   13  C4  UNL     1      74.508 114.775  19.395  1.00  0.00    -0.033 A 
HETATM   14  C14 UNL     1      74.542 115.089  18.074  1.00  0.00     0.014 A 
HETATM   15  C15 UNL     1      73.427 115.026  17.233  1.00  0.00     0.040 A 
BRANCH  11  16
HETATM   16  O1  UNL     1      70.894 113.893  19.530  1.00  0.00    -0.353 OA
HETATM   17  C1  UNL     1      69.995 114.790  20.148  1.00  0.00     0.210 C 
ENDBRANCH  11  16
BRANCH  13  18
HETATM   18  C5  UNL     1      75.622 114.722  20.315  1.00  0.00     0.015 C 
BRANCH  18  19
HETATM   19  C6  UNL     1      76.565 115.447  20.714  1.00  0.00     0.056 C 
BRANCH  19  20
HETATM   20  C7  UNL     1      77.058 116.752  20.566  1.00  0.00     0.135 C 
BRANCH  20  21
HETATM   21  O2  UNL     1      78.367 116.874  20.839  1.00  0.00    -0.346 OA
ATOM     22  H2  UNL     1      78.857 117.345  20.174  1.00  0.00     0.219 HD
ENDBRANCH  20  21
BRANCH  20  23
HETATM   23  N1  UNL     1      76.471 117.951  20.202  1.00  0.00    -0.367 N 
ATOM     24  H1  UNL     1      76.668 118.380  19.297  1.00  0.00     0.161 HD
BRANCH  23  25
HETATM   25  C8  UNL     1      75.543 118.595  21.172  1.00  0.00     0.161 C 
BRANCH  25  26
HETATM   26  C9  UNL     1      74.180 118.353  20.658  1.00  0.00    -0.025 A 
HETATM   27  C10 UNL     1      73.159 118.060  21.539  1.00  0.00     0.011 A 
HETATM   28  C11 UNL     1      71.897 117.852  20.995  1.00  0.00     0.018 A 
HETATM   29  C12 UNL     1      71.650 117.929  19.650  1.00  0.00     0.087 A 
HETATM   30  N2  UNL     1      72.657 118.215  18.812  1.00  0.00    -0.375 N 
HETATM   31  C13 UNL     1      73.876 118.417  19.318  1.00  0.00     0.096 A 
ATOM     32  H2  UNL     1      72.495 118.277  17.807  1.00  0.00     0.164 HD
ENDBRANCH  25  26
ENDBRANCH  23  25
ENDBRANCH  20  23
ENDBRANCH  19  20
ENDBRANCH  18  19
ENDBRANCH  13  18
ENDBRANCH   9  10
ENDBRANCH   8   9
ENDBRANCH   1   8
BRANCH   7  33
HETATM   33  C22 UNL     1      71.000 110.704  17.255  1.00  0.00     0.136 C 
BRANCH  33  34
HETATM   34  C23 UNL     1      70.304 109.407  16.924  1.00  0.00     0.061 C 
BRANCH  34  35
HETATM   35  C24 UNL     1      68.920 109.772  16.471  1.00  0.00    -0.029 A 
HETATM   36  C25 UNL     1      68.221 110.856  16.862  1.00  0.00     0.096 A 
HETATM   37  N9  UNL     1      67.024 110.821  16.215  1.00  0.00    -0.365 N 
HETATM   38  C26 UNL     1      66.997 109.714  15.430  1.00  0.00     0.042 A 
ATOM     39  H9  UNL     1      66.276 111.508  16.305  1.00  0.00     0.165 HD
HETATM   40  C27 UNL     1      66.079 109.166  14.567  1.00  0.00     0.030 A 
HETATM   41  C31 UNL     1      68.209 109.024  15.581  1.00  0.00    -0.002 A 
HETATM   42  C28 UNL     1      66.299 107.995  13.864  1.00  0.00     0.002 A 
HETATM   43  C29 UNL     1      67.503 107.347  14.039  1.00  0.00     0.001 A 
HETATM   44  C30 UNL     1      68.460 107.857  14.896  1.00  0.00     0.014 A 
ENDBRANCH  34  35
ENDBRANCH  33  34
ENDBRANCH   7  33
BRANCH   6  45
HETATM   45  C20 UNL     1      73.129 109.318  15.500  1.00  0.00     0.199 C 
BRANCH  45  46
HETATM   46  N5  UNL     1      74.447 109.318  16.085  1.00  0.00    -0.360 N 
HETATM   47  C21 UNL     1      75.519 109.293  15.391  1.00  0.00     0.197 C 
HETATM   48  N6  UNL     1      76.779 109.295  16.038  1.00  0.00    -0.067 NA
HETATM   49  N7  UNL     1      75.460 109.264  13.977  1.00  0.00    -0.067 NA
ATOM     50  H5  UNL     1      74.527 109.338  17.101  1.00  0.00     0.162 HD
ENDBRANCH  45  46
ENDBRANCH   6  45
TORSDOF 16
ENDMDL
MODEL 4
REMARK VINA RESULT: -9.748111426      2.420      9.947
REMARK  16 active torsions:
REMARK  status: ('A' for Active; 'I' for Inactive)
REMARK    1  A    between atoms: O1_2  and  C2_3 
REMARK    2  A    between atoms: C4_5  and  C5_6 
REMARK    3  A    between atoms: C5_6  and  C6_7 
REMARK    4  A    between atoms: C6_7  and  C7_8 
REMARK    5  A    between atoms: C7_8  and  O2_9 
REMARK    6  A    between atoms: C7_8  and  N1_11 
REMARK    7  A    between atoms: N1_11  and  C8_13 
REMARK    8  A    between atoms: C8_13  and  C9_14 
REMARK    9  A    between atoms: C16_23  and  O3_24 
REMARK   10  A    between atoms: O3_24  and  C17_25 
REMARK   11  A    between atoms: C17_25  and  C18_26 
REMARK   12  A    between atoms: C19_31  and  C20_32 
REMARK   13  A    between atoms: C20_32  and  N5_33 
REMARK   14  A    between atoms: N8_38  and  C22_39 
REMARK   15  A    between atoms: C22_39  and  C23_40 
REMARK   16  A    between atoms: C23_40  and  C24_41 
ROOT
HETATM    1  C18 UNL     1      72.284 107.803  14.632  1.00  0.00     0.124 A 
HETATM    2  N3  UNL     1      73.448 107.460  15.191  1.00  0.00    -0.286 N 
ATOM      3  H3  UNL     1      74.127 108.122  15.568  1.00  0.00     0.188 HD
HETATM    4  N4  UNL     1      73.600 106.174  15.190  1.00  0.00    -0.286 N 
ATOM      5  H4  UNL     1      74.397 105.653  15.558  1.00  0.00     0.188 HD
HETATM    6  C19 UNL     1      72.499 105.658  14.609  1.00  0.00     0.117 A 
HETATM    7  N8  UNL     1      71.657 106.634  14.248  1.00  0.00    -0.321 N 
ENDROOT
BRANCH   1   8
HETATM    8  C17 UNL     1      71.647 109.106  14.374  1.00  0.00     0.253 C 
BRANCH   8   9
HETATM    9  O3  UNL     1      72.242 110.200  14.950  1.00  0.00    -0.341 OA
BRANCH   9  10
HETATM   10  C16 UNL     1      71.796 111.024  15.931  1.00  0.00     0.102 A 
HETATM   11  C2  UNL     1      72.285 110.849  17.237  1.00  0.00     0.102 A 
HETATM   12  C3  UNL     1      71.878 111.646  18.263  1.00  0.00     0.051 A 
HETATM   13  C4  UNL     1      70.949 112.699  18.112  1.00  0.00    -0.033 A 
HETATM   14  C14 UNL     1      70.495 112.848  16.841  1.00  0.00     0.014 A 
HETATM   15  C15 UNL     1      70.898 112.040  15.774  1.00  0.00     0.040 A 
BRANCH  11  16
HETATM   16  O1  UNL     1      73.204 109.819  17.425  1.00  0.00    -0.353 OA
HETATM   17  C1  UNL     1      74.600 110.035  17.379  1.00  0.00     0.210 C 
ENDBRANCH  11  16
BRANCH  13  18
HETATM   18  C5  UNL     1      70.662 113.540  19.253  1.00  0.00     0.015 C 
BRANCH  18  19
HETATM   19  C6  UNL     1      70.176 114.669  19.508  1.00  0.00     0.056 C 
BRANCH  19  20
HETATM   20  C7  UNL     1      70.443 116.030  19.296  1.00  0.00     0.135 C 
BRANCH  20  21
HETATM   21  O2  UNL     1      69.425 116.841  19.624  1.00  0.00    -0.346 OA
ATOM     22  H2  UNL     1      69.318 116.965  20.560  1.00  0.00     0.219 HD
ENDBRANCH  20  21
BRANCH  20  23
HETATM   23  N1  UNL     1      71.542 116.715  18.809  1.00  0.00    -0.367 N 
ATOM     24  H1  UNL     1      71.465 117.320  17.992  1.00  0.00     0.161 HD
BRANCH  23  25
HETATM   25  C8  UNL     1      72.840 116.541  19.518  1.00  0.00     0.161 C 
BRANCH  25  26
HETATM   26  C9  UNL     1      73.570 115.489  18.782  1.00  0.00    -0.025 A 
HETATM   27  C10 UNL     1      74.473 114.688  19.451  1.00  0.00     0.011 A 
HETATM   28  C11 UNL     1      75.120 113.708  18.707  1.00  0.00     0.018 A 
HETATM   29  C12 UNL     1      74.891 113.525  17.369  1.00  0.00     0.087 A 
HETATM   30  N2  UNL     1      74.009 114.315  16.738  1.00  0.00    -0.375 N 
HETATM   31  C13 UNL     1      73.379 115.261  17.439  1.00  0.00     0.096 A 
ATOM     32  H2  UNL     1      73.823 114.195  15.742  1.00  0.00     0.164 HD
ENDBRANCH  25  26
ENDBRANCH  23  25
ENDBRANCH  20  23
ENDBRANCH  19  20
ENDBRANCH  18  19
ENDBRANCH  13  18
ENDBRANCH   9  10
ENDBRANCH   8   9
ENDBRANCH   1   8
BRANCH   7  33
HETATM   33  C22 UNL     1      70.386 106.526  13.589  1.00  0.00     0.136 C 
BRANCH  33  34
HETATM   34  C23 UNL     1      69.232 106.361  14.546  1.00  0.00     0.061 C 
BRANCH  34  35
HETATM   35  C24 UNL     1      68.391 107.597  14.414  1.00  0.00    -0.029 A 
HETATM   36  C25 UNL     1      67.649 107.937  13.339  1.00  0.00     0.096 A 
HETATM   37  N9  UNL     1      67.037 109.117  13.628  1.00  0.00    -0.365 N 
HETATM   38  C26 UNL     1      67.406 109.494  14.879  1.00  0.00     0.042 A 
ATOM     39  H9  UNL     1      66.408 109.630  13.010  1.00  0.00     0.165 HD
HETATM   40  C27 UNL     1      67.114 110.564  15.689  1.00  0.00     0.030 A 
HETATM   41  C31 UNL     1      68.279 108.528  15.401  1.00  0.00    -0.002 A 
HETATM   42  C28 UNL     1      67.633 110.720  16.961  1.00  0.00     0.002 A 
HETATM   43  C29 UNL     1      68.487 109.750  17.439  1.00  0.00     0.001 A 
HETATM   44  C30 UNL     1      68.813 108.653  16.664  1.00  0.00     0.014 A 
ENDBRANCH  34  35
ENDBRANCH  33  34
ENDBRANCH   7  33
BRANCH   6  45
HETATM   45  C20 UNL     1      72.247 104.198  14.393  1.00  0.00     0.199 C 
BRANCH  45  46
HETATM   46  N5  UNL     1      71.234 103.709  15.295  1.00  0.00    -0.360 N 
HETATM   47  C21 UNL     1      70.265 102.968  14.921  1.00  0.00     0.197 C 
HETATM   48  N6  UNL     1      69.307 102.525  15.867  1.00  0.00    -0.067 NA
HETATM   49  N7  UNL     1      70.136 102.582  13.565  1.00  0.00    -0.067 NA
ATOM     50  H5  UNL     1      71.296 103.967  16.280  1.00  0.00     0.162 HD
ENDBRANCH  45  46
ENDBRANCH   6  45
TORSDOF 16
ENDMDL
MODEL 5
REMARK VINA RESULT: -9.646768887      2.345      8.745
REMARK  16 active torsions:
REMARK  status: ('A' for Active; 'I' for Inactive)
REMARK    1  A    between atoms: O1_2  and  C2_3 
REMARK    2  A    between atoms: C4_5  and  C5_6 
REMARK    3  A    between atoms: C5_6  and  C6_7 
REMARK    4  A    between atoms: C6_7  and  C7_8 
REMARK    5  A    between atoms: C7_8  and  O2_9 
REMARK    6  A    between atoms: C7_8  and  N1_11 
REMARK    7  A    between atoms: N1_11  and  C8_13 
REMARK    8  A    between atoms: C8_13  and  C9_14 
REMARK    9  A    between atoms: C16_23  and  O3_24 
REMARK   10  A    between atoms: O3_24  and  C17_25 
REMARK   11  A    between atoms: C17_25  and  C18_26 
REMARK   12  A    between atoms: C19_31  and  C20_32 
REMARK   13  A    between atoms: C20_32  and  N5_33 
REMARK   14  A    between atoms: N8_38  and  C22_39 
REMARK   15  A    between atoms: C22_39  and  C23_40 
REMARK   16  A    between atoms: C23_40  and  C24_41 
ROOT
HETATM    1  C18 UNL     1      70.242 111.906  16.083  1.00  0.00     0.124 A 
HETATM    2  N3  UNL     1      69.218 112.049  16.930  1.00  0.00    -0.286 N 
ATOM      3  H3  UNL     1      68.997 112.910  17.430  1.00  0.00     0.188 HD
HETATM    4  N4  UNL     1      68.544 110.948  17.031  1.00  0.00    -0.286 N 
ATOM      5  H4  UNL     1      67.718 110.789  17.608  1.00  0.00     0.188 HD
HETATM    6  C19 UNL     1      69.148 110.053  16.225  1.00  0.00     0.117 A 
HETATM    7  N8  UNL     1      70.205 110.606  15.617  1.00  0.00    -0.321 N 
ENDROOT
BRANCH   1   8
HETATM    8  C17 UNL     1      71.302 112.825  15.635  1.00  0.00     0.253 C 
BRANCH   8   9
HETATM    9  O3  UNL     1      71.522 113.930  16.418  1.00  0.00    -0.341 OA
BRANCH   9  10
HETATM   10  C16 UNL     1      72.518 114.195  17.300  1.00  0.00     0.102 A 
HETATM   11  C2  UNL     1      72.261 114.049  18.674  1.00  0.00     0.102 A 
HETATM   12  C3  UNL     1      73.221 114.295  19.609  1.00  0.00     0.051 A 
HETATM   13  C4  UNL     1      74.532 114.711  19.289  1.00  0.00    -0.033 A 
HETATM   14  C14 UNL     1      74.753 114.842  17.955  1.00  0.00     0.014 A 
HETATM   15  C15 UNL     1      73.782 114.595  16.980  1.00  0.00     0.040 A 
BRANCH  11  16
HETATM   16  O1  UNL     1      70.977 113.639  19.029  1.00  0.00    -0.353 OA
HETATM   17  C1  UNL     1      70.093 114.468  19.755  1.00  0.00     0.210 C 
ENDBRANCH  11  16
BRANCH  13  18
HETATM   18  C5  UNL     1      75.495 114.854  20.358  1.00  0.00     0.015 C 
BRANCH  18  19
HETATM   19  C6  UNL     1      76.536 115.502  20.624  1.00  0.00     0.056 C 
BRANCH  19  20
HETATM   20  C7  UNL     1      77.044 116.806  20.541  1.00  0.00     0.135 C 
BRANCH  20  21
HETATM   21  O2  UNL     1      78.296 116.934  21.009  1.00  0.00    -0.346 OA
ATOM     22  H2  UNL     1      78.962 116.947  20.330  1.00  0.00     0.219 HD
ENDBRANCH  20  21
BRANCH  20  23
HETATM   23  N1  UNL     1      76.519 118.000  20.078  1.00  0.00    -0.367 N 
ATOM     24  H1  UNL     1      76.753 118.354  19.151  1.00  0.00     0.161 HD
BRANCH  23  25
HETATM   25  C8  UNL     1      75.602 118.752  20.979  1.00  0.00     0.161 C 
BRANCH  25  26
HETATM   26  C9  UNL     1      74.232 118.380  20.571  1.00  0.00    -0.025 A 
HETATM   27  C10 UNL     1      73.284 118.098  21.532  1.00  0.00     0.011 A 
HETATM   28  C11 UNL     1      72.010 117.766  21.086  1.00  0.00     0.018 A 
HETATM   29  C12 UNL     1      71.684 117.713  19.756  1.00  0.00     0.087 A 
HETATM   30  N2  UNL     1      72.621 117.991  18.838  1.00  0.00    -0.375 N 
HETATM   31  C13 UNL     1      73.850 118.312  19.251  1.00  0.00     0.096 A 
ATOM     32  H2  UNL     1      72.400 117.958  17.843  1.00  0.00     0.164 HD
ENDBRANCH  25  26
ENDBRANCH  23  25
ENDBRANCH  20  23
ENDBRANCH  19  20
ENDBRANCH  18  19
ENDBRANCH  13  18
ENDBRANCH   9  10
ENDBRANCH   8   9
ENDBRANCH   1   8
BRANCH   7  33
HETATM   33  C22 UNL     1      71.129 110.005  14.697  1.00  0.00     0.136 C 
BRANCH  33  34
HETATM   34  C23 UNL     1      71.801 108.772  15.249  1.00  0.00     0.061 C 
BRANCH  34  35
HETATM   35  C24 UNL     1      73.278 109.025  15.175  1.00  0.00    -0.029 A 
HETATM   36  C25 UNL     1      74.111 108.569  14.217  1.00  0.00     0.096 A 
HETATM   37  N9  UNL     1      75.357 109.027  14.512  1.00  0.00    -0.365 N 
HETATM   38  C26 UNL     1      75.282 109.762  15.652  1.00  0.00     0.042 A 
ATOM     39  H9  UNL     1      76.203 108.849  13.971  1.00  0.00     0.165 HD
HETATM   40  C27 UNL     1      76.190 110.458  16.411  1.00  0.00     0.030 A 
HETATM   41  C31 UNL     1      73.951 109.771  16.094  1.00  0.00    -0.002 A 
HETATM   42  C28 UNL     1      75.851 111.147  17.562  1.00  0.00     0.002 A 
HETATM   43  C29 UNL     1      74.533 111.133  17.964  1.00  0.00     0.001 A 
HETATM   44  C30 UNL     1      73.581 110.447  17.235  1.00  0.00     0.014 A 
ENDBRANCH  34  35
ENDBRANCH  33  34
ENDBRANCH   7  33
BRANCH   6  45
HETATM   45  C20 UNL     1      68.705 108.636  16.032  1.00  0.00     0.199 C 
BRANCH  45  46
HETATM   46  N5  UNL     1      68.409 108.371  14.645  1.00  0.00    -0.360 N 
HETATM   47  C21 UNL     1      67.326 108.739  14.079  1.00  0.00     0.197 C 
HETATM   48  N6  UNL     1      67.108 108.443  12.711  1.00  0.00    -0.067 NA
HETATM   49  N7  UNL     1      66.337 109.444  14.808  1.00  0.00    -0.067 NA
ATOM     50  H5  UNL     1      69.100 107.865  14.090  1.00  0.00     0.162 HD
ENDBRANCH  45  46
ENDBRANCH   6  45
TORSDOF 16
ENDMDL
